MODEL 1
REMARK VINA RESULT:     -11.0      0.000      0.000
REMARK SMILES C=CC[N@@H+](CC(=O)Nc1ccccc1)CC(=O)OCCOCCOC(=O)c1ccc(-c2c3nc(c(-c4c(F)c(F)c(F)c(F)c4F)c4ccc([nH]4)c(-c4c(F)c(F)c(F)c(F)c4F)c4nc(c(-c5c(F)c(F)c(F)c(F)c5F)c5ccc2[nH]5)C=C4)C=C3)cc1
REMARK SMILES IDX 20 1 19 2 18 3 16 4 17 5 15 6 4 7 3 9 2 10 1 11 5 12 6 13
REMARK SMILES IDX 7 14 8 15 9 17 10 18 14 19 11 20 13 21 12 22 21 23 22 24
REMARK SMILES IDX 23 25 24 26 25 27 26 28 27 29 28 30 89 31 29 32 88 33 30 34
REMARK SMILES IDX 31 35 32 36 82 37 33 38 87 39 81 40 83 41 34 42 86 43 80 44
REMARK SMILES IDX 79 45 35 47 67 48 47 49 66 50 48 51 51 52 65 53 84 54 49 55
REMARK SMILES IDX 50 56 64 58 85 59 52 60 36 61 37 62 45 63 38 64 39 65 43 66
REMARK SMILES IDX 46 67 40 68 41 69 44 70 42 71 68 72 69 73 77 74 70 75 71 76
REMARK SMILES IDX 75 77 78 78 72 79 73 80 76 81 74 82 53 83 54 84 62 85 55 86
REMARK SMILES IDX 56 87 60 88 63 89 57 90 58 91 61 92 59 93
REMARK H PARENT 4 8 8 16 83 46 51 57
REMARK Flexibility Score: inf
ROOT
ATOM      1  C   UNL A   1      31.140  26.831  24.753  1.00  0.00     0.202 C 
ENDROOT
BRANCH   1   2
ATOM      2  C   UNL A   1      30.117  25.958  25.480  1.00  0.00     0.261 C 
BRANCH   2   3
ATOM      3  O   UNL A   1      30.710  25.141  26.505  1.00  0.00    -0.459 OA
BRANCH   3   4
ATOM      4  C   UNL A   1      30.376  23.828  26.536  1.00  0.00     0.361 C 
ATOM      5  O   UNL A   1      29.875  23.251  27.493  1.00  0.00    -0.245 OA
BRANCH   4   6
ATOM      6  C   UNL A   1      30.778  23.143  25.237  1.00  0.00     0.387 C 
BRANCH   6   7
ATOM      7  N   UNL A   1      32.128  22.571  25.160  1.00  0.00    -0.315 N 
ATOM      8  H   UNL A   1      31.901  21.829  24.498  1.00  0.00     0.349 HD
BRANCH   7   9
ATOM      9  C   UNL A   1      33.136  23.406  24.580  1.00  0.00     0.291 C 
BRANCH   9  10
ATOM     10  C   UNL A   1      33.829  23.059  23.311  1.00  0.00     0.025 C 
ATOM     11  C   UNL A   1      35.121  23.368  23.124  1.00  0.00     0.010 C 
ENDBRANCH   9  10
ENDBRANCH   7   9
BRANCH   7  12
ATOM     12  C   UNL A   1      32.675  21.869  26.345  1.00  0.00     0.364 C 
BRANCH  12  13
ATOM     13  C   UNL A   1      34.064  21.221  26.265  1.00  0.00     0.279 C 
ATOM     14  O   UNL A   1      34.959  21.667  27.006  1.00  0.00    -0.268 OA
ATOM     15  N   UNL A   1      34.414  20.065  25.636  1.00  0.00    -0.321 N 
ATOM     16  H   UNL A   1      35.234  19.728  26.066  1.00  0.00     0.170 HD
BRANCH  15  17
ATOM     17  C   UNL A   1      34.063  19.160  24.608  1.00  0.00     0.041 A 
ATOM     18  C   UNL A   1      32.858  19.433  23.939  1.00  0.00     0.026 A 
ATOM     19  C   UNL A   1      34.654  17.944  24.299  1.00  0.00     0.026 A 
ATOM     20  C   UNL A   1      32.274  18.533  23.033  1.00  0.00     0.002 A 
ATOM     21  C   UNL A   1      34.090  17.035  23.387  1.00  0.00     0.002 A 
ATOM     22  C   UNL A   1      32.894  17.325  22.758  1.00  0.00     0.000 A 
ENDBRANCH  15  17
ENDBRANCH  12  13
ENDBRANCH   7  12
ENDBRANCH   6   7
ENDBRANCH   4   6
ENDBRANCH   3   4
ENDBRANCH   2   3
ENDBRANCH   1   2
BRANCH   1  23
ATOM     23  O   UNL A   1      31.120  28.198  25.170  1.00  0.00    -0.374 OA
BRANCH  23  24
ATOM     24  C   UNL A   1      31.765  28.451  26.418  1.00  0.00     0.202 C 
BRANCH  24  25
ATOM     25  C   UNL A   1      31.840  29.944  26.759  1.00  0.00     0.261 C 
BRANCH  25  26
ATOM     26  O   UNL A   1      33.145  30.463  26.428  1.00  0.00    -0.460 OA
BRANCH  26  27
ATOM     27  C   UNL A   1      33.620  31.426  27.248  1.00  0.00     0.338 C 
ATOM     28  O   UNL A   1      33.012  32.385  27.699  1.00  0.00    -0.246 OA
BRANCH  27  29
ATOM     29  C   UNL A   1      34.988  31.072  27.681  1.00  0.00     0.060 A 
ATOM     30  C   UNL A   1      35.298  29.716  27.798  1.00  0.00     0.016 A 
ATOM     31  C   UNL A   1      35.944  32.036  28.008  1.00  0.00     0.016 A 
ATOM     32  C   UNL A   1      36.537  29.329  28.307  1.00  0.00     0.010 A 
ATOM     33  C   UNL A   1      37.209  31.648  28.458  1.00  0.00     0.010 A 
ATOM     34  C   UNL A   1      37.489  30.292  28.676  1.00  0.00    -0.014 A 
BRANCH  34  35
ATOM     35  C   UNL A   1      38.688  29.877  29.450  1.00  0.00     0.031 A 
ATOM     36  C   UNL A   1      38.883  30.404  30.849  1.00  0.00     0.074 A 
ATOM     37  C   UNL A   1      39.559  28.986  28.943  1.00  0.00     0.049 A 
ATOM     38  N   UNL A   1      39.807  30.107  31.730  1.00  0.00    -0.248 NA
ATOM     39  C   UNL A   1      37.915  31.409  31.318  1.00  0.00     0.031 C 
ATOM     40  C   UNL A   1      39.493  28.410  27.601  1.00  0.00     0.029 A 
ATOM     41  N   UNL A   1      40.667  28.400  29.505  1.00  0.00    -0.354 N 
ATOM     42  C   UNL A   1      39.525  30.881  32.850  1.00  0.00     0.074 A 
ATOM     43  C   UNL A   1      38.389  31.710  32.517  1.00  0.00     0.031 C 
ATOM     44  C   UNL A   1      40.502  27.537  27.450  1.00  0.00     0.029 A 
ATOM     45  C   UNL A   1      41.301  27.510  28.675  1.00  0.00     0.049 A 
ATOM     46  H   UNL A   1      40.976  28.600  30.418  1.00  0.00     0.167 HD
ATOM     47  C   UNL A   1      40.135  30.879  34.059  1.00  0.00     0.037 A 
ATOM     48  C   UNL A   1      42.401  26.760  28.879  1.00  0.00     0.037 A 
ATOM     49  C   UNL A   1      41.260  30.048  34.396  1.00  0.00     0.049 A 
ATOM     50  C   UNL A   1      43.091  26.808  30.219  1.00  0.00     0.074 A 
ATOM     51  C   UNL A   1      41.927  29.948  35.603  1.00  0.00     0.029 A 
ATOM     52  N   UNL A   1      41.889  29.178  33.517  1.00  0.00    -0.354 N 
ATOM     53  N   UNL A   1      42.776  27.494  31.291  1.00  0.00    -0.248 NA
ATOM     54  C   UNL A   1      44.285  25.966  30.379  1.00  0.00     0.031 C 
ATOM     55  C   UNL A   1      42.998  29.064  35.438  1.00  0.00     0.029 A 
ATOM     56  C   UNL A   1      42.958  28.562  34.148  1.00  0.00     0.049 A 
ATOM     57  H   UNL A   1      41.617  29.023  32.584  1.00  0.00     0.167 HD
ATOM     58  C   UNL A   1      43.711  27.146  32.257  1.00  0.00     0.074 A 
ATOM     59  C   UNL A   1      44.595  26.173  31.651  1.00  0.00     0.031 C 
ATOM     60  C   UNL A   1      43.828  27.591  33.534  1.00  0.00     0.037 A 
BRANCH  47  61
ATOM     61  C   UNL A   1      39.600  31.813  35.108  1.00  0.00     0.064 A 
ATOM     62  C   UNL A   1      39.976  33.165  35.156  1.00  0.00     0.173 A 
ATOM     63  C   UNL A   1      38.675  31.357  36.060  1.00  0.00     0.173 A 
ATOM     64  F   UNL A   1      40.868  33.649  34.277  1.00  0.00    -0.203 F 
ATOM     65  C   UNL A   1      39.470  34.017  36.134  1.00  0.00     0.198 A 
ATOM     66  C   UNL A   1      38.145  32.221  37.015  1.00  0.00     0.198 A 
ATOM     67  F   UNL A   1      38.279  30.077  36.059  1.00  0.00    -0.203 F 
ATOM     68  F   UNL A   1      39.886  35.290  36.192  1.00  0.00    -0.200 F 
ATOM     69  C   UNL A   1      38.549  33.546  37.058  1.00  0.00     0.200 A 
ATOM     70  F   UNL A   1      37.245  31.768  37.898  1.00  0.00    -0.200 F 
ATOM     71  F   UNL A   1      38.057  34.369  37.994  1.00  0.00    -0.200 F 
ENDBRANCH  47  61
BRANCH  48  72
ATOM     72  C   UNL A   1      42.918  25.890  27.789  1.00  0.00     0.064 A 
ATOM     73  C   UNL A   1      42.469  24.571  27.635  1.00  0.00     0.173 A 
ATOM     74  C   UNL A   1      43.886  26.357  26.888  1.00  0.00     0.173 A 
ATOM     75  F   UNL A   1      41.561  24.069  28.485  1.00  0.00    -0.203 F 
ATOM     76  C   UNL A   1      42.983  23.747  26.636  1.00  0.00     0.198 A 
ATOM     77  C   UNL A   1      44.376  25.543  25.870  1.00  0.00     0.198 A 
ATOM     78  F   UNL A   1      44.350  27.611  26.992  1.00  0.00    -0.203 F 
ATOM     79  F   UNL A   1      42.575  22.474  26.544  1.00  0.00    -0.200 F 
ATOM     80  C   UNL A   1      43.931  24.235  25.750  1.00  0.00     0.200 A 
ATOM     81  F   UNL A   1      45.282  26.024  25.007  1.00  0.00    -0.200 F 
ATOM     82  F   UNL A   1      44.424  23.444  24.787  1.00  0.00    -0.200 F 
ENDBRANCH  48  72
BRANCH  60  83
ATOM     83  C   UNL A   1      44.927  27.007  34.376  1.00  0.00     0.064 A 
ATOM     84  C   UNL A   1      46.185  27.621  34.479  1.00  0.00     0.173 A 
ATOM     85  C   UNL A   1      44.704  25.842  35.126  1.00  0.00     0.173 A 
ATOM     86  F   UNL A   1      46.455  28.730  33.774  1.00  0.00    -0.203 F 
ATOM     87  C   UNL A   1      47.186  27.073  35.277  1.00  0.00     0.198 A 
ATOM     88  C   UNL A   1      45.695  25.317  35.951  1.00  0.00     0.198 A 
ATOM     89  F   UNL A   1      43.516  25.220  35.074  1.00  0.00    -0.203 F 
ATOM     90  F   UNL A   1      48.396  27.646  35.319  1.00  0.00    -0.200 F 
ATOM     91  C   UNL A   1      46.938  25.927  36.018  1.00  0.00     0.200 A 
ATOM     92  F   UNL A   1      45.446  24.221  36.680  1.00  0.00    -0.200 F 
ATOM     93  F   UNL A   1      47.900  25.407  36.793  1.00  0.00    -0.200 F 
ENDBRANCH  60  83
ENDBRANCH  34  35
ENDBRANCH  27  29
ENDBRANCH  26  27
ENDBRANCH  25  26
ENDBRANCH  24  25
ENDBRANCH  23  24
ENDBRANCH   1  23
TORSDOF 20
ENDMDL
MODEL 2
REMARK VINA RESULT:     -10.9      1.447      2.585
REMARK SMILES C=CC[N@@H+](CC(=O)Nc1ccccc1)CC(=O)OCCOCCOC(=O)c1ccc(-c2c3nc(c(-c4c(F)c(F)c(F)c(F)c4F)c4ccc([nH]4)c(-c4c(F)c(F)c(F)c(F)c4F)c4nc(c(-c5c(F)c(F)c(F)c(F)c5F)c5ccc2[nH]5)C=C4)C=C3)cc1
REMARK SMILES IDX 20 1 19 2 18 3 16 4 17 5 15 6 4 7 3 9 2 10 1 11 5 12 6 13
REMARK SMILES IDX 7 14 8 15 9 17 10 18 14 19 11 20 13 21 12 22 21 23 22 24
REMARK SMILES IDX 23 25 24 26 25 27 26 28 27 29 28 30 89 31 29 32 88 33 30 34
REMARK SMILES IDX 31 35 32 36 82 37 33 38 87 39 81 40 83 41 34 42 86 43 80 44
REMARK SMILES IDX 79 45 35 47 67 48 47 49 66 50 48 51 51 52 65 53 84 54 49 55
REMARK SMILES IDX 50 56 64 58 85 59 52 60 36 61 37 62 45 63 38 64 39 65 43 66
REMARK SMILES IDX 46 67 40 68 41 69 44 70 42 71 68 72 69 73 77 74 70 75 71 76
REMARK SMILES IDX 75 77 78 78 72 79 73 80 76 81 74 82 53 83 54 84 62 85 55 86
REMARK SMILES IDX 56 87 60 88 63 89 57 90 58 91 61 92 59 93
REMARK H PARENT 4 8 8 16 83 46 51 57
REMARK Flexibility Score: inf
ROOT
ATOM      1  C   UNL A   1      32.114  29.311  24.168  1.00  0.00     0.202 C 
ENDROOT
BRANCH   1   2
ATOM      2  C   UNL A   1      30.602  29.317  23.940  1.00  0.00     0.261 C 
BRANCH   2   3
ATOM      3  O   UNL A   1      30.045  27.993  23.864  1.00  0.00    -0.459 OA
BRANCH   3   4
ATOM      4  C   UNL A   1      30.683  27.085  23.086  1.00  0.00     0.361 C 
ATOM      5  O   UNL A   1      30.884  27.204  21.884  1.00  0.00    -0.245 OA
BRANCH   4   6
ATOM      6  C   UNL A   1      31.053  25.851  23.898  1.00  0.00     0.387 C 
BRANCH   6   7
ATOM      7  N   UNL A   1      32.181  25.965  24.832  1.00  0.00    -0.315 N 
ATOM      8  H   UNL A   1      32.145  26.980  24.932  1.00  0.00     0.349 HD
BRANCH   7   9
ATOM      9  C   UNL A   1      31.994  25.375  26.123  1.00  0.00     0.291 C 
BRANCH   9  10
ATOM     10  C   UNL A   1      32.098  23.911  26.356  1.00  0.00     0.025 C 
ATOM     11  C   UNL A   1      31.074  23.220  26.880  1.00  0.00     0.010 C 
ENDBRANCH   9  10
ENDBRANCH   7   9
BRANCH   7  12
ATOM     12  C   UNL A   1      33.548  25.678  24.339  1.00  0.00     0.364 C 
BRANCH  12  13
ATOM     13  C   UNL A   1      33.733  24.834  23.071  1.00  0.00     0.279 C 
ATOM     14  O   UNL A   1      33.978  25.428  22.005  1.00  0.00    -0.268 OA
ATOM     15  N   UNL A   1      33.874  23.483  22.976  1.00  0.00    -0.321 N 
ATOM     16  H   UNL A   1      34.339  23.290  22.130  1.00  0.00     0.170 HD
BRANCH  15  17
ATOM     17  C   UNL A   1      33.616  22.249  23.617  1.00  0.00     0.041 A 
ATOM     18  C   UNL A   1      34.641  21.766  24.449  1.00  0.00     0.026 A 
ATOM     19  C   UNL A   1      32.569  21.369  23.391  1.00  0.00     0.026 A 
ATOM     20  C   UNL A   1      34.624  20.475  25.000  1.00  0.00     0.002 A 
ATOM     21  C   UNL A   1      32.528  20.077  23.942  1.00  0.00     0.002 A 
ATOM     22  C   UNL A   1      33.561  19.625  24.743  1.00  0.00     0.000 A 
ENDBRANCH  15  17
ENDBRANCH  12  13
ENDBRANCH   7  12
ENDBRANCH   6   7
ENDBRANCH   4   6
ENDBRANCH   3   4
ENDBRANCH   2   3
ENDBRANCH   1   2
BRANCH   1  23
ATOM     23  O   UNL A   1      32.488  28.935  25.494  1.00  0.00    -0.374 OA
BRANCH  23  24
ATOM     24  C   UNL A   1      31.638  29.444  26.522  1.00  0.00     0.202 C 
BRANCH  24  25
ATOM     25  C   UNL A   1      31.912  30.918  26.847  1.00  0.00     0.261 C 
BRANCH  25  26
ATOM     26  O   UNL A   1      33.318  31.206  26.697  1.00  0.00    -0.460 OA
BRANCH  26  27
ATOM     27  C   UNL A   1      33.839  32.077  27.589  1.00  0.00     0.338 C 
ATOM     28  O   UNL A   1      33.283  33.035  28.102  1.00  0.00    -0.246 OA
BRANCH  27  29
ATOM     29  C   UNL A   1      35.177  31.610  28.008  1.00  0.00     0.060 A 
ATOM     30  C   UNL A   1      35.369  30.235  28.148  1.00  0.00     0.016 A 
ATOM     31  C   UNL A   1      36.221  32.492  28.299  1.00  0.00     0.016 A 
ATOM     32  C   UNL A   1      36.577  29.749  28.645  1.00  0.00     0.010 A 
ATOM     33  C   UNL A   1      37.454  32.002  28.736  1.00  0.00     0.010 A 
ATOM     34  C   UNL A   1      37.617  30.631  28.979  1.00  0.00    -0.014 A 
BRANCH  34  35
ATOM     35  C   UNL A   1      38.788  30.125  29.742  1.00  0.00     0.031 A 
ATOM     36  C   UNL A   1      38.978  30.557  31.173  1.00  0.00     0.074 A 
ATOM     37  C   UNL A   1      39.636  29.238  29.192  1.00  0.00     0.049 A 
ATOM     38  N   UNL A   1      39.876  30.173  32.047  1.00  0.00    -0.248 NA
ATOM     39  C   UNL A   1      38.039  31.565  31.691  1.00  0.00     0.031 C 
ATOM     40  C   UNL A   1      39.571  28.749  27.815  1.00  0.00     0.029 A 
ATOM     41  N   UNL A   1      40.713  28.579  29.732  1.00  0.00    -0.354 N 
ATOM     42  C   UNL A   1      39.603  30.885  33.209  1.00  0.00     0.074 A 
ATOM     43  C   UNL A   1      38.503  31.774  32.913  1.00  0.00     0.031 C 
ATOM     44  C   UNL A   1      40.551  27.852  27.624  1.00  0.00     0.029 A 
ATOM     45  C   UNL A   1      41.329  27.720  28.856  1.00  0.00     0.049 A 
ATOM     46  H   UNL A   1      41.014  28.710  30.659  1.00  0.00     0.167 HD
ATOM     47  C   UNL A   1      40.194  30.787  34.424  1.00  0.00     0.037 A 
ATOM     48  C   UNL A   1      42.399  26.919  29.028  1.00  0.00     0.037 A 
ATOM     49  C   UNL A   1      41.283  29.896  34.724  1.00  0.00     0.049 A 
ATOM     50  C   UNL A   1      43.068  26.859  30.378  1.00  0.00     0.074 A 
ATOM     51  C   UNL A   1      41.926  29.697  35.932  1.00  0.00     0.029 A 
ATOM     52  N   UNL A   1      41.895  29.061  33.801  1.00  0.00    -0.354 N 
ATOM     53  N   UNL A   1      42.760  27.488  31.486  1.00  0.00    -0.248 NA
ATOM     54  C   UNL A   1      44.230  25.967  30.502  1.00  0.00     0.031 C 
ATOM     55  C   UNL A   1      42.968  28.787  35.727  1.00  0.00     0.029 A 
ATOM     56  C   UNL A   1      42.932  28.368  34.407  1.00  0.00     0.049 A 
ATOM     57  H   UNL A   1      41.634  28.974  32.856  1.00  0.00     0.167 HD
ATOM     58  C   UNL A   1      43.667  27.047  32.442  1.00  0.00     0.074 A 
ATOM     59  C   UNL A   1      44.526  26.083  31.788  1.00  0.00     0.031 C 
ATOM     60  C   UNL A   1      43.778  27.407  33.746  1.00  0.00     0.037 A 
BRANCH  47  61
ATOM     61  C   UNL A   1      39.674  31.671  35.523  1.00  0.00     0.064 A 
ATOM     62  C   UNL A   1      38.629  31.264  36.367  1.00  0.00     0.173 A 
ATOM     63  C   UNL A   1      40.250  32.930  35.754  1.00  0.00     0.173 A 
ATOM     64  F   UNL A   1      38.034  30.076  36.181  1.00  0.00    -0.203 F 
ATOM     65  C   UNL A   1      38.161  32.095  37.382  1.00  0.00     0.198 A 
ATOM     66  C   UNL A   1      39.802  33.744  36.792  1.00  0.00     0.198 A 
ATOM     67  F   UNL A   1      41.253  33.368  34.980  1.00  0.00    -0.203 F 
ATOM     68  F   UNL A   1      37.126  31.707  38.140  1.00  0.00    -0.200 F 
ATOM     69  C   UNL A   1      38.752  33.331  37.598  1.00  0.00     0.200 A 
ATOM     70  F   UNL A   1      40.384  34.931  37.008  1.00  0.00    -0.200 F 
ATOM     71  F   UNL A   1      38.306  34.126  38.579  1.00  0.00    -0.200 F 
ENDBRANCH  47  61
BRANCH  48  72
ATOM     72  C   UNL A   1      42.903  26.101  27.893  1.00  0.00     0.064 A 
ATOM     73  C   UNL A   1      43.829  26.618  26.977  1.00  0.00     0.173 A 
ATOM     74  C   UNL A   1      42.452  24.788  27.692  1.00  0.00     0.173 A 
ATOM     75  F   UNL A   1      44.273  27.877  27.111  1.00  0.00    -0.203 F 
ATOM     76  C   UNL A   1      44.269  25.861  25.893  1.00  0.00     0.198 A 
ATOM     77  C   UNL A   1      42.917  24.022  26.626  1.00  0.00     0.198 A 
ATOM     78  F   UNL A   1      41.564  24.246  28.539  1.00  0.00    -0.203 F 
ATOM     79  F   UNL A   1      45.115  26.399  25.002  1.00  0.00    -0.200 F 
ATOM     80  C   UNL A   1      43.818  24.562  25.722  1.00  0.00     0.200 A 
ATOM     81  F   UNL A   1      42.488  22.761  26.473  1.00  0.00    -0.200 F 
ATOM     82  F   UNL A   1      44.243  23.833  24.680  1.00  0.00    -0.200 F 
ENDBRANCH  48  72
BRANCH  60  83
ATOM     83  C   UNL A   1      44.842  26.734  34.565  1.00  0.00     0.064 A 
ATOM     84  C   UNL A   1      46.139  27.260  34.671  1.00  0.00     0.173 A 
ATOM     85  C   UNL A   1      44.548  25.569  35.291  1.00  0.00     0.173 A 
ATOM     86  F   UNL A   1      46.476  28.365  33.989  1.00  0.00    -0.203 F 
ATOM     87  C   UNL A   1      47.107  26.629  35.448  1.00  0.00     0.198 A 
ATOM     88  C   UNL A   1      45.508  24.961  36.095  1.00  0.00     0.198 A 
ATOM     89  F   UNL A   1      43.321  25.028  35.236  1.00  0.00    -0.203 F 
ATOM     90  F   UNL A   1      48.353  27.121  35.491  1.00  0.00    -0.200 F 
ATOM     91  C   UNL A   1      46.789  25.486  36.165  1.00  0.00     0.200 A 
ATOM     92  F   UNL A   1      45.193  23.867  36.802  1.00  0.00    -0.200 F 
ATOM     93  F   UNL A   1      47.720  24.886  36.920  1.00  0.00    -0.200 F 
ENDBRANCH  60  83
ENDBRANCH  34  35
ENDBRANCH  27  29
ENDBRANCH  26  27
ENDBRANCH  25  26
ENDBRANCH  24  25
ENDBRANCH  23  24
ENDBRANCH   1  23
TORSDOF 20
ENDMDL
MODEL 3
REMARK VINA RESULT:     -10.9      3.759      9.120
REMARK SMILES C=CC[N@@H+](CC(=O)Nc1ccccc1)CC(=O)OCCOCCOC(=O)c1ccc(-c2c3nc(c(-c4c(F)c(F)c(F)c(F)c4F)c4ccc([nH]4)c(-c4c(F)c(F)c(F)c(F)c4F)c4nc(c(-c5c(F)c(F)c(F)c(F)c5F)c5ccc2[nH]5)C=C4)C=C3)cc1
REMARK SMILES IDX 20 1 19 2 18 3 16 4 17 5 15 6 4 7 3 9 2 10 1 11 5 12 6 13
REMARK SMILES IDX 7 14 8 15 9 17 10 18 14 19 11 20 13 21 12 22 21 23 22 24
REMARK SMILES IDX 23 25 24 26 25 27 26 28 27 29 28 30 89 31 29 32 88 33 30 34
REMARK SMILES IDX 31 35 32 36 82 37 33 38 87 39 81 40 83 41 34 42 86 43 80 44
REMARK SMILES IDX 79 45 35 47 67 48 47 49 66 50 48 51 51 52 65 53 84 54 49 55
REMARK SMILES IDX 50 56 64 58 85 59 52 60 36 61 37 62 45 63 38 64 39 65 43 66
REMARK SMILES IDX 46 67 40 68 41 69 44 70 42 71 68 72 69 73 77 74 70 75 71 76
REMARK SMILES IDX 75 77 78 78 72 79 73 80 76 81 74 82 53 83 54 84 62 85 55 86
REMARK SMILES IDX 56 87 60 88 63 89 57 90 58 91 61 92 59 93
REMARK H PARENT 4 8 8 16 83 46 51 57
REMARK Flexibility Score: inf
ROOT
ATOM      1  C   UNL A   1      43.704  19.497  25.241  1.00  0.00     0.202 C 
ENDROOT
BRANCH   1   2
ATOM      2  C   UNL A   1      42.680  19.824  26.328  1.00  0.00     0.261 C 
BRANCH   2   3
ATOM      3  O   UNL A   1      41.440  20.322  25.795  1.00  0.00    -0.459 OA
BRANCH   3   4
ATOM      4  C   UNL A   1      41.151  21.631  25.991  1.00  0.00     0.361 C 
ATOM      5  O   UNL A   1      41.749  22.569  25.479  1.00  0.00    -0.245 OA
BRANCH   4   6
ATOM      6  C   UNL A   1      40.021  21.784  27.000  1.00  0.00     0.387 C 
BRANCH   6   7
ATOM      7  N   UNL A   1      38.711  22.210  26.493  1.00  0.00    -0.315 N 
ATOM      8  H   UNL A   1      38.156  21.787  27.237  1.00  0.00     0.349 HD
BRANCH   7   9
ATOM      9  C   UNL A   1      38.463  23.621  26.490  1.00  0.00     0.291 C 
BRANCH   9  10
ATOM     10  C   UNL A   1      39.357  24.591  27.174  1.00  0.00     0.025 C 
ATOM     11  C   UNL A   1      39.041  25.093  28.378  1.00  0.00     0.010 C 
ENDBRANCH   9  10
ENDBRANCH   7   9
BRANCH   7  12
ATOM     12  C   UNL A   1      38.197  21.605  25.243  1.00  0.00     0.364 C 
BRANCH  12  13
ATOM     13  C   UNL A   1      36.960  20.698  25.294  1.00  0.00     0.279 C 
ATOM     14  O   UNL A   1      37.104  19.497  25.002  1.00  0.00    -0.268 OA
ATOM     15  N   UNL A   1      35.737  20.977  25.823  1.00  0.00    -0.321 N 
ATOM     16  H   UNL A   1      35.305  20.121  26.045  1.00  0.00     0.170 HD
BRANCH  15  17
ATOM     17  C   UNL A   1      34.844  22.015  26.179  1.00  0.00     0.041 A 
ATOM     18  C   UNL A   1      33.969  21.731  27.242  1.00  0.00     0.026 A 
ATOM     19  C   UNL A   1      34.595  23.200  25.504  1.00  0.00     0.026 A 
ATOM     20  C   UNL A   1      32.901  22.573  27.589  1.00  0.00     0.002 A 
ATOM     21  C   UNL A   1      33.537  24.061  25.843  1.00  0.00     0.002 A 
ATOM     22  C   UNL A   1      32.683  23.744  26.883  1.00  0.00     0.000 A 
ENDBRANCH  15  17
ENDBRANCH  12  13
ENDBRANCH   7  12
ENDBRANCH   6   7
ENDBRANCH   4   6
ENDBRANCH   3   4
ENDBRANCH   2   3
ENDBRANCH   1   2
BRANCH   1  23
ATOM     23  O   UNL A   1      44.134  20.642  24.501  1.00  0.00    -0.374 OA
BRANCH  23  24
ATOM     24  C   UNL A   1      45.044  21.494  25.197  1.00  0.00     0.202 C 
BRANCH  24  25
ATOM     25  C   UNL A   1      45.473  22.711  24.368  1.00  0.00     0.261 C 
BRANCH  25  26
ATOM     26  O   UNL A   1      44.559  23.807  24.587  1.00  0.00    -0.460 OA
BRANCH  26  27
ATOM     27  C   UNL A   1      45.114  24.955  25.033  1.00  0.00     0.338 C 
ATOM     28  O   UNL A   1      46.134  25.493  24.631  1.00  0.00    -0.246 OA
BRANCH  27  29
ATOM     29  C   UNL A   1      44.204  25.593  26.008  1.00  0.00     0.060 A 
ATOM     30  C   UNL A   1      44.229  26.985  26.101  1.00  0.00     0.016 A 
ATOM     31  C   UNL A   1      43.368  24.854  26.848  1.00  0.00     0.016 A 
ATOM     32  C   UNL A   1      43.472  27.630  27.078  1.00  0.00     0.010 A 
ATOM     33  C   UNL A   1      42.561  25.502  27.785  1.00  0.00     0.010 A 
ATOM     34  C   UNL A   1      42.660  26.891  27.954  1.00  0.00    -0.014 A 
BRANCH  34  35
ATOM     35  C   UNL A   1      42.069  27.559  29.142  1.00  0.00     0.031 A 
ATOM     36  C   UNL A   1      42.777  27.466  30.469  1.00  0.00     0.074 A 
ATOM     37  C   UNL A   1      40.951  28.299  29.030  1.00  0.00     0.049 A 
ATOM     38  N   UNL A   1      42.487  28.041  31.611  1.00  0.00    -0.248 NA
ATOM     39  C   UNL A   1      43.968  26.602  30.525  1.00  0.00     0.031 C 
ATOM     40  C   UNL A   1      40.164  28.460  27.809  1.00  0.00     0.029 A 
ATOM     41  N   UNL A   1      40.291  29.065  29.959  1.00  0.00    -0.354 N 
ATOM     42  C   UNL A   1      43.458  27.613  32.508  1.00  0.00     0.074 A 
ATOM     43  C   UNL A   1      44.305  26.678  31.803  1.00  0.00     0.031 C 
ATOM     44  C   UNL A   1      39.139  29.291  28.056  1.00  0.00     0.029 A 
ATOM     45  C   UNL A   1      39.182  29.702  29.459  1.00  0.00     0.049 A 
ATOM     46  H   UNL A   1      40.585  29.150  30.894  1.00  0.00     0.167 HD
ATOM     47  C   UNL A   1      43.649  27.987  33.796  1.00  0.00     0.037 A 
ATOM     48  C   UNL A   1      38.301  30.522  30.066  1.00  0.00     0.037 A 
ATOM     49  C   UNL A   1      42.813  28.924  34.498  1.00  0.00     0.049 A 
ATOM     50  C   UNL A   1      38.509  30.891  31.513  1.00  0.00     0.074 A 
ATOM     51  C   UNL A   1      42.943  29.395  35.792  1.00  0.00     0.029 A 
ATOM     52  N   UNL A   1      41.684  29.527  33.964  1.00  0.00    -0.354 N 
ATOM     53  N   UNL A   1      39.468  30.531  32.332  1.00  0.00    -0.248 NA
ATOM     54  C   UNL A   1      37.515  31.789  32.117  1.00  0.00     0.031 C 
ATOM     55  C   UNL A   1      41.858  30.235  36.062  1.00  0.00     0.029 A 
ATOM     56  C   UNL A   1      41.089  30.341  34.915  1.00  0.00     0.049 A 
ATOM     57  H   UNL A   1      41.353  29.396  33.046  1.00  0.00     0.167 HD
ATOM     58  C   UNL A   1      39.209  31.180  33.533  1.00  0.00     0.074 A 
ATOM     59  C   UNL A   1      38.013  31.971  33.331  1.00  0.00     0.031 C 
ATOM     60  C   UNL A   1      39.901  31.127  34.700  1.00  0.00     0.037 A 
BRANCH  47  61
ATOM     61  C   UNL A   1      44.807  27.376  34.533  1.00  0.00     0.064 A 
ATOM     62  C   UNL A   1      44.696  26.140  35.191  1.00  0.00     0.173 A 
ATOM     63  C   UNL A   1      46.054  28.019  34.556  1.00  0.00     0.173 A 
ATOM     64  F   UNL A   1      43.522  25.490  35.212  1.00  0.00    -0.203 F 
ATOM     65  C   UNL A   1      45.780  25.587  35.868  1.00  0.00     0.198 A 
ATOM     66  C   UNL A   1      47.145  27.445  35.205  1.00  0.00     0.198 A 
ATOM     67  F   UNL A   1      46.218  29.199  33.942  1.00  0.00    -0.203 F 
ATOM     68  F   UNL A   1      45.633  24.433  36.534  1.00  0.00    -0.200 F 
ATOM     69  C   UNL A   1      47.005  26.237  35.868  1.00  0.00     0.200 A 
ATOM     70  F   UNL A   1      48.332  28.067  35.192  1.00  0.00    -0.200 F 
ATOM     71  F   UNL A   1      48.049  25.699  36.513  1.00  0.00    -0.200 F 
ENDBRANCH  47  61
BRANCH  48  72
ATOM     72  C   UNL A   1      37.144  31.060  29.303  1.00  0.00     0.064 A 
ATOM     73  C   UNL A   1      37.097  32.402  28.899  1.00  0.00     0.173 A 
ATOM     74  C   UNL A   1      36.050  30.244  28.977  1.00  0.00     0.173 A 
ATOM     75  F   UNL A   1      38.107  33.229  29.207  1.00  0.00    -0.203 F 
ATOM     76  C   UNL A   1      35.993  32.911  28.218  1.00  0.00     0.198 A 
ATOM     77  C   UNL A   1      34.962  30.747  28.269  1.00  0.00     0.198 A 
ATOM     78  F   UNL A   1      36.044  28.953  29.341  1.00  0.00    -0.203 F 
ATOM     79  F   UNL A   1      35.952  34.210  27.890  1.00  0.00    -0.200 F 
ATOM     80  C   UNL A   1      34.930  32.082  27.897  1.00  0.00     0.200 A 
ATOM     81  F   UNL A   1      33.942  29.938  27.949  1.00  0.00    -0.200 F 
ATOM     82  F   UNL A   1      33.869  32.571  27.240  1.00  0.00    -0.200 F 
ENDBRANCH  48  72
BRANCH  60  83
ATOM     83  C   UNL A   1      39.406  31.972  35.840  1.00  0.00     0.064 A 
ATOM     84  C   UNL A   1      38.399  31.525  36.710  1.00  0.00     0.173 A 
ATOM     85  C   UNL A   1      39.979  33.228  36.093  1.00  0.00     0.173 A 
ATOM     86  F   UNL A   1      37.811  30.336  36.507  1.00  0.00    -0.203 F 
ATOM     87  C   UNL A   1      37.966  32.316  37.770  1.00  0.00     0.198 A 
ATOM     88  C   UNL A   1      39.567  34.001  37.175  1.00  0.00     0.198 A 
ATOM     89  F   UNL A   1      40.952  33.701  35.299  1.00  0.00    -0.203 F 
ATOM     90  F   UNL A   1      36.967  31.891  38.556  1.00  0.00    -0.200 F 
ATOM     91  C   UNL A   1      38.555  33.549  38.007  1.00  0.00     0.200 A 
ATOM     92  F   UNL A   1      40.151  35.184  37.412  1.00  0.00    -0.200 F 
ATOM     93  F   UNL A   1      38.142  34.305  39.034  1.00  0.00    -0.200 F 
ENDBRANCH  60  83
ENDBRANCH  34  35
ENDBRANCH  27  29
ENDBRANCH  26  27
ENDBRANCH  25  26
ENDBRANCH  24  25
ENDBRANCH  23  24
ENDBRANCH   1  23
TORSDOF 20
ENDMDL
