MODEL 1
REMARK VINA RESULT:     -11.9      0.000      0.000
REMARK SMILES O=C(OCCOCCOC(=O)c1ccc2c(=O)[nH]c(N3CC[NH2+]CC3)nc2c1)c1ccc(-c2c3nc(c(-c4c(F)c(F)c(F)c(F)c4F)c4ccc([nH]4)c(-c4c(F)c(F)c(F)c(F)c4F)c4nc(c(-c5c(F)c(F)c(F)c(F)c5F)c5ccc2[nH]5)C=C4)C=C3)cc1
REMARK SMILES IDX 5 1 4 2 3 3 2 4 1 5 29 6 30 7 91 8 31 9 90 10 32 11 33 12
REMARK SMILES IDX 34 13 84 14 35 15 89 16 83 17 85 18 36 19 88 20 82 21 81 22
REMARK SMILES IDX 37 24 69 25 49 26 68 27 50 28 53 29 67 30 86 31 51 32 52 33
REMARK SMILES IDX 66 35 87 36 54 37 38 38 39 39 47 40 40 41 41 42 45 43 48 44
REMARK SMILES IDX 42 45 43 46 46 47 44 48 70 49 71 50 79 51 72 52 73 53 77 54
REMARK SMILES IDX 80 55 74 56 75 57 78 58 76 59 55 60 56 61 64 62 57 63 58 64
REMARK SMILES IDX 62 65 65 66 59 67 60 68 63 69 61 70 6 71 7 72 8 73 9 74
REMARK SMILES IDX 10 75 11 76 12 77 13 78 28 79 14 80 27 81 15 82 26 83 16 84
REMARK SMILES IDX 19 85 17 86 18 87 20 89 21 90 25 91 22 92 24 93 23 94
REMARK H PARENT 85 23 53 34 18 88 23 95 23 96
REMARK Flexibility Score: inf
ROOT
ATOM      1  C   UNL A   1      42.170  19.550  26.630  1.00  0.00     0.202 C 
ENDROOT
BRANCH   1   2
ATOM      2  C   UNL A   1      43.051  18.515  25.927  1.00  0.00     0.261 C 
BRANCH   2   3
ATOM      3  O   UNL A   1      43.455  19.006  24.638  1.00  0.00    -0.460 OA
BRANCH   3   4
ATOM      4  C   UNL A   1      44.623  19.603  24.310  1.00  0.00     0.338 C 
ATOM      5  O   UNL A   1      45.478  18.952  23.714  1.00  0.00    -0.246 OA
BRANCH   4   6
ATOM      6  C   UNL A   1      44.940  21.023  24.647  1.00  0.00     0.060 A 
ATOM      7  C   UNL A   1      44.621  22.114  23.836  1.00  0.00     0.016 A 
ATOM      8  C   UNL A   1      45.473  21.279  25.920  1.00  0.00     0.016 A 
ATOM      9  C   UNL A   1      44.852  23.419  24.247  1.00  0.00     0.010 A 
ATOM     10  C   UNL A   1      45.661  22.591  26.366  1.00  0.00     0.010 A 
ATOM     11  C   UNL A   1      45.341  23.663  25.527  1.00  0.00    -0.014 A 
BRANCH  11  12
ATOM     12  C   UNL A   1      45.486  25.063  25.960  1.00  0.00     0.031 A 
ATOM     13  C   UNL A   1      46.811  25.734  25.816  1.00  0.00     0.074 A 
ATOM     14  C   UNL A   1      44.398  25.723  26.399  1.00  0.00     0.049 A 
ATOM     15  N   UNL A   1      47.181  26.922  26.212  1.00  0.00    -0.248 NA
ATOM     16  C   UNL A   1      47.862  24.971  25.122  1.00  0.00     0.031 C 
ATOM     17  C   UNL A   1      43.045  25.161  26.468  1.00  0.00     0.029 A 
ATOM     18  N   UNL A   1      44.248  27.004  26.856  1.00  0.00    -0.354 N 
ATOM     19  C   UNL A   1      48.514  27.037  25.849  1.00  0.00     0.074 A 
ATOM     20  C   UNL A   1      48.888  25.808  25.186  1.00  0.00     0.031 C 
ATOM     21  C   UNL A   1      42.204  26.097  26.934  1.00  0.00     0.029 A 
ATOM     22  C   UNL A   1      42.969  27.292  27.267  1.00  0.00     0.049 A 
ATOM     23  H   UNL A   1      44.985  27.656  26.887  1.00  0.00     0.167 HD
ATOM     24  C   UNL A   1      49.343  28.080  26.075  1.00  0.00     0.037 A 
ATOM     25  C   UNL A   1      42.492  28.382  27.895  1.00  0.00     0.037 A 
ATOM     26  C   UNL A   1      48.929  29.292  26.728  1.00  0.00     0.049 A 
ATOM     27  C   UNL A   1      43.461  29.491  28.207  1.00  0.00     0.074 A 
ATOM     28  C   UNL A   1      49.678  30.415  27.024  1.00  0.00     0.029 A 
ATOM     29  N   UNL A   1      47.641  29.531  27.190  1.00  0.00    -0.354 N 
ATOM     30  N   UNL A   1      44.732  29.589  27.892  1.00  0.00    -0.248 NA
ATOM     31  C   UNL A   1      42.946  30.624  28.985  1.00  0.00     0.031 C 
ATOM     32  C   UNL A   1      48.854  31.313  27.710  1.00  0.00     0.029 A 
ATOM     33  C   UNL A   1      47.582  30.768  27.805  1.00  0.00     0.049 A 
ATOM     34  H   UNL A   1      46.882  28.911  27.093  1.00  0.00     0.167 HD
ATOM     35  C   UNL A   1      45.169  30.788  28.432  1.00  0.00     0.074 A 
ATOM     36  C   UNL A   1      44.017  31.401  29.067  1.00  0.00     0.031 C 
ATOM     37  C   UNL A   1      46.410  31.333  28.423  1.00  0.00     0.037 A 
BRANCH  24  38
ATOM     38  C   UNL A   1      50.780  27.919  25.684  1.00  0.00     0.064 A 
ATOM     39  C   UNL A   1      51.222  28.115  24.369  1.00  0.00     0.173 A 
ATOM     40  C   UNL A   1      51.731  27.570  26.654  1.00  0.00     0.173 A 
ATOM     41  F   UNL A   1      50.347  28.425  23.401  1.00  0.00    -0.203 F 
ATOM     42  C   UNL A   1      52.565  27.952  24.036  1.00  0.00     0.198 A 
ATOM     43  C   UNL A   1      53.075  27.428  26.323  1.00  0.00     0.198 A 
ATOM     44  F   UNL A   1      51.356  27.364  27.925  1.00  0.00    -0.203 F 
ATOM     45  F   UNL A   1      52.963  28.105  22.765  1.00  0.00    -0.200 F 
ATOM     46  C   UNL A   1      53.491  27.615  25.013  1.00  0.00     0.200 A 
ATOM     47  F   UNL A   1      53.967  27.104  27.269  1.00  0.00    -0.200 F 
ATOM     48  F   UNL A   1      54.782  27.460  24.691  1.00  0.00    -0.200 F 
ENDBRANCH  24  38
BRANCH  25  49
ATOM     49  C   UNL A   1      41.074  28.439  28.345  1.00  0.00     0.064 A 
ATOM     50  C   UNL A   1      40.067  28.967  27.525  1.00  0.00     0.173 A 
ATOM     51  C   UNL A   1      40.701  27.995  29.624  1.00  0.00     0.173 A 
ATOM     52  F   UNL A   1      40.371  29.429  26.305  1.00  0.00    -0.203 F 
ATOM     53  C   UNL A   1      38.750  29.069  27.977  1.00  0.00     0.198 A 
ATOM     54  C   UNL A   1      39.380  28.065  30.060  1.00  0.00     0.198 A 
ATOM     55  F   UNL A   1      41.623  27.487  30.456  1.00  0.00    -0.203 F 
ATOM     56  F   UNL A   1      37.819  29.631  27.193  1.00  0.00    -0.200 F 
ATOM     57  C   UNL A   1      38.407  28.613  29.240  1.00  0.00     0.200 A 
ATOM     58  F   UNL A   1      39.052  27.612  31.278  1.00  0.00    -0.200 F 
ATOM     59  F   UNL A   1      37.143  28.716  29.673  1.00  0.00    -0.200 F 
ENDBRANCH  25  49
BRANCH  37  60
ATOM     60  C   UNL A   1      46.574  32.646  29.124  1.00  0.00     0.064 A 
ATOM     61  C   UNL A   1      46.355  33.858  28.454  1.00  0.00     0.173 A 
ATOM     62  C   UNL A   1      46.892  32.689  30.489  1.00  0.00     0.173 A 
ATOM     63  F   UNL A   1      46.068  33.862  27.143  1.00  0.00    -0.203 F 
ATOM     64  C   UNL A   1      46.461  35.071  29.125  1.00  0.00     0.198 A 
ATOM     65  C   UNL A   1      46.970  33.902  31.163  1.00  0.00     0.198 A 
ATOM     66  F   UNL A   1      47.105  31.552  31.170  1.00  0.00    -0.203 F 
ATOM     67  F   UNL A   1      46.283  36.220  28.460  1.00  0.00    -0.200 F 
ATOM     68  C   UNL A   1      46.757  35.091  30.481  1.00  0.00     0.200 A 
ATOM     69  F   UNL A   1      47.243  33.921  32.474  1.00  0.00    -0.200 F 
ATOM     70  F   UNL A   1      46.843  36.260  31.129  1.00  0.00    -0.200 F 
ENDBRANCH  37  60
ENDBRANCH  11  12
ENDBRANCH   4   6
ENDBRANCH   3   4
ENDBRANCH   2   3
ENDBRANCH   1   2
BRANCH   1  71
ATOM     71  O   UNL A   1      41.466  20.417  25.743  1.00  0.00    -0.374 OA
BRANCH  71  72
ATOM     72  C   UNL A   1      41.388  21.792  26.144  1.00  0.00     0.202 C 
BRANCH  72  73
ATOM     73  C   UNL A   1      40.122  21.991  26.984  1.00  0.00     0.261 C 
BRANCH  73  74
ATOM     74  O   UNL A   1      39.004  22.114  26.088  1.00  0.00    -0.460 OA
BRANCH  74  75
ATOM     75  C   UNL A   1      38.353  23.308  26.149  1.00  0.00     0.338 C 
ATOM     76  O   UNL A   1      38.824  24.400  26.381  1.00  0.00    -0.246 OA
BRANCH  75  77
ATOM     77  C   UNL A   1      36.987  23.075  25.627  1.00  0.00     0.062 A 
ATOM     78  C   UNL A   1      36.091  24.137  25.457  1.00  0.00     0.016 A 
ATOM     79  C   UNL A   1      36.574  21.750  25.422  1.00  0.00     0.045 A 
ATOM     80  C   UNL A   1      34.777  23.869  25.080  1.00  0.00     0.017 A 
ATOM     81  C   UNL A   1      35.246  21.469  25.098  1.00  0.00     0.081 A 
ATOM     82  C   UNL A   1      34.370  22.541  24.909  1.00  0.00     0.066 A 
ATOM     83  N   UNL A   1      34.831  20.128  24.999  1.00  0.00    -0.214 NA
ATOM     84  C   UNL A   1      32.992  22.222  24.519  1.00  0.00     0.260 A 
ATOM     85  C   UNL A   1      33.614  19.885  24.623  1.00  0.00     0.206 A 
ATOM     86  O   UNL A   1      32.146  23.091  24.341  1.00  0.00    -0.269 OA
ATOM     87  N   UNL A   1      32.720  20.889  24.373  1.00  0.00    -0.292 N 
ATOM     88  H   UNL A   1      31.819  20.636  24.067  1.00  0.00     0.173 HD
BRANCH  85  89
ATOM     89  N   UNL A   1      33.122  18.624  24.458  1.00  0.00    -0.331 N 
ATOM     90  C   UNL A   1      33.229  17.902  23.192  1.00  0.00     0.181 C 
ATOM     91  C   UNL A   1      32.529  17.867  25.557  1.00  0.00     0.181 C 
ATOM     92  C   UNL A   1      33.965  16.558  23.427  1.00  0.00     0.282 C 
ATOM     93  C   UNL A   1      33.288  16.538  25.749  1.00  0.00     0.282 C 
ATOM     94  N   UNL A   1      33.383  15.735  24.513  1.00  0.00    -0.343 N 
ATOM     95  H   UNL A   1      33.979  14.924  24.679  1.00  0.00     0.346 HD
ATOM     96  H   UNL A   1      32.452  15.423  24.238  1.00  0.00     0.346 HD
ENDBRANCH  85  89
ENDBRANCH  75  77
ENDBRANCH  74  75
ENDBRANCH  73  74
ENDBRANCH  72  73
ENDBRANCH  71  72
ENDBRANCH   1  71
TORSDOF 15
ENDMDL
MODEL 2
REMARK VINA RESULT:     -11.8      5.261      9.213
REMARK SMILES O=C(OCCOCCOC(=O)c1ccc2c(=O)[nH]c(N3CC[NH2+]CC3)nc2c1)c1ccc(-c2c3nc(c(-c4c(F)c(F)c(F)c(F)c4F)c4ccc([nH]4)c(-c4c(F)c(F)c(F)c(F)c4F)c4nc(c(-c5c(F)c(F)c(F)c(F)c5F)c5ccc2[nH]5)C=C4)C=C3)cc1
REMARK SMILES IDX 5 1 4 2 3 3 2 4 1 5 29 6 30 7 91 8 31 9 90 10 32 11 33 12
REMARK SMILES IDX 34 13 84 14 35 15 89 16 83 17 85 18 36 19 88 20 82 21 81 22
REMARK SMILES IDX 37 24 69 25 49 26 68 27 50 28 53 29 67 30 86 31 51 32 52 33
REMARK SMILES IDX 66 35 87 36 54 37 38 38 39 39 47 40 40 41 41 42 45 43 48 44
REMARK SMILES IDX 42 45 43 46 46 47 44 48 70 49 71 50 79 51 72 52 73 53 77 54
REMARK SMILES IDX 80 55 74 56 75 57 78 58 76 59 55 60 56 61 64 62 57 63 58 64
REMARK SMILES IDX 62 65 65 66 59 67 60 68 63 69 61 70 6 71 7 72 8 73 9 74
REMARK SMILES IDX 10 75 11 76 12 77 13 78 28 79 14 80 27 81 15 82 26 83 16 84
REMARK SMILES IDX 19 85 17 86 18 87 20 89 21 90 25 91 22 92 24 93 23 94
REMARK H PARENT 85 23 53 34 18 88 23 95 23 96
REMARK Flexibility Score: inf
ROOT
ATOM      1  C   UNL A   1      32.626  28.108  24.872  1.00  0.00     0.202 C 
ENDROOT
BRANCH   1   2
ATOM      2  C   UNL A   1      32.076  29.307  25.647  1.00  0.00     0.261 C 
BRANCH   2   3
ATOM      3  O   UNL A   1      33.080  30.331  25.749  1.00  0.00    -0.460 OA
BRANCH   3   4
ATOM      4  C   UNL A   1      33.364  31.108  26.819  1.00  0.00     0.338 C 
ATOM      5  O   UNL A   1      32.662  32.091  27.042  1.00  0.00    -0.246 OA
BRANCH   4   6
ATOM      6  C   UNL A   1      34.503  30.840  27.746  1.00  0.00     0.060 A 
ATOM      7  C   UNL A   1      34.763  29.601  28.335  1.00  0.00     0.016 A 
ATOM      8  C   UNL A   1      35.442  31.868  27.925  1.00  0.00     0.016 A 
ATOM      9  C   UNL A   1      35.894  29.387  29.109  1.00  0.00     0.010 A 
ATOM     10  C   UNL A   1      36.611  31.648  28.661  1.00  0.00     0.010 A 
ATOM     11  C   UNL A   1      36.839  30.399  29.247  1.00  0.00    -0.014 A 
BRANCH  11  12
ATOM     12  C   UNL A   1      38.070  30.105  30.000  1.00  0.00     0.031 A 
ATOM     13  C   UNL A   1      39.110  29.233  29.379  1.00  0.00     0.074 A 
ATOM     14  C   UNL A   1      38.257  30.696  31.195  1.00  0.00     0.049 A 
ATOM     15  N   UNL A   1      40.219  28.777  29.895  1.00  0.00    -0.248 NA
ATOM     16  C   UNL A   1      38.879  28.827  27.983  1.00  0.00     0.031 C 
ATOM     17  C   UNL A   1      37.328  31.644  31.817  1.00  0.00     0.029 A 
ATOM     18  N   UNL A   1      39.287  30.603  32.091  1.00  0.00    -0.354 N 
ATOM     19  C   UNL A   1      40.801  28.003  28.903  1.00  0.00     0.074 A 
ATOM     20  C   UNL A   1      39.935  28.061  27.747  1.00  0.00     0.031 C 
ATOM     21  C   UNL A   1      37.836  32.049  32.992  1.00  0.00     0.029 A 
ATOM     22  C   UNL A   1      39.081  31.333  33.237  1.00  0.00     0.049 A 
ATOM     23  H   UNL A   1      40.096  30.065  31.930  1.00  0.00     0.167 HD
ATOM     24  C   UNL A   1      41.951  27.296  28.977  1.00  0.00     0.037 A 
ATOM     25  C   UNL A   1      39.798  31.366  34.375  1.00  0.00     0.037 A 
ATOM     26  C   UNL A   1      42.792  27.274  30.143  1.00  0.00     0.049 A 
ATOM     27  C   UNL A   1      41.028  30.502  34.455  1.00  0.00     0.074 A 
ATOM     28  C   UNL A   1      43.975  26.589  30.343  1.00  0.00     0.029 A 
ATOM     29  N   UNL A   1      42.526  27.974  31.313  1.00  0.00    -0.354 N 
ATOM     30  N   UNL A   1      41.564  29.743  33.527  1.00  0.00    -0.248 NA
ATOM     31  C   UNL A   1      41.736  30.471  35.740  1.00  0.00     0.031 C 
ATOM     32  C   UNL A   1      44.399  26.836  31.653  1.00  0.00     0.029 A 
ATOM     33  C   UNL A   1      43.502  27.708  32.254  1.00  0.00     0.049 A 
ATOM     34  H   UNL A   1      41.756  28.572  31.450  1.00  0.00     0.167 HD
ATOM     35  C   UNL A   1      42.668  29.144  34.114  1.00  0.00     0.074 A 
ATOM     36  C   UNL A   1      42.745  29.655  35.469  1.00  0.00     0.031 C 
ATOM     37  C   UNL A   1      43.534  28.241  33.593  1.00  0.00     0.037 A 
BRANCH  24  38
ATOM     38  C   UNL A   1      42.314  26.442  27.802  1.00  0.00     0.064 A 
ATOM     39  C   UNL A   1      43.225  26.865  26.825  1.00  0.00     0.173 A 
ATOM     40  C   UNL A   1      41.741  25.170  27.661  1.00  0.00     0.173 A 
ATOM     41  F   UNL A   1      43.781  28.084  26.901  1.00  0.00    -0.203 F 
ATOM     42  C   UNL A   1      43.539  26.049  25.740  1.00  0.00     0.198 A 
ATOM     43  C   UNL A   1      42.072  24.348  26.588  1.00  0.00     0.198 A 
ATOM     44  F   UNL A   1      40.857  24.723  28.566  1.00  0.00    -0.203 F 
ATOM     45  F   UNL A   1      44.382  26.487  24.795  1.00  0.00    -0.200 F 
ATOM     46  C   UNL A   1      42.967  24.790  25.625  1.00  0.00     0.200 A 
ATOM     47  F   UNL A   1      41.519  23.132  26.480  1.00  0.00    -0.200 F 
ATOM     48  F   UNL A   1      43.270  24.007  24.582  1.00  0.00    -0.200 F 
ENDBRANCH  24  38
BRANCH  25  49
ATOM     49  C   UNL A   1      39.329  32.161  35.544  1.00  0.00     0.064 A 
ATOM     50  C   UNL A   1      39.742  33.486  35.741  1.00  0.00     0.173 A 
ATOM     51  C   UNL A   1      38.481  31.597  36.511  1.00  0.00     0.173 A 
ATOM     52  F   UNL A   1      40.572  34.065  34.863  1.00  0.00    -0.203 F 
ATOM     53  C   UNL A   1      39.344  34.205  36.868  1.00  0.00     0.198 A 
ATOM     54  C   UNL A   1      38.056  32.327  37.618  1.00  0.00     0.198 A 
ATOM     55  F   UNL A   1      38.058  30.331  36.380  1.00  0.00    -0.203 F 
ATOM     56  F   UNL A   1      39.800  35.451  37.060  1.00  0.00    -0.200 F 
ATOM     57  C   UNL A   1      38.496  33.628  37.802  1.00  0.00     0.200 A 
ATOM     58  F   UNL A   1      37.227  31.768  38.510  1.00  0.00    -0.200 F 
ATOM     59  F   UNL A   1      38.118  34.319  38.886  1.00  0.00    -0.200 F 
ENDBRANCH  25  49
BRANCH  37  60
ATOM     60  C   UNL A   1      44.624  27.754  34.496  1.00  0.00     0.064 A 
ATOM     61  C   UNL A   1      45.835  28.450  34.610  1.00  0.00     0.173 A 
ATOM     62  C   UNL A   1      44.431  26.619  35.296  1.00  0.00     0.173 A 
ATOM     63  F   UNL A   1      46.068  29.530  33.848  1.00  0.00    -0.203 F 
ATOM     64  C   UNL A   1      46.823  28.019  35.489  1.00  0.00     0.198 A 
ATOM     65  C   UNL A   1      45.410  26.207  36.193  1.00  0.00     0.198 A 
ATOM     66  F   UNL A   1      43.284  25.926  35.221  1.00  0.00    -0.203 F 
ATOM     67  F   UNL A   1      47.988  28.677  35.560  1.00  0.00    -0.200 F 
ATOM     68  C   UNL A   1      46.605  26.905  36.287  1.00  0.00     0.200 A 
ATOM     69  F   UNL A   1      45.194  25.139  36.972  1.00  0.00    -0.200 F 
ATOM     70  F   UNL A   1      47.552  26.500  37.144  1.00  0.00    -0.200 F 
ENDBRANCH  37  60
ENDBRANCH  11  12
ENDBRANCH   4   6
ENDBRANCH   3   4
ENDBRANCH   2   3
ENDBRANCH   1   2
BRANCH   1  71
ATOM     71  O   UNL A   1      32.195  28.043  23.513  1.00  0.00    -0.374 OA
BRANCH  71  72
ATOM     72  C   UNL A   1      31.653  26.785  23.089  1.00  0.00     0.202 C 
BRANCH  72  73
ATOM     73  C   UNL A   1      30.251  26.623  23.686  1.00  0.00     0.261 C 
BRANCH  73  74
ATOM     74  O   UNL A   1      30.181  25.336  24.323  1.00  0.00    -0.460 OA
BRANCH  74  75
ATOM     75  C   UNL A   1      30.494  25.337  25.648  1.00  0.00     0.338 C 
ATOM     76  O   UNL A   1      29.907  25.895  26.549  1.00  0.00    -0.246 OA
BRANCH  75  77
ATOM     77  C   UNL A   1      31.551  24.318  25.837  1.00  0.00     0.062 A 
ATOM     78  C   UNL A   1      32.845  24.686  26.221  1.00  0.00     0.016 A 
ATOM     79  C   UNL A   1      31.254  22.987  25.506  1.00  0.00     0.045 A 
ATOM     80  C   UNL A   1      33.845  23.718  26.272  1.00  0.00     0.017 A 
ATOM     81  C   UNL A   1      32.261  22.021  25.503  1.00  0.00     0.081 A 
ATOM     82  C   UNL A   1      33.542  22.400  25.910  1.00  0.00     0.066 A 
ATOM     83  N   UNL A   1      31.961  20.716  25.068  1.00  0.00    -0.214 NA
ATOM     84  C   UNL A   1      34.573  21.356  25.946  1.00  0.00     0.260 A 
ATOM     85  C   UNL A   1      32.888  19.814  25.142  1.00  0.00     0.206 A 
ATOM     86  O   UNL A   1      35.729  21.590  26.277  1.00  0.00    -0.269 OA
ATOM     87  N   UNL A   1      34.151  20.107  25.580  1.00  0.00    -0.292 N 
ATOM     88  H   UNL A   1      34.800  19.369  25.636  1.00  0.00     0.173 HD
BRANCH  85  89
ATOM     89  N   UNL A   1      32.693  18.512  24.784  1.00  0.00    -0.331 N 
ATOM     90  C   UNL A   1      32.700  18.074  23.390  1.00  0.00     0.181 C 
ATOM     91  C   UNL A   1      32.550  17.444  25.770  1.00  0.00     0.181 C 
ATOM     92  C   UNL A   1      33.772  16.971  23.204  1.00  0.00     0.282 C 
ATOM     93  C   UNL A   1      33.631  16.369  25.542  1.00  0.00     0.282 C 
ATOM     94  N   UNL A   1      33.653  15.846  24.160  1.00  0.00    -0.343 N 
ATOM     95  H   UNL A   1      34.449  15.219  24.047  1.00  0.00     0.346 HD
ATOM     96  H   UNL A   1      32.789  15.337  23.977  1.00  0.00     0.346 HD
ENDBRANCH  85  89
ENDBRANCH  75  77
ENDBRANCH  74  75
ENDBRANCH  73  74
ENDBRANCH  72  73
ENDBRANCH  71  72
ENDBRANCH   1  71
TORSDOF 15
ENDMDL
MODEL 3
REMARK VINA RESULT:     -11.7      3.996      9.396
REMARK SMILES O=C(OCCOCCOC(=O)c1ccc2c(=O)[nH]c(N3CC[NH2+]CC3)nc2c1)c1ccc(-c2c3nc(c(-c4c(F)c(F)c(F)c(F)c4F)c4ccc([nH]4)c(-c4c(F)c(F)c(F)c(F)c4F)c4nc(c(-c5c(F)c(F)c(F)c(F)c5F)c5ccc2[nH]5)C=C4)C=C3)cc1
REMARK SMILES IDX 5 1 4 2 3 3 2 4 1 5 29 6 30 7 91 8 31 9 90 10 32 11 33 12
REMARK SMILES IDX 34 13 84 14 35 15 89 16 83 17 85 18 36 19 88 20 82 21 81 22
REMARK SMILES IDX 37 24 69 25 49 26 68 27 50 28 53 29 67 30 86 31 51 32 52 33
REMARK SMILES IDX 66 35 87 36 54 37 38 38 39 39 47 40 40 41 41 42 45 43 48 44
REMARK SMILES IDX 42 45 43 46 46 47 44 48 70 49 71 50 79 51 72 52 73 53 77 54
REMARK SMILES IDX 80 55 74 56 75 57 78 58 76 59 55 60 56 61 64 62 57 63 58 64
REMARK SMILES IDX 62 65 65 66 59 67 60 68 63 69 61 70 6 71 7 72 8 73 9 74
REMARK SMILES IDX 10 75 11 76 12 77 13 78 28 79 14 80 27 81 15 82 26 83 16 84
REMARK SMILES IDX 19 85 17 86 18 87 20 89 21 90 25 91 22 92 24 93 23 94
REMARK H PARENT 85 23 53 34 18 88 23 95 23 96
REMARK Flexibility Score: inf
ROOT
ATOM      1  C   UNL A   1      35.474  21.083  25.158  1.00  0.00     0.202 C 
ENDROOT
BRANCH   1   2
ATOM      2  C   UNL A   1      36.635  21.886  25.748  1.00  0.00     0.261 C 
BRANCH   2   3
ATOM      3  O   UNL A   1      37.885  21.251  25.430  1.00  0.00    -0.460 OA
BRANCH   3   4
ATOM      4  C   UNL A   1      39.040  21.302  26.131  1.00  0.00     0.338 C 
ATOM      5  O   UNL A   1      39.632  20.254  26.381  1.00  0.00    -0.246 OA
BRANCH   4   6
ATOM      6  C   UNL A   1      39.636  22.575  26.636  1.00  0.00     0.060 A 
ATOM      7  C   UNL A   1      40.685  22.642  27.555  1.00  0.00     0.016 A 
ATOM      8  C   UNL A   1      39.197  23.770  26.044  1.00  0.00     0.016 A 
ATOM      9  C   UNL A   1      41.263  23.852  27.911  1.00  0.00     0.010 A 
ATOM     10  C   UNL A   1      39.807  24.989  26.357  1.00  0.00     0.010 A 
ATOM     11  C   UNL A   1      40.850  25.026  27.289  1.00  0.00    -0.014 A 
BRANCH  11  12
ATOM     12  C   UNL A   1      41.549  26.276  27.627  1.00  0.00     0.031 A 
ATOM     13  C   UNL A   1      40.839  27.310  28.436  1.00  0.00     0.074 A 
ATOM     14  C   UNL A   1      42.838  26.417  27.264  1.00  0.00     0.049 A 
ATOM     15  N   UNL A   1      41.232  28.509  28.769  1.00  0.00    -0.248 NA
ATOM     16  C   UNL A   1      39.511  26.941  28.953  1.00  0.00     0.031 C 
ATOM     17  C   UNL A   1      43.629  25.402  26.561  1.00  0.00     0.029 A 
ATOM     18  N   UNL A   1      43.713  27.454  27.443  1.00  0.00    -0.354 N 
ATOM     19  C   UNL A   1      40.189  29.053  29.502  1.00  0.00     0.074 A 
ATOM     20  C   UNL A   1      39.150  28.050  29.583  1.00  0.00     0.031 C 
ATOM     21  C   UNL A   1      44.875  25.868  26.376  1.00  0.00     0.029 A 
ATOM     22  C   UNL A   1      44.945  27.234  26.875  1.00  0.00     0.049 A 
ATOM     23  H   UNL A   1      43.482  28.278  27.933  1.00  0.00     0.167 HD
ATOM     24  C   UNL A   1      40.115  30.292  30.038  1.00  0.00     0.037 A 
ATOM     25  C   UNL A   1      45.987  28.073  26.731  1.00  0.00     0.037 A 
ATOM     26  C   UNL A   1      41.176  31.257  29.947  1.00  0.00     0.049 A 
ATOM     27  C   UNL A   1      45.839  29.473  27.264  1.00  0.00     0.074 A 
ATOM     28  C   UNL A   1      41.217  32.547  30.439  1.00  0.00     0.029 A 
ATOM     29  N   UNL A   1      42.389  31.028  29.310  1.00  0.00    -0.354 N 
ATOM     30  N   UNL A   1      44.840  30.000  27.932  1.00  0.00    -0.248 NA
ATOM     31  C   UNL A   1      46.944  30.403  27.003  1.00  0.00     0.031 C 
ATOM     32  C   UNL A   1      42.436  33.116  30.056  1.00  0.00     0.029 A 
ATOM     33  C   UNL A   1      43.172  32.166  29.363  1.00  0.00     0.049 A 
ATOM     34  H   UNL A   1      42.653  30.180  28.885  1.00  0.00     0.167 HD
ATOM     35  C   UNL A   1      45.190  31.320  28.168  1.00  0.00     0.074 A 
ATOM     36  C   UNL A   1      46.513  31.504  27.602  1.00  0.00     0.031 C 
ATOM     37  C   UNL A   1      44.484  32.300  28.782  1.00  0.00     0.037 A 
BRANCH  24  38
ATOM     38  C   UNL A   1      38.828  30.686  30.693  1.00  0.00     0.064 A 
ATOM     39  C   UNL A   1      37.727  31.148  29.959  1.00  0.00     0.173 A 
ATOM     40  C   UNL A   1      38.696  30.589  32.087  1.00  0.00     0.173 A 
ATOM     41  F   UNL A   1      37.811  31.283  28.627  1.00  0.00    -0.203 F 
ATOM     42  C   UNL A   1      36.545  31.513  30.600  1.00  0.00     0.198 A 
ATOM     43  C   UNL A   1      37.508  30.935  32.722  1.00  0.00     0.198 A 
ATOM     44  F   UNL A   1      39.725  30.160  32.833  1.00  0.00    -0.203 F 
ATOM     45  F   UNL A   1      35.516  31.991  29.885  1.00  0.00    -0.200 F 
ATOM     46  C   UNL A   1      36.433  31.401  31.978  1.00  0.00     0.200 A 
ATOM     47  F   UNL A   1      37.403  30.824  34.053  1.00  0.00    -0.200 F 
ATOM     48  F   UNL A   1      35.296  31.752  32.592  1.00  0.00    -0.200 F 
ENDBRANCH  24  38
BRANCH  25  49
ATOM     49  C   UNL A   1      47.202  27.651  25.982  1.00  0.00     0.064 A 
ATOM     50  C   UNL A   1      47.258  27.714  24.582  1.00  0.00     0.173 A 
ATOM     51  C   UNL A   1      48.326  27.141  26.652  1.00  0.00     0.173 A 
ATOM     52  F   UNL A   1      46.204  28.168  23.890  1.00  0.00    -0.203 F 
ATOM     53  C   UNL A   1      48.379  27.262  23.885  1.00  0.00     0.198 A 
ATOM     54  C   UNL A   1      49.459  26.723  25.956  1.00  0.00     0.198 A 
ATOM     55  F   UNL A   1      48.329  27.050  27.990  1.00  0.00    -0.203 F 
ATOM     56  F   UNL A   1      48.383  27.281  22.545  1.00  0.00    -0.200 F 
ATOM     57  C   UNL A   1      49.480  26.774  24.572  1.00  0.00     0.200 A 
ATOM     58  F   UNL A   1      50.524  26.264  26.626  1.00  0.00    -0.200 F 
ATOM     59  F   UNL A   1      50.554  26.338  23.900  1.00  0.00    -0.200 F 
ENDBRANCH  25  49
BRANCH  37  60
ATOM     60  C   UNL A   1      45.130  33.649  28.861  1.00  0.00     0.064 A 
ATOM     61  C   UNL A   1      46.003  33.974  29.909  1.00  0.00     0.173 A 
ATOM     62  C   UNL A   1      44.923  34.597  27.849  1.00  0.00     0.173 A 
ATOM     63  F   UNL A   1      46.213  33.101  30.907  1.00  0.00    -0.203 F 
ATOM     64  C   UNL A   1      46.638  35.210  29.947  1.00  0.00     0.198 A 
ATOM     65  C   UNL A   1      45.582  35.821  27.877  1.00  0.00     0.198 A 
ATOM     66  F   UNL A   1      44.100  34.325  26.825  1.00  0.00    -0.203 F 
ATOM     67  F   UNL A   1      47.442  35.516  30.975  1.00  0.00    -0.200 F 
ATOM     68  C   UNL A   1      46.436  36.127  28.927  1.00  0.00     0.200 A 
ATOM     69  F   UNL A   1      45.396  36.702  26.885  1.00  0.00    -0.200 F 
ATOM     70  F   UNL A   1      47.061  37.312  28.958  1.00  0.00    -0.200 F 
ENDBRANCH  37  60
ENDBRANCH  11  12
ENDBRANCH   4   6
ENDBRANCH   3   4
ENDBRANCH   2   3
ENDBRANCH   1   2
BRANCH   1  71
ATOM     71  O   UNL A   1      34.619  21.837  24.299  1.00  0.00    -0.374 OA
BRANCH  71  72
ATOM     72  C   UNL A   1      33.212  21.618  24.470  1.00  0.00     0.202 C 
BRANCH  72  73
ATOM     73  C   UNL A   1      32.490  22.008  23.175  1.00  0.00     0.261 C 
BRANCH  73  74
ATOM     74  O   UNL A   1      32.146  23.401  23.256  1.00  0.00    -0.460 OA
BRANCH  74  75
ATOM     75  C   UNL A   1      32.880  24.218  22.452  1.00  0.00     0.338 C 
ATOM     76  O   UNL A   1      33.370  23.956  21.375  1.00  0.00    -0.246 OA
BRANCH  75  77
ATOM     77  C   UNL A   1      32.767  25.584  23.013  1.00  0.00     0.062 A 
ATOM     78  C   UNL A   1      33.610  26.010  24.045  1.00  0.00     0.016 A 
ATOM     79  C   UNL A   1      31.715  26.398  22.566  1.00  0.00     0.045 A 
ATOM     80  C   UNL A   1      33.398  27.255  24.632  1.00  0.00     0.017 A 
ATOM     81  C   UNL A   1      31.462  27.622  23.184  1.00  0.00     0.081 A 
ATOM     82  C   UNL A   1      32.327  28.044  24.198  1.00  0.00     0.066 A 
ATOM     83  N   UNL A   1      30.339  28.374  22.788  1.00  0.00    -0.214 NA
ATOM     84  C   UNL A   1      32.070  29.358  24.798  1.00  0.00     0.260 A 
ATOM     85  C   UNL A   1      30.161  29.543  23.320  1.00  0.00     0.206 A 
ATOM     86  O   UNL A   1      32.764  29.810  25.701  1.00  0.00    -0.269 OA
ATOM     87  N   UNL A   1      31.000  30.037  24.281  1.00  0.00    -0.292 N 
ATOM     88  H   UNL A   1      30.822  30.942  24.624  1.00  0.00     0.173 HD
BRANCH  85  89
ATOM     89  N   UNL A   1      29.130  30.368  22.980  1.00  0.00    -0.331 N 
ATOM     90  C   UNL A   1      28.812  31.576  23.738  1.00  0.00     0.181 C 
ATOM     91  C   UNL A   1      28.321  30.154  21.783  1.00  0.00     0.181 C 
ATOM     92  C   UNL A   1      28.851  32.802  22.789  1.00  0.00     0.282 C 
ATOM     93  C   UNL A   1      28.385  31.399  20.876  1.00  0.00     0.282 C 
ATOM     94  N   UNL A   1      28.020  32.650  21.573  1.00  0.00    -0.343 N 
ATOM     95  H   UNL A   1      28.179  33.444  20.952  1.00  0.00     0.346 HD
ATOM     96  H   UNL A   1      27.036  32.616  21.838  1.00  0.00     0.346 HD
ENDBRANCH  85  89
ENDBRANCH  75  77
ENDBRANCH  74  75
ENDBRANCH  73  74
ENDBRANCH  72  73
ENDBRANCH  71  72
ENDBRANCH   1  71
TORSDOF 15
ENDMDL
