MODEL 1
REMARK VINA RESULT:     -11.4      0.000      0.000
REMARK SMILES CS(=O)(=O)[C@@H]1CCC[C@@H](Sc2ccc(C(=O)OCCOCCOC(=O)c3ccc(-c4c5nc(c(-c6c(F)c(F)c(F)c(F)c6F)c6ccc([nH]6)c(-c6c(F)c(F)c(F)c(F)c6F)c6nc(c(-c7c(F)c(F)c(F)c(F)c7F)c7ccc4[nH]7)C=C6)C=C5)cc3)cn2)C1
REMARK SMILES IDX 19 1 18 2 17 3 15 4 16 5 14 6 11 7 12 8 90 9 13 10 89 11
REMARK SMILES IDX 10 12 9 13 5 14 6 15 91 16 7 17 8 18 2 19 1 20 3 21 4 22
REMARK SMILES IDX 20 23 21 24 22 25 23 26 24 27 25 28 26 29 27 30 88 31 28 32
REMARK SMILES IDX 87 33 29 34 30 35 31 36 81 37 32 38 86 39 80 40 82 41 33 42
REMARK SMILES IDX 85 43 79 44 78 45 34 47 66 48 46 49 65 50 47 51 50 52 64 53
REMARK SMILES IDX 83 54 48 55 49 56 63 58 84 59 51 60 35 61 36 62 44 63 37 64
REMARK SMILES IDX 38 65 42 66 45 67 39 68 40 69 43 70 41 71 67 72 68 73 76 74
REMARK SMILES IDX 69 75 70 76 74 77 77 78 71 79 72 80 75 81 73 82 52 83 53 84
REMARK SMILES IDX 61 85 54 86 55 87 59 88 62 89 56 90 57 91 60 92 58 93
REMARK H PARENT 82 46 50 57
REMARK Flexibility Score: inf
ROOT
ATOM      1  C   UNL A   1      35.155  33.136  28.285  1.00  0.00     0.202 C 
ENDROOT
BRANCH   1   2
ATOM      2  C   UNL A   1      34.725  31.719  28.677  1.00  0.00     0.261 C 
BRANCH   2   3
ATOM      3  O   UNL A   1      34.192  31.022  27.544  1.00  0.00    -0.460 OA
BRANCH   3   4
ATOM      4  C   UNL A   1      34.724  29.803  27.270  1.00  0.00     0.339 C 
ATOM      5  O   UNL A   1      35.889  29.466  27.370  1.00  0.00    -0.246 OA
BRANCH   4   6
ATOM      6  C   UNL A   1      33.619  28.884  26.937  1.00  0.00     0.078 A 
ATOM      7  C   UNL A   1      31.617  27.031  26.355  1.00  0.00     0.096 A 
ATOM      8  C   UNL A   1      31.403  28.058  27.247  1.00  0.00     0.036 A 
ATOM      9  N   UNL A   1      32.829  26.912  25.763  1.00  0.00    -0.249 NA
ATOM     10  C   UNL A   1      32.385  28.988  27.550  1.00  0.00     0.020 A 
ATOM     11  C   UNL A   1      33.798  27.831  26.055  1.00  0.00     0.128 A 
BRANCH   7  12
ATOM     12  S   UNL A   1      30.434  25.770  25.940  1.00  0.00    -0.103 SA
BRANCH  12  13
ATOM     13  C   UNL A   1      30.030  25.721  24.109  1.00  0.00     0.054 C 
ATOM     14  C   UNL A   1      30.168  28.083  23.242  1.00  0.00     0.109 C 
ATOM     15  C   UNL A   1      31.191  27.671  22.169  1.00  0.00     0.020 C 
ATOM     16  C   UNL A   1      29.243  26.929  23.580  1.00  0.00     0.034 C 
ATOM     17  C   UNL A   1      31.890  26.316  22.368  1.00  0.00     0.002 C 
ATOM     18  C   UNL A   1      31.106  25.243  23.126  1.00  0.00     0.015 C 
BRANCH  14  19
ATOM     19  S   UNL A   1      29.310  29.607  22.813  1.00  0.00     0.150 S 
ATOM     20  C   UNL A   1      27.603  29.101  22.897  1.00  0.00     0.158 C 
ATOM     21  O   UNL A   1      29.583  29.926  21.427  1.00  0.00    -0.229 OA
ATOM     22  O   UNL A   1      29.526  30.587  23.859  1.00  0.00    -0.229 OA
ENDBRANCH  14  19
ENDBRANCH  12  13
ENDBRANCH   7  12
ENDBRANCH   4   6
ENDBRANCH   3   4
ENDBRANCH   2   3
ENDBRANCH   1   2
BRANCH   1  23
ATOM     23  O   UNL A   1      34.098  34.010  27.893  1.00  0.00    -0.374 OA
BRANCH  23  24
ATOM     24  C   UNL A   1      34.156  35.347  28.392  1.00  0.00     0.202 C 
BRANCH  24  25
ATOM     25  C   UNL A   1      32.904  35.839  29.125  1.00  0.00     0.261 C 
BRANCH  25  26
ATOM     26  O   UNL A   1      32.603  35.009  30.262  1.00  0.00    -0.460 OA
BRANCH  26  27
ATOM     27  C   UNL A   1      32.783  35.609  31.463  1.00  0.00     0.338 C 
ATOM     28  O   UNL A   1      32.096  36.474  31.975  1.00  0.00    -0.246 OA
BRANCH  27  29
ATOM     29  C   UNL A   1      33.876  34.930  32.182  1.00  0.00     0.060 A 
ATOM     30  C   UNL A   1      35.166  35.468  32.075  1.00  0.00     0.016 A 
ATOM     31  C   UNL A   1      33.651  33.750  32.891  1.00  0.00     0.016 A 
ATOM     32  C   UNL A   1      36.250  34.798  32.636  1.00  0.00     0.010 A 
ATOM     33  C   UNL A   1      34.738  33.077  33.449  1.00  0.00     0.010 A 
ATOM     34  C   UNL A   1      36.044  33.578  33.291  1.00  0.00    -0.014 A 
BRANCH  34  35
ATOM     35  C   UNL A   1      37.190  32.717  33.665  1.00  0.00     0.031 A 
ATOM     36  C   UNL A   1      37.900  32.996  34.957  1.00  0.00     0.074 A 
ATOM     37  C   UNL A   1      37.622  31.744  32.848  1.00  0.00     0.049 A 
ATOM     38  N   UNL A   1      39.031  32.520  35.408  1.00  0.00    -0.248 NA
ATOM     39  C   UNL A   1      37.248  33.963  35.855  1.00  0.00     0.031 C 
ATOM     40  C   UNL A   1      36.986  31.350  31.594  1.00  0.00     0.029 A 
ATOM     41  N   UNL A   1      38.727  30.935  32.939  1.00  0.00    -0.354 N 
ATOM     42  C   UNL A   1      39.242  33.150  36.628  1.00  0.00     0.074 A 
ATOM     43  C   UNL A   1      38.137  34.062  36.832  1.00  0.00     0.031 C 
ATOM     44  C   UNL A   1      37.733  30.398  31.011  1.00  0.00     0.029 A 
ATOM     45  C   UNL A   1      38.922  30.155  31.828  1.00  0.00     0.049 A 
ATOM     46  H   UNL A   1      39.321  30.916  33.725  1.00  0.00     0.167 HD
ATOM     47  C   UNL A   1      40.266  32.980  37.498  1.00  0.00     0.037 A 
ATOM     48  C   UNL A   1      39.965  29.372  31.488  1.00  0.00     0.037 A 
ATOM     49  C   UNL A   1      41.361  32.073  37.277  1.00  0.00     0.049 A 
ATOM     50  C   UNL A   1      41.135  29.249  32.430  1.00  0.00     0.074 A 
ATOM     51  C   UNL A   1      42.440  31.805  38.100  1.00  0.00     0.029 A 
ATOM     52  N   UNL A   1      41.522  31.294  36.139  1.00  0.00    -0.354 N 
ATOM     53  N   UNL A   1      41.329  29.833  33.588  1.00  0.00    -0.248 NA
ATOM     54  C   UNL A   1      42.229  28.358  32.021  1.00  0.00     0.031 C 
ATOM     55  C   UNL A   1      43.287  30.916  37.431  1.00  0.00     0.029 A 
ATOM     56  C   UNL A   1      42.698  30.568  36.225  1.00  0.00     0.049 A 
ATOM     57  H   UNL A   1      40.892  31.262  35.382  1.00  0.00     0.167 HD
ATOM     58  C   UNL A   1      42.542  29.354  34.063  1.00  0.00     0.074 A 
ATOM     59  C   UNL A   1      43.045  28.434  33.064  1.00  0.00     0.031 C 
ATOM     60  C   UNL A   1      43.176  29.641  35.228  1.00  0.00     0.037 A 
BRANCH  47  61
ATOM     61  C   UNL A   1      40.267  33.831  38.737  1.00  0.00     0.064 A 
ATOM     62  C   UNL A   1      39.557  33.465  39.892  1.00  0.00     0.173 A 
ATOM     63  C   UNL A   1      40.983  35.037  38.765  1.00  0.00     0.173 A 
ATOM     64  F   UNL A   1      38.847  32.327  39.917  1.00  0.00    -0.203 F 
ATOM     65  C   UNL A   1      39.523  34.300  41.007  1.00  0.00     0.198 A 
ATOM     66  C   UNL A   1      40.977  35.850  39.895  1.00  0.00     0.198 A 
ATOM     67  F   UNL A   1      41.684  35.434  37.692  1.00  0.00    -0.203 F 
ATOM     68  F   UNL A   1      38.776  33.965  42.068  1.00  0.00    -0.200 F 
ATOM     69  C   UNL A   1      40.235  35.489  41.009  1.00  0.00     0.200 A 
ATOM     70  F   UNL A   1      41.680  36.991  39.901  1.00  0.00    -0.200 F 
ATOM     71  F   UNL A   1      40.197  36.293  42.080  1.00  0.00    -0.200 F 
ENDBRANCH  47  61
BRANCH  48  72
ATOM     72  C   UNL A   1      39.948  28.666  30.181  1.00  0.00     0.064 A 
ATOM     73  C   UNL A   1      40.533  29.235  29.043  1.00  0.00     0.173 A 
ATOM     74  C   UNL A   1      39.378  27.389  30.054  1.00  0.00     0.173 A 
ATOM     75  F   UNL A   1      41.073  30.461  29.111  1.00  0.00    -0.203 F 
ATOM     76  C   UNL A   1      40.545  28.558  27.825  1.00  0.00     0.198 A 
ATOM     77  C   UNL A   1      39.416  26.701  28.843  1.00  0.00     0.198 A 
ATOM     78  F   UNL A   1      38.810  26.797  31.114  1.00  0.00    -0.203 F 
ATOM     79  F   UNL A   1      41.087  29.136  26.745  1.00  0.00    -0.200 F 
ATOM     80  C   UNL A   1      39.996  27.288  27.729  1.00  0.00     0.200 A 
ATOM     81  F   UNL A   1      38.903  25.466  28.760  1.00  0.00    -0.200 F 
ATOM     82  F   UNL A   1      40.026  26.629  26.562  1.00  0.00    -0.200 F 
ENDBRANCH  48  72
BRANCH  60  83
ATOM     83  C   UNL A   1      44.454  28.912  35.532  1.00  0.00     0.064 A 
ATOM     84  C   UNL A   1      45.701  29.380  35.095  1.00  0.00     0.173 A 
ATOM     85  C   UNL A   1      44.432  27.778  36.360  1.00  0.00     0.173 A 
ATOM     86  F   UNL A   1      45.777  30.451  34.291  1.00  0.00    -0.203 F 
ATOM     87  C   UNL A   1      46.877  28.735  35.470  1.00  0.00     0.198 A 
ATOM     88  C   UNL A   1      45.611  27.155  36.758  1.00  0.00     0.198 A 
ATOM     89  F   UNL A   1      43.264  27.293  36.811  1.00  0.00    -0.203 F 
ATOM     90  F   UNL A   1      48.058  29.182  35.019  1.00  0.00    -0.200 F 
ATOM     91  C   UNL A   1      46.832  27.633  36.312  1.00  0.00     0.200 A 
ATOM     92  F   UNL A   1      45.564  26.102  37.586  1.00  0.00    -0.200 F 
ATOM     93  F   UNL A   1      47.967  27.030  36.691  1.00  0.00    -0.200 F 
ENDBRANCH  60  83
ENDBRANCH  34  35
ENDBRANCH  27  29
ENDBRANCH  26  27
ENDBRANCH  25  26
ENDBRANCH  24  25
ENDBRANCH  23  24
ENDBRANCH   1  23
TORSDOF 17
ENDMDL
MODEL 2
REMARK VINA RESULT:     -11.0      1.619      2.457
REMARK SMILES CS(=O)(=O)[C@@H]1CCC[C@@H](Sc2ccc(C(=O)OCCOCCOC(=O)c3ccc(-c4c5nc(c(-c6c(F)c(F)c(F)c(F)c6F)c6ccc([nH]6)c(-c6c(F)c(F)c(F)c(F)c6F)c6nc(c(-c7c(F)c(F)c(F)c(F)c7F)c7ccc4[nH]7)C=C6)C=C5)cc3)cn2)C1
REMARK SMILES IDX 19 1 18 2 17 3 15 4 16 5 14 6 11 7 12 8 90 9 13 10 89 11
REMARK SMILES IDX 10 12 9 13 5 14 6 15 91 16 7 17 8 18 2 19 1 20 3 21 4 22
REMARK SMILES IDX 20 23 21 24 22 25 23 26 24 27 25 28 26 29 27 30 88 31 28 32
REMARK SMILES IDX 87 33 29 34 30 35 31 36 81 37 32 38 86 39 80 40 82 41 33 42
REMARK SMILES IDX 85 43 79 44 78 45 34 47 66 48 46 49 65 50 47 51 50 52 64 53
REMARK SMILES IDX 83 54 48 55 49 56 63 58 84 59 51 60 35 61 36 62 44 63 37 64
REMARK SMILES IDX 38 65 42 66 45 67 39 68 40 69 43 70 41 71 67 72 68 73 76 74
REMARK SMILES IDX 69 75 70 76 74 77 77 78 71 79 72 80 75 81 73 82 52 83 53 84
REMARK SMILES IDX 61 85 54 86 55 87 59 88 62 89 56 90 57 91 60 92 58 93
REMARK H PARENT 82 46 50 57
REMARK Flexibility Score: inf
ROOT
ATOM      1  C   UNL A   1      35.224  33.164  28.318  1.00  0.00     0.202 C 
ENDROOT
BRANCH   1   2
ATOM      2  C   UNL A   1      34.426  31.936  28.766  1.00  0.00     0.261 C 
BRANCH   2   3
ATOM      3  O   UNL A   1      34.013  31.162  27.633  1.00  0.00    -0.460 OA
BRANCH   3   4
ATOM      4  C   UNL A   1      34.552  29.921  27.510  1.00  0.00     0.339 C 
ATOM      5  O   UNL A   1      35.429  29.425  28.194  1.00  0.00    -0.246 OA
BRANCH   4   6
ATOM      6  C   UNL A   1      33.805  29.197  26.465  1.00  0.00     0.078 A 
ATOM      7  C   UNL A   1      32.456  27.917  24.385  1.00  0.00     0.096 A 
ATOM      8  C   UNL A   1      33.294  27.222  25.229  1.00  0.00     0.036 A 
ATOM      9  N   UNL A   1      32.299  29.251  24.561  1.00  0.00    -0.249 NA
ATOM     10  C   UNL A   1      33.973  27.840  26.268  1.00  0.00     0.020 A 
ATOM     11  C   UNL A   1      32.963  29.862  25.588  1.00  0.00     0.128 A 
BRANCH   7  12
ATOM     12  S   UNL A   1      31.581  27.218  23.004  1.00  0.00    -0.103 SA
BRANCH  12  13
ATOM     13  C   UNL A   1      30.305  25.942  23.516  1.00  0.00     0.054 C 
ATOM     14  C   UNL A   1      31.552  23.947  24.418  1.00  0.00     0.109 C 
ATOM     15  C   UNL A   1      30.783  24.019  25.749  1.00  0.00     0.020 C 
ATOM     16  C   UNL A   1      30.708  24.481  23.275  1.00  0.00     0.034 C 
ATOM     17  C   UNL A   1      30.044  25.334  26.048  1.00  0.00     0.002 C 
ATOM     18  C   UNL A   1      29.556  26.137  24.840  1.00  0.00     0.015 C 
BRANCH  14  19
ATOM     19  S   UNL A   1      32.238  22.310  24.117  1.00  0.00     0.150 S 
ATOM     20  C   UNL A   1      33.981  22.595  24.361  1.00  0.00     0.158 C 
ATOM     21  O   UNL A   1      32.062  21.975  22.719  1.00  0.00    -0.229 OA
ATOM     22  O   UNL A   1      31.794  21.407  25.160  1.00  0.00    -0.229 OA
ENDBRANCH  14  19
ENDBRANCH  12  13
ENDBRANCH   7  12
ENDBRANCH   4   6
ENDBRANCH   3   4
ENDBRANCH   2   3
ENDBRANCH   1   2
BRANCH   1  23
ATOM     23  O   UNL A   1      34.453  34.216  27.739  1.00  0.00    -0.374 OA
BRANCH  23  24
ATOM     24  C   UNL A   1      34.377  35.435  28.480  1.00  0.00     0.202 C 
BRANCH  24  25
ATOM     25  C   UNL A   1      32.988  35.805  29.010  1.00  0.00     0.261 C 
BRANCH  25  26
ATOM     26  O   UNL A   1      32.642  35.019  30.165  1.00  0.00    -0.460 OA
BRANCH  26  27
ATOM     27  C   UNL A   1      32.847  35.638  31.353  1.00  0.00     0.338 C 
ATOM     28  O   UNL A   1      32.197  36.542  31.845  1.00  0.00    -0.246 OA
BRANCH  27  29
ATOM     29  C   UNL A   1      33.912  34.931  32.086  1.00  0.00     0.060 A 
ATOM     30  C   UNL A   1      35.185  35.516  32.121  1.00  0.00     0.016 A 
ATOM     31  C   UNL A   1      33.683  33.685  32.671  1.00  0.00     0.016 A 
ATOM     32  C   UNL A   1      36.253  34.832  32.699  1.00  0.00     0.010 A 
ATOM     33  C   UNL A   1      34.753  32.998  33.245  1.00  0.00     0.010 A 
ATOM     34  C   UNL A   1      36.048  33.552  33.227  1.00  0.00    -0.014 A 
BRANCH  34  35
ATOM     35  C   UNL A   1      37.196  32.697  33.606  1.00  0.00     0.031 A 
ATOM     36  C   UNL A   1      37.907  32.988  34.895  1.00  0.00     0.074 A 
ATOM     37  C   UNL A   1      37.629  31.718  32.796  1.00  0.00     0.049 A 
ATOM     38  N   UNL A   1      39.041  32.519  35.348  1.00  0.00    -0.248 NA
ATOM     39  C   UNL A   1      37.255  33.961  35.786  1.00  0.00     0.031 C 
ATOM     40  C   UNL A   1      36.991  31.312  31.547  1.00  0.00     0.029 A 
ATOM     41  N   UNL A   1      38.736  30.912  32.892  1.00  0.00    -0.354 N 
ATOM     42  C   UNL A   1      39.252  33.158  36.562  1.00  0.00     0.074 A 
ATOM     43  C   UNL A   1      38.145  34.070  36.760  1.00  0.00     0.031 C 
ATOM     44  C   UNL A   1      37.740  30.357  30.970  1.00  0.00     0.029 A 
ATOM     45  C   UNL A   1      38.931  30.123  31.787  1.00  0.00     0.049 A 
ATOM     46  H   UNL A   1      39.331  30.901  33.676  1.00  0.00     0.167 HD
ATOM     47  C   UNL A   1      40.277  32.997  37.431  1.00  0.00     0.037 A 
ATOM     48  C   UNL A   1      39.975  29.341  31.451  1.00  0.00     0.037 A 
ATOM     49  C   UNL A   1      41.375  32.091  37.216  1.00  0.00     0.049 A 
ATOM     50  C   UNL A   1      41.147  29.228  32.392  1.00  0.00     0.074 A 
ATOM     51  C   UNL A   1      42.456  31.833  38.039  1.00  0.00     0.029 A 
ATOM     52  N   UNL A   1      41.535  31.304  36.084  1.00  0.00    -0.354 N 
ATOM     53  N   UNL A   1      41.341  29.822  33.545  1.00  0.00    -0.248 NA
ATOM     54  C   UNL A   1      42.242  28.336  31.988  1.00  0.00     0.031 C 
ATOM     55  C   UNL A   1      43.304  30.940  37.376  1.00  0.00     0.029 A 
ATOM     56  C   UNL A   1      42.713  30.581  36.174  1.00  0.00     0.049 A 
ATOM     57  H   UNL A   1      40.904  31.265  35.328  1.00  0.00     0.167 HD
ATOM     58  C   UNL A   1      42.557  29.349  34.022  1.00  0.00     0.074 A 
ATOM     59  C   UNL A   1      43.060  28.422  33.029  1.00  0.00     0.031 C 
ATOM     60  C   UNL A   1      43.192  29.647  35.183  1.00  0.00     0.037 A 
BRANCH  47  61
ATOM     61  C   UNL A   1      40.279  33.858  38.663  1.00  0.00     0.064 A 
ATOM     62  C   UNL A   1      40.992  35.067  38.726  1.00  0.00     0.173 A 
ATOM     63  C   UNL A   1      39.564  33.462  39.803  1.00  0.00     0.173 A 
ATOM     64  F   UNL A   1      41.702  35.488  37.669  1.00  0.00    -0.203 F 
ATOM     65  C   UNL A   1      41.030  35.817  39.899  1.00  0.00     0.198 A 
ATOM     66  C   UNL A   1      39.573  34.235  40.962  1.00  0.00     0.198 A 
ATOM     67  F   UNL A   1      38.860  32.320  39.799  1.00  0.00    -0.203 F 
ATOM     68  F   UNL A   1      41.779  36.926  39.958  1.00  0.00    -0.200 F 
ATOM     69  C   UNL A   1      40.317  35.403  41.014  1.00  0.00     0.200 A 
ATOM     70  F   UNL A   1      38.869  33.841  42.032  1.00  0.00    -0.200 F 
ATOM     71  F   UNL A   1      40.358  36.123  42.143  1.00  0.00    -0.200 F 
ENDBRANCH  47  61
BRANCH  48  72
ATOM     72  C   UNL A   1      39.958  28.624  30.150  1.00  0.00     0.064 A 
ATOM     73  C   UNL A   1      40.521  29.194  29.002  1.00  0.00     0.173 A 
ATOM     74  C   UNL A   1      39.409  27.336  30.039  1.00  0.00     0.173 A 
ATOM     75  F   UNL A   1      41.038  30.430  29.055  1.00  0.00    -0.203 F 
ATOM     76  C   UNL A   1      40.532  28.508  27.789  1.00  0.00     0.198 A 
ATOM     77  C   UNL A   1      39.447  26.639  28.833  1.00  0.00     0.198 A 
ATOM     78  F   UNL A   1      38.863  26.743  31.110  1.00  0.00    -0.203 F 
ATOM     79  F   UNL A   1      41.053  29.087  26.699  1.00  0.00    -0.200 F 
ATOM     80  C   UNL A   1      40.005  27.227  27.709  1.00  0.00     0.200 A 
ATOM     81  F   UNL A   1      38.955  25.395  28.765  1.00  0.00    -0.200 F 
ATOM     82  F   UNL A   1      40.035  26.560  26.546  1.00  0.00    -0.200 F 
ENDBRANCH  48  72
BRANCH  60  83
ATOM     83  C   UNL A   1      44.472  28.924  35.491  1.00  0.00     0.064 A 
ATOM     84  C   UNL A   1      45.725  29.442  35.136  1.00  0.00     0.173 A 
ATOM     85  C   UNL A   1      44.441  27.737  36.243  1.00  0.00     0.173 A 
ATOM     86  F   UNL A   1      45.810  30.565  34.407  1.00  0.00    -0.203 F 
ATOM     87  C   UNL A   1      46.899  28.796  35.516  1.00  0.00     0.198 A 
ATOM     88  C   UNL A   1      45.617  27.112  36.647  1.00  0.00     0.198 A 
ATOM     89  F   UNL A   1      43.267  27.203  36.614  1.00  0.00    -0.203 F 
ATOM     90  F   UNL A   1      48.087  29.293  35.143  1.00  0.00    -0.200 F 
ATOM     91  C   UNL A   1      46.844  27.640  36.282  1.00  0.00     0.200 A 
ATOM     92  F   UNL A   1      45.560  26.006  37.402  1.00  0.00    -0.200 F 
ATOM     93  F   UNL A   1      47.976  27.036  36.667  1.00  0.00    -0.200 F 
ENDBRANCH  60  83
ENDBRANCH  34  35
ENDBRANCH  27  29
ENDBRANCH  26  27
ENDBRANCH  25  26
ENDBRANCH  24  25
ENDBRANCH  23  24
ENDBRANCH   1  23
TORSDOF 17
ENDMDL
MODEL 3
REMARK VINA RESULT:     -10.9      4.688      9.755
REMARK SMILES CS(=O)(=O)[C@@H]1CCC[C@@H](Sc2ccc(C(=O)OCCOCCOC(=O)c3ccc(-c4c5nc(c(-c6c(F)c(F)c(F)c(F)c6F)c6ccc([nH]6)c(-c6c(F)c(F)c(F)c(F)c6F)c6nc(c(-c7c(F)c(F)c(F)c(F)c7F)c7ccc4[nH]7)C=C6)C=C5)cc3)cn2)C1
REMARK SMILES IDX 19 1 18 2 17 3 15 4 16 5 14 6 11 7 12 8 90 9 13 10 89 11
REMARK SMILES IDX 10 12 9 13 5 14 6 15 91 16 7 17 8 18 2 19 1 20 3 21 4 22
REMARK SMILES IDX 20 23 21 24 22 25 23 26 24 27 25 28 26 29 27 30 88 31 28 32
REMARK SMILES IDX 87 33 29 34 30 35 31 36 81 37 32 38 86 39 80 40 82 41 33 42
REMARK SMILES IDX 85 43 79 44 78 45 34 47 66 48 46 49 65 50 47 51 50 52 64 53
REMARK SMILES IDX 83 54 48 55 49 56 63 58 84 59 51 60 35 61 36 62 44 63 37 64
REMARK SMILES IDX 38 65 42 66 45 67 39 68 40 69 43 70 41 71 67 72 68 73 76 74
REMARK SMILES IDX 69 75 70 76 74 77 77 78 71 79 72 80 75 81 73 82 52 83 53 84
REMARK SMILES IDX 61 85 54 86 55 87 59 88 62 89 56 90 57 91 60 92 58 93
REMARK H PARENT 82 46 50 57
REMARK Flexibility Score: inf
ROOT
ATOM      1  C   UNL A   1      44.181  19.884  24.836  1.00  0.00     0.202 C 
ENDROOT
BRANCH   1   2
ATOM      2  C   UNL A   1      43.164  18.929  25.468  1.00  0.00     0.261 C 
BRANCH   2   3
ATOM      3  O   UNL A   1      41.837  19.458  25.352  1.00  0.00    -0.460 OA
BRANCH   3   4
ATOM      4  C   UNL A   1      41.211  19.800  26.507  1.00  0.00     0.339 C 
ATOM      5  O   UNL A   1      41.557  19.530  27.643  1.00  0.00    -0.246 OA
BRANCH   4   6
ATOM      6  C   UNL A   1      40.077  20.681  26.172  1.00  0.00     0.078 A 
ATOM      7  C   UNL A   1      37.840  22.250  25.607  1.00  0.00     0.096 A 
ATOM      8  C   UNL A   1      38.889  22.743  26.349  1.00  0.00     0.036 A 
ATOM      9  N   UNL A   1      37.890  20.973  25.158  1.00  0.00    -0.249 NA
ATOM     10  C   UNL A   1      40.010  21.980  26.641  1.00  0.00     0.020 A 
ATOM     11  C   UNL A   1      38.996  20.219  25.439  1.00  0.00     0.128 A 
BRANCH   7  12
ATOM     12  S   UNL A   1      36.349  23.138  25.222  1.00  0.00    -0.103 SA
BRANCH  12  13
ATOM     13  C   UNL A   1      34.795  22.157  25.598  1.00  0.00     0.054 C 
ATOM     14  C   UNL A   1      32.839  23.732  25.394  1.00  0.00     0.109 C 
ATOM     15  C   UNL A   1      32.158  22.814  24.363  1.00  0.00     0.020 C 
ATOM     16  C   UNL A   1      33.700  22.928  26.350  1.00  0.00     0.034 C 
ATOM     17  C   UNL A   1      33.044  21.748  23.698  1.00  0.00     0.002 C 
ATOM     18  C   UNL A   1      34.227  21.229  24.518  1.00  0.00     0.015 C 
BRANCH  14  19
ATOM     19  S   UNL A   1      31.665  24.826  26.210  1.00  0.00     0.150 S 
ATOM     20  C   UNL A   1      30.456  25.089  24.926  1.00  0.00     0.158 C 
ATOM     21  O   UNL A   1      32.302  26.104  26.451  1.00  0.00    -0.229 OA
ATOM     22  O   UNL A   1      31.010  24.107  27.285  1.00  0.00    -0.229 OA
ENDBRANCH  14  19
ENDBRANCH  12  13
ENDBRANCH   7  12
ENDBRANCH   4   6
ENDBRANCH   3   4
ENDBRANCH   2   3
ENDBRANCH   1   2
BRANCH   1  23
ATOM     23  O   UNL A   1      45.469  19.900  25.450  1.00  0.00    -0.374 OA
BRANCH  23  24
ATOM     24  C   UNL A   1      46.051  21.185  25.679  1.00  0.00     0.202 C 
BRANCH  24  25
ATOM     25  C   UNL A   1      45.442  22.342  24.881  1.00  0.00     0.261 C 
BRANCH  25  26
ATOM     26  O   UNL A   1      44.638  23.191  25.720  1.00  0.00    -0.460 OA
BRANCH  26  27
ATOM     27  C   UNL A   1      43.441  23.541  25.189  1.00  0.00     0.338 C 
ATOM     28  O   UNL A   1      42.876  23.044  24.232  1.00  0.00    -0.246 OA
BRANCH  27  29
ATOM     29  C   UNL A   1      42.801  24.541  26.062  1.00  0.00     0.060 A 
ATOM     30  C   UNL A   1      42.985  25.896  25.753  1.00  0.00     0.016 A 
ATOM     31  C   UNL A   1      42.091  24.158  27.200  1.00  0.00     0.016 A 
ATOM     32  C   UNL A   1      42.501  26.879  26.613  1.00  0.00     0.010 A 
ATOM     33  C   UNL A   1      41.610  25.143  28.063  1.00  0.00     0.010 A 
ATOM     34  C   UNL A   1      41.847  26.505  27.793  1.00  0.00    -0.014 A 
BRANCH  34  35
ATOM     35  C   UNL A   1      41.556  27.503  28.846  1.00  0.00     0.031 A 
ATOM     36  C   UNL A   1      42.367  27.466  30.108  1.00  0.00     0.074 A 
ATOM     37  C   UNL A   1      40.557  28.389  28.706  1.00  0.00     0.049 A 
ATOM     38  N   UNL A   1      42.181  28.094  31.240  1.00  0.00    -0.248 NA
ATOM     39  C   UNL A   1      43.541  26.579  30.094  1.00  0.00     0.031 C 
ATOM     40  C   UNL A   1      39.735  28.552  27.511  1.00  0.00     0.029 A 
ATOM     41  N   UNL A   1      40.043  29.295  29.600  1.00  0.00    -0.354 N 
ATOM     42  C   UNL A   1      43.196  27.657  32.081  1.00  0.00     0.074 A 
ATOM     43  C   UNL A   1      43.977  26.690  31.339  1.00  0.00     0.031 C 
ATOM     44  C   UNL A   1      38.791  29.476  27.758  1.00  0.00     0.029 A 
ATOM     45  C   UNL A   1      38.916  29.930  29.143  1.00  0.00     0.049 A 
ATOM     46  H   UNL A   1      40.443  29.472  30.483  1.00  0.00     0.167 HD
ATOM     47  C   UNL A   1      43.452  28.033  33.357  1.00  0.00     0.037 A 
ATOM     48  C   UNL A   1      38.056  30.744  29.786  1.00  0.00     0.037 A 
ATOM     49  C   UNL A   1      42.662  28.991  34.083  1.00  0.00     0.049 A 
ATOM     50  C   UNL A   1      38.309  31.095  31.229  1.00  0.00     0.074 A 
ATOM     51  C   UNL A   1      42.843  29.460  35.372  1.00  0.00     0.029 A 
ATOM     52  N   UNL A   1      41.529  29.618  33.584  1.00  0.00    -0.354 N 
ATOM     53  N   UNL A   1      39.276  30.694  32.020  1.00  0.00    -0.248 NA
ATOM     54  C   UNL A   1      37.356  32.012  31.869  1.00  0.00     0.031 C 
ATOM     55  C   UNL A   1      41.781  30.318  35.675  1.00  0.00     0.029 A 
ATOM     56  C   UNL A   1      40.982  30.447  34.549  1.00  0.00     0.049 A 
ATOM     57  H   UNL A   1      41.166  29.491  32.676  1.00  0.00     0.167 HD
ATOM     58  C   UNL A   1      39.070  31.336  33.234  1.00  0.00     0.074 A 
ATOM     59  C   UNL A   1      37.883  32.150  33.079  1.00  0.00     0.031 C 
ATOM     60  C   UNL A   1      39.808  31.266  34.372  1.00  0.00     0.037 A 
BRANCH  47  61
ATOM     61  C   UNL A   1      44.602  27.362  34.055  1.00  0.00     0.064 A 
ATOM     62  C   UNL A   1      44.440  26.172  34.783  1.00  0.00     0.173 A 
ATOM     63  C   UNL A   1      45.886  27.927  34.005  1.00  0.00     0.173 A 
ATOM     64  F   UNL A   1      43.232  25.595  34.872  1.00  0.00    -0.203 F 
ATOM     65  C   UNL A   1      45.507  25.602  35.473  1.00  0.00     0.198 A 
ATOM     66  C   UNL A   1      46.958  27.333  34.666  1.00  0.00     0.198 A 
ATOM     67  F   UNL A   1      46.101  29.060  33.321  1.00  0.00    -0.203 F 
ATOM     68  F   UNL A   1      45.310  24.509  36.222  1.00  0.00    -0.200 F 
ATOM     69  C   UNL A   1      46.765  26.181  35.411  1.00  0.00     0.200 A 
ATOM     70  F   UNL A   1      48.177  27.885  34.590  1.00  0.00    -0.200 F 
ATOM     71  F   UNL A   1      47.790  25.634  36.080  1.00  0.00    -0.200 F 
ENDBRANCH  47  61
BRANCH  48  72
ATOM     72  C   UNL A   1      36.866  31.261  29.062  1.00  0.00     0.064 A 
ATOM     73  C   UNL A   1      35.768  30.435  28.792  1.00  0.00     0.173 A 
ATOM     74  C   UNL A   1      36.789  32.604  28.659  1.00  0.00     0.173 A 
ATOM     75  F   UNL A   1      35.805  29.140  29.140  1.00  0.00    -0.203 F 
ATOM     76  C   UNL A   1      34.639  30.928  28.142  1.00  0.00     0.198 A 
ATOM     77  C   UNL A   1      35.648  33.103  28.035  1.00  0.00     0.198 A 
ATOM     78  F   UNL A   1      37.810  33.438  28.899  1.00  0.00    -0.203 F 
ATOM     79  F   UNL A   1      33.614  30.110  27.871  1.00  0.00    -0.200 F 
ATOM     80  C   UNL A   1      34.576  32.264  27.773  1.00  0.00     0.200 A 
ATOM     81  F   UNL A   1      35.583  34.399  27.699  1.00  0.00    -0.200 F 
ATOM     82  F   UNL A   1      33.481  32.743  27.166  1.00  0.00    -0.200 F 
ENDBRANCH  48  72
BRANCH  60  83
ATOM     83  C   UNL A   1      39.403  32.137  35.527  1.00  0.00     0.064 A 
ATOM     84  C   UNL A   1      38.540  31.683  36.535  1.00  0.00     0.173 A 
ATOM     85  C   UNL A   1      39.971  33.413  35.674  1.00  0.00     0.173 A 
ATOM     86  F   UNL A   1      37.961  30.478  36.437  1.00  0.00    -0.203 F 
ATOM     87  C   UNL A   1      38.256  32.479  37.643  1.00  0.00     0.198 A 
ATOM     88  C   UNL A   1      39.709  34.192  36.797  1.00  0.00     0.198 A 
ATOM     89  F   UNL A   1      40.808  33.891  34.740  1.00  0.00    -0.203 F 
ATOM     90  F   UNL A   1      37.406  32.039  38.582  1.00  0.00    -0.200 F 
ATOM     91  C   UNL A   1      38.851  33.725  37.779  1.00  0.00     0.200 A 
ATOM     92  F   UNL A   1      40.299  35.387  36.934  1.00  0.00    -0.200 F 
ATOM     93  F   UNL A   1      38.595  34.477  38.858  1.00  0.00    -0.200 F 
ENDBRANCH  60  83
ENDBRANCH  34  35
ENDBRANCH  27  29
ENDBRANCH  26  27
ENDBRANCH  25  26
ENDBRANCH  24  25
ENDBRANCH  23  24
ENDBRANCH   1  23
TORSDOF 17
ENDMDL
