MODEL 1
REMARK VINA RESULT:     -11.4      0.000      0.000
REMARK SMILES C[C@](NC(=O)c1ccc(Br)o1)(C(=O)OCCOCCOC(=O)c1ccc(-c2c3nc(c(-c4c(F)c(F)c(F)c(F)c4F)c4ccc([nH]4)c(-c4c(F)c(F)c(F)c(F)c4F)c4nc(c(-c5c(F)c(F)c(F)c(F)c5F)c5ccc2[nH]5)C=C4)C=C3)cc1)C(F)(F)F
REMARK SMILES IDX 17 1 16 2 15 3 14 4 12 5 13 6 2 7 1 8 86 9 87 10 88 11 89 12
REMARK SMILES IDX 3 13 4 14 5 16 6 17 7 18 11 19 8 20 9 21 10 22 18 23 19 24
REMARK SMILES IDX 20 25 21 26 22 27 23 28 24 29 85 30 25 31 84 32 26 33 27 34
REMARK SMILES IDX 28 35 78 36 29 37 83 38 77 39 79 40 30 41 82 42 76 43 75 44
REMARK SMILES IDX 31 46 63 47 43 48 62 49 44 50 47 51 61 52 80 53 45 54 46 55
REMARK SMILES IDX 60 57 81 58 48 59 32 60 33 61 41 62 34 63 35 64 39 65 42 66
REMARK SMILES IDX 36 67 37 68 40 69 38 70 64 71 65 72 73 73 66 74 67 75 71 76
REMARK SMILES IDX 74 77 68 78 69 79 72 80 70 81 49 82 50 83 58 84 51 85 52 86
REMARK SMILES IDX 56 87 59 88 53 89 54 90 57 91 55 92
REMARK H PARENT 3 15 79 45 47 56
REMARK Flexibility Score: inf
ROOT
ATOM      1  O   UNL A   1      32.246  30.201  26.376  1.00  0.00    -0.374 OA
ENDROOT
BRANCH   1   2
ATOM      2  C   UNL A   1      32.967  29.695  25.257  1.00  0.00     0.202 C 
BRANCH   2   3
ATOM      3  C   UNL A   1      33.455  28.251  25.364  1.00  0.00     0.261 C 
BRANCH   3   4
ATOM      4  O   UNL A   1      32.968  27.438  24.285  1.00  0.00    -0.461 OA
BRANCH   4   5
ATOM      5  C   UNL A   1      31.882  26.659  24.575  1.00  0.00     0.341 C 
ATOM      6  O   UNL A   1      31.656  26.184  25.679  1.00  0.00    -0.249 OA
BRANCH   5   7
ATOM      7  C   UNL A   1      31.069  26.340  23.318  1.00  0.00     0.231 C 
ATOM      8  C   UNL A   1      30.412  24.986  23.601  1.00  0.00     0.058 C 
BRANCH   7   9
ATOM      9  C   UNL A   1      30.017  27.456  23.235  1.00  0.00     0.422 C 
ATOM     10  F   UNL A   1      30.203  28.381  24.210  1.00  0.00    -0.168 F 
ATOM     11  F   UNL A   1      30.126  28.117  22.052  1.00  0.00    -0.168 F 
ATOM     12  F   UNL A   1      28.747  27.016  23.312  1.00  0.00    -0.168 F 
ENDBRANCH   7   9
BRANCH   7  13
ATOM     13  N   UNL A   1      31.959  26.355  22.104  1.00  0.00    -0.326 N 
ATOM     14  C   UNL A   1      32.758  25.401  21.526  1.00  0.00     0.288 C 
ATOM     15  H   UNL A   1      31.971  27.219  21.633  1.00  0.00     0.165 HD
ATOM     16  O   UNL A   1      33.025  25.531  20.338  1.00  0.00    -0.266 OA
BRANCH  14  17
ATOM     17  C   UNL A   1      33.338  24.387  22.365  1.00  0.00     0.192 A 
ATOM     18  C   UNL A   1      33.122  23.032  22.513  1.00  0.00     0.057 A 
ATOM     19  O   UNL A   1      34.312  24.794  23.234  1.00  0.00    -0.444 OA
ATOM     20  C   UNL A   1      33.974  22.603  23.566  1.00  0.00     0.059 A 
ATOM     21  C   UNL A   1      34.694  23.710  23.953  1.00  0.00     0.170 A 
ATOM     22  Br  UNL A   1      35.990  23.747  25.292  1.00  0.00    -0.008 Br
ENDBRANCH  14  17
ENDBRANCH   7  13
ENDBRANCH   5   7
ENDBRANCH   4   5
ENDBRANCH   3   4
ENDBRANCH   2   3
ENDBRANCH   1   2
BRANCH   1  23
ATOM     23  C   UNL A   1      31.402  31.337  26.177  1.00  0.00     0.202 C 
BRANCH  23  24
ATOM     24  C   UNL A   1      31.823  32.641  26.863  1.00  0.00     0.261 C 
BRANCH  24  25
ATOM     25  O   UNL A   1      32.805  32.413  27.892  1.00  0.00    -0.460 OA
BRANCH  25  26
ATOM     26  C   UNL A   1      33.797  33.333  27.934  1.00  0.00     0.338 C 
ATOM     27  O   UNL A   1      33.675  34.551  27.976  1.00  0.00    -0.246 OA
BRANCH  26  28
ATOM     28  C   UNL A   1      35.108  32.686  28.110  1.00  0.00     0.060 A 
ATOM     29  C   UNL A   1      35.119  31.291  28.247  1.00  0.00     0.016 A 
ATOM     30  C   UNL A   1      36.279  33.427  28.282  1.00  0.00     0.016 A 
ATOM     31  C   UNL A   1      36.284  30.638  28.639  1.00  0.00     0.010 A 
ATOM     32  C   UNL A   1      37.447  32.769  28.685  1.00  0.00     0.010 A 
ATOM     33  C   UNL A   1      37.437  31.381  28.919  1.00  0.00    -0.014 A 
BRANCH  33  34
ATOM     34  C   UNL A   1      38.542  30.725  29.660  1.00  0.00     0.031 A 
ATOM     35  C   UNL A   1      38.738  31.066  31.113  1.00  0.00     0.074 A 
ATOM     36  C   UNL A   1      39.310  29.790  29.076  1.00  0.00     0.049 A 
ATOM     37  N   UNL A   1      39.603  30.591  31.972  1.00  0.00    -0.248 NA
ATOM     38  C   UNL A   1      37.830  32.081  31.672  1.00  0.00     0.031 C 
ATOM     39  C   UNL A   1      39.188  29.340  27.693  1.00  0.00     0.029 A 
ATOM     40  N   UNL A   1      40.344  29.045  29.587  1.00  0.00    -0.354 N 
ATOM     41  C   UNL A   1      39.348  31.252  33.167  1.00  0.00     0.074 A 
ATOM     42  C   UNL A   1      38.269  32.181  32.917  1.00  0.00     0.031 C 
ATOM     43  C   UNL A   1      40.112  28.390  27.462  1.00  0.00     0.029 A 
ATOM     44  C   UNL A   1      40.901  28.184  28.675  1.00  0.00     0.049 A 
ATOM     45  H   UNL A   1      40.655  29.121  30.517  1.00  0.00     0.167 HD
ATOM     46  C   UNL A   1      39.953  31.091  34.369  1.00  0.00     0.037 A 
ATOM     47  C   UNL A   1      41.936  27.332  28.808  1.00  0.00     0.037 A 
ATOM     48  C   UNL A   1      41.024  30.164  34.619  1.00  0.00     0.049 A 
ATOM     49  C   UNL A   1      42.632  27.214  30.139  1.00  0.00     0.074 A 
ATOM     50  C   UNL A   1      41.692  29.913  35.806  1.00  0.00     0.029 A 
ATOM     51  N   UNL A   1      41.589  29.338  33.659  1.00  0.00    -0.354 N 
ATOM     52  N   UNL A   1      42.367  27.820  31.272  1.00  0.00    -0.248 NA
ATOM     53  C   UNL A   1      43.769  26.284  30.210  1.00  0.00     0.031 C 
ATOM     54  C   UNL A   1      42.692  28.968  35.552  1.00  0.00     0.029 A 
ATOM     55  C   UNL A   1      42.614  28.593  34.220  1.00  0.00     0.049 A 
ATOM     56  H   UNL A   1      41.305  29.289  32.718  1.00  0.00     0.167 HD
ATOM     57  C   UNL A   1      43.277  27.321  32.196  1.00  0.00     0.074 A 
ATOM     58  C   UNL A   1      44.099  26.359  31.492  1.00  0.00     0.031 C 
ATOM     59  C   UNL A   1      43.414  27.628  33.510  1.00  0.00     0.037 A 
BRANCH  46  60
ATOM     60  C   UNL A   1      39.486  31.968  35.494  1.00  0.00     0.064 A 
ATOM     61  C   UNL A   1      38.510  31.541  36.408  1.00  0.00     0.173 A 
ATOM     62  C   UNL A   1      40.025  33.252  35.662  1.00  0.00     0.173 A 
ATOM     63  F   UNL A   1      37.951  30.328  36.280  1.00  0.00    -0.203 F 
ATOM     64  C   UNL A   1      38.068  32.381  37.427  1.00  0.00     0.198 A 
ATOM     65  C   UNL A   1      39.602  34.077  36.699  1.00  0.00     0.198 A 
ATOM     66  F   UNL A   1      40.964  33.707  34.818  1.00  0.00    -0.203 F 
ATOM     67  F   UNL A   1      37.096  31.973  38.255  1.00  0.00    -0.200 F 
ATOM     68  C   UNL A   1      38.617  33.645  37.575  1.00  0.00     0.200 A 
ATOM     69  F   UNL A   1      40.140  35.296  36.847  1.00  0.00    -0.200 F 
ATOM     70  F   UNL A   1      38.189  34.453  38.556  1.00  0.00    -0.200 F 
ENDBRANCH  46  60
BRANCH  47  71
ATOM     71  C   UNL A   1      42.367  26.508  27.651  1.00  0.00     0.064 A 
ATOM     72  C   UNL A   1      41.778  25.262  27.394  1.00  0.00     0.173 A 
ATOM     73  C   UNL A   1      43.377  26.946  26.782  1.00  0.00     0.173 A 
ATOM     74  F   UNL A   1      40.826  24.791  28.212  1.00  0.00    -0.203 F 
ATOM     75  C   UNL A   1      42.192  24.481  26.317  1.00  0.00     0.198 A 
ATOM     76  C   UNL A   1      43.773  26.175  25.692  1.00  0.00     0.198 A 
ATOM     77  F   UNL A   1      43.973  28.129  26.988  1.00  0.00    -0.203 F 
ATOM     78  F   UNL A   1      41.638  23.277  26.115  1.00  0.00    -0.200 F 
ATOM     79  C   UNL A   1      43.184  24.940  25.463  1.00  0.00     0.200 A 
ATOM     80  F   UNL A   1      44.724  26.626  24.864  1.00  0.00    -0.200 F 
ATOM     81  F   UNL A   1      43.576  24.190  24.424  1.00  0.00    -0.200 F 
ENDBRANCH  47  71
BRANCH  59  82
ATOM     82  C   UNL A   1      44.459  26.880  34.286  1.00  0.00     0.064 A 
ATOM     83  C   UNL A   1      45.751  27.393  34.470  1.00  0.00     0.173 A 
ATOM     84  C   UNL A   1      44.147  25.650  34.887  1.00  0.00     0.173 A 
ATOM     85  F   UNL A   1      46.102  28.558  33.905  1.00  0.00    -0.203 F 
ATOM     86  C   UNL A   1      46.701  26.688  35.205  1.00  0.00     0.198 A 
ATOM     87  C   UNL A   1      45.092  24.963  35.644  1.00  0.00     0.198 A 
ATOM     88  F   UNL A   1      42.923  25.121  34.748  1.00  0.00    -0.203 F 
ATOM     89  F   UNL A   1      47.945  27.173  35.328  1.00  0.00    -0.200 F 
ATOM     90  C   UNL A   1      46.370  25.478  35.795  1.00  0.00     0.200 A 
ATOM     91  F   UNL A   1      44.765  23.800  36.225  1.00  0.00    -0.200 F 
ATOM     92  F   UNL A   1      47.285  24.804  36.505  1.00  0.00    -0.200 F 
ENDBRANCH  59  82
ENDBRANCH  33  34
ENDBRANCH  26  28
ENDBRANCH  25  26
ENDBRANCH  24  25
ENDBRANCH  23  24
ENDBRANCH   1  23
TORSDOF 17
ENDMDL
MODEL 2
REMARK VINA RESULT:     -11.2      1.501      2.233
REMARK SMILES C[C@](NC(=O)c1ccc(Br)o1)(C(=O)OCCOCCOC(=O)c1ccc(-c2c3nc(c(-c4c(F)c(F)c(F)c(F)c4F)c4ccc([nH]4)c(-c4c(F)c(F)c(F)c(F)c4F)c4nc(c(-c5c(F)c(F)c(F)c(F)c5F)c5ccc2[nH]5)C=C4)C=C3)cc1)C(F)(F)F
REMARK SMILES IDX 17 1 16 2 15 3 14 4 12 5 13 6 2 7 1 8 86 9 87 10 88 11 89 12
REMARK SMILES IDX 3 13 4 14 5 16 6 17 7 18 11 19 8 20 9 21 10 22 18 23 19 24
REMARK SMILES IDX 20 25 21 26 22 27 23 28 24 29 85 30 25 31 84 32 26 33 27 34
REMARK SMILES IDX 28 35 78 36 29 37 83 38 77 39 79 40 30 41 82 42 76 43 75 44
REMARK SMILES IDX 31 46 63 47 43 48 62 49 44 50 47 51 61 52 80 53 45 54 46 55
REMARK SMILES IDX 60 57 81 58 48 59 32 60 33 61 41 62 34 63 35 64 39 65 42 66
REMARK SMILES IDX 36 67 37 68 40 69 38 70 64 71 65 72 73 73 66 74 67 75 71 76
REMARK SMILES IDX 74 77 68 78 69 79 72 80 70 81 49 82 50 83 58 84 51 85 52 86
REMARK SMILES IDX 56 87 59 88 53 89 54 90 57 91 55 92
REMARK H PARENT 3 15 79 45 47 56
REMARK Flexibility Score: inf
ROOT
ATOM      1  O   UNL A   1      32.272  30.191  27.185  1.00  0.00    -0.374 OA
ENDROOT
BRANCH   1   2
ATOM      2  C   UNL A   1      32.045  28.872  26.697  1.00  0.00     0.202 C 
BRANCH   2   3
ATOM      3  C   UNL A   1      31.481  28.762  25.282  1.00  0.00     0.261 C 
BRANCH   3   4
ATOM      4  O   UNL A   1      31.025  27.432  24.987  1.00  0.00    -0.461 OA
BRANCH   4   5
ATOM      5  C   UNL A   1      31.652  26.810  23.943  1.00  0.00     0.341 C 
ATOM      6  O   UNL A   1      31.561  27.170  22.777  1.00  0.00    -0.249 OA
BRANCH   5   7
ATOM      7  C   UNL A   1      32.361  25.531  24.396  1.00  0.00     0.231 C 
ATOM      8  C   UNL A   1      32.484  24.675  23.132  1.00  0.00     0.058 C 
BRANCH   7   9
ATOM      9  C   UNL A   1      33.741  25.997  24.882  1.00  0.00     0.422 C 
ATOM     10  F   UNL A   1      33.787  26.073  26.235  1.00  0.00    -0.168 F 
ATOM     11  F   UNL A   1      34.696  25.100  24.515  1.00  0.00    -0.168 F 
ATOM     12  F   UNL A   1      34.123  27.188  24.382  1.00  0.00    -0.168 F 
ENDBRANCH   7   9
BRANCH   7  13
ATOM     13  N   UNL A   1      31.594  24.879  25.514  1.00  0.00    -0.326 N 
ATOM     14  C   UNL A   1      31.852  23.789  26.306  1.00  0.00     0.288 C 
ATOM     15  H   UNL A   1      30.739  25.322  25.718  1.00  0.00     0.165 HD
ATOM     16  O   UNL A   1      31.294  23.735  27.394  1.00  0.00    -0.266 OA
BRANCH  14  17
ATOM     17  C   UNL A   1      32.650  22.720  25.768  1.00  0.00     0.192 A 
ATOM     18  C   UNL A   1      33.994  22.411  25.822  1.00  0.00     0.057 A 
ATOM     19  O   UNL A   1      31.993  21.781  25.021  1.00  0.00    -0.444 OA
ATOM     20  C   UNL A   1      34.171  21.251  25.021  1.00  0.00     0.059 A 
ATOM     21  C   UNL A   1      32.918  20.895  24.577  1.00  0.00     0.170 A 
ATOM     22  Br  UNL A   1      32.527  19.429  23.494  1.00  0.00    -0.008 Br
ENDBRANCH  14  17
ENDBRANCH   7  13
ENDBRANCH   5   7
ENDBRANCH   4   5
ENDBRANCH   3   4
ENDBRANCH   2   3
ENDBRANCH   1   2
BRANCH   1  23
ATOM     23  C   UNL A   1      31.616  31.276  26.527  1.00  0.00     0.202 C 
BRANCH  23  24
ATOM     24  C   UNL A   1      32.096  32.689  26.873  1.00  0.00     0.261 C 
BRANCH  24  25
ATOM     25  O   UNL A   1      32.883  32.707  28.080  1.00  0.00    -0.460 OA
BRANCH  25  26
ATOM     26  C   UNL A   1      33.924  33.570  28.058  1.00  0.00     0.338 C 
ATOM     27  O   UNL A   1      33.872  34.794  28.046  1.00  0.00    -0.246 OA
BRANCH  26  28
ATOM     28  C   UNL A   1      35.201  32.858  28.235  1.00  0.00     0.060 A 
ATOM     29  C   UNL A   1      35.138  31.475  28.452  1.00  0.00     0.016 A 
ATOM     30  C   UNL A   1      36.418  33.538  28.330  1.00  0.00     0.016 A 
ATOM     31  C   UNL A   1      36.275  30.778  28.849  1.00  0.00     0.010 A 
ATOM     32  C   UNL A   1      37.559  32.837  28.739  1.00  0.00     0.010 A 
ATOM     33  C   UNL A   1      37.477  31.468  29.053  1.00  0.00    -0.014 A 
BRANCH  33  34
ATOM     34  C   UNL A   1      38.565  30.791  29.800  1.00  0.00     0.031 A 
ATOM     35  C   UNL A   1      38.745  31.112  31.260  1.00  0.00     0.074 A 
ATOM     36  C   UNL A   1      39.332  29.856  29.215  1.00  0.00     0.049 A 
ATOM     37  N   UNL A   1      39.594  30.618  32.124  1.00  0.00    -0.248 NA
ATOM     38  C   UNL A   1      37.840  32.129  31.820  1.00  0.00     0.031 C 
ATOM     39  C   UNL A   1      39.223  29.424  27.825  1.00  0.00     0.029 A 
ATOM     40  N   UNL A   1      40.351  29.094  29.730  1.00  0.00    -0.354 N 
ATOM     41  C   UNL A   1      39.330  31.266  33.324  1.00  0.00     0.074 A 
ATOM     42  C   UNL A   1      38.264  32.209  33.072  1.00  0.00     0.031 C 
ATOM     43  C   UNL A   1      40.140  28.468  27.594  1.00  0.00     0.029 A 
ATOM     44  C   UNL A   1      40.912  28.239  28.815  1.00  0.00     0.049 A 
ATOM     45  H   UNL A   1      40.651  29.155  30.665  1.00  0.00     0.167 HD
ATOM     46  C   UNL A   1      39.917  31.084  34.532  1.00  0.00     0.037 A 
ATOM     47  C   UNL A   1      41.937  27.375  28.951  1.00  0.00     0.037 A 
ATOM     48  C   UNL A   1      40.975  30.143  34.785  1.00  0.00     0.049 A 
ATOM     49  C   UNL A   1      42.613  27.233  30.290  1.00  0.00     0.074 A 
ATOM     50  C   UNL A   1      41.625  29.871  35.976  1.00  0.00     0.029 A 
ATOM     51  N   UNL A   1      41.545  29.324  33.821  1.00  0.00    -0.354 N 
ATOM     52  N   UNL A   1      42.339  27.828  31.426  1.00  0.00    -0.248 NA
ATOM     53  C   UNL A   1      43.740  26.291  30.364  1.00  0.00     0.031 C 
ATOM     54  C   UNL A   1      42.619  28.919  35.724  1.00  0.00     0.029 A 
ATOM     55  C   UNL A   1      42.555  28.561  34.387  1.00  0.00     0.049 A 
ATOM     56  H   UNL A   1      41.273  29.289  32.876  1.00  0.00     0.167 HD
ATOM     57  C   UNL A   1      43.231  27.308  32.355  1.00  0.00     0.074 A 
ATOM     58  C   UNL A   1      44.054  26.346  31.651  1.00  0.00     0.031 C 
ATOM     59  C   UNL A   1      43.354  27.597  33.675  1.00  0.00     0.037 A 
BRANCH  46  60
ATOM     60  C   UNL A   1      39.444  31.952  35.662  1.00  0.00     0.064 A 
ATOM     61  C   UNL A   1      39.942  33.249  35.858  1.00  0.00     0.173 A 
ATOM     62  C   UNL A   1      38.474  31.479  36.559  1.00  0.00     0.173 A 
ATOM     63  F   UNL A   1      40.882  33.741  35.037  1.00  0.00    -0.203 F 
ATOM     64  C   UNL A   1      39.511  34.026  36.929  1.00  0.00     0.198 A 
ATOM     65  C   UNL A   1      38.025  32.269  37.612  1.00  0.00     0.198 A 
ATOM     66  F   UNL A   1      37.962  30.247  36.414  1.00  0.00    -0.203 F 
ATOM     67  F   UNL A   1      40.041  35.242  37.129  1.00  0.00    -0.200 F 
ATOM     68  C   UNL A   1      38.551  33.539  37.802  1.00  0.00     0.200 A 
ATOM     69  F   UNL A   1      37.089  31.800  38.449  1.00  0.00    -0.200 F 
ATOM     70  F   UNL A   1      38.138  34.288  38.834  1.00  0.00    -0.200 F 
ENDBRANCH  46  60
BRANCH  47  71
ATOM     71  C   UNL A   1      42.374  26.561  27.789  1.00  0.00     0.064 A 
ATOM     72  C   UNL A   1      41.795  25.312  27.525  1.00  0.00     0.173 A 
ATOM     73  C   UNL A   1      43.381  27.012  26.924  1.00  0.00     0.173 A 
ATOM     74  F   UNL A   1      40.846  24.828  28.340  1.00  0.00    -0.203 F 
ATOM     75  C   UNL A   1      42.216  24.540  26.443  1.00  0.00     0.198 A 
ATOM     76  C   UNL A   1      43.784  26.250  25.829  1.00  0.00     0.198 A 
ATOM     77  F   UNL A   1      43.968  28.198  27.137  1.00  0.00    -0.203 F 
ATOM     78  F   UNL A   1      41.672  23.333  26.235  1.00  0.00    -0.200 F 
ATOM     79  C   UNL A   1      43.204  25.012  25.593  1.00  0.00     0.200 A 
ATOM     80  F   UNL A   1      44.732  26.713  25.005  1.00  0.00    -0.200 F 
ATOM     81  F   UNL A   1      43.603  24.271  24.550  1.00  0.00    -0.200 F 
ENDBRANCH  47  71
BRANCH  59  82
ATOM     82  C   UNL A   1      44.381  26.829  34.456  1.00  0.00     0.064 A 
ATOM     83  C   UNL A   1      45.685  27.313  34.639  1.00  0.00     0.173 A 
ATOM     84  C   UNL A   1      44.041  25.610  35.062  1.00  0.00     0.173 A 
ATOM     85  F   UNL A   1      46.063  28.467  34.069  1.00  0.00    -0.203 F 
ATOM     86  C   UNL A   1      46.618  26.590  35.377  1.00  0.00     0.198 A 
ATOM     87  C   UNL A   1      44.969  24.904  35.823  1.00  0.00     0.198 A 
ATOM     88  F   UNL A   1      42.805  25.107  34.925  1.00  0.00    -0.203 F 
ATOM     89  F   UNL A   1      47.873  27.047  35.498  1.00  0.00    -0.200 F 
ATOM     90  C   UNL A   1      46.259  25.391  35.972  1.00  0.00     0.200 A 
ATOM     91  F   UNL A   1      44.615  23.752  36.409  1.00  0.00    -0.200 F 
ATOM     92  F   UNL A   1      47.157  24.699  36.686  1.00  0.00    -0.200 F 
ENDBRANCH  59  82
ENDBRANCH  33  34
ENDBRANCH  26  28
ENDBRANCH  25  26
ENDBRANCH  24  25
ENDBRANCH  23  24
ENDBRANCH   1  23
TORSDOF 17
ENDMDL
MODEL 3
REMARK VINA RESULT:     -11.2      1.234      1.992
REMARK SMILES C[C@](NC(=O)c1ccc(Br)o1)(C(=O)OCCOCCOC(=O)c1ccc(-c2c3nc(c(-c4c(F)c(F)c(F)c(F)c4F)c4ccc([nH]4)c(-c4c(F)c(F)c(F)c(F)c4F)c4nc(c(-c5c(F)c(F)c(F)c(F)c5F)c5ccc2[nH]5)C=C4)C=C3)cc1)C(F)(F)F
REMARK SMILES IDX 17 1 16 2 15 3 14 4 12 5 13 6 2 7 1 8 86 9 87 10 88 11 89 12
REMARK SMILES IDX 3 13 4 14 5 16 6 17 7 18 11 19 8 20 9 21 10 22 18 23 19 24
REMARK SMILES IDX 20 25 21 26 22 27 23 28 24 29 85 30 25 31 84 32 26 33 27 34
REMARK SMILES IDX 28 35 78 36 29 37 83 38 77 39 79 40 30 41 82 42 76 43 75 44
REMARK SMILES IDX 31 46 63 47 43 48 62 49 44 50 47 51 61 52 80 53 45 54 46 55
REMARK SMILES IDX 60 57 81 58 48 59 32 60 33 61 41 62 34 63 35 64 39 65 42 66
REMARK SMILES IDX 36 67 37 68 40 69 38 70 64 71 65 72 73 73 66 74 67 75 71 76
REMARK SMILES IDX 74 77 68 78 69 79 72 80 70 81 49 82 50 83 58 84 51 85 52 86
REMARK SMILES IDX 56 87 59 88 53 89 54 90 57 91 55 92
REMARK H PARENT 3 15 79 45 47 56
REMARK Flexibility Score: inf
ROOT
ATOM      1  O   UNL A   1      32.990  29.499  24.948  1.00  0.00    -0.374 OA
ENDROOT
BRANCH   1   2
ATOM      2  C   UNL A   1      32.965  29.044  23.599  1.00  0.00     0.202 C 
BRANCH   2   3
ATOM      3  C   UNL A   1      33.574  27.667  23.337  1.00  0.00     0.261 C 
BRANCH   3   4
ATOM      4  O   UNL A   1      33.194  26.713  24.341  1.00  0.00    -0.461 OA
BRANCH   4   5
ATOM      5  C   UNL A   1      32.325  25.739  23.932  1.00  0.00     0.341 C 
ATOM      6  O   UNL A   1      32.277  25.299  22.792  1.00  0.00    -0.249 OA
BRANCH   5   7
ATOM      7  C   UNL A   1      31.332  25.373  25.039  1.00  0.00     0.231 C 
ATOM      8  C   UNL A   1      31.955  25.915  26.328  1.00  0.00     0.058 C 
BRANCH   7   9
ATOM      9  C   UNL A   1      30.048  26.137  24.683  1.00  0.00     0.422 C 
ATOM     10  F   UNL A   1      29.522  25.699  23.513  1.00  0.00    -0.168 F 
ATOM     11  F   UNL A   1      29.098  25.927  25.634  1.00  0.00    -0.168 F 
ATOM     12  F   UNL A   1      30.213  27.471  24.596  1.00  0.00    -0.168 F 
ENDBRANCH   7   9
BRANCH   7  13
ATOM     13  N   UNL A   1      31.085  23.888  25.045  1.00  0.00    -0.326 N 
ATOM     14  C   UNL A   1      31.795  22.830  25.555  1.00  0.00     0.288 C 
ATOM     15  H   UNL A   1      30.249  23.624  24.597  1.00  0.00     0.165 HD
ATOM     16  O   UNL A   1      31.178  21.802  25.803  1.00  0.00    -0.266 OA
BRANCH  14  17
ATOM     17  C   UNL A   1      33.225  22.940  25.646  1.00  0.00     0.192 A 
ATOM     18  C   UNL A   1      34.102  23.159  26.690  1.00  0.00     0.057 A 
ATOM     19  O   UNL A   1      33.925  22.825  24.477  1.00  0.00    -0.444 OA
ATOM     20  C   UNL A   1      35.399  23.232  26.115  1.00  0.00     0.059 A 
ATOM     21  C   UNL A   1      35.237  22.999  24.769  1.00  0.00     0.170 A 
ATOM     22  Br  UNL A   1      36.605  22.953  23.503  1.00  0.00    -0.008 Br
ENDBRANCH  14  17
ENDBRANCH   7  13
ENDBRANCH   5   7
ENDBRANCH   4   5
ENDBRANCH   3   4
ENDBRANCH   2   3
ENDBRANCH   1   2
BRANCH   1  23
ATOM     23  C   UNL A   1      31.767  29.951  25.530  1.00  0.00     0.202 C 
BRANCH  23  24
ATOM     24  C   UNL A   1      31.838  31.209  26.403  1.00  0.00     0.261 C 
BRANCH  24  25
ATOM     25  O   UNL A   1      32.751  31.045  27.506  1.00  0.00    -0.460 OA
BRANCH  25  26
ATOM     26  C   UNL A   1      33.597  32.084  27.692  1.00  0.00     0.338 C 
ATOM     27  O   UNL A   1      33.301  33.265  27.831  1.00  0.00    -0.246 OA
BRANCH  26  28
ATOM     28  C   UNL A   1      34.976  31.610  27.897  1.00  0.00     0.060 A 
ATOM     29  C   UNL A   1      35.169  30.224  27.987  1.00  0.00     0.016 A 
ATOM     30  C   UNL A   1      36.032  32.492  28.138  1.00  0.00     0.016 A 
ATOM     31  C   UNL A   1      36.396  29.717  28.402  1.00  0.00     0.010 A 
ATOM     32  C   UNL A   1      37.263  31.979  28.565  1.00  0.00     0.010 A 
ATOM     33  C   UNL A   1      37.430  30.595  28.752  1.00  0.00    -0.014 A 
BRANCH  33  34
ATOM     34  C   UNL A   1      38.587  30.062  29.513  1.00  0.00     0.031 A 
ATOM     35  C   UNL A   1      38.784  30.515  30.935  1.00  0.00     0.074 A 
ATOM     36  C   UNL A   1      39.405  29.140  28.978  1.00  0.00     0.049 A 
ATOM     37  N   UNL A   1      39.691  30.156  31.806  1.00  0.00    -0.248 NA
ATOM     38  C   UNL A   1      37.820  31.505  31.443  1.00  0.00     0.031 C 
ATOM     39  C   UNL A   1      39.290  28.589  27.632  1.00  0.00     0.029 A 
ATOM     40  N   UNL A   1      40.493  28.499  29.517  1.00  0.00    -0.354 N 
ATOM     41  C   UNL A   1      39.413  30.879  32.959  1.00  0.00     0.074 A 
ATOM     42  C   UNL A   1      38.272  31.719  32.669  1.00  0.00     0.031 C 
ATOM     43  C   UNL A   1      40.269  27.686  27.446  1.00  0.00     0.029 A 
ATOM     44  C   UNL A   1      41.090  27.615  28.655  1.00  0.00     0.049 A 
ATOM     45  H   UNL A   1      40.813  28.659  30.434  1.00  0.00     0.167 HD
ATOM     46  C   UNL A   1      40.047  30.840  34.157  1.00  0.00     0.037 A 
ATOM     47  C   UNL A   1      42.180  26.842  28.824  1.00  0.00     0.037 A 
ATOM     48  C   UNL A   1      41.179  30.002  34.448  1.00  0.00     0.049 A 
ATOM     49  C   UNL A   1      42.903  26.859  30.145  1.00  0.00     0.074 A 
ATOM     50  C   UNL A   1      41.880  29.877  35.634  1.00  0.00     0.029 A 
ATOM     51  N   UNL A   1      41.781  29.150  33.533  1.00  0.00    -0.354 N 
ATOM     52  N   UNL A   1      42.617  27.524  31.239  1.00  0.00    -0.248 NA
ATOM     53  C   UNL A   1      44.098  26.011  30.256  1.00  0.00     0.031 C 
ATOM     54  C   UNL A   1      42.935  28.982  35.425  1.00  0.00     0.029 A 
ATOM     55  C   UNL A   1      42.861  28.512  34.123  1.00  0.00     0.049 A 
ATOM     56  H   UNL A   1      41.486  29.018  32.604  1.00  0.00     0.167 HD
ATOM     57  C   UNL A   1      43.572  27.148  32.176  1.00  0.00     0.074 A 
ATOM     58  C   UNL A   1      44.443  26.194  31.523  1.00  0.00     0.031 C 
ATOM     59  C   UNL A   1      43.709  27.553  33.463  1.00  0.00     0.037 A 
BRANCH  46  60
ATOM     60  C   UNL A   1      39.541  31.761  35.229  1.00  0.00     0.064 A 
ATOM     61  C   UNL A   1      38.621  31.333  36.198  1.00  0.00     0.173 A 
ATOM     62  C   UNL A   1      39.988  33.089  35.290  1.00  0.00     0.173 A 
ATOM     63  F   UNL A   1      38.151  30.076  36.173  1.00  0.00    -0.203 F 
ATOM     64  C   UNL A   1      38.141  32.211  37.167  1.00  0.00     0.198 A 
ATOM     65  C   UNL A   1      39.528  33.956  36.277  1.00  0.00     0.198 A 
ATOM     66  F   UNL A   1      40.871  33.548  34.390  1.00  0.00    -0.203 F 
ATOM     67  F   UNL A   1      37.221  31.795  38.049  1.00  0.00    -0.200 F 
ATOM     68  C   UNL A   1      38.599  33.519  37.209  1.00  0.00     0.200 A 
ATOM     69  F   UNL A   1      39.979  35.218  36.323  1.00  0.00    -0.200 F 
ATOM     70  F   UNL A   1      38.135  34.363  38.141  1.00  0.00    -0.200 F 
ENDBRANCH  46  60
BRANCH  47  71
ATOM     71  C   UNL A   1      42.644  25.969  27.716  1.00  0.00     0.064 A 
ATOM     72  C   UNL A   1      43.652  26.391  26.839  1.00  0.00     0.173 A 
ATOM     73  C   UNL A   1      42.086  24.698  27.510  1.00  0.00     0.173 A 
ATOM     74  F   UNL A   1      44.197  27.608  26.982  1.00  0.00    -0.203 F 
ATOM     75  C   UNL A   1      44.078  25.578  25.790  1.00  0.00     0.198 A 
ATOM     76  C   UNL A   1      42.530  23.878  26.475  1.00  0.00     0.198 A 
ATOM     77  F   UNL A   1      41.116  24.251  28.320  1.00  0.00    -0.203 F 
ATOM     78  F   UNL A   1      45.018  26.021  24.943  1.00  0.00    -0.200 F 
ATOM     79  C   UNL A   1      43.522  24.320  25.613  1.00  0.00     0.200 A 
ATOM     80  F   UNL A   1      41.997  22.660  26.313  1.00  0.00    -0.200 F 
ATOM     81  F   UNL A   1      43.936  23.538  24.607  1.00  0.00    -0.200 F 
ENDBRANCH  47  71
BRANCH  59  82
ATOM     82  C   UNL A   1      44.813  26.928  34.267  1.00  0.00     0.064 A 
ATOM     83  C   UNL A   1      46.083  27.516  34.362  1.00  0.00     0.173 A 
ATOM     84  C   UNL A   1      44.581  25.744  34.984  1.00  0.00     0.173 A 
ATOM     85  F   UNL A   1      46.358  28.641  33.685  1.00  0.00    -0.203 F 
ATOM     86  C   UNL A   1      47.088  26.926  35.123  1.00  0.00     0.198 A 
ATOM     87  C   UNL A   1      45.581  25.172  35.767  1.00  0.00     0.198 A 
ATOM     88  F   UNL A   1      43.382  25.146  34.934  1.00  0.00    -0.203 F 
ATOM     89  F   UNL A   1      48.309  27.478  35.161  1.00  0.00    -0.200 F 
ATOM     90  C   UNL A   1      46.836  25.759  35.829  1.00  0.00     0.200 A 
ATOM     91  F   UNL A   1      45.329  24.052  36.459  1.00  0.00    -0.200 F 
ATOM     92  F   UNL A   1      47.803  25.196  36.564  1.00  0.00    -0.200 F 
ENDBRANCH  59  82
ENDBRANCH  33  34
ENDBRANCH  26  28
ENDBRANCH  25  26
ENDBRANCH  24  25
ENDBRANCH  23  24
ENDBRANCH   1  23
TORSDOF 17
ENDMDL
