MODEL 1
REMARK VINA RESULT:     -11.5      0.000      0.000
REMARK SMILES CCN(C(=O)C1(C)CCCC1)[C@@H]1COC[C@H]1C(=O)OCCOCCOC(=O)c1ccc(-c2c3nc(c(-c4c(F)c(F)c(F)c(F)c4F)c4ccc([nH]4)c(-c4c(F)c(F)c(F)c(F)c4F)c4nc(c(-c5c(F)c(F)c(F)c(F)c5F)c5ccc2[nH]5)C=C4)C=C3)cc1
REMARK SMILES IDX 21 1 20 2 19 3 17 4 18 5 16 6 12 7 13 8 14 9 15 10 3 11 2 12
REMARK SMILES IDX 1 13 4 14 5 15 6 16 7 17 8 18 11 19 9 20 10 21 22 22 23 23
REMARK SMILES IDX 24 24 25 25 26 26 27 27 28 28 29 29 90 30 30 31 89 32 31 33
REMARK SMILES IDX 32 34 33 35 83 36 34 37 88 38 82 39 84 40 35 41 87 42 81 43
REMARK SMILES IDX 80 44 36 46 68 47 48 48 67 49 49 50 52 51 66 52 85 53 50 54
REMARK SMILES IDX 51 55 65 57 86 58 53 59 37 60 38 61 46 62 39 63 40 64 44 65
REMARK SMILES IDX 47 66 41 67 42 68 45 69 43 70 69 71 70 72 78 73 71 74 72 75
REMARK SMILES IDX 76 76 79 77 73 78 74 79 77 80 75 81 54 82 55 83 63 84 56 85
REMARK SMILES IDX 57 86 61 87 64 88 58 89 59 90 62 91 60 92
REMARK H PARENT 84 45 52 56
REMARK Flexibility Score: inf
ROOT
ATOM      1  C   UNL A   1      40.443  21.191  26.714  1.00  0.00     0.202 C 
ENDROOT
BRANCH   1   2
ATOM      2  C   UNL A   1      39.435  22.330  26.525  1.00  0.00     0.261 C 
BRANCH   2   3
ATOM      3  O   UNL A   1      38.581  22.160  25.375  1.00  0.00    -0.463 OA
BRANCH   3   4
ATOM      4  C   UNL A   1      37.333  22.695  25.487  1.00  0.00     0.313 C 
ATOM      5  O   UNL A   1      36.978  23.431  26.404  1.00  0.00    -0.252 OA
BRANCH   4   6
ATOM      6  C   UNL A   1      36.341  22.149  24.489  1.00  0.00     0.150 C 
ATOM      7  C   UNL A   1      34.853  22.068  24.850  1.00  0.00     0.127 C 
ATOM      8  C   UNL A   1      34.242  22.275  23.452  1.00  0.00     0.186 C 
ATOM      9  O   UNL A   1      35.093  23.137  22.702  1.00  0.00    -0.378 OA
ATOM     10  C   UNL A   1      36.381  23.119  23.315  1.00  0.00     0.177 C 
BRANCH   7  11
ATOM     11  N   UNL A   1      34.265  20.828  25.460  1.00  0.00    -0.336 N 
BRANCH  11  12
ATOM     12  C   UNL A   1      33.489  21.029  26.700  1.00  0.00     0.116 C 
ATOM     13  C   UNL A   1      33.635  22.424  27.290  1.00  0.00     0.027 C 
ENDBRANCH  11  12
BRANCH  11  14
ATOM     14  C   UNL A   1      34.455  19.581  24.866  1.00  0.00     0.228 C 
ATOM     15  O   UNL A   1      35.598  19.149  24.699  1.00  0.00    -0.274 OA
BRANCH  14  16
ATOM     16  C   UNL A   1      33.239  18.750  24.356  1.00  0.00     0.047 C 
ATOM     17  C   UNL A   1      32.268  19.648  23.569  1.00  0.00     0.022 C 
ATOM     18  C   UNL A   1      33.718  17.639  23.384  1.00  0.00     0.016 C 
ATOM     19  C   UNL A   1      32.560  17.905  25.444  1.00  0.00     0.016 C 
ATOM     20  C   UNL A   1      34.137  16.462  24.256  1.00  0.00     0.001 C 
ATOM     21  C   UNL A   1      33.396  16.633  25.574  1.00  0.00     0.001 C 
ENDBRANCH  14  16
ENDBRANCH  11  14
ENDBRANCH   7  11
ENDBRANCH   4   6
ENDBRANCH   3   4
ENDBRANCH   2   3
ENDBRANCH   1   2
BRANCH   1  22
ATOM     22  O   UNL A   1      41.432  21.041  25.700  1.00  0.00    -0.374 OA
BRANCH  22  23
ATOM     23  C   UNL A   1      42.793  20.971  26.129  1.00  0.00     0.202 C 
BRANCH  23  24
ATOM     24  C   UNL A   1      43.780  21.796  25.300  1.00  0.00     0.261 C 
BRANCH  24  25
ATOM     25  O   UNL A   1      43.155  22.973  24.748  1.00  0.00    -0.460 OA
BRANCH  25  26
ATOM     26  C   UNL A   1      43.855  24.115  24.929  1.00  0.00     0.338 C 
ATOM     27  O   UNL A   1      44.909  24.435  24.397  1.00  0.00    -0.246 OA
BRANCH  26  28
ATOM     28  C   UNL A   1      43.104  25.051  25.784  1.00  0.00     0.060 A 
ATOM     29  C   UNL A   1      43.643  26.328  25.987  1.00  0.00     0.016 A 
ATOM     30  C   UNL A   1      41.976  24.636  26.494  1.00  0.00     0.016 A 
ATOM     31  C   UNL A   1      43.084  27.176  26.943  1.00  0.00     0.010 A 
ATOM     32  C   UNL A   1      41.420  25.488  27.457  1.00  0.00     0.010 A 
ATOM     33  C   UNL A   1      41.995  26.747  27.716  1.00  0.00    -0.014 A 
BRANCH  33  34
ATOM     34  C   UNL A   1      41.558  27.559  28.880  1.00  0.00     0.031 A 
ATOM     35  C   UNL A   1      42.330  27.472  30.170  1.00  0.00     0.074 A 
ATOM     36  C   UNL A   1      40.510  28.395  28.786  1.00  0.00     0.049 A 
ATOM     37  N   UNL A   1      42.127  28.096  31.304  1.00  0.00    -0.248 NA
ATOM     38  C   UNL A   1      43.486  26.562  30.184  1.00  0.00     0.031 C 
ATOM     39  C   UNL A   1      39.697  28.597  27.588  1.00  0.00     0.029 A 
ATOM     40  N   UNL A   1      39.949  29.231  29.720  1.00  0.00    -0.354 N 
ATOM     41  C   UNL A   1      43.128  27.658  32.162  1.00  0.00     0.074 A 
ATOM     42  C   UNL A   1      43.920  26.692  31.430  1.00  0.00     0.031 C 
ATOM     43  C   UNL A   1      38.736  29.495  27.862  1.00  0.00     0.029 A 
ATOM     44  C   UNL A   1      38.852  29.914  29.258  1.00  0.00     0.049 A 
ATOM     45  H   UNL A   1      40.301  29.332  30.634  1.00  0.00     0.167 HD
ATOM     46  C   UNL A   1      43.373  28.033  33.440  1.00  0.00     0.037 A 
ATOM     47  C   UNL A   1      38.026  30.770  29.893  1.00  0.00     0.037 A 
ATOM     48  C   UNL A   1      42.594  28.996  34.174  1.00  0.00     0.049 A 
ATOM     49  C   UNL A   1      38.284  31.124  31.335  1.00  0.00     0.074 A 
ATOM     50  C   UNL A   1      42.785  29.458  35.464  1.00  0.00     0.029 A 
ATOM     51  N   UNL A   1      41.469  29.639  33.682  1.00  0.00    -0.354 N 
ATOM     52  N   UNL A   1      39.253  30.730  32.125  1.00  0.00    -0.248 NA
ATOM     53  C   UNL A   1      37.332  32.046  31.972  1.00  0.00     0.031 C 
ATOM     54  C   UNL A   1      41.752  30.351  35.769  1.00  0.00     0.029 A 
ATOM     55  C   UNL A   1      40.940  30.475  34.653  1.00  0.00     0.049 A 
ATOM     56  H   UNL A   1      41.100  29.521  32.777  1.00  0.00     0.167 HD
ATOM     57  C   UNL A   1      39.042  31.371  33.338  1.00  0.00     0.074 A 
ATOM     58  C   UNL A   1      37.859  32.190  33.180  1.00  0.00     0.031 C 
ATOM     59  C   UNL A   1      39.766  31.290  34.481  1.00  0.00     0.037 A 
BRANCH  46  60
ATOM     60  C   UNL A   1      44.531  27.388  34.141  1.00  0.00     0.064 A 
ATOM     61  C   UNL A   1      45.788  28.006  34.200  1.00  0.00     0.173 A 
ATOM     62  C   UNL A   1      44.367  26.162  34.803  1.00  0.00     0.173 A 
ATOM     63  F   UNL A   1      45.996  29.173  33.572  1.00  0.00    -0.203 F 
ATOM     64  C   UNL A   1      46.846  27.410  34.880  1.00  0.00     0.198 A 
ATOM     65  C   UNL A   1      45.421  25.581  35.502  1.00  0.00     0.198 A 
ATOM     66  F   UNL A   1      43.182  25.535  34.780  1.00  0.00    -0.203 F 
ATOM     67  F   UNL A   1      48.049  28.001  34.896  1.00  0.00    -0.200 F 
ATOM     68  C   UNL A   1      46.660  26.202  35.535  1.00  0.00     0.200 A 
ATOM     69  F   UNL A   1      45.236  24.418  36.142  1.00  0.00    -0.200 F 
ATOM     70  F   UNL A   1      47.677  25.632  36.196  1.00  0.00    -0.200 F 
ENDBRANCH  46  60
BRANCH  47  71
ATOM     71  C   UNL A   1      36.866  31.350  29.172  1.00  0.00     0.064 A 
ATOM     72  C   UNL A   1      36.850  32.699  28.792  1.00  0.00     0.173 A 
ATOM     73  C   UNL A   1      35.739  30.572  28.869  1.00  0.00     0.173 A 
ATOM     74  F   UNL A   1      37.893  33.489  29.086  1.00  0.00    -0.203 F 
ATOM     75  C   UNL A   1      35.745  33.250  28.147  1.00  0.00     0.198 A 
ATOM     76  C   UNL A   1      34.645  31.118  28.203  1.00  0.00     0.198 A 
ATOM     77  F   UNL A   1      35.705  29.277  29.218  1.00  0.00    -0.203 F 
ATOM     78  F   UNL A   1      35.737  34.552  27.832  1.00  0.00    -0.200 F 
ATOM     79  C   UNL A   1      34.646  32.459  27.848  1.00  0.00     0.200 A 
ATOM     80  F   UNL A   1      33.589  30.347  27.910  1.00  0.00    -0.200 F 
ATOM     81  F   UNL A   1      33.584  32.989  27.227  1.00  0.00    -0.200 F 
ENDBRANCH  47  71
BRANCH  59  82
ATOM     82  C   UNL A   1      39.318  32.124  35.646  1.00  0.00     0.064 A 
ATOM     83  C   UNL A   1      38.469  31.607  36.634  1.00  0.00     0.173 A 
ATOM     84  C   UNL A   1      39.779  33.441  35.796  1.00  0.00     0.173 A 
ATOM     85  F   UNL A   1      37.990  30.358  36.527  1.00  0.00    -0.203 F 
ATOM     86  C   UNL A   1      38.083  32.384  37.723  1.00  0.00     0.198 A 
ATOM     87  C   UNL A   1      39.410  34.207  36.899  1.00  0.00     0.198 A 
ATOM     88  F   UNL A   1      40.598  33.979  34.880  1.00  0.00    -0.203 F 
ATOM     89  F   UNL A   1      37.241  31.882  38.637  1.00  0.00    -0.200 F 
ATOM     90  C   UNL A   1      38.559  33.680  37.858  1.00  0.00     0.200 A 
ATOM     91  F   UNL A   1      39.879  35.455  37.034  1.00  0.00    -0.200 F 
ATOM     92  F   UNL A   1      38.191  34.424  38.911  1.00  0.00    -0.200 F 
ENDBRANCH  59  82
ENDBRANCH  33  34
ENDBRANCH  26  28
ENDBRANCH  25  26
ENDBRANCH  24  25
ENDBRANCH  23  24
ENDBRANCH  22  23
ENDBRANCH   1  22
TORSDOF 18
ENDMDL
MODEL 2
REMARK VINA RESULT:     -10.9      4.775      9.567
REMARK SMILES CCN(C(=O)C1(C)CCCC1)[C@@H]1COC[C@H]1C(=O)OCCOCCOC(=O)c1ccc(-c2c3nc(c(-c4c(F)c(F)c(F)c(F)c4F)c4ccc([nH]4)c(-c4c(F)c(F)c(F)c(F)c4F)c4nc(c(-c5c(F)c(F)c(F)c(F)c5F)c5ccc2[nH]5)C=C4)C=C3)cc1
REMARK SMILES IDX 21 1 20 2 19 3 17 4 18 5 16 6 12 7 13 8 14 9 15 10 3 11 2 12
REMARK SMILES IDX 1 13 4 14 5 15 6 16 7 17 8 18 11 19 9 20 10 21 22 22 23 23
REMARK SMILES IDX 24 24 25 25 26 26 27 27 28 28 29 29 90 30 30 31 89 32 31 33
REMARK SMILES IDX 32 34 33 35 83 36 34 37 88 38 82 39 84 40 35 41 87 42 81 43
REMARK SMILES IDX 80 44 36 46 68 47 48 48 67 49 49 50 52 51 66 52 85 53 50 54
REMARK SMILES IDX 51 55 65 57 86 58 53 59 37 60 38 61 46 62 39 63 40 64 44 65
REMARK SMILES IDX 47 66 41 67 42 68 45 69 43 70 69 71 70 72 78 73 71 74 72 75
REMARK SMILES IDX 76 76 79 77 73 78 74 79 77 80 75 81 54 82 55 83 63 84 56 85
REMARK SMILES IDX 57 86 61 87 64 88 58 89 59 90 62 91 60 92
REMARK H PARENT 84 45 52 56
REMARK Flexibility Score: inf
ROOT
ATOM      1  C   UNL A   1      36.455  21.798  25.695  1.00  0.00     0.202 C 
ENDROOT
BRANCH   1   2
ATOM      2  C   UNL A   1      35.963  23.040  24.946  1.00  0.00     0.261 C 
BRANCH   2   3
ATOM      3  O   UNL A   1      34.814  22.792  24.109  1.00  0.00    -0.463 OA
BRANCH   3   4
ATOM      4  C   UNL A   1      33.638  23.318  24.557  1.00  0.00     0.313 C 
ATOM      5  O   UNL A   1      33.194  23.151  25.689  1.00  0.00    -0.252 OA
BRANCH   4   6
ATOM      6  C   UNL A   1      32.811  23.970  23.476  1.00  0.00     0.150 C 
ATOM      7  C   UNL A   1      32.728  25.499  23.389  1.00  0.00     0.127 C 
ATOM      8  C   UNL A   1      32.559  25.657  21.867  1.00  0.00     0.186 C 
ATOM      9  O   UNL A   1      33.266  24.607  21.215  1.00  0.00    -0.378 OA
ATOM     10  C   UNL A   1      33.473  23.565  22.166  1.00  0.00     0.177 C 
BRANCH   7  11
ATOM     11  N   UNL A   1      31.637  26.262  24.083  1.00  0.00    -0.336 N 
BRANCH  11  12
ATOM     12  C   UNL A   1      30.588  25.443  24.723  1.00  0.00     0.116 C 
ATOM     13  C   UNL A   1      30.189  25.937  26.105  1.00  0.00     0.027 C 
ENDBRANCH  11  12
BRANCH  11  14
ATOM     14  C   UNL A   1      31.645  27.656  24.108  1.00  0.00     0.228 C 
ATOM     15  O   UNL A   1      30.680  28.282  23.665  1.00  0.00    -0.274 OA
BRANCH  14  16
ATOM     16  C   UNL A   1      32.888  28.435  24.636  1.00  0.00     0.047 C 
ATOM     17  C   UNL A   1      33.778  28.885  23.463  1.00  0.00     0.022 C 
ATOM     18  C   UNL A   1      32.440  29.719  25.384  1.00  0.00     0.016 C 
ATOM     19  C   UNL A   1      33.653  27.707  25.751  1.00  0.00     0.016 C 
ATOM     20  C   UNL A   1      32.121  29.291  26.810  1.00  0.00     0.001 C 
ATOM     21  C   UNL A   1      32.897  28.004  27.045  1.00  0.00     0.001 C 
ENDBRANCH  14  16
ENDBRANCH  11  14
ENDBRANCH   7  11
ENDBRANCH   4   6
ENDBRANCH   3   4
ENDBRANCH   2   3
ENDBRANCH   1   2
BRANCH   1  22
ATOM     22  O   UNL A   1      37.737  21.298  25.326  1.00  0.00    -0.374 OA
BRANCH  22  23
ATOM     23  C   UNL A   1      37.812  19.922  24.949  1.00  0.00     0.202 C 
BRANCH  23  24
ATOM     24  C   UNL A   1      39.055  19.178  25.442  1.00  0.00     0.261 C 
BRANCH  24  25
ATOM     25  O   UNL A   1      39.925  20.044  26.200  1.00  0.00    -0.460 OA
BRANCH  25  26
ATOM     26  C   UNL A   1      41.237  19.725  26.124  1.00  0.00     0.338 C 
ATOM     27  O   UNL A   1      41.726  18.668  25.751  1.00  0.00    -0.246 OA
BRANCH  26  28
ATOM     28  C   UNL A   1      42.072  20.899  26.429  1.00  0.00     0.060 A 
ATOM     29  C   UNL A   1      42.223  21.263  27.774  1.00  0.00     0.016 A 
ATOM     30  C   UNL A   1      42.571  21.716  25.414  1.00  0.00     0.016 A 
ATOM     31  C   UNL A   1      42.830  22.475  28.104  1.00  0.00     0.010 A 
ATOM     32  C   UNL A   1      43.176  22.936  25.748  1.00  0.00     0.010 A 
ATOM     33  C   UNL A   1      43.272  23.340  27.093  1.00  0.00    -0.014 A 
BRANCH  33  34
ATOM     34  C   UNL A   1      43.700  24.719  27.444  1.00  0.00     0.031 A 
ATOM     35  C   UNL A   1      42.658  25.745  27.800  1.00  0.00     0.074 A 
ATOM     36  C   UNL A   1      45.002  25.049  27.485  1.00  0.00     0.049 A 
ATOM     37  N   UNL A   1      42.811  27.001  28.142  1.00  0.00    -0.248 NA
ATOM     38  C   UNL A   1      41.257  25.299  27.768  1.00  0.00     0.031 C 
ATOM     39  C   UNL A   1      46.111  24.143  27.193  1.00  0.00     0.029 A 
ATOM     40  N   UNL A   1      45.611  26.242  27.787  1.00  0.00    -0.354 N 
ATOM     41  C   UNL A   1      41.531  27.490  28.368  1.00  0.00     0.074 A 
ATOM     42  C   UNL A   1      40.609  26.408  28.095  1.00  0.00     0.031 C 
ATOM     43  C   UNL A   1      47.267  24.816  27.325  1.00  0.00     0.029 A 
ATOM     44  C   UNL A   1      46.979  26.203  27.687  1.00  0.00     0.049 A 
ATOM     45  H   UNL A   1      45.113  27.049  28.052  1.00  0.00     0.167 HD
ATOM     46  C   UNL A   1      41.156  28.727  28.777  1.00  0.00     0.037 A 
ATOM     47  C   UNL A   1      47.894  27.178  27.855  1.00  0.00     0.037 A 
ATOM     48  C   UNL A   1      42.066  29.807  29.056  1.00  0.00     0.049 A 
ATOM     49  C   UNL A   1      47.447  28.561  28.250  1.00  0.00     0.074 A 
ATOM     50  C   UNL A   1      41.777  31.085  29.501  1.00  0.00     0.029 A 
ATOM     51  N   UNL A   1      43.442  29.737  28.908  1.00  0.00    -0.354 N 
ATOM     52  N   UNL A   1      46.237  29.003  28.494  1.00  0.00    -0.248 NA
ATOM     53  C   UNL A   1      48.496  29.582  28.395  1.00  0.00     0.031 C 
ATOM     54  C   UNL A   1      42.975  31.802  29.584  1.00  0.00     0.029 A 
ATOM     55  C   UNL A   1      44.015  30.958  29.229  1.00  0.00     0.049 A 
ATOM     56  H   UNL A   1      43.939  28.939  28.619  1.00  0.00     0.167 HD
ATOM     57  C   UNL A   1      46.381  30.340  28.843  1.00  0.00     0.074 A 
ATOM     58  C   UNL A   1      47.797  30.637  28.791  1.00  0.00     0.031 C 
ATOM     59  C   UNL A   1      45.425  31.239  29.179  1.00  0.00     0.037 A 
BRANCH  46  60
ATOM     60  C   UNL A   1      39.688  28.987  28.937  1.00  0.00     0.064 A 
ATOM     61  C   UNL A   1      38.883  29.336  27.844  1.00  0.00     0.173 A 
ATOM     62  C   UNL A   1      39.072  28.838  30.189  1.00  0.00     0.173 A 
ATOM     63  F   UNL A   1      39.429  29.503  26.629  1.00  0.00    -0.203 F 
ATOM     64  C   UNL A   1      37.516  29.545  28.001  1.00  0.00     0.198 A 
ATOM     65  C   UNL A   1      37.701  29.025  30.338  1.00  0.00     0.198 A 
ATOM     66  F   UNL A   1      39.799  28.500  31.264  1.00  0.00    -0.203 F 
ATOM     67  F   UNL A   1      36.769  29.912  26.949  1.00  0.00    -0.200 F 
ATOM     68  C   UNL A   1      36.925  29.383  29.246  1.00  0.00     0.200 A 
ATOM     69  F   UNL A   1      37.131  28.858  31.539  1.00  0.00    -0.200 F 
ATOM     70  F   UNL A   1      35.608  29.578  29.394  1.00  0.00    -0.200 F 
ENDBRANCH  46  60
BRANCH  47  71
ATOM     71  C   UNL A   1      49.334  26.886  27.643  1.00  0.00     0.064 A 
ATOM     72  C   UNL A   1      49.894  26.900  26.358  1.00  0.00     0.173 A 
ATOM     73  C   UNL A   1      50.174  26.565  28.719  1.00  0.00     0.173 A 
ATOM     74  F   UNL A   1      49.124  27.173  25.295  1.00  0.00    -0.203 F 
ATOM     75  C   UNL A   1      51.238  26.590  26.157  1.00  0.00     0.198 A 
ATOM     76  C   UNL A   1      51.523  26.279  28.520  1.00  0.00     0.198 A 
ATOM     77  F   UNL A   1      49.682  26.533  29.967  1.00  0.00    -0.203 F 
ATOM     78  F   UNL A   1      51.739  26.569  24.915  1.00  0.00    -0.200 F 
ATOM     79  C   UNL A   1      52.052  26.285  27.238  1.00  0.00     0.200 A 
ATOM     80  F   UNL A   1      52.306  25.992  29.568  1.00  0.00    -0.200 F 
ATOM     81  F   UNL A   1      53.344  25.988  27.044  1.00  0.00    -0.200 F 
ENDBRANCH  47  71
BRANCH  59  82
ATOM     82  C   UNL A   1      45.874  32.625  29.541  1.00  0.00     0.064 A 
ATOM     83  C   UNL A   1      46.251  32.955  30.850  1.00  0.00     0.173 A 
ATOM     84  C   UNL A   1      45.972  33.620  28.557  1.00  0.00     0.173 A 
ATOM     85  F   UNL A   1      46.161  32.041  31.829  1.00  0.00    -0.203 F 
ATOM     86  C   UNL A   1      46.692  34.237  31.166  1.00  0.00     0.198 A 
ATOM     87  C   UNL A   1      46.437  34.895  28.871  1.00  0.00     0.198 A 
ATOM     88  F   UNL A   1      45.630  33.353  27.288  1.00  0.00    -0.203 F 
ATOM     89  F   UNL A   1      47.012  34.541  32.432  1.00  0.00    -0.200 F 
ATOM     90  C   UNL A   1      46.792  35.203  30.175  1.00  0.00     0.200 A 
ATOM     91  F   UNL A   1      46.542  35.824  27.912  1.00  0.00    -0.200 F 
ATOM     92  F   UNL A   1      47.223  36.435  30.480  1.00  0.00    -0.200 F 
ENDBRANCH  59  82
ENDBRANCH  33  34
ENDBRANCH  26  28
ENDBRANCH  25  26
ENDBRANCH  24  25
ENDBRANCH  23  24
ENDBRANCH  22  23
ENDBRANCH   1  22
TORSDOF 18
ENDMDL
MODEL 3
REMARK VINA RESULT:     -10.8      5.023      9.833
REMARK SMILES CCN(C(=O)C1(C)CCCC1)[C@@H]1COC[C@H]1C(=O)OCCOCCOC(=O)c1ccc(-c2c3nc(c(-c4c(F)c(F)c(F)c(F)c4F)c4ccc([nH]4)c(-c4c(F)c(F)c(F)c(F)c4F)c4nc(c(-c5c(F)c(F)c(F)c(F)c5F)c5ccc2[nH]5)C=C4)C=C3)cc1
REMARK SMILES IDX 21 1 20 2 19 3 17 4 18 5 16 6 12 7 13 8 14 9 15 10 3 11 2 12
REMARK SMILES IDX 1 13 4 14 5 15 6 16 7 17 8 18 11 19 9 20 10 21 22 22 23 23
REMARK SMILES IDX 24 24 25 25 26 26 27 27 28 28 29 29 90 30 30 31 89 32 31 33
REMARK SMILES IDX 32 34 33 35 83 36 34 37 88 38 82 39 84 40 35 41 87 42 81 43
REMARK SMILES IDX 80 44 36 46 68 47 48 48 67 49 49 50 52 51 66 52 85 53 50 54
REMARK SMILES IDX 51 55 65 57 86 58 53 59 37 60 38 61 46 62 39 63 40 64 44 65
REMARK SMILES IDX 47 66 41 67 42 68 45 69 43 70 69 71 70 72 78 73 71 74 72 75
REMARK SMILES IDX 76 76 79 77 73 78 74 79 77 80 75 81 54 82 55 83 63 84 56 85
REMARK SMILES IDX 57 86 61 87 64 88 58 89 59 90 62 91 60 92
REMARK H PARENT 84 45 52 56
REMARK Flexibility Score: inf
ROOT
ATOM      1  C   UNL A   1      36.603  22.602  25.497  1.00  0.00     0.202 C 
ENDROOT
BRANCH   1   2
ATOM      2  C   UNL A   1      35.888  23.686  24.683  1.00  0.00     0.261 C 
BRANCH   2   3
ATOM      3  O   UNL A   1      34.952  23.160  23.719  1.00  0.00    -0.463 OA
BRANCH   3   4
ATOM      4  C   UNL A   1      33.643  23.183  24.099  1.00  0.00     0.313 C 
ATOM      5  O   UNL A   1      33.184  22.532  25.033  1.00  0.00    -0.252 OA
BRANCH   4   6
ATOM      6  C   UNL A   1      32.743  23.931  23.145  1.00  0.00     0.150 C 
ATOM      7  C   UNL A   1      32.677  25.462  23.193  1.00  0.00     0.127 C 
ATOM      8  C   UNL A   1      32.391  25.750  21.708  1.00  0.00     0.186 C 
ATOM      9  O   UNL A   1      33.031  24.753  20.916  1.00  0.00    -0.378 OA
ATOM     10  C   UNL A   1      33.296  23.632  21.757  1.00  0.00     0.177 C 
BRANCH   7  11
ATOM     11  N   UNL A   1      31.654  26.172  24.033  1.00  0.00    -0.336 N 
BRANCH  11  12
ATOM     12  C   UNL A   1      30.752  25.304  24.816  1.00  0.00     0.116 C 
ATOM     13  C   UNL A   1      30.262  25.944  26.107  1.00  0.00     0.027 C 
ENDBRANCH  11  12
BRANCH  11  14
ATOM     14  C   UNL A   1      31.589  27.565  24.052  1.00  0.00     0.228 C 
ATOM     15  O   UNL A   1      30.578  28.137  23.638  1.00  0.00    -0.274 OA
BRANCH  14  16
ATOM     16  C   UNL A   1      32.805  28.411  24.537  1.00  0.00     0.047 C 
ATOM     17  C   UNL A   1      33.618  28.920  23.334  1.00  0.00     0.022 C 
ATOM     18  C   UNL A   1      32.313  29.662  25.314  1.00  0.00     0.016 C 
ATOM     19  C   UNL A   1      33.655  27.722  25.614  1.00  0.00     0.016 C 
ATOM     20  C   UNL A   1      32.078  29.206  26.748  1.00  0.00     0.001 C 
ATOM     21  C   UNL A   1      32.935  27.965  26.940  1.00  0.00     0.001 C 
ENDBRANCH  14  16
ENDBRANCH  11  14
ENDBRANCH   7  11
ENDBRANCH   4   6
ENDBRANCH   3   4
ENDBRANCH   2   3
ENDBRANCH   1   2
BRANCH   1  22
ATOM     22  O   UNL A   1      37.778  22.042  24.918  1.00  0.00    -0.374 OA
BRANCH  22  23
ATOM     23  C   UNL A   1      38.793  21.595  25.817  1.00  0.00     0.202 C 
BRANCH  23  24
ATOM     24  C   UNL A   1      39.368  20.210  25.513  1.00  0.00     0.261 C 
BRANCH  24  25
ATOM     25  O   UNL A   1      40.183  19.724  26.600  1.00  0.00    -0.460 OA
BRANCH  25  26
ATOM     26  C   UNL A   1      41.467  19.466  26.266  1.00  0.00     0.338 C 
ATOM     27  O   UNL A   1      41.913  18.451  25.749  1.00  0.00    -0.246 OA
BRANCH  26  28
ATOM     28  C   UNL A   1      42.305  20.659  26.478  1.00  0.00     0.060 A 
ATOM     29  C   UNL A   1      42.388  21.177  27.777  1.00  0.00     0.016 A 
ATOM     30  C   UNL A   1      42.873  21.346  25.403  1.00  0.00     0.016 A 
ATOM     31  C   UNL A   1      42.997  22.413  27.997  1.00  0.00     0.010 A 
ATOM     32  C   UNL A   1      43.479  22.589  25.626  1.00  0.00     0.010 A 
ATOM     33  C   UNL A   1      43.508  23.148  26.918  1.00  0.00    -0.014 A 
BRANCH  33  34
ATOM     34  C   UNL A   1      43.940  24.554  27.129  1.00  0.00     0.031 A 
ATOM     35  C   UNL A   1      42.931  25.575  27.581  1.00  0.00     0.074 A 
ATOM     36  C   UNL A   1      45.224  24.915  26.958  1.00  0.00     0.049 A 
ATOM     37  N   UNL A   1      43.094  26.851  27.830  1.00  0.00    -0.248 NA
ATOM     38  C   UNL A   1      41.555  25.095  27.780  1.00  0.00     0.031 C 
ATOM     39  C   UNL A   1      46.306  24.021  26.553  1.00  0.00     0.029 A 
ATOM     40  N   UNL A   1      45.833  26.138  27.104  1.00  0.00    -0.354 N 
ATOM     41  C   UNL A   1      41.846  27.323  28.218  1.00  0.00     0.074 A 
ATOM     42  C   UNL A   1      40.928  26.206  28.141  1.00  0.00     0.031 C 
ATOM     43  C   UNL A   1      47.447  24.726  26.476  1.00  0.00     0.029 A 
ATOM     44  C   UNL A   1      47.172  26.124  26.804  1.00  0.00     0.049 A 
ATOM     45  H   UNL A   1      45.355  26.947  27.398  1.00  0.00     0.167 HD
ATOM     46  C   UNL A   1      41.497  28.571  28.613  1.00  0.00     0.037 A 
ATOM     47  C   UNL A   1      48.071  27.128  26.784  1.00  0.00     0.037 A 
ATOM     48  C   UNL A   1      42.404  29.686  28.696  1.00  0.00     0.049 A 
ATOM     49  C   UNL A   1      47.644  28.521  27.167  1.00  0.00     0.074 A 
ATOM     50  C   UNL A   1      42.144  30.980  29.112  1.00  0.00     0.029 A 
ATOM     51  N   UNL A   1      43.745  29.640  28.350  1.00  0.00    -0.354 N 
ATOM     52  N   UNL A   1      46.470  28.948  27.564  1.00  0.00    -0.248 NA
ATOM     53  C   UNL A   1      48.671  29.572  27.101  1.00  0.00     0.031 C 
ATOM     54  C   UNL A   1      43.319  31.729  28.978  1.00  0.00     0.029 A 
ATOM     55  C   UNL A   1      44.320  30.889  28.518  1.00  0.00     0.049 A 
ATOM     56  H   UNL A   1      44.219  28.838  28.032  1.00  0.00     0.167 HD
ATOM     57  C   UNL A   1      46.623  30.305  27.818  1.00  0.00     0.074 A 
ATOM     58  C   UNL A   1      48.006  30.631  27.541  1.00  0.00     0.031 C 
ATOM     59  C   UNL A   1      45.698  31.200  28.245  1.00  0.00     0.037 A 
BRANCH  46  60
ATOM     60  C   UNL A   1      40.061  28.807  28.975  1.00  0.00     0.064 A 
ATOM     61  C   UNL A   1      39.607  28.671  30.294  1.00  0.00     0.173 A 
ATOM     62  C   UNL A   1      39.141  29.220  27.999  1.00  0.00     0.173 A 
ATOM     63  F   UNL A   1      40.446  28.266  31.259  1.00  0.00    -0.203 F 
ATOM     64  C   UNL A   1      38.277  28.923  30.621  1.00  0.00     0.198 A 
ATOM     65  C   UNL A   1      37.818  29.493  28.334  1.00  0.00     0.198 A 
ATOM     66  F   UNL A   1      39.529  29.370  26.724  1.00  0.00    -0.203 F 
ATOM     67  F   UNL A   1      37.855  28.754  31.882  1.00  0.00    -0.200 F 
ATOM     68  C   UNL A   1      37.386  29.339  29.643  1.00  0.00     0.200 A 
ATOM     69  F   UNL A   1      36.961  29.905  27.390  1.00  0.00    -0.200 F 
ATOM     70  F   UNL A   1      36.108  29.588  29.961  1.00  0.00    -0.200 F 
ENDBRANCH  46  60
BRANCH  47  71
ATOM     71  C   UNL A   1      49.473  26.857  26.375  1.00  0.00     0.064 A 
ATOM     72  C   UNL A   1      50.451  26.524  27.322  1.00  0.00     0.173 A 
ATOM     73  C   UNL A   1      49.866  26.947  25.032  1.00  0.00     0.173 A 
ATOM     74  F   UNL A   1      50.129  26.455  28.621  1.00  0.00    -0.203 F 
ATOM     75  C   UNL A   1      51.774  26.305  26.941  1.00  0.00     0.198 A 
ATOM     76  C   UNL A   1      51.182  26.704  24.649  1.00  0.00     0.198 A 
ATOM     77  F   UNL A   1      48.966  27.268  24.090  1.00  0.00    -0.203 F 
ATOM     78  F   UNL A   1      52.699  26.031  27.870  1.00  0.00    -0.200 F 
ATOM     79  C   UNL A   1      52.137  26.390  25.605  1.00  0.00     0.200 A 
ATOM     80  F   UNL A   1      51.527  26.780  23.357  1.00  0.00    -0.200 F 
ATOM     81  F   UNL A   1      53.409  26.179  25.239  1.00  0.00    -0.200 F 
ENDBRANCH  47  71
BRANCH  59  82
ATOM     82  C   UNL A   1      46.153  32.613  28.463  1.00  0.00     0.064 A 
ATOM     83  C   UNL A   1      46.073  33.574  27.445  1.00  0.00     0.173 A 
ATOM     84  C   UNL A   1      46.633  33.020  29.717  1.00  0.00     0.173 A 
ATOM     85  F   UNL A   1      45.635  33.230  26.225  1.00  0.00    -0.203 F 
ATOM     86  C   UNL A   1      46.474  34.889  27.670  1.00  0.00     0.198 A 
ATOM     87  C   UNL A   1      47.010  34.342  29.945  1.00  0.00     0.198 A 
ATOM     88  F   UNL A   1      46.723  32.140  30.725  1.00  0.00    -0.203 F 
ATOM     89  F   UNL A   1      46.423  35.783  26.672  1.00  0.00    -0.200 F 
ATOM     90  C   UNL A   1      46.934  35.273  28.921  1.00  0.00     0.200 A 
ATOM     91  F   UNL A   1      47.445  34.713  31.157  1.00  0.00    -0.200 F 
ATOM     92  F   UNL A   1      47.313  36.540  29.137  1.00  0.00    -0.200 F 
ENDBRANCH  59  82
ENDBRANCH  33  34
ENDBRANCH  26  28
ENDBRANCH  25  26
ENDBRANCH  24  25
ENDBRANCH  23  24
ENDBRANCH  22  23
ENDBRANCH   1  22
TORSDOF 18
ENDMDL
