MODEL 1
REMARK VINA RESULT:     -11.6      0.000      0.000
REMARK SMILES CC(=O)c1cc(C(=O)NC[C@H]2CC[C@H](C(=O)OCCOCCOC(=O)c3ccc(-c4c5nc(c(-c6c(F)c(F)c(F)c(F)c6F)c6ccc([nH]6)c(-c6c(F)c(F)c(F)c(F)c6F)c6nc(c(-c7c(F)c(F)c(F)c(F)c7F)c7ccc4[nH]7)C=C6)C=C5)cc3)O2)n(C)c1
REMARK SMILES IDX 19 1 18 2 17 3 15 4 16 5 14 6 11 7 12 8 89 9 13 10 10 11
REMARK SMILES IDX 9 12 7 13 8 14 6 16 4 17 5 18 92 19 90 20 91 21 2 22 1 23
REMARK SMILES IDX 3 24 20 25 21 26 22 27 23 28 24 29 25 30 26 31 27 32 88 33
REMARK SMILES IDX 28 34 87 35 29 36 30 37 31 38 81 39 32 40 86 41 80 42 82 43
REMARK SMILES IDX 33 44 85 45 79 46 78 47 34 49 66 50 46 51 65 52 47 53 50 54
REMARK SMILES IDX 64 55 83 56 48 57 49 58 63 60 84 61 51 62 35 63 36 64 44 65
REMARK SMILES IDX 37 66 38 67 42 68 45 69 39 70 40 71 43 72 41 73 67 74 68 75
REMARK SMILES IDX 76 76 69 77 70 78 74 79 77 80 71 81 72 82 75 83 73 84 52 85
REMARK SMILES IDX 53 86 61 87 54 88 55 89 59 90 62 91 56 92 57 93 60 94 58 95
REMARK H PARENT 9 15 82 48 50 59
REMARK Flexibility Score: inf
ROOT
ATOM      1  C   UNL A   1      40.587  21.487  27.482  1.00  0.00     0.202 C 
ENDROOT
BRANCH   1   2
ATOM      2  C   UNL A   1      39.758  21.451  26.196  1.00  0.00     0.261 C 
BRANCH   2   3
ATOM      3  O   UNL A   1      38.751  22.474  26.203  1.00  0.00    -0.461 OA
BRANCH   3   4
ATOM      4  C   UNL A   1      37.608  22.190  25.518  1.00  0.00     0.335 C 
ATOM      5  O   UNL A   1      36.976  21.145  25.622  1.00  0.00    -0.249 OA
BRANCH   4   6
ATOM      6  C   UNL A   1      37.175  23.347  24.601  1.00  0.00     0.228 C 
ATOM      7  C   UNL A   1      34.905  23.758  24.813  1.00  0.00     0.138 C 
ATOM      8  C   UNL A   1      35.081  22.824  23.624  1.00  0.00     0.037 C 
ATOM      9  O   UNL A   1      36.207  24.180  25.250  1.00  0.00    -0.361 OA
ATOM     10  C   UNL A   1      36.536  22.979  23.271  1.00  0.00     0.047 C 
BRANCH   7  11
ATOM     11  C   UNL A   1      34.037  24.971  24.488  1.00  0.00     0.148 C 
BRANCH  11  12
ATOM     12  N   UNL A   1      33.985  25.956  25.550  1.00  0.00    -0.348 N 
ATOM     13  C   UNL A   1      33.378  27.172  25.680  1.00  0.00     0.268 C 
ATOM     14  O   UNL A   1      33.672  27.792  26.707  1.00  0.00    -0.268 OA
ATOM     15  H   UNL A   1      34.499  25.692  26.347  1.00  0.00     0.163 HD
BRANCH  13  16
ATOM     16  C   UNL A   1      32.504  27.762  24.674  1.00  0.00     0.107 A 
ATOM     17  C   UNL A   1      30.522  28.230  23.581  1.00  0.00     0.036 A 
ATOM     18  C   UNL A   1      31.113  27.608  24.710  1.00  0.00     0.045 A 
ATOM     19  C   UNL A   1      31.573  28.782  22.884  1.00  0.00     0.097 A 
ATOM     20  N   UNL A   1      32.758  28.422  23.484  1.00  0.00    -0.346 N 
ATOM     21  C   UNL A   1      34.009  28.623  22.789  1.00  0.00     0.150 C 
BRANCH  17  22
ATOM     22  C   UNL A   1      29.125  28.295  23.156  1.00  0.00     0.161 C 
ATOM     23  C   UNL A   1      28.187  27.204  23.599  1.00  0.00     0.093 C 
ATOM     24  O   UNL A   1      28.708  29.235  22.477  1.00  0.00    -0.294 OA
ENDBRANCH  17  22
ENDBRANCH  13  16
ENDBRANCH  11  12
ENDBRANCH   7  11
ENDBRANCH   4   6
ENDBRANCH   3   4
ENDBRANCH   2   3
ENDBRANCH   1   2
BRANCH   1  25
ATOM     25  O   UNL A   1      41.987  21.248  27.356  1.00  0.00    -0.374 OA
BRANCH  25  26
ATOM     26  C   UNL A   1      42.484  20.792  26.100  1.00  0.00     0.202 C 
BRANCH  26  27
ATOM     27  C   UNL A   1      43.502  21.685  25.375  1.00  0.00     0.261 C 
BRANCH  27  28
ATOM     28  O   UNL A   1      42.910  22.865  24.796  1.00  0.00    -0.460 OA
BRANCH  28  29
ATOM     29  C   UNL A   1      43.646  23.992  24.940  1.00  0.00     0.338 C 
ATOM     30  O   UNL A   1      44.676  24.289  24.345  1.00  0.00    -0.246 OA
BRANCH  29  31
ATOM     31  C   UNL A   1      42.956  24.956  25.813  1.00  0.00     0.060 A 
ATOM     32  C   UNL A   1      43.584  26.188  26.038  1.00  0.00     0.016 A 
ATOM     33  C   UNL A   1      41.787  24.620  26.495  1.00  0.00     0.016 A 
ATOM     34  C   UNL A   1      43.069  27.073  26.981  1.00  0.00     0.010 A 
ATOM     35  C   UNL A   1      41.276  25.507  27.451  1.00  0.00     0.010 A 
ATOM     36  C   UNL A   1      41.934  26.721  27.723  1.00  0.00    -0.014 A 
BRANCH  36  37
ATOM     37  C   UNL A   1      41.529  27.560  28.877  1.00  0.00     0.031 A 
ATOM     38  C   UNL A   1      42.309  27.469  30.160  1.00  0.00     0.074 A 
ATOM     39  C   UNL A   1      40.502  28.423  28.775  1.00  0.00     0.049 A 
ATOM     40  N   UNL A   1      42.113  28.082  31.299  1.00  0.00    -0.248 NA
ATOM     41  C   UNL A   1      43.470  26.564  30.155  1.00  0.00     0.031 C 
ATOM     42  C   UNL A   1      39.700  28.638  27.574  1.00  0.00     0.029 A 
ATOM     43  N   UNL A   1      39.957  29.273  29.704  1.00  0.00    -0.354 N 
ATOM     44  C   UNL A   1      43.119  27.635  32.148  1.00  0.00     0.074 A 
ATOM     45  C   UNL A   1      43.908  26.678  31.401  1.00  0.00     0.031 C 
ATOM     46  C   UNL A   1      38.753  29.553  27.842  1.00  0.00     0.029 A 
ATOM     47  C   UNL A   1      38.863  29.961  29.242  1.00  0.00     0.049 A 
ATOM     48  H   UNL A   1      40.316  29.380  30.615  1.00  0.00     0.167 HD
ATOM     49  C   UNL A   1      43.366  27.997  33.429  1.00  0.00     0.037 A 
ATOM     50  C   UNL A   1      38.030  30.804  29.883  1.00  0.00     0.037 A 
ATOM     51  C   UNL A   1      42.582  28.950  34.169  1.00  0.00     0.049 A 
ATOM     52  C   UNL A   1      38.279  31.131  31.333  1.00  0.00     0.074 A 
ATOM     53  C   UNL A   1      42.767  29.399  35.465  1.00  0.00     0.029 A 
ATOM     54  N   UNL A   1      41.458  29.598  33.679  1.00  0.00    -0.354 N 
ATOM     55  N   UNL A   1      39.245  30.722  32.121  1.00  0.00    -0.248 NA
ATOM     56  C   UNL A   1      37.324  32.038  31.983  1.00  0.00     0.031 C 
ATOM     57  C   UNL A   1      41.724  30.278  35.777  1.00  0.00     0.029 A 
ATOM     58  C   UNL A   1      40.921  30.419  34.658  1.00  0.00     0.049 A 
ATOM     59  H   UNL A   1      41.095  29.489  32.770  1.00  0.00     0.167 HD
ATOM     60  C   UNL A   1      39.029  31.339  33.346  1.00  0.00     0.074 A 
ATOM     61  C   UNL A   1      37.847  32.162  33.195  1.00  0.00     0.031 C 
ATOM     62  C   UNL A   1      39.745  31.236  34.492  1.00  0.00     0.037 A 
BRANCH  49  63
ATOM     63  C   UNL A   1      44.520  27.336  34.125  1.00  0.00     0.064 A 
ATOM     64  C   UNL A   1      44.364  26.139  34.839  1.00  0.00     0.173 A 
ATOM     65  C   UNL A   1      45.806  27.889  34.043  1.00  0.00     0.173 A 
ATOM     66  F   UNL A   1      43.152  25.576  34.957  1.00  0.00    -0.203 F 
ATOM     67  C   UNL A   1      45.450  25.534  35.469  1.00  0.00     0.198 A 
ATOM     68  C   UNL A   1      46.895  27.267  34.650  1.00  0.00     0.198 A 
ATOM     69  F   UNL A   1      46.010  29.030  33.369  1.00  0.00    -0.203 F 
ATOM     70  F   UNL A   1      45.270  24.415  36.184  1.00  0.00    -0.200 F 
ATOM     71  C   UNL A   1      46.714  26.095  35.367  1.00  0.00     0.200 A 
ATOM     72  F   UNL A   1      48.118  27.804  34.541  1.00  0.00    -0.200 F 
ATOM     73  F   UNL A   1      47.759  25.508  35.968  1.00  0.00    -0.200 F 
ENDBRANCH  49  63
BRANCH  50  74
ATOM     74  C   UNL A   1      36.864  31.381  29.165  1.00  0.00     0.064 A 
ATOM     75  C   UNL A   1      36.848  32.728  28.773  1.00  0.00     0.173 A 
ATOM     76  C   UNL A   1      35.736  30.602  28.870  1.00  0.00     0.173 A 
ATOM     77  F   UNL A   1      37.892  33.520  29.057  1.00  0.00    -0.203 F 
ATOM     78  C   UNL A   1      35.741  33.274  28.127  1.00  0.00     0.198 A 
ATOM     79  C   UNL A   1      34.642  31.142  28.198  1.00  0.00     0.198 A 
ATOM     80  F   UNL A   1      35.702  29.309  29.224  1.00  0.00    -0.203 F 
ATOM     81  F   UNL A   1      35.733  34.574  27.802  1.00  0.00    -0.200 F 
ATOM     82  C   UNL A   1      34.643  32.480  27.834  1.00  0.00     0.200 A 
ATOM     83  F   UNL A   1      33.589  30.368  27.905  1.00  0.00    -0.200 F 
ATOM     84  F   UNL A   1      33.581  33.005  27.208  1.00  0.00    -0.200 F 
ENDBRANCH  50  74
BRANCH  62  85
ATOM     85  C   UNL A   1      39.293  32.053  35.668  1.00  0.00     0.064 A 
ATOM     86  C   UNL A   1      38.414  31.536  36.630  1.00  0.00     0.173 A 
ATOM     87  C   UNL A   1      39.782  33.356  35.858  1.00  0.00     0.173 A 
ATOM     88  F   UNL A   1      37.906  30.302  36.486  1.00  0.00    -0.203 F 
ATOM     89  C   UNL A   1      38.026  32.299  37.728  1.00  0.00     0.198 A 
ATOM     90  C   UNL A   1      39.415  34.104  36.972  1.00  0.00     0.198 A 
ATOM     91  F   UNL A   1      40.631  33.895  34.970  1.00  0.00    -0.203 F 
ATOM     92  F   UNL A   1      37.151  31.800  38.613  1.00  0.00    -0.200 F 
ATOM     93  C   UNL A   1      38.532  33.578  37.903  1.00  0.00     0.200 A 
ATOM     94  F   UNL A   1      39.916  35.335  37.146  1.00  0.00    -0.200 F 
ATOM     95  F   UNL A   1      38.164  34.308  38.966  1.00  0.00    -0.200 F 
ENDBRANCH  62  85
ENDBRANCH  36  37
ENDBRANCH  29  31
ENDBRANCH  28  29
ENDBRANCH  27  28
ENDBRANCH  26  27
ENDBRANCH  25  26
ENDBRANCH   1  25
TORSDOF 18
ENDMDL
MODEL 2
REMARK VINA RESULT:     -11.0      1.062      2.005
REMARK SMILES CC(=O)c1cc(C(=O)NC[C@H]2CC[C@H](C(=O)OCCOCCOC(=O)c3ccc(-c4c5nc(c(-c6c(F)c(F)c(F)c(F)c6F)c6ccc([nH]6)c(-c6c(F)c(F)c(F)c(F)c6F)c6nc(c(-c7c(F)c(F)c(F)c(F)c7F)c7ccc4[nH]7)C=C6)C=C5)cc3)O2)n(C)c1
REMARK SMILES IDX 19 1 18 2 17 3 15 4 16 5 14 6 11 7 12 8 89 9 13 10 10 11
REMARK SMILES IDX 9 12 7 13 8 14 6 16 4 17 5 18 92 19 90 20 91 21 2 22 1 23
REMARK SMILES IDX 3 24 20 25 21 26 22 27 23 28 24 29 25 30 26 31 27 32 88 33
REMARK SMILES IDX 28 34 87 35 29 36 30 37 31 38 81 39 32 40 86 41 80 42 82 43
REMARK SMILES IDX 33 44 85 45 79 46 78 47 34 49 66 50 46 51 65 52 47 53 50 54
REMARK SMILES IDX 64 55 83 56 48 57 49 58 63 60 84 61 51 62 35 63 36 64 44 65
REMARK SMILES IDX 37 66 38 67 42 68 45 69 39 70 40 71 43 72 41 73 67 74 68 75
REMARK SMILES IDX 76 76 69 77 70 78 74 79 77 80 71 81 72 82 75 83 73 84 52 85
REMARK SMILES IDX 53 86 61 87 54 88 55 89 59 90 62 91 56 92 57 93 60 94 58 95
REMARK H PARENT 9 15 82 48 50 59
REMARK Flexibility Score: inf
ROOT
ATOM      1  C   UNL A   1      39.723  21.126  25.895  1.00  0.00     0.202 C 
ENDROOT
BRANCH   1   2
ATOM      2  C   UNL A   1      38.590  22.131  26.118  1.00  0.00     0.261 C 
BRANCH   2   3
ATOM      3  O   UNL A   1      37.674  22.128  25.012  1.00  0.00    -0.461 OA
BRANCH   3   4
ATOM      4  C   UNL A   1      36.474  21.523  25.234  1.00  0.00     0.335 C 
ATOM      5  O   UNL A   1      36.266  20.322  25.107  1.00  0.00    -0.249 OA
BRANCH   4   6
ATOM      6  C   UNL A   1      35.393  22.519  25.690  1.00  0.00     0.228 C 
ATOM      7  C   UNL A   1      33.946  23.015  23.950  1.00  0.00     0.138 C 
ATOM      8  C   UNL A   1      35.015  24.099  23.966  1.00  0.00     0.037 C 
ATOM      9  O   UNL A   1      34.122  22.194  25.115  1.00  0.00    -0.361 OA
ATOM     10  C   UNL A   1      35.608  23.985  25.345  1.00  0.00     0.047 C 
BRANCH   7  11
ATOM     11  C   UNL A   1      32.530  23.581  23.909  1.00  0.00     0.148 C 
BRANCH  11  12
ATOM     12  N   UNL A   1      31.941  23.780  25.218  1.00  0.00    -0.348 N 
ATOM     13  C   UNL A   1      31.504  24.881  25.899  1.00  0.00     0.268 C 
ATOM     14  O   UNL A   1      31.172  24.670  27.070  1.00  0.00    -0.268 OA
ATOM     15  H   UNL A   1      31.834  22.943  25.726  1.00  0.00     0.163 HD
BRANCH  13  16
ATOM     16  C   UNL A   1      31.487  26.230  25.349  1.00  0.00     0.107 A 
ATOM     17  C   UNL A   1      30.794  27.974  23.999  1.00  0.00     0.036 A 
ATOM     18  C   UNL A   1      30.536  26.639  24.405  1.00  0.00     0.045 A 
ATOM     19  C   UNL A   1      31.891  28.368  24.731  1.00  0.00     0.097 A 
ATOM     20  N   UNL A   1      32.359  27.299  25.462  1.00  0.00    -0.346 N 
ATOM     21  C   UNL A   1      33.663  27.365  26.081  1.00  0.00     0.150 C 
BRANCH  17  22
ATOM     22  C   UNL A   1      30.117  28.812  23.011  1.00  0.00     0.161 C 
ATOM     23  C   UNL A   1      29.279  29.965  23.499  1.00  0.00     0.093 C 
ATOM     24  O   UNL A   1      30.249  28.609  21.803  1.00  0.00    -0.294 OA
ENDBRANCH  17  22
ENDBRANCH  13  16
ENDBRANCH  11  12
ENDBRANCH   7  11
ENDBRANCH   4   6
ENDBRANCH   3   4
ENDBRANCH   2   3
ENDBRANCH   1   2
BRANCH   1  25
ATOM     25  O   UNL A   1      40.520  20.786  27.027  1.00  0.00    -0.374 OA
BRANCH  25  26
ATOM     26  C   UNL A   1      41.846  20.313  26.801  1.00  0.00     0.202 C 
BRANCH  26  27
ATOM     27  C   UNL A   1      42.694  21.054  25.757  1.00  0.00     0.261 C 
BRANCH  27  28
ATOM     28  O   UNL A   1      43.328  22.238  26.280  1.00  0.00    -0.460 OA
BRANCH  28  29
ATOM     29  C   UNL A   1      43.166  23.346  25.518  1.00  0.00     0.338 C 
ATOM     30  O   UNL A   1      43.345  23.450  24.309  1.00  0.00    -0.246 OA
BRANCH  29  31
ATOM     31  C   UNL A   1      42.561  24.433  26.302  1.00  0.00     0.060 A 
ATOM     32  C   UNL A   1      43.256  25.647  26.369  1.00  0.00     0.016 A 
ATOM     33  C   UNL A   1      41.404  24.236  27.058  1.00  0.00     0.016 A 
ATOM     34  C   UNL A   1      42.823  26.656  27.226  1.00  0.00     0.010 A 
ATOM     35  C   UNL A   1      40.976  25.247  27.927  1.00  0.00     0.010 A 
ATOM     36  C   UNL A   1      41.703  26.446  28.041  1.00  0.00    -0.014 A 
BRANCH  36  37
ATOM     37  C   UNL A   1      41.386  27.426  29.110  1.00  0.00     0.031 A 
ATOM     38  C   UNL A   1      42.233  27.454  30.352  1.00  0.00     0.074 A 
ATOM     39  C   UNL A   1      40.380  28.306  28.961  1.00  0.00     0.049 A 
ATOM     40  N   UNL A   1      42.117  28.200  31.422  1.00  0.00    -0.248 NA
ATOM     41  C   UNL A   1      43.365  26.516  30.393  1.00  0.00     0.031 C 
ATOM     42  C   UNL A   1      39.520  28.410  27.785  1.00  0.00     0.029 A 
ATOM     43  N   UNL A   1      39.911  29.275  29.811  1.00  0.00    -0.354 N 
ATOM     44  C   UNL A   1      43.154  27.819  32.263  1.00  0.00     0.074 A 
ATOM     45  C   UNL A   1      43.874  26.756  31.593  1.00  0.00     0.031 C 
ATOM     46  C   UNL A   1      38.616  29.382  27.993  1.00  0.00     0.029 A 
ATOM     47  C   UNL A   1      38.814  29.944  29.329  1.00  0.00     0.049 A 
ATOM     48  H   UNL A   1      40.323  29.473  30.684  1.00  0.00     0.167 HD
ATOM     49  C   UNL A   1      43.481  28.316  33.480  1.00  0.00     0.037 A 
ATOM     50  C   UNL A   1      38.042  30.882  29.910  1.00  0.00     0.037 A 
ATOM     51  C   UNL A   1      42.768  29.374  34.144  1.00  0.00     0.049 A 
ATOM     52  C   UNL A   1      38.379  31.364  31.298  1.00  0.00     0.074 A 
ATOM     53  C   UNL A   1      43.036  29.962  35.368  1.00  0.00     0.029 A 
ATOM     54  N   UNL A   1      41.636  30.001  33.639  1.00  0.00    -0.354 N 
ATOM     55  N   UNL A   1      39.375  31.015  32.077  1.00  0.00    -0.248 NA
ATOM     56  C   UNL A   1      37.487  32.373  31.886  1.00  0.00     0.031 C 
ATOM     57  C   UNL A   1      42.037  30.906  35.629  1.00  0.00     0.029 A 
ATOM     58  C   UNL A   1      41.178  30.946  34.543  1.00  0.00     0.049 A 
ATOM     59  H   UNL A   1      41.222  29.801  32.769  1.00  0.00     0.167 HD
ATOM     60  C   UNL A   1      39.244  31.775  33.232  1.00  0.00     0.074 A 
ATOM     61  C   UNL A   1      38.080  32.616  33.046  1.00  0.00     0.031 C 
ATOM     62  C   UNL A   1      40.019  31.779  34.344  1.00  0.00     0.037 A 
BRANCH  49  63
ATOM     63  C   UNL A   1      44.653  27.699  34.188  1.00  0.00     0.064 A 
ATOM     64  C   UNL A   1      45.950  28.215  34.058  1.00  0.00     0.173 A 
ATOM     65  C   UNL A   1      44.466  26.598  35.037  1.00  0.00     0.173 A 
ATOM     66  F   UNL A   1      46.183  29.259  33.248  1.00  0.00    -0.203 F 
ATOM     67  C   UNL A   1      47.022  27.636  34.733  1.00  0.00     0.198 A 
ATOM     68  C   UNL A   1      45.535  26.038  35.732  1.00  0.00     0.198 A 
ATOM     69  F   UNL A   1      43.244  26.069  35.200  1.00  0.00    -0.203 F 
ATOM     70  F   UNL A   1      48.260  28.117  34.559  1.00  0.00    -0.200 F 
ATOM     71  C   UNL A   1      46.812  26.553  35.574  1.00  0.00     0.200 A 
ATOM     72  F   UNL A   1      45.328  25.000  36.554  1.00  0.00    -0.200 F 
ATOM     73  F   UNL A   1      47.844  26.000  36.228  1.00  0.00    -0.200 F 
ENDBRANCH  49  63
BRANCH  50  74
ATOM     74  C   UNL A   1      36.855  31.414  29.190  1.00  0.00     0.064 A 
ATOM     75  C   UNL A   1      36.808  32.746  28.755  1.00  0.00     0.173 A 
ATOM     76  C   UNL A   1      35.738  30.605  28.938  1.00  0.00     0.173 A 
ATOM     77  F   UNL A   1      37.841  33.566  28.996  1.00  0.00    -0.203 F 
ATOM     78  C   UNL A   1      35.682  33.250  28.107  1.00  0.00     0.198 A 
ATOM     79  C   UNL A   1      34.625  31.102  28.265  1.00  0.00     0.198 A 
ATOM     80  F   UNL A   1      35.733  29.324  29.335  1.00  0.00    -0.203 F 
ATOM     81  F   UNL A   1      35.645  34.539  27.739  1.00  0.00    -0.200 F 
ATOM     82  C   UNL A   1      34.595  32.427  27.857  1.00  0.00     0.200 A 
ATOM     83  F   UNL A   1      33.583  30.299  28.012  1.00  0.00    -0.200 F 
ATOM     84  F   UNL A   1      33.515  32.911  27.229  1.00  0.00    -0.200 F 
ENDBRANCH  50  74
BRANCH  62  85
ATOM     85  C   UNL A   1      39.655  32.741  35.438  1.00  0.00     0.064 A 
ATOM     86  C   UNL A   1      40.171  34.045  35.473  1.00  0.00     0.173 A 
ATOM     87  C   UNL A   1      38.745  32.367  36.439  1.00  0.00     0.173 A 
ATOM     88  F   UNL A   1      41.057  34.446  34.549  1.00  0.00    -0.203 F 
ATOM     89  C   UNL A   1      39.803  34.933  36.480  1.00  0.00     0.198 A 
ATOM     90  C   UNL A   1      38.356  33.267  37.427  1.00  0.00     0.198 A 
ATOM     91  F   UNL A   1      38.218  31.134  36.448  1.00  0.00    -0.203 F 
ATOM     92  F   UNL A   1      40.340  36.160  36.519  1.00  0.00    -0.200 F 
ATOM     93  C   UNL A   1      38.890  34.547  37.451  1.00  0.00     0.200 A 
ATOM     94  F   UNL A   1      37.465  32.896  38.356  1.00  0.00    -0.200 F 
ATOM     95  F   UNL A   1      38.530  35.406  38.415  1.00  0.00    -0.200 F 
ENDBRANCH  62  85
ENDBRANCH  36  37
ENDBRANCH  29  31
ENDBRANCH  28  29
ENDBRANCH  27  28
ENDBRANCH  26  27
ENDBRANCH  25  26
ENDBRANCH   1  25
TORSDOF 18
ENDMDL
MODEL 3
REMARK VINA RESULT:     -10.9      3.639      9.166
REMARK SMILES CC(=O)c1cc(C(=O)NC[C@H]2CC[C@H](C(=O)OCCOCCOC(=O)c3ccc(-c4c5nc(c(-c6c(F)c(F)c(F)c(F)c6F)c6ccc([nH]6)c(-c6c(F)c(F)c(F)c(F)c6F)c6nc(c(-c7c(F)c(F)c(F)c(F)c7F)c7ccc4[nH]7)C=C6)C=C5)cc3)O2)n(C)c1
REMARK SMILES IDX 19 1 18 2 17 3 15 4 16 5 14 6 11 7 12 8 89 9 13 10 10 11
REMARK SMILES IDX 9 12 7 13 8 14 6 16 4 17 5 18 92 19 90 20 91 21 2 22 1 23
REMARK SMILES IDX 3 24 20 25 21 26 22 27 23 28 24 29 25 30 26 31 27 32 88 33
REMARK SMILES IDX 28 34 87 35 29 36 30 37 31 38 81 39 32 40 86 41 80 42 82 43
REMARK SMILES IDX 33 44 85 45 79 46 78 47 34 49 66 50 46 51 65 52 47 53 50 54
REMARK SMILES IDX 64 55 83 56 48 57 49 58 63 60 84 61 51 62 35 63 36 64 44 65
REMARK SMILES IDX 37 66 38 67 42 68 45 69 39 70 40 71 43 72 41 73 67 74 68 75
REMARK SMILES IDX 76 76 69 77 70 78 74 79 77 80 71 81 72 82 75 83 73 84 52 85
REMARK SMILES IDX 53 86 61 87 54 88 55 89 59 90 62 91 56 92 57 93 60 94 58 95
REMARK H PARENT 9 15 82 48 50 59
REMARK Flexibility Score: inf
ROOT
ATOM      1  C   UNL A   1      34.479  31.901  28.462  1.00  0.00     0.202 C 
ENDROOT
BRANCH   1   2
ATOM      2  C   UNL A   1      33.423  31.415  27.467  1.00  0.00     0.261 C 
BRANCH   2   3
ATOM      3  O   UNL A   1      33.862  30.229  26.788  1.00  0.00    -0.461 OA
BRANCH   3   4
ATOM      4  C   UNL A   1      32.998  29.176  26.807  1.00  0.00     0.335 C 
ATOM      5  O   UNL A   1      32.881  28.388  27.738  1.00  0.00    -0.249 OA
BRANCH   4   6
ATOM      6  C   UNL A   1      32.153  29.091  25.524  1.00  0.00     0.228 C 
ATOM      7  C   UNL A   1      32.290  26.977  24.588  1.00  0.00     0.138 C 
ATOM      8  C   UNL A   1      33.334  27.841  23.895  1.00  0.00     0.037 C 
ATOM      9  O   UNL A   1      31.491  27.824  25.429  1.00  0.00    -0.361 OA
ATOM     10  C   UNL A   1      32.882  29.245  24.199  1.00  0.00     0.047 C 
BRANCH   7  11
ATOM     11  C   UNL A   1      31.403  26.219  23.604  1.00  0.00     0.148 C 
BRANCH  11  12
ATOM     12  N   UNL A   1      32.064  25.883  22.359  1.00  0.00    -0.348 N 
ATOM     13  C   UNL A   1      32.840  24.834  21.956  1.00  0.00     0.268 C 
ATOM     14  O   UNL A   1      33.341  24.959  20.834  1.00  0.00    -0.268 OA
ATOM     15  H   UNL A   1      31.924  26.555  21.653  1.00  0.00     0.163 HD
BRANCH  13  16
ATOM     16  C   UNL A   1      33.142  23.674  22.784  1.00  0.00     0.107 A 
ATOM     17  C   UNL A   1      32.862  21.561  23.678  1.00  0.00     0.036 A 
ATOM     18  C   UNL A   1      32.386  22.497  22.724  1.00  0.00     0.045 A 
ATOM     19  C   UNL A   1      33.928  22.180  24.289  1.00  0.00     0.097 A 
ATOM     20  N   UNL A   1      34.034  23.471  23.823  1.00  0.00    -0.346 N 
ATOM     21  C   UNL A   1      34.879  24.420  24.513  1.00  0.00     0.150 C 
BRANCH  17  22
ATOM     22  C   UNL A   1      32.373  20.227  24.025  1.00  0.00     0.161 C 
ATOM     23  C   UNL A   1      32.347  19.170  22.952  1.00  0.00     0.093 C 
ATOM     24  O   UNL A   1      32.019  19.956  25.173  1.00  0.00    -0.294 OA
ENDBRANCH  17  22
ENDBRANCH  13  16
ENDBRANCH  11  12
ENDBRANCH   7  11
ENDBRANCH   4   6
ENDBRANCH   3   4
ENDBRANCH   2   3
ENDBRANCH   1   2
BRANCH   1  25
ATOM     25  O   UNL A   1      34.147  33.041  29.253  1.00  0.00    -0.374 OA
BRANCH  25  26
ATOM     26  C   UNL A   1      34.079  34.311  28.610  1.00  0.00     0.202 C 
BRANCH  26  27
ATOM     27  C   UNL A   1      33.239  35.404  29.287  1.00  0.00     0.261 C 
BRANCH  27  28
ATOM     28  O   UNL A   1      32.508  34.927  30.434  1.00  0.00    -0.460 OA
BRANCH  28  29
ATOM     29  C   UNL A   1      32.793  35.570  31.590  1.00  0.00     0.338 C 
ATOM     30  O   UNL A   1      32.157  36.480  32.112  1.00  0.00    -0.246 OA
BRANCH  29  31
ATOM     31  C   UNL A   1      33.917  34.922  32.283  1.00  0.00     0.060 A 
ATOM     32  C   UNL A   1      35.167  35.553  32.220  1.00  0.00     0.016 A 
ATOM     33  C   UNL A   1      33.786  33.665  32.876  1.00  0.00     0.016 A 
ATOM     34  C   UNL A   1      36.300  34.910  32.710  1.00  0.00     0.010 A 
ATOM     35  C   UNL A   1      34.929  33.015  33.359  1.00  0.00     0.010 A 
ATOM     36  C   UNL A   1      36.195  33.620  33.247  1.00  0.00    -0.014 A 
BRANCH  36  37
ATOM     37  C   UNL A   1      37.430  32.855  33.552  1.00  0.00     0.031 A 
ATOM     38  C   UNL A   1      38.169  33.137  34.831  1.00  0.00     0.074 A 
ATOM     39  C   UNL A   1      37.868  31.894  32.720  1.00  0.00     0.049 A 
ATOM     40  N   UNL A   1      39.281  32.615  35.282  1.00  0.00    -0.248 NA
ATOM     41  C   UNL A   1      37.570  34.142  35.724  1.00  0.00     0.031 C 
ATOM     42  C   UNL A   1      37.214  31.495  31.476  1.00  0.00     0.029 A 
ATOM     43  N   UNL A   1      38.974  31.085  32.796  1.00  0.00    -0.354 N 
ATOM     44  C   UNL A   1      39.520  33.230  36.505  1.00  0.00     0.074 A 
ATOM     45  C   UNL A   1      38.451  34.184  36.713  1.00  0.00     0.031 C 
ATOM     46  C   UNL A   1      37.939  30.524  30.896  1.00  0.00     0.029 A 
ATOM     47  C   UNL A   1      39.124  30.257  31.711  1.00  0.00     0.049 A 
ATOM     48  H   UNL A   1      39.599  31.096  33.557  1.00  0.00     0.167 HD
ATOM     49  C   UNL A   1      40.532  33.012  37.377  1.00  0.00     0.037 A 
ATOM     50  C   UNL A   1      40.117  29.403  31.400  1.00  0.00     0.037 A 
ATOM     51  C   UNL A   1      41.592  32.061  37.170  1.00  0.00     0.049 A 
ATOM     52  C   UNL A   1      41.275  29.235  32.351  1.00  0.00     0.074 A 
ATOM     53  C   UNL A   1      42.651  31.752  38.006  1.00  0.00     0.029 A 
ATOM     54  N   UNL A   1      41.731  31.268  36.040  1.00  0.00    -0.354 N 
ATOM     55  N   UNL A   1      41.481  29.803  33.514  1.00  0.00    -0.248 NA
ATOM     56  C   UNL A   1      42.338  28.304  31.945  1.00  0.00     0.031 C 
ATOM     57  C   UNL A   1      43.460  30.811  37.359  1.00  0.00     0.029 A 
ATOM     58  C   UNL A   1      42.875  30.493  36.144  1.00  0.00     0.049 A 
ATOM     59  H   UNL A   1      41.109  31.258  35.277  1.00  0.00     0.167 HD
ATOM     60  C   UNL A   1      42.678  29.283  33.989  1.00  0.00     0.074 A 
ATOM     61  C   UNL A   1      43.147  28.342  32.994  1.00  0.00     0.031 C 
ATOM     62  C   UNL A   1      43.329  29.558  35.146  1.00  0.00     0.037 A 
BRANCH  49  63
ATOM     63  C   UNL A   1      40.558  33.840  38.629  1.00  0.00     0.064 A 
ATOM     64  C   UNL A   1      39.862  33.455  39.783  1.00  0.00     0.173 A 
ATOM     65  C   UNL A   1      41.322  35.016  38.684  1.00  0.00     0.173 A 
ATOM     66  F   UNL A   1      39.107  32.346  39.778  1.00  0.00    -0.203 F 
ATOM     67  C   UNL A   1      39.907  34.231  40.940  1.00  0.00     0.198 A 
ATOM     68  C   UNL A   1      41.388  35.774  39.850  1.00  0.00     0.198 A 
ATOM     69  F   UNL A   1      42.011  35.426  37.608  1.00  0.00    -0.203 F 
ATOM     70  F   UNL A   1      39.198  33.869  42.017  1.00  0.00    -0.200 F 
ATOM     71  C   UNL A   1      40.676  35.385  40.973  1.00  0.00     0.200 A 
ATOM     72  F   UNL A   1      42.141  36.882  39.884  1.00  0.00    -0.200 F 
ATOM     73  F   UNL A   1      40.725  36.128  42.089  1.00  0.00    -0.200 F 
ENDBRANCH  49  63
BRANCH  50  74
ATOM     74  C   UNL A   1      40.075  28.654  30.117  1.00  0.00     0.064 A 
ATOM     75  C   UNL A   1      39.459  27.398  30.030  1.00  0.00     0.173 A 
ATOM     76  C   UNL A   1      40.663  29.176  28.955  1.00  0.00     0.173 A 
ATOM     77  F   UNL A   1      38.907  26.846  31.120  1.00  0.00    -0.203 F 
ATOM     78  C   UNL A   1      39.448  26.685  28.833  1.00  0.00     0.198 A 
ATOM     79  C   UNL A   1      40.625  28.474  27.752  1.00  0.00     0.198 A 
ATOM     80  F   UNL A   1      41.265  30.373  28.986  1.00  0.00    -0.203 F 
ATOM     81  F   UNL A   1      38.891  25.466  28.787  1.00  0.00    -0.200 F 
ATOM     82  C   UNL A   1      40.024  27.226  27.694  1.00  0.00     0.200 A 
ATOM     83  F   UNL A   1      41.171  29.008  26.651  1.00  0.00    -0.200 F 
ATOM     84  F   UNL A   1      40.007  26.543  26.541  1.00  0.00    -0.200 F 
ENDBRANCH  50  74
BRANCH  62  85
ATOM     85  C   UNL A   1      44.604  28.812  35.418  1.00  0.00     0.064 A 
ATOM     86  C   UNL A   1      45.852  29.326  35.037  1.00  0.00     0.173 A 
ATOM     87  C   UNL A   1      44.579  27.590  36.108  1.00  0.00     0.173 A 
ATOM     88  F   UNL A   1      45.929  30.482  34.360  1.00  0.00    -0.203 F 
ATOM     89  C   UNL A   1      47.027  28.634  35.320  1.00  0.00     0.198 A 
ATOM     90  C   UNL A   1      45.757  26.916  36.416  1.00  0.00     0.198 A 
ATOM     91  F   UNL A   1      43.411  27.059  36.501  1.00  0.00    -0.203 F 
ATOM     92  F   UNL A   1      48.206  29.121  34.909  1.00  0.00    -0.200 F 
ATOM     93  C   UNL A   1      46.980  27.435  36.016  1.00  0.00     0.200 A 
ATOM     94  F   UNL A   1      45.710  25.765  37.100  1.00  0.00    -0.200 F 
ATOM     95  F   UNL A   1      48.112  26.774  36.295  1.00  0.00    -0.200 F 
ENDBRANCH  62  85
ENDBRANCH  36  37
ENDBRANCH  29  31
ENDBRANCH  28  29
ENDBRANCH  27  28
ENDBRANCH  26  27
ENDBRANCH  25  26
ENDBRANCH   1  25
TORSDOF 18
ENDMDL
