MODEL 1
REMARK VINA RESULT:     -11.9      0.000      0.000
REMARK SMILES O=C(OCCOCCOC(=O)c1cccc(OS(=O)(=O)c2cccc([N+](=O)[O-])c2)c1)c1ccc(-c2c3nc(c(-c4c(F)c(F)c(F)c(F)c4F)c4ccc([nH]4)c(-c4c(F)c(F)c(F)c(F)c4F)c4nc(c(-c5c(F)c(F)c(F)c(F)c5F)c5ccc2[nH]5)C=C4)C=C3)cc1
REMARK SMILES IDX 7 1 6 2 5 3 4 4 3 5 2 6 1 7 31 8 32 9 93 10 33 11 92 12
REMARK SMILES IDX 34 13 35 14 36 15 86 16 37 17 91 18 85 19 87 20 38 21 90 22
REMARK SMILES IDX 84 23 83 24 39 26 71 27 51 28 70 29 52 30 55 31 69 32 88 33
REMARK SMILES IDX 53 34 54 35 68 37 89 38 56 39 40 40 41 41 49 42 42 43 43 44
REMARK SMILES IDX 47 45 50 46 44 47 45 48 48 49 46 50 72 51 73 52 81 53 74 54
REMARK SMILES IDX 75 55 79 56 82 57 76 58 77 59 80 60 78 61 57 62 58 63 66 64
REMARK SMILES IDX 59 65 60 66 64 67 67 68 61 69 62 70 65 71 63 72 8 73 9 74
REMARK SMILES IDX 10 75 11 76 12 77 13 78 30 79 14 80 16 81 15 82 17 83 18 84
REMARK SMILES IDX 19 85 20 86 21 87 22 88 29 89 23 90 25 91 24 92 26 93 27 94
REMARK SMILES IDX 28 95
REMARK H PARENT 87 25 55 36
REMARK Flexibility Score: inf
ROOT
ATOM      1  C   UNL A   1      41.537  21.604  26.560  1.00  0.00     0.202 C 
ENDROOT
BRANCH   1   2
ATOM      2  O   UNL A   1      42.449  20.512  26.674  1.00  0.00    -0.374 OA
BRANCH   2   3
ATOM      3  C   UNL A   1      42.081  19.286  26.049  1.00  0.00     0.202 C 
BRANCH   3   4
ATOM      4  C   UNL A   1      43.287  18.435  25.656  1.00  0.00     0.261 C 
BRANCH   4   5
ATOM      5  O   UNL A   1      43.773  18.838  24.366  1.00  0.00    -0.460 OA
BRANCH   5   6
ATOM      6  C   UNL A   1      44.834  19.623  24.076  1.00  0.00     0.338 C 
ATOM      7  O   UNL A   1      45.733  19.159  23.374  1.00  0.00    -0.246 OA
BRANCH   6   8
ATOM      8  C   UNL A   1      44.985  21.037  24.540  1.00  0.00     0.060 A 
ATOM      9  C   UNL A   1      44.549  22.165  23.843  1.00  0.00     0.016 A 
ATOM     10  C   UNL A   1      45.514  21.228  25.828  1.00  0.00     0.016 A 
ATOM     11  C   UNL A   1      44.648  23.437  24.377  1.00  0.00     0.010 A 
ATOM     12  C   UNL A   1      45.602  22.506  26.387  1.00  0.00     0.010 A 
ATOM     13  C   UNL A   1      45.168  23.613  25.651  1.00  0.00    -0.014 A 
BRANCH  13  14
ATOM     14  C   UNL A   1      45.341  24.994  26.119  1.00  0.00     0.031 A 
ATOM     15  C   UNL A   1      46.671  25.642  25.916  1.00  0.00     0.074 A 
ATOM     16  C   UNL A   1      44.272  25.676  26.562  1.00  0.00     0.049 A 
ATOM     17  N   UNL A   1      47.075  26.833  26.262  1.00  0.00    -0.248 NA
ATOM     18  C   UNL A   1      47.683  24.841  25.205  1.00  0.00     0.031 C 
ATOM     19  C   UNL A   1      42.910  25.142  26.644  1.00  0.00     0.029 A 
ATOM     20  N   UNL A   1      44.151  26.970  26.989  1.00  0.00    -0.354 N 
ATOM     21  C   UNL A   1      48.394  26.913  25.841  1.00  0.00     0.074 A 
ATOM     22  C   UNL A   1      48.726  25.656  25.211  1.00  0.00     0.031 C 
ATOM     23  C   UNL A   1      42.088  26.107  27.086  1.00  0.00     0.029 A 
ATOM     24  C   UNL A   1      42.877  27.296  27.383  1.00  0.00     0.049 A 
ATOM     25  H   UNL A   1      44.903  27.603  27.013  1.00  0.00     0.167 HD
ATOM     26  C   UNL A   1      49.246  27.951  25.990  1.00  0.00     0.037 A 
ATOM     27  C   UNL A   1      42.424  28.423  27.962  1.00  0.00     0.037 A 
ATOM     28  C   UNL A   1      48.871  29.184  26.628  1.00  0.00     0.049 A 
ATOM     29  C   UNL A   1      43.417  29.527  28.207  1.00  0.00     0.074 A 
ATOM     30  C   UNL A   1      49.649  30.291  26.906  1.00  0.00     0.029 A 
ATOM     31  N   UNL A   1      47.590  29.463  27.093  1.00  0.00    -0.354 N 
ATOM     32  N   UNL A   1      44.688  29.581  27.881  1.00  0.00    -0.248 NA
ATOM     33  C   UNL A   1      42.926  30.716  28.910  1.00  0.00     0.031 C 
ATOM     34  C   UNL A   1      48.851  31.218  27.585  1.00  0.00     0.029 A 
ATOM     35  C   UNL A   1      47.561  30.716  27.678  1.00  0.00     0.049 A 
ATOM     36  H   UNL A   1      46.818  28.857  27.016  1.00  0.00     0.167 HD
ATOM     37  C   UNL A   1      45.149  30.811  28.327  1.00  0.00     0.074 A 
ATOM     38  C   UNL A   1      44.009  31.481  28.926  1.00  0.00     0.031 C 
ATOM     39  C   UNL A   1      46.396  31.340  28.257  1.00  0.00     0.037 A 
BRANCH  26  40
ATOM     40  C   UNL A   1      50.661  27.738  25.542  1.00  0.00     0.064 A 
ATOM     41  C   UNL A   1      51.053  27.881  24.203  1.00  0.00     0.173 A 
ATOM     42  C   UNL A   1      51.631  27.320  26.466  1.00  0.00     0.173 A 
ATOM     43  F   UNL A   1      50.158  28.247  23.272  1.00  0.00    -0.203 F 
ATOM     44  C   UNL A   1      52.353  27.576  23.800  1.00  0.00     0.198 A 
ATOM     45  C   UNL A   1      52.935  27.044  26.065  1.00  0.00     0.198 A 
ATOM     46  F   UNL A   1      51.308  27.156  27.757  1.00  0.00    -0.203 F 
ATOM     47  F   UNL A   1      52.684  27.650  22.503  1.00  0.00    -0.200 F 
ATOM     48  C   UNL A   1      53.291  27.160  24.730  1.00  0.00     0.200 A 
ATOM     49  F   UNL A   1      53.841  26.643  26.967  1.00  0.00    -0.200 F 
ATOM     50  F   UNL A   1      54.536  26.852  24.338  1.00  0.00    -0.200 F 
ENDBRANCH  26  40
BRANCH  27  51
ATOM     51  C   UNL A   1      41.006  28.523  28.401  1.00  0.00     0.064 A 
ATOM     52  C   UNL A   1      40.008  29.015  27.550  1.00  0.00     0.173 A 
ATOM     53  C   UNL A   1      40.618  28.129  29.692  1.00  0.00     0.173 A 
ATOM     54  F   UNL A   1      40.324  29.427  26.313  1.00  0.00    -0.203 F 
ATOM     55  C   UNL A   1      38.684  29.120  27.976  1.00  0.00     0.198 A 
ATOM     56  C   UNL A   1      39.290  28.204  30.106  1.00  0.00     0.198 A 
ATOM     57  F   UNL A   1      41.532  27.654  30.553  1.00  0.00    -0.203 F 
ATOM     58  F   UNL A   1      37.757  29.637  27.157  1.00  0.00    -0.200 F 
ATOM     59  C   UNL A   1      38.325  28.708  29.251  1.00  0.00     0.200 A 
ATOM     60  F   UNL A   1      38.949  27.790  31.335  1.00  0.00    -0.200 F 
ATOM     61  F   UNL A   1      37.051  28.807  29.658  1.00  0.00    -0.200 F 
ENDBRANCH  27  51
BRANCH  39  62
ATOM     62  C   UNL A   1      46.574  32.718  28.819  1.00  0.00     0.064 A 
ATOM     63  C   UNL A   1      46.366  33.862  28.036  1.00  0.00     0.173 A 
ATOM     64  C   UNL A   1      46.901  32.890  30.172  1.00  0.00     0.173 A 
ATOM     65  F   UNL A   1      46.067  33.745  26.733  1.00  0.00    -0.203 F 
ATOM     66  C   UNL A   1      46.499  35.134  28.585  1.00  0.00     0.198 A 
ATOM     67  C   UNL A   1      47.002  34.162  30.724  1.00  0.00     0.198 A 
ATOM     68  F   UNL A   1      47.102  31.824  30.960  1.00  0.00    -0.203 F 
ATOM     69  F   UNL A   1      46.339  36.215  27.810  1.00  0.00    -0.200 F 
ATOM     70  C   UNL A   1      46.807  35.282  29.929  1.00  0.00     0.200 A 
ATOM     71  F   UNL A   1      47.283  34.304  32.026  1.00  0.00    -0.200 F 
ATOM     72  F   UNL A   1      46.921  36.507  30.459  1.00  0.00    -0.200 F 
ENDBRANCH  39  62
ENDBRANCH  13  14
ENDBRANCH   6   8
ENDBRANCH   5   6
ENDBRANCH   4   5
ENDBRANCH   3   4
ENDBRANCH   2   3
ENDBRANCH   1   2
BRANCH   1  73
ATOM     73  C   UNL A   1      40.115  21.042  26.661  1.00  0.00     0.261 C 
BRANCH  73  74
ATOM     74  O   UNL A   1      39.282  21.786  25.766  1.00  0.00    -0.460 OA
BRANCH  74  75
ATOM     75  C   UNL A   1      38.226  21.118  25.230  1.00  0.00     0.338 C 
ATOM     76  O   UNL A   1      38.166  19.931  24.960  1.00  0.00    -0.246 OA
BRANCH  75  77
ATOM     77  C   UNL A   1      37.078  22.060  25.158  1.00  0.00     0.063 A 
ATOM     78  C   UNL A   1      37.171  23.354  25.668  1.00  0.00     0.016 A 
ATOM     79  C   UNL A   1      35.889  21.648  24.556  1.00  0.00     0.064 A 
ATOM     80  C   UNL A   1      36.061  24.202  25.602  1.00  0.00     0.005 A 
ATOM     81  C   UNL A   1      34.737  22.422  24.630  1.00  0.00     0.143 A 
ATOM     82  C   UNL A   1      34.836  23.727  25.109  1.00  0.00     0.048 A 
BRANCH  81  83
ATOM     83  O   UNL A   1      33.491  21.928  24.315  1.00  0.00    -0.379 OA
BRANCH  83  84
ATOM     84  S   UNL A   1      32.770  20.814  25.287  1.00  0.00     0.339 S 
ATOM     85  O   UNL A   1      33.529  20.715  26.518  1.00  0.00    -0.181 OA
ATOM     86  O   UNL A   1      31.335  21.042  25.315  1.00  0.00    -0.181 OA
BRANCH  84  87
ATOM     87  C   UNL A   1      32.951  19.260  24.459  1.00  0.00     0.112 A 
ATOM     88  C   UNL A   1      32.462  19.090  23.166  1.00  0.00     0.024 A 
ATOM     89  C   UNL A   1      33.628  18.230  25.127  1.00  0.00     0.109 A 
ATOM     90  C   UNL A   1      32.659  17.866  22.525  1.00  0.00     0.009 A 
ATOM     91  C   UNL A   1      33.817  17.010  24.478  1.00  0.00     0.270 A 
ATOM     92  C   UNL A   1      33.335  16.824  23.176  1.00  0.00     0.086 A 
BRANCH  91  93
ATOM     93  N   UNL A   1      34.531  15.928  25.167  1.00  0.00     0.062 N 
ATOM     94  O   UNL A   1      35.718  16.122  25.465  1.00  0.00    -0.258 OA
ATOM     95  O   UNL A   1      33.906  14.886  25.404  1.00  0.00    -0.258 OA
ENDBRANCH  91  93
ENDBRANCH  84  87
ENDBRANCH  83  84
ENDBRANCH  81  83
ENDBRANCH  75  77
ENDBRANCH  74  75
ENDBRANCH  73  74
ENDBRANCH   1  73
TORSDOF 18
ENDMDL
MODEL 2
REMARK VINA RESULT:     -11.9      5.046      7.282
REMARK SMILES O=C(OCCOCCOC(=O)c1cccc(OS(=O)(=O)c2cccc([N+](=O)[O-])c2)c1)c1ccc(-c2c3nc(c(-c4c(F)c(F)c(F)c(F)c4F)c4ccc([nH]4)c(-c4c(F)c(F)c(F)c(F)c4F)c4nc(c(-c5c(F)c(F)c(F)c(F)c5F)c5ccc2[nH]5)C=C4)C=C3)cc1
REMARK SMILES IDX 7 1 6 2 5 3 4 4 3 5 2 6 1 7 31 8 32 9 93 10 33 11 92 12
REMARK SMILES IDX 34 13 35 14 36 15 86 16 37 17 91 18 85 19 87 20 38 21 90 22
REMARK SMILES IDX 84 23 83 24 39 26 71 27 51 28 70 29 52 30 55 31 69 32 88 33
REMARK SMILES IDX 53 34 54 35 68 37 89 38 56 39 40 40 41 41 49 42 42 43 43 44
REMARK SMILES IDX 47 45 50 46 44 47 45 48 48 49 46 50 72 51 73 52 81 53 74 54
REMARK SMILES IDX 75 55 79 56 82 57 76 58 77 59 80 60 78 61 57 62 58 63 66 64
REMARK SMILES IDX 59 65 60 66 64 67 67 68 61 69 62 70 65 71 63 72 8 73 9 74
REMARK SMILES IDX 10 75 11 76 12 77 13 78 30 79 14 80 16 81 15 82 17 83 18 84
REMARK SMILES IDX 19 85 20 86 21 87 22 88 29 89 23 90 25 91 24 92 26 93 27 94
REMARK SMILES IDX 28 95
REMARK H PARENT 87 25 55 36
REMARK Flexibility Score: inf
ROOT
ATOM      1  C   UNL A   1      40.867  21.138  27.424  1.00  0.00     0.202 C 
ENDROOT
BRANCH   1   2
ATOM      2  O   UNL A   1      42.227  20.705  27.380  1.00  0.00    -0.374 OA
BRANCH   2   3
ATOM      3  C   UNL A   1      42.749  20.325  26.112  1.00  0.00     0.202 C 
BRANCH   3   4
ATOM      4  C   UNL A   1      43.763  21.327  25.563  1.00  0.00     0.261 C 
BRANCH   4   5
ATOM      5  O   UNL A   1      43.087  22.512  25.111  1.00  0.00    -0.460 OA
BRANCH   5   6
ATOM      6  C   UNL A   1      43.466  23.801  25.251  1.00  0.00     0.338 C 
ATOM      7  O   UNL A   1      44.226  24.283  24.412  1.00  0.00    -0.246 OA
BRANCH   6   8
ATOM      8  C   UNL A   1      43.008  24.695  26.359  1.00  0.00     0.060 A 
ATOM      9  C   UNL A   1      42.209  24.302  27.434  1.00  0.00     0.016 A 
ATOM     10  C   UNL A   1      43.512  26.007  26.365  1.00  0.00     0.016 A 
ATOM     11  C   UNL A   1      41.896  25.167  28.467  1.00  0.00     0.010 A 
ATOM     12  C   UNL A   1      43.219  26.885  27.411  1.00  0.00     0.010 A 
ATOM     13  C   UNL A   1      42.403  26.459  28.463  1.00  0.00    -0.014 A 
BRANCH  13  14
ATOM     14  C   UNL A   1      41.951  27.358  29.532  1.00  0.00     0.031 A 
ATOM     15  C   UNL A   1      42.796  27.471  30.757  1.00  0.00     0.074 A 
ATOM     16  C   UNL A   1      40.893  28.158  29.314  1.00  0.00     0.049 A 
ATOM     17  N   UNL A   1      42.598  28.172  31.840  1.00  0.00    -0.248 NA
ATOM     18  C   UNL A   1      44.052  26.701  30.755  1.00  0.00     0.031 C 
ATOM     19  C   UNL A   1      40.113  28.200  28.074  1.00  0.00     0.029 A 
ATOM     20  N   UNL A   1      40.316  29.111  30.106  1.00  0.00    -0.354 N 
ATOM     21  C   UNL A   1      43.685  27.903  32.659  1.00  0.00     0.074 A 
ATOM     22  C   UNL A   1      44.542  26.980  31.952  1.00  0.00     0.031 C 
ATOM     23  C   UNL A   1      39.163  29.141  28.188  1.00  0.00     0.029 A 
ATOM     24  C   UNL A   1      39.226  29.712  29.527  1.00  0.00     0.049 A 
ATOM     25  H   UNL A   1      40.648  29.343  31.002  1.00  0.00     0.167 HD
ATOM     26  C   UNL A   1      43.922  28.384  33.899  1.00  0.00     0.037 A 
ATOM     27  C   UNL A   1      38.356  30.594  30.054  1.00  0.00     0.037 A 
ATOM     28  C   UNL A   1      43.035  29.300  34.565  1.00  0.00     0.049 A 
ATOM     29  C   UNL A   1      38.588  31.038  31.473  1.00  0.00     0.074 A 
ATOM     30  C   UNL A   1      43.118  29.814  35.844  1.00  0.00     0.029 A 
ATOM     31  N   UNL A   1      41.890  29.836  33.985  1.00  0.00    -0.354 N 
ATOM     32  N   UNL A   1      39.574  30.727  32.284  1.00  0.00    -0.248 NA
ATOM     33  C   UNL A   1      37.589  31.936  32.059  1.00  0.00     0.031 C 
ATOM     34  C   UNL A   1      41.994  30.622  36.056  1.00  0.00     0.029 A 
ATOM     35  C   UNL A   1      41.243  30.658  34.890  1.00  0.00     0.049 A 
ATOM     36  H   UNL A   1      41.586  29.656  33.067  1.00  0.00     0.167 HD
ATOM     37  C   UNL A   1      39.323  31.399  33.471  1.00  0.00     0.074 A 
ATOM     38  C   UNL A   1      38.100  32.153  33.263  1.00  0.00     0.031 C 
ATOM     39  C   UNL A   1      40.027  31.392  34.630  1.00  0.00     0.037 A 
BRANCH  26  40
ATOM     40  C   UNL A   1      45.122  27.845  34.618  1.00  0.00     0.064 A 
ATOM     41  C   UNL A   1      45.065  26.691  35.414  1.00  0.00     0.173 A 
ATOM     42  C   UNL A   1      46.341  28.538  34.559  1.00  0.00     0.173 A 
ATOM     43  F   UNL A   1      43.915  26.009  35.533  1.00  0.00    -0.203 F 
ATOM     44  C   UNL A   1      46.171  26.274  36.152  1.00  0.00     0.198 A 
ATOM     45  C   UNL A   1      47.452  28.103  35.275  1.00  0.00     0.198 A 
ATOM     46  F   UNL A   1      46.449  29.654  33.823  1.00  0.00    -0.203 F 
ATOM     47  F   UNL A   1      46.071  25.210  36.962  1.00  0.00    -0.200 F 
ATOM     48  C   UNL A   1      47.363  26.978  36.081  1.00  0.00     0.200 A 
ATOM     49  F   UNL A   1      48.603  28.784  35.203  1.00  0.00    -0.200 F 
ATOM     50  F   UNL A   1      48.421  26.584  36.804  1.00  0.00    -0.200 F 
ENDBRANCH  26  40
BRANCH  27  51
ATOM     51  C   UNL A   1      37.176  31.043  29.268  1.00  0.00     0.064 A 
ATOM     52  C   UNL A   1      37.094  32.340  28.743  1.00  0.00     0.173 A 
ATOM     53  C   UNL A   1      36.095  30.180  29.027  1.00  0.00     0.173 A 
ATOM     54  F   UNL A   1      38.087  33.215  28.961  1.00  0.00    -0.203 F 
ATOM     55  C   UNL A   1      35.975  32.757  28.021  1.00  0.00     0.198 A 
ATOM     56  C   UNL A   1      34.992  30.587  28.279  1.00  0.00     0.198 A 
ATOM     57  F   UNL A   1      36.114  28.927  29.508  1.00  0.00    -0.203 F 
ATOM     58  F   UNL A   1      35.903  34.017  27.570  1.00  0.00    -0.200 F 
ATOM     59  C   UNL A   1      34.929  31.878  27.784  1.00  0.00     0.200 A 
ATOM     60  F   UNL A   1      33.992  29.727  28.040  1.00  0.00    -0.200 F 
ATOM     61  F   UNL A   1      33.857  32.280  27.087  1.00  0.00    -0.200 F 
ENDBRANCH  27  51
BRANCH  39  62
ATOM     62  C   UNL A   1      39.502  32.249  35.742  1.00  0.00     0.064 A 
ATOM     63  C   UNL A   1      38.540  31.772  36.643  1.00  0.00     0.173 A 
ATOM     64  C   UNL A   1      40.012  33.541  35.936  1.00  0.00     0.173 A 
ATOM     65  F   UNL A   1      38.014  30.548  36.486  1.00  0.00    -0.203 F 
ATOM     66  C   UNL A   1      38.092  32.569  37.692  1.00  0.00     0.198 A 
ATOM     67  C   UNL A   1      39.585  34.322  37.004  1.00  0.00     0.198 A 
ATOM     68  F   UNL A   1      40.938  34.035  35.102  1.00  0.00    -0.203 F 
ATOM     69  F   UNL A   1      37.141  32.112  38.517  1.00  0.00    -0.200 F 
ATOM     70  C   UNL A   1      38.621  33.838  37.877  1.00  0.00     0.200 A 
ATOM     71  F   UNL A   1      40.109  35.541  37.192  1.00  0.00    -0.200 F 
ATOM     72  F   UNL A   1      38.199  34.598  38.895  1.00  0.00    -0.200 F 
ENDBRANCH  39  62
ENDBRANCH  13  14
ENDBRANCH   6   8
ENDBRANCH   5   6
ENDBRANCH   4   5
ENDBRANCH   3   4
ENDBRANCH   2   3
ENDBRANCH   1   2
BRANCH   1  73
ATOM     73  C   UNL A   1      40.115  20.447  26.282  1.00  0.00     0.261 C 
BRANCH  73  74
ATOM     74  O   UNL A   1      39.165  21.377  25.752  1.00  0.00    -0.460 OA
BRANCH  74  75
ATOM     75  C   UNL A   1      38.085  20.842  25.123  1.00  0.00     0.338 C 
ATOM     76  O   UNL A   1      37.947  19.691  24.746  1.00  0.00    -0.246 OA
BRANCH  75  77
ATOM     77  C   UNL A   1      37.015  21.874  25.096  1.00  0.00     0.063 A 
ATOM     78  C   UNL A   1      37.242  23.165  25.572  1.00  0.00     0.016 A 
ATOM     79  C   UNL A   1      35.763  21.551  24.572  1.00  0.00     0.064 A 
ATOM     80  C   UNL A   1      36.202  24.100  25.551  1.00  0.00     0.005 A 
ATOM     81  C   UNL A   1      34.684  22.417  24.695  1.00  0.00     0.143 A 
ATOM     82  C   UNL A   1      34.916  23.718  25.139  1.00  0.00     0.048 A 
BRANCH  81  83
ATOM     83  O   UNL A   1      33.385  22.022  24.462  1.00  0.00    -0.379 OA
BRANCH  83  84
ATOM     84  S   UNL A   1      32.689  20.866  25.403  1.00  0.00     0.339 S 
ATOM     85  O   UNL A   1      33.462  20.736  26.622  1.00  0.00    -0.181 OA
ATOM     86  O   UNL A   1      31.252  21.075  25.454  1.00  0.00    -0.181 OA
BRANCH  84  87
ATOM     87  C   UNL A   1      32.881  19.344  24.521  1.00  0.00     0.112 A 
ATOM     88  C   UNL A   1      32.421  19.226  23.212  1.00  0.00     0.024 A 
ATOM     89  C   UNL A   1      33.537  18.285  25.165  1.00  0.00     0.109 A 
ATOM     90  C   UNL A   1      32.626  18.026  22.529  1.00  0.00     0.009 A 
ATOM     91  C   UNL A   1      33.735  17.090  24.474  1.00  0.00     0.270 A 
ATOM     92  C   UNL A   1      33.281  16.957  23.155  1.00  0.00     0.086 A 
BRANCH  91  93
ATOM     93  N   UNL A   1      34.428  15.978  25.136  1.00  0.00     0.062 N 
ATOM     94  O   UNL A   1      33.774  14.954  25.372  1.00  0.00    -0.258 OA
ATOM     95  O   UNL A   1      35.623  16.134  25.422  1.00  0.00    -0.258 OA
ENDBRANCH  91  93
ENDBRANCH  84  87
ENDBRANCH  83  84
ENDBRANCH  81  83
ENDBRANCH  75  77
ENDBRANCH  74  75
ENDBRANCH  73  74
ENDBRANCH   1  73
TORSDOF 18
ENDMDL
MODEL 3
REMARK VINA RESULT:     -11.6      5.356      7.918
REMARK SMILES O=C(OCCOCCOC(=O)c1cccc(OS(=O)(=O)c2cccc([N+](=O)[O-])c2)c1)c1ccc(-c2c3nc(c(-c4c(F)c(F)c(F)c(F)c4F)c4ccc([nH]4)c(-c4c(F)c(F)c(F)c(F)c4F)c4nc(c(-c5c(F)c(F)c(F)c(F)c5F)c5ccc2[nH]5)C=C4)C=C3)cc1
REMARK SMILES IDX 7 1 6 2 5 3 4 4 3 5 2 6 1 7 31 8 32 9 93 10 33 11 92 12
REMARK SMILES IDX 34 13 35 14 36 15 86 16 37 17 91 18 85 19 87 20 38 21 90 22
REMARK SMILES IDX 84 23 83 24 39 26 71 27 51 28 70 29 52 30 55 31 69 32 88 33
REMARK SMILES IDX 53 34 54 35 68 37 89 38 56 39 40 40 41 41 49 42 42 43 43 44
REMARK SMILES IDX 47 45 50 46 44 47 45 48 48 49 46 50 72 51 73 52 81 53 74 54
REMARK SMILES IDX 75 55 79 56 82 57 76 58 77 59 80 60 78 61 57 62 58 63 66 64
REMARK SMILES IDX 59 65 60 66 64 67 67 68 61 69 62 70 65 71 63 72 8 73 9 74
REMARK SMILES IDX 10 75 11 76 12 77 13 78 30 79 14 80 16 81 15 82 17 83 18 84
REMARK SMILES IDX 19 85 20 86 21 87 22 88 29 89 23 90 25 91 24 92 26 93 27 94
REMARK SMILES IDX 28 95
REMARK H PARENT 87 25 55 36
REMARK Flexibility Score: inf
ROOT
ATOM      1  C   UNL A   1      40.412  21.195  27.261  1.00  0.00     0.202 C 
ENDROOT
BRANCH   1   2
ATOM      2  O   UNL A   1      41.835  21.206  27.154  1.00  0.00    -0.374 OA
BRANCH   2   3
ATOM      3  C   UNL A   1      42.403  20.731  25.938  1.00  0.00     0.202 C 
BRANCH   3   4
ATOM      4  C   UNL A   1      43.561  21.597  25.445  1.00  0.00     0.261 C 
BRANCH   4   5
ATOM      5  O   UNL A   1      43.070  22.881  25.030  1.00  0.00    -0.460 OA
BRANCH   5   6
ATOM      6  C   UNL A   1      43.608  24.100  25.258  1.00  0.00     0.338 C 
ATOM      7  O   UNL A   1      44.497  24.499  24.506  1.00  0.00    -0.246 OA
BRANCH   6   8
ATOM      8  C   UNL A   1      43.181  25.012  26.364  1.00  0.00     0.060 A 
ATOM      9  C   UNL A   1      43.565  26.347  26.500  1.00  0.00     0.016 A 
ATOM     10  C   UNL A   1      42.236  24.507  27.273  1.00  0.00     0.016 A 
ATOM     11  C   UNL A   1      43.061  27.154  27.505  1.00  0.00     0.010 A 
ATOM     12  C   UNL A   1      41.705  25.316  28.281  1.00  0.00     0.010 A 
ATOM     13  C   UNL A   1      42.126  26.645  28.395  1.00  0.00    -0.014 A 
BRANCH  13  14
ATOM     14  C   UNL A   1      41.708  27.519  29.498  1.00  0.00     0.031 A 
ATOM     15  C   UNL A   1      42.563  27.562  30.720  1.00  0.00     0.074 A 
ATOM     16  C   UNL A   1      40.674  28.358  29.316  1.00  0.00     0.049 A 
ATOM     17  N   UNL A   1      42.393  28.230  31.828  1.00  0.00    -0.248 NA
ATOM     18  C   UNL A   1      43.794  26.754  30.682  1.00  0.00     0.031 C 
ATOM     19  C   UNL A   1      39.889  28.468  28.084  1.00  0.00     0.029 A 
ATOM     20  N   UNL A   1      40.131  29.300  30.145  1.00  0.00    -0.354 N 
ATOM     21  C   UNL A   1      43.476  27.899  32.630  1.00  0.00     0.074 A 
ATOM     22  C   UNL A   1      44.301  26.976  31.885  1.00  0.00     0.031 C 
ATOM     23  C   UNL A   1      38.969  29.434  28.237  1.00  0.00     0.029 A 
ATOM     24  C   UNL A   1      39.057  29.955  29.595  1.00  0.00     0.049 A 
ATOM     25  H   UNL A   1      40.476  29.490  31.046  1.00  0.00     0.167 HD
ATOM     26  C   UNL A   1      43.735  28.328  33.885  1.00  0.00     0.037 A 
ATOM     27  C   UNL A   1      38.218  30.843  30.159  1.00  0.00     0.037 A 
ATOM     28  C   UNL A   1      42.882  29.247  34.589  1.00  0.00     0.049 A 
ATOM     29  C   UNL A   1      38.473  31.229  31.591  1.00  0.00     0.074 A 
ATOM     30  C   UNL A   1      42.988  29.713  35.884  1.00  0.00     0.029 A 
ATOM     31  N   UNL A   1      41.750  29.838  34.036  1.00  0.00    -0.354 N 
ATOM     32  N   UNL A   1      39.453  30.860  32.383  1.00  0.00    -0.248 NA
ATOM     33  C   UNL A   1      37.505  32.137  32.215  1.00  0.00     0.031 C 
ATOM     34  C   UNL A   1      41.891  30.546  36.132  1.00  0.00     0.029 A 
ATOM     35  C   UNL A   1      41.134  30.647  34.973  1.00  0.00     0.049 A 
ATOM     36  H   UNL A   1      41.435  29.701  33.114  1.00  0.00     0.167 HD
ATOM     37  C   UNL A   1      39.230  31.496  33.595  1.00  0.00     0.074 A 
ATOM     38  C   UNL A   1      38.030  32.295  33.422  1.00  0.00     0.031 C 
ATOM     39  C   UNL A   1      39.941  31.427  34.748  1.00  0.00     0.037 A 
BRANCH  26  40
ATOM     40  C   UNL A   1      44.923  27.727  34.576  1.00  0.00     0.064 A 
ATOM     41  C   UNL A   1      44.838  26.539  35.317  1.00  0.00     0.173 A 
ATOM     42  C   UNL A   1      46.158  28.393  34.547  1.00  0.00     0.173 A 
ATOM     43  F   UNL A   1      43.672  25.880  35.406  1.00  0.00    -0.203 F 
ATOM     44  C   UNL A   1      45.934  26.061  36.033  1.00  0.00     0.198 A 
ATOM     45  C   UNL A   1      47.259  27.897  35.240  1.00  0.00     0.198 A 
ATOM     46  F   UNL A   1      46.293  29.539  33.864  1.00  0.00    -0.203 F 
ATOM     47  F   UNL A   1      45.809  24.963  36.793  1.00  0.00    -0.200 F 
ATOM     48  C   UNL A   1      47.142  26.738  35.993  1.00  0.00     0.200 A 
ATOM     49  F   UNL A   1      48.426  28.553  35.198  1.00  0.00    -0.200 F 
ATOM     50  F   UNL A   1      48.191  26.286  36.695  1.00  0.00    -0.200 F 
ENDBRANCH  26  40
BRANCH  27  51
ATOM     51  C   UNL A   1      37.048  31.357  29.397  1.00  0.00     0.064 A 
ATOM     52  C   UNL A   1      35.961  30.533  29.078  1.00  0.00     0.173 A 
ATOM     53  C   UNL A   1      36.995  32.693  28.967  1.00  0.00     0.173 A 
ATOM     54  F   UNL A   1      35.967  29.243  29.444  1.00  0.00    -0.203 F 
ATOM     55  C   UNL A   1      34.876  31.021  28.349  1.00  0.00     0.198 A 
ATOM     56  C   UNL A   1      35.896  33.188  28.267  1.00  0.00     0.198 A 
ATOM     57  F   UNL A   1      38.009  33.529  29.239  1.00  0.00    -0.203 F 
ATOM     58  F   UNL A   1      33.870  30.199  28.018  1.00  0.00    -0.200 F 
ATOM     59  C   UNL A   1      34.841  32.348  27.951  1.00  0.00     0.200 A 
ATOM     60  F   UNL A   1      35.863  34.476  27.899  1.00  0.00    -0.200 F 
ATOM     61  F   UNL A   1      33.796  32.817  27.254  1.00  0.00    -0.200 F 
ENDBRANCH  27  51
BRANCH  39  62
ATOM     62  C   UNL A   1      39.449  32.260  35.893  1.00  0.00     0.064 A 
ATOM     63  C   UNL A   1      39.912  33.565  36.103  1.00  0.00     0.173 A 
ATOM     64  C   UNL A   1      38.460  31.759  36.754  1.00  0.00     0.173 A 
ATOM     65  F   UNL A   1      40.869  34.079  35.314  1.00  0.00    -0.203 F 
ATOM     66  C   UNL A   1      39.416  34.337  37.149  1.00  0.00     0.198 A 
ATOM     67  C   UNL A   1      37.944  32.545  37.778  1.00  0.00     0.198 A 
ATOM     68  F   UNL A   1      37.982  30.518  36.586  1.00  0.00    -0.203 F 
ATOM     69  F   UNL A   1      39.903  35.567  37.360  1.00  0.00    -0.200 F 
ATOM     70  C   UNL A   1      38.427  33.830  37.979  1.00  0.00     0.200 A 
ATOM     71  F   UNL A   1      36.976  32.060  38.568  1.00  0.00    -0.200 F 
ATOM     72  F   UNL A   1      37.940  34.579  38.977  1.00  0.00    -0.200 F 
ENDBRANCH  39  62
ENDBRANCH  13  14
ENDBRANCH   6   8
ENDBRANCH   5   6
ENDBRANCH   4   5
ENDBRANCH   3   4
ENDBRANCH   2   3
ENDBRANCH   1   2
BRANCH   1  73
ATOM     73  C   UNL A   1      39.846  22.004  26.089  1.00  0.00     0.261 C 
BRANCH  73  74
ATOM     74  O   UNL A   1      38.527  21.520  25.814  1.00  0.00    -0.460 OA
BRANCH  74  75
ATOM     75  C   UNL A   1      37.545  22.457  25.740  1.00  0.00     0.338 C 
ATOM     76  O   UNL A   1      37.682  23.658  25.589  1.00  0.00    -0.246 OA
BRANCH  75  77
ATOM     77  C   UNL A   1      36.238  21.749  25.729  1.00  0.00     0.063 A 
ATOM     78  C   UNL A   1      35.990  20.702  24.841  1.00  0.00     0.016 A 
ATOM     79  C   UNL A   1      35.245  22.126  26.632  1.00  0.00     0.064 A 
ATOM     80  C   UNL A   1      34.739  20.076  24.846  1.00  0.00     0.005 A 
ATOM     81  C   UNL A   1      33.953  21.623  26.536  1.00  0.00     0.143 A 
ATOM     82  C   UNL A   1      33.712  20.555  25.673  1.00  0.00     0.048 A 
BRANCH  81  83
ATOM     83  O   UNL A   1      32.887  22.182  27.207  1.00  0.00    -0.379 OA
BRANCH  83  84
ATOM     84  S   UNL A   1      31.715  22.986  26.378  1.00  0.00     0.339 S 
ATOM     85  O   UNL A   1      31.141  22.084  25.399  1.00  0.00    -0.181 OA
ATOM     86  O   UNL A   1      30.867  23.711  27.307  1.00  0.00    -0.181 OA
BRANCH  84  87
ATOM     87  C   UNL A   1      32.550  24.252  25.465  1.00  0.00     0.112 A 
ATOM     88  C   UNL A   1      33.168  25.308  26.130  1.00  0.00     0.024 A 
ATOM     89  C   UNL A   1      32.600  24.137  24.069  1.00  0.00     0.109 A 
ATOM     90  C   UNL A   1      33.854  26.268  25.384  1.00  0.00     0.009 A 
ATOM     91  C   UNL A   1      33.287  25.102  23.333  1.00  0.00     0.270 A 
ATOM     92  C   UNL A   1      33.916  26.169  23.988  1.00  0.00     0.086 A 
BRANCH  91  93
ATOM     93  N   UNL A   1      33.351  24.986  21.871  1.00  0.00     0.062 N 
ATOM     94  O   UNL A   1      33.378  26.035  21.213  1.00  0.00    -0.258 OA
ATOM     95  O   UNL A   1      33.370  23.847  21.384  1.00  0.00    -0.258 OA
ENDBRANCH  91  93
ENDBRANCH  84  87
ENDBRANCH  83  84
ENDBRANCH  81  83
ENDBRANCH  75  77
ENDBRANCH  74  75
ENDBRANCH  73  74
ENDBRANCH   1  73
TORSDOF 18
ENDMDL
