MODEL 1
REMARK VINA RESULT:     -13.4      0.000      0.000
REMARK SMILES Cc1ccc(C(=O)N2C[C@@H](C(=O)OCCOCCOC(=O)c3ccc(-c4c5nc(c(-c6c(F)c(F)c(F)c(F)c6F)c6ccc([nH]6)c(-c6c(F)c(F)c(F)c(F)c6F)c6nc(c(-c7c(F)c(F)c(F)c(F)c7F)c7ccc4[nH]7)C=C6)C=C5)cc3)C[C@H](C(=O)N3CCOCC3)C2)cc1F
REMARK SMILES IDX 16 1 15 2 14 3 13 4 11 5 12 6 10 7 8 8 9 9 95 10 86 11 85 12
REMARK SMILES IDX 6 13 7 14 5 15 1 16 2 17 3 18 97 19 4 20 96 21 98 22 87 23
REMARK SMILES IDX 88 24 89 25 90 26 94 27 91 28 93 29 92 30 17 31 18 32 19 33
REMARK SMILES IDX 20 34 21 35 22 36 23 37 84 38 24 39 83 40 25 41 26 42 27 43
REMARK SMILES IDX 77 44 28 45 82 46 76 47 78 48 29 49 81 50 75 51 74 52 30 54
REMARK SMILES IDX 62 55 42 56 61 57 43 58 46 59 60 60 79 61 44 62 45 63 59 65
REMARK SMILES IDX 80 66 47 67 31 68 32 69 40 70 33 71 34 72 38 73 41 74 35 75
REMARK SMILES IDX 36 76 39 77 37 78 63 79 64 80 72 81 65 82 66 83 70 84 73 85
REMARK SMILES IDX 67 86 68 87 71 88 69 89 48 90 49 91 57 92 50 93 51 94 55 95
REMARK SMILES IDX 58 96 52 97 53 98 56 99 54 100
REMARK H PARENT 78 53 46 64
REMARK Flexibility Score: inf
ROOT
ATOM      1  O   UNL A   1      32.134  33.483  27.637  1.00  0.00    -0.374 OA
ENDROOT
BRANCH   1   2
ATOM      2  C   UNL A   1      31.699  32.378  26.864  1.00  0.00     0.202 C 
BRANCH   2   3
ATOM      3  C   UNL A   1      32.496  31.059  26.862  1.00  0.00     0.261 C 
BRANCH   3   4
ATOM      4  O   UNL A   1      31.735  29.865  27.098  1.00  0.00    -0.463 OA
BRANCH   4   5
ATOM      5  C   UNL A   1      32.350  28.751  26.636  1.00  0.00     0.310 C 
ATOM      6  O   UNL A   1      33.280  28.187  27.201  1.00  0.00    -0.252 OA
BRANCH   5   7
ATOM      7  C   UNL A   1      31.804  28.242  25.333  1.00  0.00     0.119 C 
ATOM      8  N   UNL A   1      31.700  26.275  23.991  1.00  0.00    -0.337 N 
ATOM      9  C   UNL A   1      32.528  26.984  24.947  1.00  0.00     0.135 C 
ATOM     10  C   UNL A   1      31.356  26.969  22.746  1.00  0.00     0.133 C 
ATOM     11  C   UNL A   1      30.924  28.448  22.956  1.00  0.00     0.099 C 
ATOM     12  C   UNL A   1      31.666  29.153  24.110  1.00  0.00     0.032 C 
BRANCH   8  13
ATOM     13  C   UNL A   1      31.007  25.165  24.451  1.00  0.00     0.254 C 
ATOM     14  O   UNL A   1      29.969  25.249  25.100  1.00  0.00    -0.269 OA
BRANCH  13  15
ATOM     15  C   UNL A   1      31.674  23.851  24.333  1.00  0.00     0.042 A 
ATOM     16  C   UNL A   1      32.670  19.685  24.161  1.00  0.00     0.047 C 
ATOM     17  C   UNL A   1      32.408  21.158  24.219  1.00  0.00    -0.015 A 
ATOM     18  C   UNL A   1      32.472  21.847  25.433  1.00  0.00     0.007 A 
ATOM     19  C   UNL A   1      32.021  21.846  23.064  1.00  0.00     0.126 A 
ATOM     20  C   UNL A   1      32.104  23.189  25.492  1.00  0.00     0.014 A 
ATOM     21  C   UNL A   1      31.648  23.184  23.108  1.00  0.00     0.053 A 
ATOM     22  F   UNL A   1      31.953  21.195  21.894  1.00  0.00    -0.207 F 
ENDBRANCH  13  15
ENDBRANCH   8  13
BRANCH  11  23
ATOM     23  C   UNL A   1      29.387  28.540  22.863  1.00  0.00     0.227 C 
ATOM     24  O   UNL A   1      28.726  27.572  23.260  1.00  0.00    -0.275 OA
ATOM     25  N   UNL A   1      28.771  29.745  22.616  1.00  0.00    -0.338 N 
ATOM     26  C   UNL A   1      28.858  30.525  21.378  1.00  0.00     0.148 C 
ATOM     27  C   UNL A   1      27.581  30.097  23.393  1.00  0.00     0.148 C 
ATOM     28  C   UNL A   1      28.802  32.031  21.685  1.00  0.00     0.181 C 
ATOM     29  C   UNL A   1      27.591  31.603  23.672  1.00  0.00     0.181 C 
ATOM     30  O   UNL A   1      27.617  32.346  22.440  1.00  0.00    -0.378 OA
ENDBRANCH  11  23
ENDBRANCH   5   7
ENDBRANCH   4   5
ENDBRANCH   3   4
ENDBRANCH   2   3
ENDBRANCH   1   2
BRANCH   1  31
ATOM     31  C   UNL A   1      33.503  33.674  27.966  1.00  0.00     0.202 C 
BRANCH  31  32
ATOM     32  C   UNL A   1      34.047  33.299  29.340  1.00  0.00     0.261 C 
BRANCH  32  33
ATOM     33  O   UNL A   1      34.538  31.957  29.411  1.00  0.00    -0.460 OA
BRANCH  33  34
ATOM     34  C   UNL A   1      35.887  31.850  29.418  1.00  0.00     0.338 C 
ATOM     35  O   UNL A   1      36.690  32.762  29.487  1.00  0.00    -0.246 OA
BRANCH  34  36
ATOM     36  C   UNL A   1      36.330  30.489  29.075  1.00  0.00     0.060 A 
ATOM     37  C   UNL A   1      36.713  29.751  30.205  1.00  0.00     0.016 A 
ATOM     38  C   UNL A   1      36.941  30.316  27.834  1.00  0.00     0.016 A 
ATOM     39  C   UNL A   1      37.960  29.172  30.201  1.00  0.00     0.010 A 
ATOM     40  C   UNL A   1      38.177  29.717  27.825  1.00  0.00     0.010 A 
ATOM     41  C   UNL A   1      38.716  29.264  29.034  1.00  0.00    -0.014 A 
BRANCH  41  42
ATOM     42  C   UNL A   1      40.096  28.849  29.002  1.00  0.00     0.031 A 
ATOM     43  C   UNL A   1      40.359  27.460  28.608  1.00  0.00     0.074 A 
ATOM     44  C   UNL A   1      41.086  29.690  29.366  1.00  0.00     0.049 A 
ATOM     45  N   UNL A   1      41.323  26.754  29.082  1.00  0.00    -0.248 NA
ATOM     46  C   UNL A   1      39.469  26.717  27.718  1.00  0.00     0.031 C 
ATOM     47  C   UNL A   1      42.504  29.506  29.097  1.00  0.00     0.029 A 
ATOM     48  N   UNL A   1      41.025  30.844  30.163  1.00  0.00    -0.354 N 
ATOM     49  C   UNL A   1      41.365  25.593  28.349  1.00  0.00     0.074 A 
ATOM     50  C   UNL A   1      40.125  25.558  27.607  1.00  0.00     0.031 C 
ATOM     51  C   UNL A   1      43.213  30.353  29.857  1.00  0.00     0.029 A 
ATOM     52  C   UNL A   1      42.291  31.000  30.771  1.00  0.00     0.049 A 
ATOM     53  H   UNL A   1      40.244  31.435  30.278  1.00  0.00     0.167 HD
ATOM     54  C   UNL A   1      42.525  24.884  28.309  1.00  0.00     0.037 A 
ATOM     55  C   UNL A   1      42.468  31.047  32.126  1.00  0.00     0.037 A 
ATOM     56  C   UNL A   1      43.562  25.555  29.081  1.00  0.00     0.049 A 
ATOM     57  C   UNL A   1      43.314  29.939  32.670  1.00  0.00     0.074 A 
ATOM     58  C   UNL A   1      44.506  26.497  28.700  1.00  0.00     0.029 A 
ATOM     59  N   UNL A   1      43.492  25.600  30.467  1.00  0.00    -0.354 N 
ATOM     60  N   UNL A   1      43.496  28.815  32.042  1.00  0.00    -0.248 NA
ATOM     61  C   UNL A   1      43.985  29.987  33.963  1.00  0.00     0.031 C 
ATOM     62  C   UNL A   1      45.016  27.104  29.868  1.00  0.00     0.029 A 
ATOM     63  C   UNL A   1      44.394  26.524  30.960  1.00  0.00     0.049 A 
ATOM     64  H   UNL A   1      42.888  25.053  31.018  1.00  0.00     0.167 HD
ATOM     65  C   UNL A   1      44.272  27.991  32.810  1.00  0.00     0.074 A 
ATOM     66  C   UNL A   1      44.573  28.779  33.991  1.00  0.00     0.031 C 
ATOM     67  C   UNL A   1      44.575  26.728  32.391  1.00  0.00     0.037 A 
BRANCH  54  68
ATOM     68  C   UNL A   1      42.809  23.818  27.285  1.00  0.00     0.064 A 
ATOM     69  C   UNL A   1      42.467  22.472  27.536  1.00  0.00     0.173 A 
ATOM     70  C   UNL A   1      43.451  24.053  26.056  1.00  0.00     0.173 A 
ATOM     71  F   UNL A   1      41.783  22.112  28.629  1.00  0.00    -0.203 F 
ATOM     72  C   UNL A   1      42.828  21.434  26.677  1.00  0.00     0.198 A 
ATOM     73  C   UNL A   1      43.851  23.008  25.216  1.00  0.00     0.198 A 
ATOM     74  F   UNL A   1      43.681  25.301  25.623  1.00  0.00    -0.203 F 
ATOM     75  F   UNL A   1      42.487  20.174  26.981  1.00  0.00    -0.200 F 
ATOM     76  C   UNL A   1      43.547  21.698  25.531  1.00  0.00     0.200 A 
ATOM     77  F   UNL A   1      44.538  23.280  24.097  1.00  0.00    -0.200 F 
ATOM     78  F   UNL A   1      43.929  20.697  24.728  1.00  0.00    -0.200 F 
ENDBRANCH  54  68
BRANCH  55  79
ATOM     79  C   UNL A   1      41.333  31.656  32.853  1.00  0.00     0.064 A 
ATOM     80  C   UNL A   1      41.098  33.010  32.577  1.00  0.00     0.173 A 
ATOM     81  C   UNL A   1      40.255  30.843  33.229  1.00  0.00     0.173 A 
ATOM     82  F   UNL A   1      42.123  33.825  32.284  1.00  0.00    -0.203 F 
ATOM     83  C   UNL A   1      39.802  33.468  32.414  1.00  0.00     0.198 A 
ATOM     84  C   UNL A   1      38.957  31.308  33.069  1.00  0.00     0.198 A 
ATOM     85  F   UNL A   1      40.457  29.564  33.576  1.00  0.00    -0.203 F 
ATOM     86  F   UNL A   1      39.583  34.704  31.941  1.00  0.00    -0.200 F 
ATOM     87  C   UNL A   1      38.739  32.602  32.611  1.00  0.00     0.200 A 
ATOM     88  F   UNL A   1      37.925  30.473  33.253  1.00  0.00    -0.200 F 
ATOM     89  F   UNL A   1      37.505  33.019  32.319  1.00  0.00    -0.200 F 
ENDBRANCH  55  79
BRANCH  67  90
ATOM     90  C   UNL A   1      45.182  25.620  33.218  1.00  0.00     0.064 A 
ATOM     91  C   UNL A   1      46.546  25.292  33.227  1.00  0.00     0.173 A 
ATOM     92  C   UNL A   1      44.388  24.908  34.154  1.00  0.00     0.173 A 
ATOM     93  F   UNL A   1      47.441  25.982  32.510  1.00  0.00    -0.203 F 
ATOM     94  C   UNL A   1      47.060  24.275  34.034  1.00  0.00     0.198 A 
ATOM     95  C   UNL A   1      44.917  23.948  35.012  1.00  0.00     0.198 A 
ATOM     96  F   UNL A   1      43.074  25.138  34.291  1.00  0.00    -0.203 F 
ATOM     97  F   UNL A   1      48.361  23.961  33.953  1.00  0.00    -0.200 F 
ATOM     98  C   UNL A   1      46.250  23.611  34.935  1.00  0.00     0.200 A 
ATOM     99  F   UNL A   1      44.127  23.368  35.926  1.00  0.00    -0.200 F 
ATOM    100  F   UNL A   1      46.757  22.671  35.742  1.00  0.00    -0.200 F 
ENDBRANCH  67  90
ENDBRANCH  41  42
ENDBRANCH  34  36
ENDBRANCH  33  34
ENDBRANCH  32  33
ENDBRANCH  31  32
ENDBRANCH   1  31
TORSDOF 17
ENDMDL
MODEL 2
REMARK VINA RESULT:     -13.4      1.767      4.142
REMARK SMILES Cc1ccc(C(=O)N2C[C@@H](C(=O)OCCOCCOC(=O)c3ccc(-c4c5nc(c(-c6c(F)c(F)c(F)c(F)c6F)c6ccc([nH]6)c(-c6c(F)c(F)c(F)c(F)c6F)c6nc(c(-c7c(F)c(F)c(F)c(F)c7F)c7ccc4[nH]7)C=C6)C=C5)cc3)C[C@H](C(=O)N3CCOCC3)C2)cc1F
REMARK SMILES IDX 16 1 15 2 14 3 13 4 11 5 12 6 10 7 8 8 9 9 95 10 86 11 85 12
REMARK SMILES IDX 6 13 7 14 5 15 1 16 2 17 3 18 97 19 4 20 96 21 98 22 87 23
REMARK SMILES IDX 88 24 89 25 90 26 94 27 91 28 93 29 92 30 17 31 18 32 19 33
REMARK SMILES IDX 20 34 21 35 22 36 23 37 84 38 24 39 83 40 25 41 26 42 27 43
REMARK SMILES IDX 77 44 28 45 82 46 76 47 78 48 29 49 81 50 75 51 74 52 30 54
REMARK SMILES IDX 62 55 42 56 61 57 43 58 46 59 60 60 79 61 44 62 45 63 59 65
REMARK SMILES IDX 80 66 47 67 31 68 32 69 40 70 33 71 34 72 38 73 41 74 35 75
REMARK SMILES IDX 36 76 39 77 37 78 63 79 64 80 72 81 65 82 66 83 70 84 73 85
REMARK SMILES IDX 67 86 68 87 71 88 69 89 48 90 49 91 57 92 50 93 51 94 55 95
REMARK SMILES IDX 58 96 52 97 53 98 56 99 54 100
REMARK H PARENT 78 53 46 64
REMARK Flexibility Score: inf
ROOT
ATOM      1  O   UNL A   1      33.262  32.499  27.946  1.00  0.00    -0.374 OA
ENDROOT
BRANCH   1   2
ATOM      2  C   UNL A   1      33.628  31.320  27.251  1.00  0.00     0.202 C 
BRANCH   2   3
ATOM      3  C   UNL A   1      32.561  30.287  26.841  1.00  0.00     0.261 C 
BRANCH   3   4
ATOM      4  O   UNL A   1      32.873  29.482  25.694  1.00  0.00    -0.463 OA
BRANCH   4   5
ATOM      5  C   UNL A   1      33.644  28.413  25.996  1.00  0.00     0.310 C 
ATOM      6  O   UNL A   1      34.658  28.460  26.683  1.00  0.00    -0.252 OA
BRANCH   5   7
ATOM      7  C   UNL A   1      33.163  27.120  25.402  1.00  0.00     0.119 C 
ATOM      8  N   UNL A   1      31.286  26.158  24.291  1.00  0.00    -0.337 N 
ATOM      9  C   UNL A   1      31.667  27.159  25.267  1.00  0.00     0.135 C 
ATOM     10  C   UNL A   1      31.653  24.766  24.570  1.00  0.00     0.133 C 
ATOM     11  C   UNL A   1      33.110  24.597  25.088  1.00  0.00     0.099 C 
ATOM     12  C   UNL A   1      33.593  25.765  25.972  1.00  0.00     0.032 C 
BRANCH   8  13
ATOM     13  C   UNL A   1      30.932  26.605  23.027  1.00  0.00     0.254 C 
ATOM     14  O   UNL A   1      31.385  26.117  21.996  1.00  0.00    -0.269 OA
BRANCH  13  15
ATOM     15  C   UNL A   1      30.149  27.857  22.944  1.00  0.00     0.042 A 
ATOM     16  C   UNL A   1      27.653  31.139  21.773  1.00  0.00     0.047 C 
ATOM     17  C   UNL A   1      28.547  30.038  22.253  1.00  0.00    -0.015 A 
ATOM     18  C   UNL A   1      29.923  30.078  22.009  1.00  0.00     0.007 A 
ATOM     19  C   UNL A   1      28.000  28.918  22.889  1.00  0.00     0.126 A 
ATOM     20  C   UNL A   1      30.722  28.990  22.350  1.00  0.00     0.014 A 
ATOM     21  C   UNL A   1      28.785  27.824  23.232  1.00  0.00     0.053 A 
ATOM     22  F   UNL A   1      26.681  28.867  23.126  1.00  0.00    -0.207 F 
ENDBRANCH  13  15
ENDBRANCH   8  13
BRANCH  11  23
ATOM     23  C   UNL A   1      33.999  24.091  23.932  1.00  0.00     0.227 C 
ATOM     24  O   UNL A   1      34.193  24.855  22.978  1.00  0.00    -0.275 OA
ATOM     25  N   UNL A   1      34.766  22.960  24.081  1.00  0.00    -0.338 N 
ATOM     26  C   UNL A   1      34.268  21.591  24.251  1.00  0.00     0.148 C 
ATOM     27  C   UNL A   1      36.143  22.975  23.584  1.00  0.00     0.148 C 
ATOM     28  C   UNL A   1      35.210  20.784  25.159  1.00  0.00     0.181 C 
ATOM     29  C   UNL A   1      37.028  22.164  24.536  1.00  0.00     0.181 C 
ATOM     30  O   UNL A   1      36.553  20.810  24.639  1.00  0.00    -0.378 OA
ENDBRANCH  11  23
ENDBRANCH   5   7
ENDBRANCH   4   5
ENDBRANCH   3   4
ENDBRANCH   2   3
ENDBRANCH   1   2
BRANCH   1  31
ATOM     31  C   UNL A   1      34.178  33.565  28.148  1.00  0.00     0.202 C 
BRANCH  31  32
ATOM     32  C   UNL A   1      35.053  33.633  29.394  1.00  0.00     0.261 C 
BRANCH  32  33
ATOM     33  O   UNL A   1      36.121  32.681  29.393  1.00  0.00    -0.460 OA
BRANCH  33  34
ATOM     34  C   UNL A   1      35.887  31.571  30.130  1.00  0.00     0.338 C 
ATOM     35  O   UNL A   1      35.528  31.529  31.291  1.00  0.00    -0.246 OA
BRANCH  34  36
ATOM     36  C   UNL A   1      36.357  30.354  29.449  1.00  0.00     0.060 A 
ATOM     37  C   UNL A   1      36.680  29.328  30.350  1.00  0.00     0.016 A 
ATOM     38  C   UNL A   1      37.039  30.525  28.244  1.00  0.00     0.016 A 
ATOM     39  C   UNL A   1      37.928  28.760  30.255  1.00  0.00     0.010 A 
ATOM     40  C   UNL A   1      38.277  29.941  28.140  1.00  0.00     0.010 A 
ATOM     41  C   UNL A   1      38.749  29.164  29.204  1.00  0.00    -0.014 A 
BRANCH  41  42
ATOM     42  C   UNL A   1      40.131  28.761  29.136  1.00  0.00     0.031 A 
ATOM     43  C   UNL A   1      40.397  27.388  28.692  1.00  0.00     0.074 A 
ATOM     44  C   UNL A   1      41.122  29.597  29.513  1.00  0.00     0.049 A 
ATOM     45  N   UNL A   1      41.375  26.674  29.126  1.00  0.00    -0.248 NA
ATOM     46  C   UNL A   1      39.499  26.668  27.792  1.00  0.00     0.031 C 
ATOM     47  C   UNL A   1      42.536  29.433  29.215  1.00  0.00     0.029 A 
ATOM     48  N   UNL A   1      41.065  30.724  30.349  1.00  0.00    -0.354 N 
ATOM     49  C   UNL A   1      41.412  25.539  28.354  1.00  0.00     0.074 A 
ATOM     50  C   UNL A   1      40.161  25.519  27.632  1.00  0.00     0.031 C 
ATOM     51  C   UNL A   1      43.251  30.259  29.991  1.00  0.00     0.029 A 
ATOM     52  C   UNL A   1      42.340  30.868  30.941  1.00  0.00     0.049 A 
ATOM     53  H   UNL A   1      40.282  31.304  30.495  1.00  0.00     0.167 HD
ATOM     54  C   UNL A   1      42.576  24.840  28.272  1.00  0.00     0.037 A 
ATOM     55  C   UNL A   1      42.538  30.872  32.294  1.00  0.00     0.037 A 
ATOM     56  C   UNL A   1      43.621  25.493  29.050  1.00  0.00     0.049 A 
ATOM     57  C   UNL A   1      43.401  29.753  32.787  1.00  0.00     0.074 A 
ATOM     58  C   UNL A   1      44.552  26.454  28.685  1.00  0.00     0.029 A 
ATOM     59  N   UNL A   1      43.573  25.491  30.437  1.00  0.00    -0.354 N 
ATOM     60  N   UNL A   1      43.580  28.652  32.119  1.00  0.00    -0.248 NA
ATOM     61  C   UNL A   1      44.092  29.762  34.069  1.00  0.00     0.031 C 
ATOM     62  C   UNL A   1      45.077  27.026  29.864  1.00  0.00     0.029 A 
ATOM     63  C   UNL A   1      44.477  26.405  30.947  1.00  0.00     0.049 A 
ATOM     64  H   UNL A   1      42.982  24.921  30.979  1.00  0.00     0.167 HD
ATOM     65  C   UNL A   1      44.375  27.809  32.846  1.00  0.00     0.074 A 
ATOM     66  C   UNL A   1      44.690  28.559  34.047  1.00  0.00     0.031 C 
ATOM     67  C   UNL A   1      44.680  26.562  32.380  1.00  0.00     0.037 A 
BRANCH  54  68
ATOM     68  C   UNL A   1      42.852  23.811  27.209  1.00  0.00     0.064 A 
ATOM     69  C   UNL A   1      42.470  22.465  27.396  1.00  0.00     0.173 A 
ATOM     70  C   UNL A   1      43.521  24.080  26.002  1.00  0.00     0.173 A 
ATOM     71  F   UNL A   1      41.756  22.078  28.461  1.00  0.00    -0.203 F 
ATOM     72  C   UNL A   1      42.819  21.455  26.500  1.00  0.00     0.198 A 
ATOM     73  C   UNL A   1      43.909  23.062  25.125  1.00  0.00     0.198 A 
ATOM     74  F   UNL A   1      43.792  25.339  25.627  1.00  0.00    -0.203 F 
ATOM     75  F   UNL A   1      42.440  20.193  26.743  1.00  0.00    -0.200 F 
ATOM     76  C   UNL A   1      43.566  21.748  25.379  1.00  0.00     0.200 A 
ATOM     77  F   UNL A   1      44.624  23.361  24.031  1.00  0.00    -0.200 F 
ATOM     78  F   UNL A   1      43.936  20.772  24.540  1.00  0.00    -0.200 F 
ENDBRANCH  54  68
BRANCH  55  79
ATOM     79  C   UNL A   1      41.411  31.447  33.059  1.00  0.00     0.064 A 
ATOM     80  C   UNL A   1      41.293  32.843  32.998  1.00  0.00     0.173 A 
ATOM     81  C   UNL A   1      40.256  30.676  33.247  1.00  0.00     0.173 A 
ATOM     82  F   UNL A   1      42.390  33.608  32.890  1.00  0.00    -0.203 F 
ATOM     83  C   UNL A   1      40.045  33.426  32.854  1.00  0.00     0.198 A 
ATOM     84  C   UNL A   1      39.007  31.266  33.108  1.00  0.00     0.198 A 
ATOM     85  F   UNL A   1      40.344  29.346  33.388  1.00  0.00    -0.203 F 
ATOM     86  F   UNL A   1      39.946  34.736  32.581  1.00  0.00    -0.200 F 
ATOM     87  C   UNL A   1      38.912  32.630  32.859  1.00  0.00     0.200 A 
ATOM     88  F   UNL A   1      37.908  30.500  33.105  1.00  0.00    -0.200 F 
ATOM     89  F   UNL A   1      37.732  33.188  32.584  1.00  0.00    -0.200 F 
ENDBRANCH  55  79
BRANCH  67  90
ATOM     90  C   UNL A   1      45.307  25.432  33.160  1.00  0.00     0.064 A 
ATOM     91  C   UNL A   1      46.689  25.202  33.251  1.00  0.00     0.173 A 
ATOM     92  C   UNL A   1      44.504  24.587  33.968  1.00  0.00     0.173 A 
ATOM     93  F   UNL A   1      47.578  26.014  32.667  1.00  0.00    -0.203 F 
ATOM     94  C   UNL A   1      47.218  24.157  34.012  1.00  0.00     0.198 A 
ATOM     95  C   UNL A   1      45.041  23.596  34.785  1.00  0.00     0.198 A 
ATOM     96  F   UNL A   1      43.170  24.710  34.018  1.00  0.00    -0.203 F 
ATOM     97  F   UNL A   1      48.542  23.945  34.009  1.00  0.00    -0.200 F 
ATOM     98  C   UNL A   1      46.398  23.362  34.787  1.00  0.00     0.200 A 
ATOM     99  F   UNL A   1      44.233  22.883  35.582  1.00  0.00    -0.200 F 
ATOM    100  F   UNL A   1      46.915  22.393  35.553  1.00  0.00    -0.200 F 
ENDBRANCH  67  90
ENDBRANCH  41  42
ENDBRANCH  34  36
ENDBRANCH  33  34
ENDBRANCH  32  33
ENDBRANCH  31  32
ENDBRANCH   1  31
TORSDOF 17
ENDMDL
MODEL 3
REMARK VINA RESULT:     -13.4      4.231     10.343
REMARK SMILES Cc1ccc(C(=O)N2C[C@@H](C(=O)OCCOCCOC(=O)c3ccc(-c4c5nc(c(-c6c(F)c(F)c(F)c(F)c6F)c6ccc([nH]6)c(-c6c(F)c(F)c(F)c(F)c6F)c6nc(c(-c7c(F)c(F)c(F)c(F)c7F)c7ccc4[nH]7)C=C6)C=C5)cc3)C[C@H](C(=O)N3CCOCC3)C2)cc1F
REMARK SMILES IDX 16 1 15 2 14 3 13 4 11 5 12 6 10 7 8 8 9 9 95 10 86 11 85 12
REMARK SMILES IDX 6 13 7 14 5 15 1 16 2 17 3 18 97 19 4 20 96 21 98 22 87 23
REMARK SMILES IDX 88 24 89 25 90 26 94 27 91 28 93 29 92 30 17 31 18 32 19 33
REMARK SMILES IDX 20 34 21 35 22 36 23 37 84 38 24 39 83 40 25 41 26 42 27 43
REMARK SMILES IDX 77 44 28 45 82 46 76 47 78 48 29 49 81 50 75 51 74 52 30 54
REMARK SMILES IDX 62 55 42 56 61 57 43 58 46 59 60 60 79 61 44 62 45 63 59 65
REMARK SMILES IDX 80 66 47 67 31 68 32 69 40 70 33 71 34 72 38 73 41 74 35 75
REMARK SMILES IDX 36 76 39 77 37 78 63 79 64 80 72 81 65 82 66 83 70 84 73 85
REMARK SMILES IDX 67 86 68 87 71 88 69 89 48 90 49 91 57 92 50 93 51 94 55 95
REMARK SMILES IDX 58 96 52 97 53 98 56 99 54 100
REMARK H PARENT 78 53 46 64
REMARK Flexibility Score: inf
ROOT
ATOM      1  O   UNL A   1      40.617  20.642  26.343  1.00  0.00    -0.374 OA
ENDROOT
BRANCH   1   2
ATOM      2  C   UNL A   1      39.556  21.557  26.134  1.00  0.00     0.202 C 
BRANCH   2   3
ATOM      3  C   UNL A   1      38.288  21.128  25.370  1.00  0.00     0.261 C 
BRANCH   3   4
ATOM      4  O   UNL A   1      37.144  21.981  25.520  1.00  0.00    -0.463 OA
BRANCH   4   5
ATOM      5  C   UNL A   1      36.500  22.207  24.352  1.00  0.00     0.310 C 
ATOM      6  O   UNL A   1      37.036  22.631  23.334  1.00  0.00    -0.252 OA
BRANCH   5   7
ATOM      7  C   UNL A   1      35.029  21.904  24.392  1.00  0.00     0.119 C 
ATOM      8  N   UNL A   1      32.900  22.942  24.133  1.00  0.00    -0.337 N 
ATOM      9  C   UNL A   1      34.261  23.183  24.568  1.00  0.00     0.135 C 
ATOM     10  C   UNL A   1      32.144  21.892  24.824  1.00  0.00     0.133 C 
ATOM     11  C   UNL A   1      32.957  20.586  25.051  1.00  0.00     0.099 C 
ATOM     12  C   UNL A   1      34.457  20.827  25.319  1.00  0.00     0.032 C 
BRANCH   8  13
ATOM     13  C   UNL A   1      32.528  23.450  22.898  1.00  0.00     0.254 C 
ATOM     14  O   UNL A   1      32.884  22.947  21.836  1.00  0.00    -0.269 OA
BRANCH  13  15
ATOM     15  C   UNL A   1      31.860  24.769  22.878  1.00  0.00     0.042 A 
ATOM     16  C   UNL A   1      30.346  28.685  23.743  1.00  0.00     0.047 C 
ATOM     17  C   UNL A   1      30.823  27.316  23.370  1.00  0.00    -0.015 A 
ATOM     18  C   UNL A   1      30.083  26.182  23.719  1.00  0.00     0.007 A 
ATOM     19  C   UNL A   1      32.058  27.154  22.732  1.00  0.00     0.126 A 
ATOM     20  C   UNL A   1      30.600  24.912  23.476  1.00  0.00     0.014 A 
ATOM     21  C   UNL A   1      32.587  25.892  22.487  1.00  0.00     0.053 A 
ATOM     22  F   UNL A   1      32.779  28.233  22.395  1.00  0.00    -0.207 F 
ENDBRANCH  13  15
ENDBRANCH   8  13
BRANCH  11  23
ATOM     23  C   UNL A   1      32.524  19.537  24.005  1.00  0.00     0.227 C 
ATOM     24  O   UNL A   1      32.149  19.946  22.899  1.00  0.00    -0.275 OA
ATOM     25  N   UNL A   1      32.807  18.203  24.192  1.00  0.00    -0.338 N 
ATOM     26  C   UNL A   1      32.255  17.338  25.239  1.00  0.00     0.148 C 
ATOM     27  C   UNL A   1      33.302  17.426  23.055  1.00  0.00     0.148 C 
ATOM     28  C   UNL A   1      33.292  16.290  25.674  1.00  0.00     0.181 C 
ATOM     29  C   UNL A   1      34.335  16.410  23.553  1.00  0.00     0.181 C 
ATOM     30  O   UNL A   1      33.752  15.536  24.537  1.00  0.00    -0.378 OA
ENDBRANCH  11  23
ENDBRANCH   5   7
ENDBRANCH   4   5
ENDBRANCH   3   4
ENDBRANCH   2   3
ENDBRANCH   1   2
BRANCH   1  31
ATOM     31  C   UNL A   1      41.811  21.019  27.014  1.00  0.00     0.202 C 
BRANCH  31  32
ATOM     32  C   UNL A   1      42.661  22.185  26.522  1.00  0.00     0.261 C 
BRANCH  32  33
ATOM     33  O   UNL A   1      42.296  23.441  27.103  1.00  0.00    -0.460 OA
BRANCH  33  34
ATOM     34  C   UNL A   1      42.006  24.412  26.208  1.00  0.00     0.338 C 
ATOM     35  O   UNL A   1      42.669  24.735  25.240  1.00  0.00    -0.246 OA
BRANCH  34  36
ATOM     36  C   UNL A   1      40.884  25.253  26.657  1.00  0.00     0.060 A 
ATOM     37  C   UNL A   1      40.858  26.500  26.015  1.00  0.00     0.016 A 
ATOM     38  C   UNL A   1      40.458  25.088  27.975  1.00  0.00     0.016 A 
ATOM     39  C   UNL A   1      40.821  27.626  26.802  1.00  0.00     0.010 A 
ATOM     40  C   UNL A   1      40.398  26.215  28.756  1.00  0.00     0.010 A 
ATOM     41  C   UNL A   1      40.700  27.454  28.179  1.00  0.00    -0.014 A 
BRANCH  41  42
ATOM     42  C   UNL A   1      40.837  28.564  29.087  1.00  0.00     0.031 A 
ATOM     43  C   UNL A   1      39.703  29.491  29.173  1.00  0.00     0.074 A 
ATOM     44  C   UNL A   1      41.978  28.761  29.782  1.00  0.00     0.049 A 
ATOM     45  N   UNL A   1      39.827  30.754  29.382  1.00  0.00    -0.248 NA
ATOM     46  C   UNL A   1      38.328  29.072  28.915  1.00  0.00     0.031 C 
ATOM     47  C   UNL A   1      42.136  29.641  30.930  1.00  0.00     0.029 A 
ATOM     48  N   UNL A   1      43.272  28.283  29.521  1.00  0.00    -0.354 N 
ATOM     49  C   UNL A   1      38.563  31.250  29.585  1.00  0.00     0.074 A 
ATOM     50  C   UNL A   1      37.662  30.204  29.161  1.00  0.00     0.031 C 
ATOM     51  C   UNL A   1      43.443  29.827  31.168  1.00  0.00     0.029 A 
ATOM     52  C   UNL A   1      44.180  29.211  30.083  1.00  0.00     0.049 A 
ATOM     53  H   UNL A   1      43.504  27.457  29.038  1.00  0.00     0.167 HD
ATOM     54  C   UNL A   1      38.419  32.421  30.264  1.00  0.00     0.037 A 
ATOM     55  C   UNL A   1      45.138  29.854  29.349  1.00  0.00     0.037 A 
ATOM     56  C   UNL A   1      39.717  32.930  30.687  1.00  0.00     0.049 A 
ATOM     57  C   UNL A   1      44.988  31.343  29.323  1.00  0.00     0.074 A 
ATOM     58  C   UNL A   1      40.435  32.719  31.854  1.00  0.00     0.029 A 
ATOM     59  N   UNL A   1      40.613  33.437  29.755  1.00  0.00    -0.354 N 
ATOM     60  N   UNL A   1      43.862  31.945  29.570  1.00  0.00    -0.248 NA
ATOM     61  C   UNL A   1      46.066  32.263  28.986  1.00  0.00     0.031 C 
ATOM     62  C   UNL A   1      41.771  33.113  31.625  1.00  0.00     0.029 A 
ATOM     63  C   UNL A   1      41.865  33.578  30.325  1.00  0.00     0.049 A 
ATOM     64  H   UNL A   1      40.388  33.663  28.824  1.00  0.00     0.167 HD
ATOM     65  C   UNL A   1      44.031  33.294  29.423  1.00  0.00     0.074 A 
ATOM     66  C   UNL A   1      45.434  33.445  29.082  1.00  0.00     0.031 C 
ATOM     67  C   UNL A   1      42.981  34.151  29.586  1.00  0.00     0.037 A 
BRANCH  54  68
ATOM     68  C   UNL A   1      37.113  32.881  30.855  1.00  0.00     0.064 A 
ATOM     69  C   UNL A   1      36.207  33.643  30.086  1.00  0.00     0.173 A 
ATOM     70  C   UNL A   1      36.715  32.636  32.181  1.00  0.00     0.173 A 
ATOM     71  F   UNL A   1      36.417  33.886  28.786  1.00  0.00    -0.203 F 
ATOM     72  C   UNL A   1      35.050  34.201  30.628  1.00  0.00     0.198 A 
ATOM     73  C   UNL A   1      35.577  33.231  32.736  1.00  0.00     0.198 A 
ATOM     74  F   UNL A   1      37.402  31.792  32.965  1.00  0.00    -0.203 F 
ATOM     75  F   UNL A   1      34.237  34.929  29.850  1.00  0.00    -0.200 F 
ATOM     76  C   UNL A   1      34.749  34.021  31.962  1.00  0.00     0.200 A 
ATOM     77  F   UNL A   1      35.289  33.037  34.031  1.00  0.00    -0.200 F 
ATOM     78  F   UNL A   1      33.660  34.590  32.492  1.00  0.00    -0.200 F 
ENDBRANCH  54  68
BRANCH  55  79
ATOM     79  C   UNL A   1      45.659  29.054  28.219  1.00  0.00     0.064 A 
ATOM     80  C   UNL A   1      46.523  28.008  28.572  1.00  0.00     0.173 A 
ATOM     81  C   UNL A   1      44.882  28.932  27.060  1.00  0.00     0.173 A 
ATOM     82  F   UNL A   1      47.330  28.130  29.637  1.00  0.00    -0.203 F 
ATOM     83  C   UNL A   1      46.411  26.778  27.946  1.00  0.00     0.198 A 
ATOM     84  C   UNL A   1      44.776  27.698  26.432  1.00  0.00     0.198 A 
ATOM     85  F   UNL A   1      44.105  29.946  26.653  1.00  0.00    -0.203 F 
ATOM     86  F   UNL A   1      47.082  25.720  28.424  1.00  0.00    -0.200 F 
ATOM     87  C   UNL A   1      45.502  26.615  26.913  1.00  0.00     0.200 A 
ATOM     88  F   UNL A   1      43.894  27.533  25.437  1.00  0.00    -0.200 F 
ATOM     89  F   UNL A   1      45.309  25.393  26.412  1.00  0.00    -0.200 F 
ENDBRANCH  55  79
BRANCH  67  90
ATOM     90  C   UNL A   1      42.936  35.611  29.205  1.00  0.00     0.064 A 
ATOM     91  C   UNL A   1      42.266  36.116  28.080  1.00  0.00     0.173 A 
ATOM     92  C   UNL A   1      43.488  36.594  30.066  1.00  0.00     0.173 A 
ATOM     93  F   UNL A   1      41.568  35.322  27.259  1.00  0.00    -0.203 F 
ATOM     94  C   UNL A   1      42.232  37.482  27.788  1.00  0.00     0.198 A 
ATOM     95  C   UNL A   1      43.384  37.959  29.813  1.00  0.00     0.198 A 
ATOM     96  F   UNL A   1      44.123  36.268  31.201  1.00  0.00    -0.203 F 
ATOM     97  F   UNL A   1      41.633  37.902  26.665  1.00  0.00    -0.200 F 
ATOM     98  C   UNL A   1      42.779  38.404  28.659  1.00  0.00     0.200 A 
ATOM     99  F   UNL A   1      43.860  38.837  30.706  1.00  0.00    -0.200 F 
ATOM    100  F   UNL A   1      42.700  39.715  28.400  1.00  0.00    -0.200 F 
ENDBRANCH  67  90
ENDBRANCH  41  42
ENDBRANCH  34  36
ENDBRANCH  33  34
ENDBRANCH  32  33
ENDBRANCH  31  32
ENDBRANCH   1  31
TORSDOF 17
ENDMDL
