MODEL 1
REMARK VINA RESULT:     -12.2      0.000      0.000
REMARK SMILES O=C(OCCOCCOC(=O)c1ccc(-c2c3nc(c(-c4c(F)c(F)c(F)c(F)c4F)c4ccc([nH]4)c(-c4c(F)c(F)c(F)c(F)c4F)c4nc(c(-c5c(F)c(F)c(F)c(F)c5F)c5ccc2[nH]5)C=C4)C=C3)cc1)c1ccc(CNC(=O)c2ccccc2I)cc1
REMARK SMILES IDX 5 1 4 2 3 3 2 4 1 5 75 6 76 7 91 8 77 9 90 10 78 11 79 12
REMARK SMILES IDX 80 13 81 14 82 16 83 17 84 18 88 19 85 20 87 21 89 22 86 23
REMARK SMILES IDX 6 24 7 25 8 26 9 27 10 28 11 29 12 30 13 31 74 32 14 33
REMARK SMILES IDX 73 34 15 35 16 36 17 37 67 38 18 39 72 40 66 41 68 42 19 43
REMARK SMILES IDX 71 44 65 45 64 46 20 48 52 49 32 50 51 51 33 52 36 53 50 54
REMARK SMILES IDX 69 55 34 56 35 57 49 59 70 60 37 61 21 62 22 63 30 64 23 65
REMARK SMILES IDX 24 66 28 67 31 68 25 69 26 70 29 71 27 72 53 73 54 74 62 75
REMARK SMILES IDX 55 76 56 77 60 78 63 79 57 80 58 81 61 82 59 83 38 84 39 85
REMARK SMILES IDX 47 86 40 87 41 88 45 89 48 90 42 91 43 92 46 93 44 94
REMARK H PARENT 80 15 68 47 36 58
REMARK Flexibility Score: inf
ROOT
ATOM      1  C   UNL A   1      44.664  19.071  24.623  1.00  0.00     0.202 C 
ENDROOT
BRANCH   1   2
ATOM      2  C   UNL A   1      43.497  18.568  25.469  1.00  0.00     0.261 C 
BRANCH   2   3
ATOM      3  O   UNL A   1      42.403  19.499  25.388  1.00  0.00    -0.460 OA
BRANCH   3   4
ATOM      4  C   UNL A   1      41.487  19.739  26.357  1.00  0.00     0.338 C 
ATOM      5  O   UNL A   1      41.795  19.641  27.540  1.00  0.00    -0.246 OA
BRANCH   4   6
ATOM      6  C   UNL A   1      40.109  20.164  26.015  1.00  0.00     0.060 A 
ATOM      7  C   UNL A   1      39.670  21.484  26.145  1.00  0.00     0.016 A 
ATOM      8  C   UNL A   1      39.265  19.220  25.423  1.00  0.00     0.016 A 
ATOM      9  C   UNL A   1      38.386  21.849  25.749  1.00  0.00     0.006 A 
ATOM     10  C   UNL A   1      37.985  19.590  25.000  1.00  0.00     0.006 A 
ATOM     11  C   UNL A   1      37.534  20.909  25.164  1.00  0.00    -0.029 A 
BRANCH  11  12
ATOM     12  C   UNL A   1      36.196  21.352  24.640  1.00  0.00     0.152 C 
BRANCH  12  13
ATOM     13  N   UNL A   1      35.200  21.425  25.688  1.00  0.00    -0.348 N 
ATOM     14  C   UNL A   1      33.973  20.824  25.795  1.00  0.00     0.252 C 
ATOM     15  H   UNL A   1      35.443  22.000  26.449  1.00  0.00     0.164 HD
ATOM     16  O   UNL A   1      33.262  21.070  26.767  1.00  0.00    -0.269 OA
BRANCH  14  17
ATOM     17  C   UNL A   1      33.432  19.965  24.719  1.00  0.00     0.053 A 
ATOM     18  C   UNL A   1      33.869  18.627  24.739  1.00  0.00     0.015 A 
ATOM     19  C   UNL A   1      32.619  20.401  23.664  1.00  0.00     0.026 A 
ATOM     20  C   UNL A   1      33.451  17.723  23.763  1.00  0.00     0.001 A 
ATOM     21  C   UNL A   1      32.164  19.475  22.712  1.00  0.00     0.015 A 
ATOM     22  I   UNL A   1      32.140  22.414  23.304  1.00  0.00    -0.043 I 
ATOM     23  C   UNL A   1      32.578  18.142  22.764  1.00  0.00     0.001 A 
ENDBRANCH  14  17
ENDBRANCH  12  13
ENDBRANCH  11  12
ENDBRANCH   4   6
ENDBRANCH   3   4
ENDBRANCH   2   3
ENDBRANCH   1   2
BRANCH   1  24
ATOM     24  O   UNL A   1      44.680  20.490  24.467  1.00  0.00    -0.374 OA
BRANCH  24  25
ATOM     25  C   UNL A   1      45.586  21.194  25.331  1.00  0.00     0.202 C 
BRANCH  25  26
ATOM     26  C   UNL A   1      45.659  22.658  24.889  1.00  0.00     0.261 C 
BRANCH  26  27
ATOM     27  O   UNL A   1      44.833  23.423  25.778  1.00  0.00    -0.460 OA
BRANCH  27  28
ATOM     28  C   UNL A   1      43.602  23.705  25.284  1.00  0.00     0.338 C 
ATOM     29  O   UNL A   1      43.024  23.135  24.372  1.00  0.00    -0.246 OA
BRANCH  28  30
ATOM     30  C   UNL A   1      42.967  24.699  26.178  1.00  0.00     0.060 A 
ATOM     31  C   UNL A   1      43.375  26.036  26.081  1.00  0.00     0.016 A 
ATOM     32  C   UNL A   1      41.947  24.334  27.065  1.00  0.00     0.016 A 
ATOM     33  C   UNL A   1      42.805  27.002  26.910  1.00  0.00     0.010 A 
ATOM     34  C   UNL A   1      41.377  25.297  27.890  1.00  0.00     0.010 A 
ATOM     35  C   UNL A   1      41.834  26.624  27.845  1.00  0.00    -0.014 A 
BRANCH  35  36
ATOM     36  C   UNL A   1      41.452  27.537  28.940  1.00  0.00     0.031 A 
ATOM     37  C   UNL A   1      42.235  27.453  30.218  1.00  0.00     0.074 A 
ATOM     38  C   UNL A   1      40.414  28.380  28.816  1.00  0.00     0.049 A 
ATOM     39  N   UNL A   1      42.032  28.052  31.362  1.00  0.00    -0.248 NA
ATOM     40  C   UNL A   1      43.400  26.552  30.208  1.00  0.00     0.031 C 
ATOM     41  C   UNL A   1      39.601  28.552  27.613  1.00  0.00     0.029 A 
ATOM     42  N   UNL A   1      39.853  29.235  29.729  1.00  0.00    -0.354 N 
ATOM     43  C   UNL A   1      43.036  27.594  32.205  1.00  0.00     0.074 A 
ATOM     44  C   UNL A   1      43.825  26.642  31.457  1.00  0.00     0.031 C 
ATOM     45  C   UNL A   1      38.634  29.448  27.868  1.00  0.00     0.029 A 
ATOM     46  C   UNL A   1      38.742  29.887  29.259  1.00  0.00     0.049 A 
ATOM     47  H   UNL A   1      40.215  29.369  30.635  1.00  0.00     0.167 HD
ATOM     48  C   UNL A   1      43.282  27.947  33.488  1.00  0.00     0.037 A 
ATOM     49  C   UNL A   1      37.900  30.723  29.897  1.00  0.00     0.037 A 
ATOM     50  C   UNL A   1      42.485  28.889  34.222  1.00  0.00     0.049 A 
ATOM     51  C   UNL A   1      38.162  31.058  31.344  1.00  0.00     0.074 A 
ATOM     52  C   UNL A   1      42.646  29.332  35.522  1.00  0.00     0.029 A 
ATOM     53  N   UNL A   1      41.364  29.532  33.714  1.00  0.00    -0.354 N 
ATOM     54  N   UNL A   1      39.128  30.646  32.129  1.00  0.00    -0.248 NA
ATOM     55  C   UNL A   1      37.214  31.976  31.992  1.00  0.00     0.031 C 
ATOM     56  C   UNL A   1      41.599  30.211  35.814  1.00  0.00     0.029 A 
ATOM     57  C   UNL A   1      40.813  30.354  34.681  1.00  0.00     0.049 A 
ATOM     58  H   UNL A   1      41.014  29.419  32.801  1.00  0.00     0.167 HD
ATOM     59  C   UNL A   1      38.924  31.275  33.351  1.00  0.00     0.074 A 
ATOM     60  C   UNL A   1      37.746  32.104  33.200  1.00  0.00     0.031 C 
ATOM     61  C   UNL A   1      39.645  31.178  34.495  1.00  0.00     0.037 A 
BRANCH  48  62
ATOM     62  C   UNL A   1      44.447  27.294  34.170  1.00  0.00     0.064 A 
ATOM     63  C   UNL A   1      45.727  27.868  34.149  1.00  0.00     0.173 A 
ATOM     64  C   UNL A   1      44.281  26.082  34.855  1.00  0.00     0.173 A 
ATOM     65  F   UNL A   1      45.942  29.015  33.488  1.00  0.00    -0.203 F 
ATOM     66  C   UNL A   1      46.804  27.239  34.768  1.00  0.00     0.198 A 
ATOM     67  C   UNL A   1      45.355  25.470  35.497  1.00  0.00     0.198 A 
ATOM     68  F   UNL A   1      43.078  25.489  34.902  1.00  0.00    -0.203 F 
ATOM     69  F   UNL A   1      48.028  27.779  34.691  1.00  0.00    -0.200 F 
ATOM     70  C   UNL A   1      46.616  26.045  35.447  1.00  0.00     0.200 A 
ATOM     71  F   UNL A   1      45.170  24.320  36.159  1.00  0.00    -0.200 F 
ATOM     72  F   UNL A   1      47.652  25.441  36.044  1.00  0.00    -0.200 F 
ENDBRANCH  48  62
BRANCH  49  73
ATOM     73  C   UNL A   1      36.739  31.305  29.176  1.00  0.00     0.064 A 
ATOM     74  C   UNL A   1      36.734  32.652  28.788  1.00  0.00     0.173 A 
ATOM     75  C   UNL A   1      35.610  30.533  28.866  1.00  0.00     0.173 A 
ATOM     76  F   UNL A   1      37.781  33.436  29.083  1.00  0.00    -0.203 F 
ATOM     77  C   UNL A   1      35.637  33.209  28.133  1.00  0.00     0.198 A 
ATOM     78  C   UNL A   1      34.524  31.085  28.189  1.00  0.00     0.198 A 
ATOM     79  F   UNL A   1      35.564  29.240  29.216  1.00  0.00    -0.203 F 
ATOM     80  F   UNL A   1      35.643  34.510  27.812  1.00  0.00    -0.200 F 
ATOM     81  C   UNL A   1      34.536  32.425  27.829  1.00  0.00     0.200 A 
ATOM     82  F   UNL A   1      33.466  30.321  27.887  1.00  0.00    -0.200 F 
ATOM     83  F   UNL A   1      33.483  32.959  27.196  1.00  0.00    -0.200 F 
ENDBRANCH  49  73
BRANCH  61  84
ATOM     84  C   UNL A   1      39.206  32.018  35.658  1.00  0.00     0.064 A 
ATOM     85  C   UNL A   1      38.332  31.521  36.635  1.00  0.00     0.173 A 
ATOM     86  C   UNL A   1      39.713  33.316  35.823  1.00  0.00     0.173 A 
ATOM     87  F   UNL A   1      37.811  30.291  36.514  1.00  0.00    -0.203 F 
ATOM     88  C   UNL A   1      37.963  32.305  37.726  1.00  0.00     0.198 A 
ATOM     89  C   UNL A   1      39.365  34.085  36.929  1.00  0.00     0.198 A 
ATOM     90  F   UNL A   1      40.560  33.831  34.920  1.00  0.00    -0.203 F 
ATOM     91  F   UNL A   1      37.093  31.827  38.627  1.00  0.00    -0.200 F 
ATOM     92  C   UNL A   1      38.485  33.581  37.876  1.00  0.00     0.200 A 
ATOM     93  F   UNL A   1      39.881  35.312  37.080  1.00  0.00    -0.200 F 
ATOM     94  F   UNL A   1      38.137  34.329  38.932  1.00  0.00    -0.200 F 
ENDBRANCH  61  84
ENDBRANCH  35  36
ENDBRANCH  28  30
ENDBRANCH  27  28
ENDBRANCH  26  27
ENDBRANCH  25  26
ENDBRANCH  24  25
ENDBRANCH   1  24
TORSDOF 17
ENDMDL
MODEL 2
REMARK VINA RESULT:     -11.9      1.669      2.604
REMARK SMILES O=C(OCCOCCOC(=O)c1ccc(-c2c3nc(c(-c4c(F)c(F)c(F)c(F)c4F)c4ccc([nH]4)c(-c4c(F)c(F)c(F)c(F)c4F)c4nc(c(-c5c(F)c(F)c(F)c(F)c5F)c5ccc2[nH]5)C=C4)C=C3)cc1)c1ccc(CNC(=O)c2ccccc2I)cc1
REMARK SMILES IDX 5 1 4 2 3 3 2 4 1 5 75 6 76 7 91 8 77 9 90 10 78 11 79 12
REMARK SMILES IDX 80 13 81 14 82 16 83 17 84 18 88 19 85 20 87 21 89 22 86 23
REMARK SMILES IDX 6 24 7 25 8 26 9 27 10 28 11 29 12 30 13 31 74 32 14 33
REMARK SMILES IDX 73 34 15 35 16 36 17 37 67 38 18 39 72 40 66 41 68 42 19 43
REMARK SMILES IDX 71 44 65 45 64 46 20 48 52 49 32 50 51 51 33 52 36 53 50 54
REMARK SMILES IDX 69 55 34 56 35 57 49 59 70 60 37 61 21 62 22 63 30 64 23 65
REMARK SMILES IDX 24 66 28 67 31 68 25 69 26 70 29 71 27 72 53 73 54 74 62 75
REMARK SMILES IDX 55 76 56 77 60 78 63 79 57 80 58 81 61 82 59 83 38 84 39 85
REMARK SMILES IDX 47 86 40 87 41 88 45 89 48 90 42 91 43 92 46 93 44 94
REMARK H PARENT 80 15 68 47 36 58
REMARK Flexibility Score: inf
ROOT
ATOM      1  C   UNL A   1      42.675  19.061  26.046  1.00  0.00     0.202 C 
ENDROOT
BRANCH   1   2
ATOM      2  C   UNL A   1      41.574  19.412  27.044  1.00  0.00     0.261 C 
BRANCH   2   3
ATOM      3  O   UNL A   1      40.575  20.221  26.398  1.00  0.00    -0.460 OA
BRANCH   3   4
ATOM      4  C   UNL A   1      40.079  21.394  26.861  1.00  0.00     0.338 C 
ATOM      5  O   UNL A   1      40.564  21.925  27.854  1.00  0.00    -0.246 OA
BRANCH   4   6
ATOM      6  C   UNL A   1      38.970  22.082  26.158  1.00  0.00     0.060 A 
ATOM      7  C   UNL A   1      38.140  21.437  25.238  1.00  0.00     0.016 A 
ATOM      8  C   UNL A   1      38.679  23.398  26.534  1.00  0.00     0.016 A 
ATOM      9  C   UNL A   1      37.070  22.108  24.653  1.00  0.00     0.006 A 
ATOM     10  C   UNL A   1      37.590  24.065  25.966  1.00  0.00     0.006 A 
ATOM     11  C   UNL A   1      36.778  23.424  25.018  1.00  0.00    -0.029 A 
BRANCH  11  12
ATOM     12  C   UNL A   1      35.550  24.089  24.458  1.00  0.00     0.152 C 
BRANCH  12  13
ATOM     13  N   UNL A   1      34.379  23.245  24.566  1.00  0.00    -0.348 N 
ATOM     14  C   UNL A   1      33.060  23.569  24.750  1.00  0.00     0.252 C 
ATOM     15  H   UNL A   1      34.559  22.279  24.496  1.00  0.00     0.164 HD
ATOM     16  O   UNL A   1      32.227  22.672  24.863  1.00  0.00    -0.269 OA
BRANCH  14  17
ATOM     17  C   UNL A   1      32.622  24.971  24.923  1.00  0.00     0.053 A 
ATOM     18  C   UNL A   1      32.228  25.323  26.228  1.00  0.00     0.015 A 
ATOM     19  C   UNL A   1      32.488  25.912  23.893  1.00  0.00     0.026 A 
ATOM     20  C   UNL A   1      31.771  26.609  26.515  1.00  0.00     0.001 A 
ATOM     21  C   UNL A   1      32.072  27.218  24.198  1.00  0.00     0.015 A 
ATOM     22  I   UNL A   1      32.722  25.464  21.855  1.00  0.00    -0.043 I 
ATOM     23  C   UNL A   1      31.717  27.563  25.504  1.00  0.00     0.001 A 
ENDBRANCH  14  17
ENDBRANCH  12  13
ENDBRANCH  11  12
ENDBRANCH   4   6
ENDBRANCH   3   4
ENDBRANCH   2   3
ENDBRANCH   1   2
BRANCH   1  24
ATOM     24  O   UNL A   1      42.946  20.106  25.112  1.00  0.00    -0.374 OA
BRANCH  24  25
ATOM     25  C   UNL A   1      44.328  20.471  24.980  1.00  0.00     0.202 C 
BRANCH  25  26
ATOM     26  C   UNL A   1      44.588  21.742  25.794  1.00  0.00     0.261 C 
BRANCH  26  27
ATOM     27  O   UNL A   1      43.536  22.671  25.497  1.00  0.00    -0.460 OA
BRANCH  27  28
ATOM     28  C   UNL A   1      43.970  23.921  25.202  1.00  0.00     0.338 C 
ATOM     29  O   UNL A   1      44.675  24.257  24.265  1.00  0.00    -0.246 OA
BRANCH  28  30
ATOM     30  C   UNL A   1      43.268  24.871  26.096  1.00  0.00     0.060 A 
ATOM     31  C   UNL A   1      43.591  26.231  26.003  1.00  0.00     0.016 A 
ATOM     32  C   UNL A   1      42.271  24.440  26.978  1.00  0.00     0.016 A 
ATOM     33  C   UNL A   1      42.956  27.158  26.830  1.00  0.00     0.010 A 
ATOM     34  C   UNL A   1      41.636  25.363  27.802  1.00  0.00     0.010 A 
ATOM     35  C   UNL A   1      42.008  26.717  27.760  1.00  0.00    -0.014 A 
BRANCH  35  36
ATOM     36  C   UNL A   1      41.563  27.602  28.855  1.00  0.00     0.031 A 
ATOM     37  C   UNL A   1      42.337  27.555  30.142  1.00  0.00     0.074 A 
ATOM     38  C   UNL A   1      40.481  28.385  28.723  1.00  0.00     0.049 A 
ATOM     39  N   UNL A   1      42.088  28.136  31.286  1.00  0.00    -0.248 NA
ATOM     40  C   UNL A   1      43.550  26.720  30.140  1.00  0.00     0.031 C 
ATOM     41  C   UNL A   1      39.673  28.518  27.513  1.00  0.00     0.029 A 
ATOM     42  N   UNL A   1      39.864  29.203  29.634  1.00  0.00    -0.354 N 
ATOM     43  C   UNL A   1      43.107  27.731  32.138  1.00  0.00     0.074 A 
ATOM     44  C   UNL A   1      43.956  26.828  31.394  1.00  0.00     0.031 C 
ATOM     45  C   UNL A   1      38.654  29.357  27.761  1.00  0.00     0.029 A 
ATOM     46  C   UNL A   1      38.722  29.795  29.155  1.00  0.00     0.049 A 
ATOM     47  H   UNL A   1      40.208  29.353  30.545  1.00  0.00     0.167 HD
ATOM     48  C   UNL A   1      43.320  28.091  33.424  1.00  0.00     0.037 A 
ATOM     49  C   UNL A   1      37.829  30.579  29.788  1.00  0.00     0.037 A 
ATOM     50  C   UNL A   1      42.462  28.984  34.154  1.00  0.00     0.049 A 
ATOM     51  C   UNL A   1      38.056  30.921  31.238  1.00  0.00     0.074 A 
ATOM     52  C   UNL A   1      42.585  29.428  35.458  1.00  0.00     0.029 A 
ATOM     53  N   UNL A   1      41.313  29.565  33.636  1.00  0.00    -0.354 N 
ATOM     54  N   UNL A   1      39.035  30.560  32.032  1.00  0.00    -0.248 NA
ATOM     55  C   UNL A   1      37.052  31.781  31.880  1.00  0.00     0.031 C 
ATOM     56  C   UNL A   1      41.487  30.245  35.742  1.00  0.00     0.029 A 
ATOM     57  C   UNL A   1      40.706  30.350  34.601  1.00  0.00     0.049 A 
ATOM     58  H   UNL A   1      40.980  29.437  32.719  1.00  0.00     0.167 HD
ATOM     59  C   UNL A   1      38.784  31.170  33.255  1.00  0.00     0.074 A 
ATOM     60  C   UNL A   1      37.563  31.933  33.094  1.00  0.00     0.031 C 
ATOM     61  C   UNL A   1      39.497  31.108  34.406  1.00  0.00     0.037 A 
BRANCH  48  62
ATOM     62  C   UNL A   1      44.511  27.501  34.117  1.00  0.00     0.064 A 
ATOM     63  C   UNL A   1      45.744  28.169  34.154  1.00  0.00     0.173 A 
ATOM     64  C   UNL A   1      44.419  26.254  34.752  1.00  0.00     0.173 A 
ATOM     65  F   UNL A   1      45.890  29.354  33.542  1.00  0.00    -0.203 F 
ATOM     66  C   UNL A   1      46.850  27.599  34.781  1.00  0.00     0.198 A 
ATOM     67  C   UNL A   1      45.519  25.700  35.403  1.00  0.00     0.198 A 
ATOM     68  F   UNL A   1      43.264  25.572  34.742  1.00  0.00    -0.203 F 
ATOM     69  F   UNL A   1      48.030  28.232  34.760  1.00  0.00    -0.200 F 
ATOM     70  C   UNL A   1      46.734  26.369  35.410  1.00  0.00     0.200 A 
ATOM     71  F   UNL A   1      45.404  24.515  36.017  1.00  0.00    -0.200 F 
ATOM     72  F   UNL A   1      47.797  25.822  36.016  1.00  0.00    -0.200 F 
ENDBRANCH  48  62
BRANCH  49  73
ATOM     73  C   UNL A   1      36.645  31.099  29.056  1.00  0.00     0.064 A 
ATOM     74  C   UNL A   1      35.588  30.249  28.702  1.00  0.00     0.173 A 
ATOM     75  C   UNL A   1      36.546  32.449  28.691  1.00  0.00     0.173 A 
ATOM     76  F   UNL A   1      35.647  28.945  29.009  1.00  0.00    -0.203 F 
ATOM     77  C   UNL A   1      34.486  30.725  27.994  1.00  0.00     0.198 A 
ATOM     78  C   UNL A   1      35.431  32.930  28.006  1.00  0.00     0.198 A 
ATOM     79  F   UNL A   1      37.530  33.304  29.006  1.00  0.00    -0.203 F 
ATOM     80  F   UNL A   1      33.510  29.882  27.632  1.00  0.00    -0.200 F 
ATOM     81  C   UNL A   1      34.405  32.067  27.652  1.00  0.00     0.200 A 
ATOM     82  F   UNL A   1      35.353  34.229  27.686  1.00  0.00    -0.200 F 
ATOM     83  F   UNL A   1      33.344  32.526  26.975  1.00  0.00    -0.200 F 
ENDBRANCH  49  73
BRANCH  61  84
ATOM     84  C   UNL A   1      38.999  31.916  35.568  1.00  0.00     0.064 A 
ATOM     85  C   UNL A   1      38.193  31.351  36.566  1.00  0.00     0.173 A 
ATOM     86  C   UNL A   1      39.381  33.260  35.709  1.00  0.00     0.173 A 
ATOM     87  F   UNL A   1      37.792  30.075  36.468  1.00  0.00    -0.203 F 
ATOM     88  C   UNL A   1      37.770  32.109  37.655  1.00  0.00     0.198 A 
ATOM     89  C   UNL A   1      38.979  34.005  36.813  1.00  0.00     0.198 A 
ATOM     90  F   UNL A   1      40.158  33.842  34.785  1.00  0.00    -0.203 F 
ATOM     91  F   UNL A   1      36.966  31.561  38.578  1.00  0.00    -0.200 F 
ATOM     92  C   UNL A   1      38.169  33.431  37.782  1.00  0.00     0.200 A 
ATOM     93  F   UNL A   1      39.377  35.278  36.942  1.00  0.00    -0.200 F 
ATOM     94  F   UNL A   1      37.768  34.155  38.835  1.00  0.00    -0.200 F 
ENDBRANCH  61  84
ENDBRANCH  35  36
ENDBRANCH  28  30
ENDBRANCH  27  28
ENDBRANCH  26  27
ENDBRANCH  25  26
ENDBRANCH  24  25
ENDBRANCH   1  24
TORSDOF 17
ENDMDL
MODEL 3
REMARK VINA RESULT:     -11.8      3.823      9.194
REMARK SMILES O=C(OCCOCCOC(=O)c1ccc(-c2c3nc(c(-c4c(F)c(F)c(F)c(F)c4F)c4ccc([nH]4)c(-c4c(F)c(F)c(F)c(F)c4F)c4nc(c(-c5c(F)c(F)c(F)c(F)c5F)c5ccc2[nH]5)C=C4)C=C3)cc1)c1ccc(CNC(=O)c2ccccc2I)cc1
REMARK SMILES IDX 5 1 4 2 3 3 2 4 1 5 75 6 76 7 91 8 77 9 90 10 78 11 79 12
REMARK SMILES IDX 80 13 81 14 82 16 83 17 84 18 88 19 85 20 87 21 89 22 86 23
REMARK SMILES IDX 6 24 7 25 8 26 9 27 10 28 11 29 12 30 13 31 74 32 14 33
REMARK SMILES IDX 73 34 15 35 16 36 17 37 67 38 18 39 72 40 66 41 68 42 19 43
REMARK SMILES IDX 71 44 65 45 64 46 20 48 52 49 32 50 51 51 33 52 36 53 50 54
REMARK SMILES IDX 69 55 34 56 35 57 49 59 70 60 37 61 21 62 22 63 30 64 23 65
REMARK SMILES IDX 24 66 28 67 31 68 25 69 26 70 29 71 27 72 53 73 54 74 62 75
REMARK SMILES IDX 55 76 56 77 60 78 63 79 57 80 58 81 61 82 59 83 38 84 39 85
REMARK SMILES IDX 47 86 40 87 41 88 45 89 48 90 42 91 43 92 46 93 44 94
REMARK H PARENT 80 15 68 47 36 58
REMARK Flexibility Score: inf
ROOT
ATOM      1  C   UNL A   1      31.865  29.390  27.234  1.00  0.00     0.202 C 
ENDROOT
BRANCH   1   2
ATOM      2  C   UNL A   1      32.931  28.442  26.689  1.00  0.00     0.261 C 
BRANCH   2   3
ATOM      3  O   UNL A   1      32.382  27.667  25.607  1.00  0.00    -0.460 OA
BRANCH   3   4
ATOM      4  C   UNL A   1      31.580  26.583  25.731  1.00  0.00     0.338 C 
ATOM      5  O   UNL A   1      30.375  26.674  25.519  1.00  0.00    -0.246 OA
BRANCH   4   6
ATOM      6  C   UNL A   1      32.140  25.257  26.082  1.00  0.00     0.060 A 
ATOM      7  C   UNL A   1      33.513  25.002  26.127  1.00  0.00     0.016 A 
ATOM      8  C   UNL A   1      31.249  24.265  26.504  1.00  0.00     0.016 A 
ATOM      9  C   UNL A   1      33.994  23.759  26.527  1.00  0.00     0.006 A 
ATOM     10  C   UNL A   1      31.730  23.024  26.932  1.00  0.00     0.006 A 
ATOM     11  C   UNL A   1      33.109  22.761  26.943  1.00  0.00    -0.029 A 
BRANCH  11  12
ATOM     12  C   UNL A   1      33.656  21.467  27.479  1.00  0.00     0.152 C 
BRANCH  12  13
ATOM     13  N   UNL A   1      33.447  20.367  26.560  1.00  0.00    -0.348 N 
ATOM     14  C   UNL A   1      33.941  20.152  25.300  1.00  0.00     0.252 C 
ATOM     15  H   UNL A   1      32.852  19.657  26.896  1.00  0.00     0.164 HD
ATOM     16  O   UNL A   1      33.586  19.155  24.674  1.00  0.00    -0.269 OA
BRANCH  14  17
ATOM     17  C   UNL A   1      34.811  21.141  24.628  1.00  0.00     0.053 A 
ATOM     18  C   UNL A   1      36.142  21.182  25.085  1.00  0.00     0.015 A 
ATOM     19  C   UNL A   1      34.391  22.071  23.668  1.00  0.00     0.026 A 
ATOM     20  C   UNL A   1      37.055  22.090  24.548  1.00  0.00     0.001 A 
ATOM     21  C   UNL A   1      35.326  22.950  23.098  1.00  0.00     0.015 A 
ATOM     22  I   UNL A   1      32.386  22.361  23.111  1.00  0.00    -0.043 I 
ATOM     23  C   UNL A   1      36.652  22.956  23.536  1.00  0.00     0.001 A 
ENDBRANCH  14  17
ENDBRANCH  12  13
ENDBRANCH  11  12
ENDBRANCH   4   6
ENDBRANCH   3   4
ENDBRANCH   2   3
ENDBRANCH   1   2
BRANCH   1  24
ATOM     24  O   UNL A   1      32.271  30.758  27.232  1.00  0.00    -0.374 OA
BRANCH  24  25
ATOM     25  C   UNL A   1      31.405  31.656  26.520  1.00  0.00     0.202 C 
BRANCH  25  26
ATOM     26  C   UNL A   1      31.783  33.098  26.873  1.00  0.00     0.261 C 
BRANCH  26  27
ATOM     27  O   UNL A   1      33.027  33.059  27.586  1.00  0.00    -0.460 OA
BRANCH  27  28
ATOM     28  C   UNL A   1      33.243  34.137  28.378  1.00  0.00     0.338 C 
ATOM     29  O   UNL A   1      32.531  35.120  28.500  1.00  0.00    -0.246 OA
BRANCH  28  30
ATOM     30  C   UNL A   1      34.401  33.837  29.252  1.00  0.00     0.060 A 
ATOM     31  C   UNL A   1      35.680  34.195  28.806  1.00  0.00     0.016 A 
ATOM     32  C   UNL A   1      34.230  33.258  30.515  1.00  0.00     0.016 A 
ATOM     33  C   UNL A   1      36.796  33.925  29.596  1.00  0.00     0.010 A 
ATOM     34  C   UNL A   1      35.342  32.990  31.305  1.00  0.00     0.010 A 
ATOM     35  C   UNL A   1      36.631  33.284  30.830  1.00  0.00    -0.014 A 
BRANCH  35  36
ATOM     36  C   UNL A   1      37.789  32.698  31.532  1.00  0.00     0.031 A 
ATOM     37  C   UNL A   1      38.454  31.508  30.901  1.00  0.00     0.074 A 
ATOM     38  C   UNL A   1      38.206  33.181  32.713  1.00  0.00     0.049 A 
ATOM     39  N   UNL A   1      39.406  30.741  31.365  1.00  0.00    -0.248 NA
ATOM     40  C   UNL A   1      37.962  31.120  29.568  1.00  0.00     0.031 C 
ATOM     41  C   UNL A   1      37.643  34.341  33.401  1.00  0.00     0.029 A 
ATOM     42  N   UNL A   1      39.193  32.734  33.555  1.00  0.00    -0.354 N 
ATOM     43  C   UNL A   1      39.618  29.780  30.386  1.00  0.00     0.074 A 
ATOM     44  C   UNL A   1      38.675  30.034  29.320  1.00  0.00     0.031 C 
ATOM     45  C   UNL A   1      38.284  34.506  34.570  1.00  0.00     0.029 A 
ATOM     46  C   UNL A   1      39.279  33.445  34.725  1.00  0.00     0.049 A 
ATOM     47  H   UNL A   1      39.783  31.976  33.339  1.00  0.00     0.167 HD
ATOM     48  C   UNL A   1      40.528  28.779  30.374  1.00  0.00     0.037 A 
ATOM     49  C   UNL A   1      40.061  33.239  35.801  1.00  0.00     0.037 A 
ATOM     50  C   UNL A   1      41.454  28.532  31.444  1.00  0.00     0.049 A 
ATOM     51  C   UNL A   1      41.029  32.083  35.790  1.00  0.00     0.074 A 
ATOM     52  C   UNL A   1      42.428  27.555  31.537  1.00  0.00     0.029 A 
ATOM     53  N   UNL A   1      41.514  29.273  32.616  1.00  0.00    -0.354 N 
ATOM     54  N   UNL A   1      41.247  31.193  34.851  1.00  0.00    -0.248 NA
ATOM     55  C   UNL A   1      41.859  31.903  36.989  1.00  0.00     0.031 C 
ATOM     56  C   UNL A   1      43.050  27.679  32.784  1.00  0.00     0.029 A 
ATOM     57  C   UNL A   1      42.497  28.764  33.447  1.00  0.00     0.049 A 
ATOM     58  H   UNL A   1      40.942  30.047  32.825  1.00  0.00     0.167 HD
ATOM     59  C   UNL A   1      42.257  30.369  35.331  1.00  0.00     0.074 A 
ATOM     60  C   UNL A   1      42.615  30.871  36.642  1.00  0.00     0.031 C 
ATOM     61  C   UNL A   1      42.838  29.295  34.742  1.00  0.00     0.037 A 
BRANCH  48  62
ATOM     62  C   UNL A   1      40.543  27.876  29.178  1.00  0.00     0.064 A 
ATOM     63  C   UNL A   1      41.377  28.129  28.078  1.00  0.00     0.173 A 
ATOM     64  C   UNL A   1      39.718  26.743  29.131  1.00  0.00     0.173 A 
ATOM     65  F   UNL A   1      42.168  29.211  28.064  1.00  0.00    -0.203 F 
ATOM     66  C   UNL A   1      41.365  27.294  26.963  1.00  0.00     0.198 A 
ATOM     67  C   UNL A   1      39.729  25.895  28.026  1.00  0.00     0.198 A 
ATOM     68  F   UNL A   1      38.899  26.459  30.154  1.00  0.00    -0.203 F 
ATOM     69  F   UNL A   1      42.131  27.583  25.903  1.00  0.00    -0.200 F 
ATOM     70  C   UNL A   1      40.546  26.175  26.941  1.00  0.00     0.200 A 
ATOM     71  F   UNL A   1      38.943  24.810  28.009  1.00  0.00    -0.200 F 
ATOM     72  F   UNL A   1      40.537  25.371  25.869  1.00  0.00    -0.200 F 
ENDBRANCH  48  62
BRANCH  49  73
ATOM     73  C   UNL A   1      39.968  34.146  36.975  1.00  0.00     0.064 A 
ATOM     74  C   UNL A   1      40.764  35.297  37.059  1.00  0.00     0.173 A 
ATOM     75  C   UNL A   1      39.091  33.879  38.037  1.00  0.00     0.173 A 
ATOM     76  F   UNL A   1      41.634  35.581  36.080  1.00  0.00    -0.203 F 
ATOM     77  C   UNL A   1      40.698  36.138  38.169  1.00  0.00     0.198 A 
ATOM     78  C   UNL A   1      39.009  34.735  39.134  1.00  0.00     0.198 A 
ATOM     79  F   UNL A   1      38.310  32.791  38.005  1.00  0.00    -0.203 F 
ATOM     80  F   UNL A   1      41.500  37.209  38.243  1.00  0.00    -0.200 F 
ATOM     81  C   UNL A   1      39.817  35.860  39.203  1.00  0.00     0.200 A 
ATOM     82  F   UNL A   1      38.148  34.468  40.126  1.00  0.00    -0.200 F 
ATOM     83  F   UNL A   1      39.751  36.670  40.267  1.00  0.00    -0.200 F 
ENDBRANCH  49  73
BRANCH  61  84
ATOM     84  C   UNL A   1      43.947  28.616  35.491  1.00  0.00     0.064 A 
ATOM     85  C   UNL A   1      43.694  27.584  36.405  1.00  0.00     0.173 A 
ATOM     86  C   UNL A   1      45.283  28.969  35.246  1.00  0.00     0.173 A 
ATOM     87  F   UNL A   1      42.433  27.221  36.681  1.00  0.00    -0.203 F 
ATOM     88  C   UNL A   1      44.740  26.942  37.064  1.00  0.00     0.198 A 
ATOM     89  C   UNL A   1      46.327  28.306  35.886  1.00  0.00     0.198 A 
ATOM     90  F   UNL A   1      45.576  29.944  34.374  1.00  0.00    -0.203 F 
ATOM     91  F   UNL A   1      44.474  25.986  37.965  1.00  0.00    -0.200 F 
ATOM     92  C   UNL A   1      46.054  27.298  36.799  1.00  0.00     0.200 A 
ATOM     93  F   UNL A   1      47.596  28.641  35.618  1.00  0.00    -0.200 F 
ATOM     94  F   UNL A   1      47.059  26.673  37.427  1.00  0.00    -0.200 F 
ENDBRANCH  61  84
ENDBRANCH  35  36
ENDBRANCH  28  30
ENDBRANCH  27  28
ENDBRANCH  26  27
ENDBRANCH  25  26
ENDBRANCH  24  25
ENDBRANCH   1  24
TORSDOF 17
ENDMDL
