MODEL 1
REMARK VINA RESULT:     -12.4      0.000      0.000
REMARK SMILES COc1ccc(NC(=O)[C@@H]2[C@@H](C(=O)OCCOCCOC(=O)c3ccc(-c4c5nc(c(-c6c(F)c(F)c(F)c(F)c6F)c6ccc([nH]6)c(-c6c(F)c(F)c(F)c(F)c6F)c6nc(c(-c7c(F)c(F)c(F)c(F)c7F)c7ccc4[nH]7)C=C6)C=C5)cc3)[C@@H]3CC[C@H]2C3=C(C)C)cc1
REMARK SMILES IDX 16 1 15 2 14 3 12 4 13 5 11 6 10 7 89 8 86 9 88 10 90 11
REMARK SMILES IDX 87 12 91 13 92 14 93 15 8 16 7 17 9 19 6 20 3 21 4 22 95 23
REMARK SMILES IDX 5 24 94 25 2 26 1 27 17 28 18 29 19 30 20 31 21 32 22 33
REMARK SMILES IDX 23 34 24 35 85 36 25 37 84 38 26 39 27 40 28 41 78 42 29 43
REMARK SMILES IDX 83 44 77 45 79 46 30 47 82 48 76 49 75 50 31 52 63 53 43 54
REMARK SMILES IDX 62 55 44 56 47 57 61 58 80 59 45 60 46 61 60 63 81 64 48 65
REMARK SMILES IDX 32 66 33 67 41 68 34 69 35 70 39 71 42 72 36 73 37 74 40 75
REMARK SMILES IDX 38 76 64 77 65 78 73 79 66 80 67 81 71 82 74 83 68 84 69 85
REMARK SMILES IDX 72 86 70 87 49 88 50 89 58 90 51 91 52 92 56 93 59 94 53 95
REMARK SMILES IDX 54 96 57 97 55 98
REMARK H PARENT 7 18 79 51 47 62
REMARK Flexibility Score: inf
ROOT
ATOM      1  C   UNL A   1      34.611  29.466  27.239  1.00  0.00     0.202 C 
ENDROOT
BRANCH   1   2
ATOM      2  C   UNL A   1      33.711  28.653  26.293  1.00  0.00     0.261 C 
BRANCH   2   3
ATOM      3  O   UNL A   1      33.097  27.451  26.756  1.00  0.00    -0.463 OA
BRANCH   3   4
ATOM      4  C   UNL A   1      31.777  27.521  27.064  1.00  0.00     0.310 C 
ATOM      5  O   UNL A   1      31.311  28.181  27.982  1.00  0.00    -0.252 OA
BRANCH   4   6
ATOM      6  C   UNL A   1      30.941  26.625  26.173  1.00  0.00     0.119 C 
ATOM      7  C   UNL A   1      31.606  25.248  25.918  1.00  0.00     0.101 C 
ATOM      8  C   UNL A   1      31.524  25.136  24.372  1.00  0.00     0.029 C 
ATOM      9  C   UNL A   1      30.749  27.228  24.756  1.00  0.00     0.030 C 
ATOM     10  C   UNL A   1      30.071  25.121  23.832  1.00  0.00     0.009 C 
ATOM     11  C   UNL A   1      31.845  26.552  23.971  1.00  0.00    -0.064 C 
ATOM     12  C   UNL A   1      29.548  26.543  24.099  1.00  0.00     0.009 C 
ATOM     13  C   UNL A   1      32.734  27.009  23.074  1.00  0.00    -0.077 C 
ATOM     14  C   UNL A   1      32.745  28.424  22.565  1.00  0.00     0.039 C 
ATOM     15  C   UNL A   1      33.751  26.109  22.426  1.00  0.00     0.039 C 
BRANCH   7  16
ATOM     16  C   UNL A   1      30.939  24.054  26.594  1.00  0.00     0.228 C 
ATOM     17  N   UNL A   1      31.576  22.872  26.813  1.00  0.00    -0.326 N 
ATOM     18  H   UNL A   1      31.143  22.329  27.510  1.00  0.00     0.169 HD
ATOM     19  O   UNL A   1      29.773  24.122  26.998  1.00  0.00    -0.274 OA
BRANCH  17  20
ATOM     20  C   UNL A   1      32.709  22.254  26.270  1.00  0.00     0.041 A 
ATOM     21  C   UNL A   1      35.080  21.020  25.363  1.00  0.00     0.119 A 
ATOM     22  C   UNL A   1      33.935  21.026  24.570  1.00  0.00     0.048 A 
ATOM     23  C   UNL A   1      35.026  21.612  26.622  1.00  0.00     0.048 A 
ATOM     24  C   UNL A   1      32.748  21.625  25.030  1.00  0.00     0.030 A 
ATOM     25  C   UNL A   1      33.847  22.203  27.081  1.00  0.00     0.030 A 
BRANCH  21  26
ATOM     26  O   UNL A   1      36.289  20.473  25.044  1.00  0.00    -0.497 OA
ATOM     27  C   UNL A   1      37.326  21.341  24.608  1.00  0.00     0.278 C 
ENDBRANCH  21  26
ENDBRANCH  17  20
ENDBRANCH   7  16
ENDBRANCH   4   6
ENDBRANCH   3   4
ENDBRANCH   2   3
ENDBRANCH   1   2
BRANCH   1  28
ATOM     28  O   UNL A   1      34.091  30.509  28.041  1.00  0.00    -0.374 OA
BRANCH  28  29
ATOM     29  C   UNL A   1      33.133  31.404  27.499  1.00  0.00     0.202 C 
BRANCH  29  30
ATOM     30  C   UNL A   1      33.487  32.889  27.453  1.00  0.00     0.261 C 
BRANCH  30  31
ATOM     31  O   UNL A   1      32.518  33.706  28.136  1.00  0.00    -0.460 OA
BRANCH  31  32
ATOM     32  C   UNL A   1      33.020  34.810  28.729  1.00  0.00     0.338 C 
ATOM     33  O   UNL A   1      32.546  35.942  28.722  1.00  0.00    -0.246 OA
BRANCH  32  34
ATOM     34  C   UNL A   1      34.190  34.466  29.548  1.00  0.00     0.060 A 
ATOM     35  C   UNL A   1      35.457  34.572  28.960  1.00  0.00     0.016 A 
ATOM     36  C   UNL A   1      34.045  33.941  30.833  1.00  0.00     0.016 A 
ATOM     37  C   UNL A   1      36.584  34.117  29.644  1.00  0.00     0.010 A 
ATOM     38  C   UNL A   1      35.175  33.469  31.510  1.00  0.00     0.010 A 
ATOM     39  C   UNL A   1      36.445  33.528  30.907  1.00  0.00    -0.014 A 
BRANCH  39  40
ATOM     40  C   UNL A   1      37.608  32.862  31.545  1.00  0.00     0.031 A 
ATOM     41  C   UNL A   1      38.228  31.667  30.878  1.00  0.00     0.074 A 
ATOM     42  C   UNL A   1      38.110  33.321  32.704  1.00  0.00     0.049 A 
ATOM     43  N   UNL A   1      39.197  30.891  31.295  1.00  0.00    -0.248 NA
ATOM     44  C   UNL A   1      37.685  31.296  29.561  1.00  0.00     0.031 C 
ATOM     45  C   UNL A   1      37.628  34.497  33.424  1.00  0.00     0.029 A 
ATOM     46  N   UNL A   1      39.128  32.837  33.489  1.00  0.00    -0.354 N 
ATOM     47  C   UNL A   1      39.375  29.939  30.300  1.00  0.00     0.074 A 
ATOM     48  C   UNL A   1      38.403  30.223  29.265  1.00  0.00     0.031 C 
ATOM     49  C   UNL A   1      38.332  34.629  34.561  1.00  0.00     0.029 A 
ATOM     50  C   UNL A   1      39.286  33.527  34.666  1.00  0.00     0.049 A 
ATOM     51  H   UNL A   1      39.689  32.069  33.233  1.00  0.00     0.167 HD
ATOM     52  C   UNL A   1      40.269  28.923  30.255  1.00  0.00     0.037 A 
ATOM     53  C   UNL A   1      40.084  33.273  35.723  1.00  0.00     0.037 A 
ATOM     54  C   UNL A   1      41.235  28.644  31.284  1.00  0.00     0.049 A 
ATOM     55  C   UNL A   1      41.004  32.079  35.689  1.00  0.00     0.074 A 
ATOM     56  C   UNL A   1      42.213  27.666  31.307  1.00  0.00     0.029 A 
ATOM     57  N   UNL A   1      41.333  29.335  32.483  1.00  0.00    -0.354 N 
ATOM     58  N   UNL A   1      41.193  31.207  34.730  1.00  0.00    -0.248 NA
ATOM     59  C   UNL A   1      41.814  31.829  36.891  1.00  0.00     0.031 C 
ATOM     60  C   UNL A   1      42.865  27.726  32.543  1.00  0.00     0.029 A 
ATOM     61  C   UNL A   1      42.325  28.775  33.271  1.00  0.00     0.049 A 
ATOM     62  H   UNL A   1      40.779  30.108  32.736  1.00  0.00     0.167 HD
ATOM     63  C   UNL A   1      42.150  30.317  35.202  1.00  0.00     0.074 A 
ATOM     64  C   UNL A   1      42.517  30.765  36.530  1.00  0.00     0.031 C 
ATOM     65  C   UNL A   1      42.676  29.227  34.592  1.00  0.00     0.037 A 
BRANCH  52  66
ATOM     66  C   UNL A   1      40.230  28.013  29.064  1.00  0.00     0.064 A 
ATOM     67  C   UNL A   1      40.918  28.316  27.880  1.00  0.00     0.173 A 
ATOM     68  C   UNL A   1      39.538  26.794  29.129  1.00  0.00     0.173 A 
ATOM     69  F   UNL A   1      41.585  29.474  27.765  1.00  0.00    -0.203 F 
ATOM     70  C   UNL A   1      40.898  27.440  26.797  1.00  0.00     0.198 A 
ATOM     71  C   UNL A   1      39.541  25.910  28.054  1.00  0.00     0.198 A 
ATOM     72  F   UNL A   1      38.870  26.455  30.242  1.00  0.00    -0.203 F 
ATOM     73  F   UNL A   1      41.533  27.765  25.663  1.00  0.00    -0.200 F 
ATOM     74  C   UNL A   1      40.217  26.235  26.888  1.00  0.00     0.200 A 
ATOM     75  F   UNL A   1      38.892  24.741  28.148  1.00  0.00    -0.200 F 
ATOM     76  F   UNL A   1      40.207  25.389  25.849  1.00  0.00    -0.200 F 
ENDBRANCH  52  66
BRANCH  53  77
ATOM     77  C   UNL A   1      40.016  34.141  36.927  1.00  0.00     0.064 A 
ATOM     78  C   UNL A   1      40.856  35.254  37.069  1.00  0.00     0.173 A 
ATOM     79  C   UNL A   1      39.123  33.860  37.971  1.00  0.00     0.173 A 
ATOM     80  F   UNL A   1      41.747  35.545  36.110  1.00  0.00    -0.203 F 
ATOM     81  C   UNL A   1      40.814  36.045  38.216  1.00  0.00     0.198 A 
ATOM     82  C   UNL A   1      39.062  34.667  39.104  1.00  0.00     0.198 A 
ATOM     83  F   UNL A   1      38.301  32.803  37.887  1.00  0.00    -0.203 F 
ATOM     84  F   UNL A   1      41.659  37.076  38.346  1.00  0.00    -0.200 F 
ATOM     85  C   UNL A   1      39.913  35.754  39.229  1.00  0.00     0.200 A 
ATOM     86  F   UNL A   1      38.183  34.389  40.076  1.00  0.00    -0.200 F 
ATOM     87  F   UNL A   1      39.871  36.517  40.331  1.00  0.00    -0.200 F 
ENDBRANCH  53  77
BRANCH  65  88
ATOM     88  C   UNL A   1      43.710  28.442  35.345  1.00  0.00     0.064 A 
ATOM     89  C   UNL A   1      43.347  27.416  36.229  1.00  0.00     0.173 A 
ATOM     90  C   UNL A   1      45.078  28.674  35.133  1.00  0.00     0.173 A 
ATOM     91  F   UNL A   1      42.053  27.166  36.478  1.00  0.00    -0.203 F 
ATOM     92  C   UNL A   1      44.316  26.660  36.885  1.00  0.00     0.198 A 
ATOM     93  C   UNL A   1      46.044  27.899  35.770  1.00  0.00     0.198 A 
ATOM     94  F   UNL A   1      45.477  29.640  34.293  1.00  0.00    -0.203 F 
ATOM     95  F   UNL A   1      43.947  25.707  37.752  1.00  0.00    -0.200 F 
ATOM     96  C   UNL A   1      45.662  26.896  36.648  1.00  0.00     0.200 A 
ATOM     97  F   UNL A   1      47.343  28.119  35.527  1.00  0.00    -0.200 F 
ATOM     98  F   UNL A   1      46.592  26.158  37.268  1.00  0.00    -0.200 F 
ENDBRANCH  65  88
ENDBRANCH  39  40
ENDBRANCH  32  34
ENDBRANCH  31  32
ENDBRANCH  30  31
ENDBRANCH  29  30
ENDBRANCH  28  29
ENDBRANCH   1  28
TORSDOF 17
ENDMDL
MODEL 2
REMARK VINA RESULT:     -12.3      2.021      8.156
REMARK SMILES COc1ccc(NC(=O)[C@@H]2[C@@H](C(=O)OCCOCCOC(=O)c3ccc(-c4c5nc(c(-c6c(F)c(F)c(F)c(F)c6F)c6ccc([nH]6)c(-c6c(F)c(F)c(F)c(F)c6F)c6nc(c(-c7c(F)c(F)c(F)c(F)c7F)c7ccc4[nH]7)C=C6)C=C5)cc3)[C@@H]3CC[C@H]2C3=C(C)C)cc1
REMARK SMILES IDX 16 1 15 2 14 3 12 4 13 5 11 6 10 7 89 8 86 9 88 10 90 11
REMARK SMILES IDX 87 12 91 13 92 14 93 15 8 16 7 17 9 19 6 20 3 21 4 22 95 23
REMARK SMILES IDX 5 24 94 25 2 26 1 27 17 28 18 29 19 30 20 31 21 32 22 33
REMARK SMILES IDX 23 34 24 35 85 36 25 37 84 38 26 39 27 40 28 41 78 42 29 43
REMARK SMILES IDX 83 44 77 45 79 46 30 47 82 48 76 49 75 50 31 52 63 53 43 54
REMARK SMILES IDX 62 55 44 56 47 57 61 58 80 59 45 60 46 61 60 63 81 64 48 65
REMARK SMILES IDX 32 66 33 67 41 68 34 69 35 70 39 71 42 72 36 73 37 74 40 75
REMARK SMILES IDX 38 76 64 77 65 78 73 79 66 80 67 81 71 82 74 83 68 84 69 85
REMARK SMILES IDX 72 86 70 87 49 88 50 89 58 90 51 91 52 92 56 93 59 94 53 95
REMARK SMILES IDX 54 96 57 97 55 98
REMARK H PARENT 7 18 79 51 47 62
REMARK Flexibility Score: inf
ROOT
ATOM      1  C   UNL A   1      31.767  29.863  25.702  1.00  0.00     0.202 C 
ENDROOT
BRANCH   1   2
ATOM      2  C   UNL A   1      32.213  28.980  26.879  1.00  0.00     0.261 C 
BRANCH   2   3
ATOM      3  O   UNL A   1      33.006  27.819  26.635  1.00  0.00    -0.463 OA
BRANCH   3   4
ATOM      4  C   UNL A   1      32.391  26.782  26.010  1.00  0.00     0.310 C 
ATOM      5  O   UNL A   1      31.245  26.418  26.230  1.00  0.00    -0.252 OA
BRANCH   4   6
ATOM      6  C   UNL A   1      33.320  26.074  25.045  1.00  0.00     0.119 C 
ATOM      7  C   UNL A   1      32.570  25.467  23.831  1.00  0.00     0.101 C 
ATOM      8  C   UNL A   1      33.111  24.012  23.818  1.00  0.00     0.029 C 
ATOM      9  C   UNL A   1      34.030  24.861  25.704  1.00  0.00     0.030 C 
ATOM     10  C   UNL A   1      34.640  23.926  23.581  1.00  0.00     0.009 C 
ATOM     11  C   UNL A   1      33.144  23.711  25.293  1.00  0.00    -0.064 C 
ATOM     12  C   UNL A   1      35.259  24.507  24.864  1.00  0.00     0.009 C 
ATOM     13  C   UNL A   1      32.656  22.656  25.965  1.00  0.00    -0.077 C 
ATOM     14  C   UNL A   1      33.014  22.345  27.391  1.00  0.00     0.039 C 
ATOM     15  C   UNL A   1      31.768  21.632  25.310  1.00  0.00     0.039 C 
BRANCH   7  16
ATOM     16  C   UNL A   1      32.810  26.157  22.491  1.00  0.00     0.228 C 
ATOM     17  N   UNL A   1      32.130  27.267  22.095  1.00  0.00    -0.326 N 
ATOM     18  H   UNL A   1      32.593  27.762  21.381  1.00  0.00     0.169 HD
ATOM     19  O   UNL A   1      33.666  25.738  21.704  1.00  0.00    -0.274 OA
BRANCH  17  20
ATOM     20  C   UNL A   1      30.921  27.863  22.473  1.00  0.00     0.041 A 
ATOM     21  C   UNL A   1      28.544  29.236  23.131  1.00  0.00     0.119 A 
ATOM     22  C   UNL A   1      28.662  27.868  23.365  1.00  0.00     0.048 A 
ATOM     23  C   UNL A   1      29.612  29.909  22.543  1.00  0.00     0.048 A 
ATOM     24  C   UNL A   1      29.840  27.181  23.019  1.00  0.00     0.030 A 
ATOM     25  C   UNL A   1      30.780  29.227  22.197  1.00  0.00     0.030 A 
BRANCH  21  26
ATOM     26  O   UNL A   1      27.462  30.019  23.410  1.00  0.00    -0.497 OA
ATOM     27  C   UNL A   1      27.651  31.426  23.476  1.00  0.00     0.278 C 
ENDBRANCH  21  26
ENDBRANCH  17  20
ENDBRANCH   7  16
ENDBRANCH   4   6
ENDBRANCH   3   4
ENDBRANCH   2   3
ENDBRANCH   1   2
BRANCH   1  28
ATOM     28  O   UNL A   1      31.378  31.210  25.893  1.00  0.00    -0.374 OA
BRANCH  28  29
ATOM     29  C   UNL A   1      31.766  31.896  27.072  1.00  0.00     0.202 C 
BRANCH  29  30
ATOM     30  C   UNL A   1      32.161  33.366  26.948  1.00  0.00     0.261 C 
BRANCH  30  31
ATOM     31  O   UNL A   1      32.496  33.955  28.218  1.00  0.00    -0.460 OA
BRANCH  31  32
ATOM     32  C   UNL A   1      33.689  34.586  28.256  1.00  0.00     0.338 C 
ATOM     33  O   UNL A   1      33.901  35.788  28.122  1.00  0.00    -0.246 OA
BRANCH  32  34
ATOM     34  C   UNL A   1      34.754  33.649  28.636  1.00  0.00     0.060 A 
ATOM     35  C   UNL A   1      34.412  32.560  29.449  1.00  0.00     0.016 A 
ATOM     36  C   UNL A   1      36.087  33.892  28.297  1.00  0.00     0.016 A 
ATOM     37  C   UNL A   1      35.409  31.728  29.958  1.00  0.00     0.010 A 
ATOM     38  C   UNL A   1      37.087  33.066  28.825  1.00  0.00     0.010 A 
ATOM     39  C   UNL A   1      36.754  31.999  29.680  1.00  0.00    -0.014 A 
BRANCH  39  40
ATOM     40  C   UNL A   1      37.821  31.244  30.382  1.00  0.00     0.031 A 
ATOM     41  C   UNL A   1      38.136  31.573  31.814  1.00  0.00     0.074 A 
ATOM     42  C   UNL A   1      38.500  30.269  29.752  1.00  0.00     0.049 A 
ATOM     43  N   UNL A   1      39.073  31.094  32.592  1.00  0.00    -0.248 NA
ATOM     44  C   UNL A   1      37.275  32.578  32.459  1.00  0.00     0.031 C 
ATOM     45  C   UNL A   1      38.258  29.824  28.382  1.00  0.00     0.029 A 
ATOM     46  N   UNL A   1      39.547  29.491  30.180  1.00  0.00    -0.354 N 
ATOM     47  C   UNL A   1      38.922  31.741  33.811  1.00  0.00     0.074 A 
ATOM     48  C   UNL A   1      37.813  32.660  33.667  1.00  0.00     0.031 C 
ATOM     49  C   UNL A   1      39.150  28.869  28.071  1.00  0.00     0.029 A 
ATOM     50  C   UNL A   1      40.048  28.663  29.206  1.00  0.00     0.049 A 
ATOM     51  H   UNL A   1      39.905  29.523  31.097  1.00  0.00     0.167 HD
ATOM     52  C   UNL A   1      39.643  31.579  34.946  1.00  0.00     0.037 A 
ATOM     53  C   UNL A   1      41.131  27.860  29.218  1.00  0.00     0.037 A 
ATOM     54  C   UNL A   1      40.744  30.664  35.087  1.00  0.00     0.049 A 
ATOM     55  C   UNL A   1      41.975  27.770  30.464  1.00  0.00     0.074 A 
ATOM     56  C   UNL A   1      41.505  30.396  36.211  1.00  0.00     0.029 A 
ATOM     57  N   UNL A   1      41.252  29.877  34.064  1.00  0.00    -0.354 N 
ATOM     58  N   UNL A   1      41.803  28.355  31.624  1.00  0.00    -0.248 NA
ATOM     59  C   UNL A   1      43.169  26.914  30.399  1.00  0.00     0.031 C 
ATOM     60  C   UNL A   1      42.511  29.492  35.854  1.00  0.00     0.029 A 
ATOM     61  C   UNL A   1      42.346  29.159  34.519  1.00  0.00     0.049 A 
ATOM     62  H   UNL A   1      40.890  29.837  33.149  1.00  0.00     0.167 HD
ATOM     63  C   UNL A   1      42.852  27.930  32.428  1.00  0.00     0.074 A 
ATOM     64  C   UNL A   1      43.649  27.021  31.630  1.00  0.00     0.031 C 
ATOM     65  C   UNL A   1      43.133  28.262  33.713  1.00  0.00     0.037 A 
BRANCH  52  66
ATOM     66  C   UNL A   1      39.285  32.433  36.125  1.00  0.00     0.064 A 
ATOM     67  C   UNL A   1      38.382  31.996  37.106  1.00  0.00     0.173 A 
ATOM     68  C   UNL A   1      39.896  33.683  36.304  1.00  0.00     0.173 A 
ATOM     69  F   UNL A   1      37.764  30.813  36.975  1.00  0.00    -0.203 F 
ATOM     70  C   UNL A   1      38.090  32.789  38.213  1.00  0.00     0.198 A 
ATOM     71  C   UNL A   1      39.620  34.462  37.424  1.00  0.00     0.198 A 
ATOM     72  F   UNL A   1      40.771  34.143  35.398  1.00  0.00    -0.203 F 
ATOM     73  F   UNL A   1      37.198  32.368  39.120  1.00  0.00    -0.200 F 
ATOM     74  C   UNL A   1      38.714  34.018  38.375  1.00  0.00     0.200 A 
ATOM     75  F   UNL A   1      40.234  35.643  37.585  1.00  0.00    -0.200 F 
ATOM     76  F   UNL A   1      38.440  34.775  39.446  1.00  0.00    -0.200 F 
ENDBRANCH  52  66
BRANCH  53  77
ATOM     77  C   UNL A   1      41.511  27.111  27.992  1.00  0.00     0.064 A 
ATOM     78  C   UNL A   1      41.121  25.778  27.806  1.00  0.00     0.173 A 
ATOM     79  C   UNL A   1      42.292  27.709  26.992  1.00  0.00     0.173 A 
ATOM     80  F   UNL A   1      40.399  25.155  28.748  1.00  0.00    -0.203 F 
ATOM     81  C   UNL A   1      41.510  25.067  26.671  1.00  0.00     0.198 A 
ATOM     82  C   UNL A   1      42.656  27.006  25.846  1.00  0.00     0.198 A 
ATOM     83  F   UNL A   1      42.696  28.981  27.125  1.00  0.00    -0.203 F 
ATOM     84  F   UNL A   1      41.161  23.780  26.539  1.00  0.00    -0.200 F 
ATOM     85  C   UNL A   1      42.271  25.684  25.690  1.00  0.00     0.200 A 
ATOM     86  F   UNL A   1      43.383  27.610  24.896  1.00  0.00    -0.200 F 
ATOM     87  F   UNL A   1      42.642  25.001  24.598  1.00  0.00    -0.200 F 
ENDBRANCH  53  77
BRANCH  65  88
ATOM     88  C   UNL A   1      44.344  27.640  34.342  1.00  0.00     0.064 A 
ATOM     89  C   UNL A   1      45.580  28.302  34.358  1.00  0.00     0.173 A 
ATOM     90  C   UNL A   1      44.255  26.399  34.991  1.00  0.00     0.173 A 
ATOM     91  F   UNL A   1      45.722  29.482  33.737  1.00  0.00    -0.203 F 
ATOM     92  C   UNL A   1      46.687  27.738  34.989  1.00  0.00     0.198 A 
ATOM     93  C   UNL A   1      45.356  25.851  35.644  1.00  0.00     0.198 A 
ATOM     94  F   UNL A   1      43.093  25.729  35.010  1.00  0.00    -0.203 F 
ATOM     95  F   UNL A   1      47.867  28.372  34.962  1.00  0.00    -0.200 F 
ATOM     96  C   UNL A   1      46.571  26.518  35.639  1.00  0.00     0.200 A 
ATOM     97  F   UNL A   1      45.237  24.679  36.284  1.00  0.00    -0.200 F 
ATOM     98  F   UNL A   1      47.632  25.984  36.258  1.00  0.00    -0.200 F 
ENDBRANCH  65  88
ENDBRANCH  39  40
ENDBRANCH  32  34
ENDBRANCH  31  32
ENDBRANCH  30  31
ENDBRANCH  29  30
ENDBRANCH  28  29
ENDBRANCH   1  28
TORSDOF 17
ENDMDL
MODEL 3
REMARK VINA RESULT:     -12.3      4.703     10.440
REMARK SMILES COc1ccc(NC(=O)[C@@H]2[C@@H](C(=O)OCCOCCOC(=O)c3ccc(-c4c5nc(c(-c6c(F)c(F)c(F)c(F)c6F)c6ccc([nH]6)c(-c6c(F)c(F)c(F)c(F)c6F)c6nc(c(-c7c(F)c(F)c(F)c(F)c7F)c7ccc4[nH]7)C=C6)C=C5)cc3)[C@@H]3CC[C@H]2C3=C(C)C)cc1
REMARK SMILES IDX 16 1 15 2 14 3 12 4 13 5 11 6 10 7 89 8 86 9 88 10 90 11
REMARK SMILES IDX 87 12 91 13 92 14 93 15 8 16 7 17 9 19 6 20 3 21 4 22 95 23
REMARK SMILES IDX 5 24 94 25 2 26 1 27 17 28 18 29 19 30 20 31 21 32 22 33
REMARK SMILES IDX 23 34 24 35 85 36 25 37 84 38 26 39 27 40 28 41 78 42 29 43
REMARK SMILES IDX 83 44 77 45 79 46 30 47 82 48 76 49 75 50 31 52 63 53 43 54
REMARK SMILES IDX 62 55 44 56 47 57 61 58 80 59 45 60 46 61 60 63 81 64 48 65
REMARK SMILES IDX 32 66 33 67 41 68 34 69 35 70 39 71 42 72 36 73 37 74 40 75
REMARK SMILES IDX 38 76 64 77 65 78 73 79 66 80 67 81 71 82 74 83 68 84 69 85
REMARK SMILES IDX 72 86 70 87 49 88 50 89 58 90 51 91 52 92 56 93 59 94 53 95
REMARK SMILES IDX 54 96 57 97 55 98
REMARK H PARENT 7 18 79 51 47 62
REMARK Flexibility Score: inf
ROOT
ATOM      1  C   UNL A   1      34.399  18.218  24.241  1.00  0.00     0.202 C 
ENDROOT
BRANCH   1   2
ATOM      2  C   UNL A   1      33.104  18.315  25.065  1.00  0.00     0.261 C 
BRANCH   2   3
ATOM      3  O   UNL A   1      32.843  19.483  25.842  1.00  0.00    -0.463 OA
BRANCH   3   4
ATOM      4  C   UNL A   1      32.407  20.578  25.167  1.00  0.00     0.310 C 
ATOM      5  O   UNL A   1      31.902  20.553  24.054  1.00  0.00    -0.252 OA
BRANCH   4   6
ATOM      6  C   UNL A   1      32.683  21.858  25.929  1.00  0.00     0.119 C 
ATOM      7  C   UNL A   1      31.777  23.031  25.473  1.00  0.00     0.101 C 
ATOM      8  C   UNL A   1      32.815  24.159  25.230  1.00  0.00     0.029 C 
ATOM      9  C   UNL A   1      34.127  22.375  25.695  1.00  0.00     0.030 C 
ATOM     10  C   UNL A   1      33.592  24.567  26.508  1.00  0.00     0.009 C 
ATOM     11  C   UNL A   1      33.932  23.380  24.588  1.00  0.00    -0.064 C 
ATOM     12  C   UNL A   1      34.479  23.349  26.821  1.00  0.00     0.009 C 
ATOM     13  C   UNL A   1      34.613  23.629  23.457  1.00  0.00    -0.077 C 
ATOM     14  C   UNL A   1      35.891  22.929  23.088  1.00  0.00     0.039 C 
ATOM     15  C   UNL A   1      34.195  24.708  22.494  1.00  0.00     0.039 C 
BRANCH   7  16
ATOM     16  C   UNL A   1      30.709  23.470  26.471  1.00  0.00     0.228 C 
ATOM     17  N   UNL A   1      29.940  24.579  26.296  1.00  0.00    -0.326 N 
ATOM     18  H   UNL A   1      29.117  24.560  26.836  1.00  0.00     0.169 HD
ATOM     19  O   UNL A   1      30.480  22.808  27.489  1.00  0.00    -0.274 OA
BRANCH  17  20
ATOM     20  C   UNL A   1      30.056  25.740  25.524  1.00  0.00     0.041 A 
ATOM     21  C   UNL A   1      30.435  28.147  24.099  1.00  0.00     0.119 A 
ATOM     22  C   UNL A   1      29.683  27.111  23.554  1.00  0.00     0.048 A 
ATOM     23  C   UNL A   1      31.019  27.965  25.350  1.00  0.00     0.048 A 
ATOM     24  C   UNL A   1      29.510  25.904  24.256  1.00  0.00     0.030 A 
ATOM     25  C   UNL A   1      30.851  26.766  26.047  1.00  0.00     0.030 A 
BRANCH  21  26
ATOM     26  O   UNL A   1      30.687  29.360  23.527  1.00  0.00    -0.497 OA
ATOM     27  C   UNL A   1      29.586  30.216  23.255  1.00  0.00     0.278 C 
ENDBRANCH  21  26
ENDBRANCH  17  20
ENDBRANCH   7  16
ENDBRANCH   4   6
ENDBRANCH   3   4
ENDBRANCH   2   3
ENDBRANCH   1   2
BRANCH   1  28
ATOM     28  O   UNL A   1      35.669  18.421  24.830  1.00  0.00    -0.374 OA
BRANCH  28  29
ATOM     29  C   UNL A   1      36.171  19.739  24.985  1.00  0.00     0.202 C 
BRANCH  29  30
ATOM     30  C   UNL A   1      37.670  19.959  24.796  1.00  0.00     0.261 C 
BRANCH  30  31
ATOM     31  O   UNL A   1      38.157  21.094  25.537  1.00  0.00    -0.460 OA
BRANCH  31  32
ATOM     32  C   UNL A   1      39.354  20.915  26.134  1.00  0.00     0.338 C 
ATOM     33  O   UNL A   1      40.047  19.901  26.126  1.00  0.00    -0.246 OA
BRANCH  32  34
ATOM     34  C   UNL A   1      39.836  22.177  26.710  1.00  0.00     0.060 A 
ATOM     35  C   UNL A   1      39.340  23.374  26.175  1.00  0.00     0.016 A 
ATOM     36  C   UNL A   1      40.840  22.194  27.680  1.00  0.00     0.016 A 
ATOM     37  C   UNL A   1      39.875  24.595  26.584  1.00  0.00     0.010 A 
ATOM     38  C   UNL A   1      41.387  23.421  28.075  1.00  0.00     0.010 A 
ATOM     39  C   UNL A   1      40.927  24.624  27.508  1.00  0.00    -0.014 A 
BRANCH  39  40
ATOM     40  C   UNL A   1      41.631  25.899  27.789  1.00  0.00     0.031 A 
ATOM     41  C   UNL A   1      40.909  26.991  28.528  1.00  0.00     0.074 A 
ATOM     42  C   UNL A   1      42.903  26.083  27.393  1.00  0.00     0.049 A 
ATOM     43  N   UNL A   1      41.305  28.206  28.813  1.00  0.00    -0.248 NA
ATOM     44  C   UNL A   1      39.559  26.669  29.017  1.00  0.00     0.031 C 
ATOM     45  C   UNL A   1      43.724  25.086  26.711  1.00  0.00     0.029 A 
ATOM     46  N   UNL A   1      43.719  27.182  27.495  1.00  0.00    -0.354 N 
ATOM     47  C   UNL A   1      40.255  28.795  29.504  1.00  0.00     0.074 A 
ATOM     48  C   UNL A   1      39.196  27.811  29.583  1.00  0.00     0.031 C 
ATOM     49  C   UNL A   1      44.921  25.629  26.429  1.00  0.00     0.029 A 
ATOM     50  C   UNL A   1      44.935  27.020  26.878  1.00  0.00     0.049 A 
ATOM     51  H   UNL A   1      43.457  28.008  27.964  1.00  0.00     0.167 HD
ATOM     52  C   UNL A   1      40.184  30.042  30.026  1.00  0.00     0.037 A 
ATOM     53  C   UNL A   1      45.928  27.907  26.666  1.00  0.00     0.037 A 
ATOM     54  C   UNL A   1      41.238  31.018  29.947  1.00  0.00     0.049 A 
ATOM     55  C   UNL A   1      45.785  29.319  27.173  1.00  0.00     0.074 A 
ATOM     56  C   UNL A   1      41.276  32.292  30.486  1.00  0.00     0.029 A 
ATOM     57  N   UNL A   1      42.436  30.834  29.273  1.00  0.00    -0.354 N 
ATOM     58  N   UNL A   1      44.805  29.856  27.858  1.00  0.00    -0.248 NA
ATOM     59  C   UNL A   1      46.882  30.250  26.869  1.00  0.00     0.031 C 
ATOM     60  C   UNL A   1      42.471  32.900  30.089  1.00  0.00     0.029 A 
ATOM     61  C   UNL A   1      43.200  31.987  29.344  1.00  0.00     0.049 A 
ATOM     62  H   UNL A   1      42.702  30.006  28.811  1.00  0.00     0.167 HD
ATOM     63  C   UNL A   1      45.172  31.178  28.080  1.00  0.00     0.074 A 
ATOM     64  C   UNL A   1      46.473  31.358  27.472  1.00  0.00     0.031 C 
ATOM     65  C   UNL A   1      44.491  32.155  28.728  1.00  0.00     0.037 A 
BRANCH  52  66
ATOM     66  C   UNL A   1      38.909  30.440  30.707  1.00  0.00     0.064 A 
ATOM     67  C   UNL A   1      38.769  30.390  32.102  1.00  0.00     0.173 A 
ATOM     68  C   UNL A   1      37.830  30.931  29.955  1.00  0.00     0.173 A 
ATOM     69  F   UNL A   1      39.768  29.918  32.863  1.00  0.00    -0.203 F 
ATOM     70  C   UNL A   1      37.588  30.797  32.718  1.00  0.00     0.198 A 
ATOM     71  C   UNL A   1      36.660  31.361  30.577  1.00  0.00     0.198 A 
ATOM     72  F   UNL A   1      37.915  31.005  28.619  1.00  0.00    -0.203 F 
ATOM     73  F   UNL A   1      37.464  30.708  34.049  1.00  0.00    -0.200 F 
ATOM     74  C   UNL A   1      36.539  31.290  31.956  1.00  0.00     0.200 A 
ATOM     75  F   UNL A   1      35.652  31.847  29.840  1.00  0.00    -0.200 F 
ATOM     76  F   UNL A   1      35.408  31.691  32.551  1.00  0.00    -0.200 F 
ENDBRANCH  52  66
BRANCH  53  77
ATOM     77  C   UNL A   1      47.131  27.499  25.894  1.00  0.00     0.064 A 
ATOM     78  C   UNL A   1      48.268  26.989  26.536  1.00  0.00     0.173 A 
ATOM     79  C   UNL A   1      47.175  27.634  24.498  1.00  0.00     0.173 A 
ATOM     80  F   UNL A   1      48.284  26.871  27.871  1.00  0.00    -0.203 F 
ATOM     81  C   UNL A   1      49.407  26.643  25.812  1.00  0.00     0.198 A 
ATOM     82  C   UNL A   1      48.304  27.260  23.774  1.00  0.00     0.198 A 
ATOM     83  F   UNL A   1      46.115  28.122  23.836  1.00  0.00    -0.203 F 
ATOM     84  F   UNL A   1      50.497  26.200  26.455  1.00  0.00    -0.200 F 
ATOM     85  C   UNL A   1      49.422  26.772  24.431  1.00  0.00     0.200 A 
ATOM     86  F   UNL A   1      48.309  27.377  22.439  1.00  0.00    -0.200 F 
ATOM     87  F   UNL A   1      50.517  26.436  23.736  1.00  0.00    -0.200 F 
ENDBRANCH  53  77
BRANCH  65  88
ATOM     88  C   UNL A   1      45.137  33.506  28.823  1.00  0.00     0.064 A 
ATOM     89  C   UNL A   1      46.102  33.787  29.800  1.00  0.00     0.173 A 
ATOM     90  C   UNL A   1      44.835  34.509  27.890  1.00  0.00     0.173 A 
ATOM     91  F   UNL A   1      46.414  32.868  30.725  1.00  0.00    -0.203 F 
ATOM     92  C   UNL A   1      46.732  35.028  29.848  1.00  0.00     0.198 A 
ATOM     93  C   UNL A   1      45.486  35.740  27.923  1.00  0.00     0.198 A 
ATOM     94  F   UNL A   1      43.923  34.288  26.931  1.00  0.00    -0.203 F 
ATOM     95  F   UNL A   1      47.627  35.287  30.811  1.00  0.00    -0.200 F 
ATOM     96  C   UNL A   1      46.430  36.000  28.904  1.00  0.00     0.200 A 
ATOM     97  F   UNL A   1      45.203  36.671  27.002  1.00  0.00    -0.200 F 
ATOM     98  F   UNL A   1      47.048  37.188  28.943  1.00  0.00    -0.200 F 
ENDBRANCH  65  88
ENDBRANCH  39  40
ENDBRANCH  32  34
ENDBRANCH  31  32
ENDBRANCH  30  31
ENDBRANCH  29  30
ENDBRANCH  28  29
ENDBRANCH   1  28
TORSDOF 17
ENDMDL
