MODEL 1
REMARK VINA RESULT:     -11.1      0.000      0.000
REMARK SMILES C[N@H+]1CC[C@@H](Cc2nccnc2C(=O)OCCOCCOC(=O)c2ccc(-c3c4nc(c(-c5c(F)c(F)c(F)c(F)c5F)c5ccc([nH]5)c(-c5c(F)c(F)c(F)c(F)c5F)c5nc(c(-c6c(F)c(F)c(F)c(F)c6F)c6ccc3[nH]6)C=C5)C=C4)cc2)C1
REMARK SMILES IDX 18 1 17 2 16 3 15 4 13 5 14 6 12 7 7 8 8 9 9 10 11 11 10 12
REMARK SMILES IDX 6 13 5 14 1 15 2 16 3 17 87 18 4 20 19 21 20 22 21 23 22 24
REMARK SMILES IDX 23 25 24 26 25 27 86 28 26 29 85 30 27 31 28 32 29 33 79 34
REMARK SMILES IDX 30 35 84 36 78 37 80 38 31 39 83 40 77 41 76 42 32 44 64 45
REMARK SMILES IDX 44 46 63 47 45 48 48 49 62 50 81 51 46 52 47 53 61 55 82 56
REMARK SMILES IDX 49 57 33 58 34 59 42 60 35 61 36 62 40 63 43 64 37 65 38 66
REMARK SMILES IDX 41 67 39 68 65 69 66 70 74 71 67 72 68 73 72 74 75 75 69 76
REMARK SMILES IDX 70 77 73 78 71 79 50 80 51 81 59 82 52 83 53 84 57 85 60 86
REMARK SMILES IDX 54 87 55 88 58 89 56 90
REMARK H PARENT 2 19 80 43 48 54
REMARK Flexibility Score: inf
ROOT
ATOM      1  O   UNL A   1      36.991  20.738  25.584  1.00  0.00    -0.374 OA
ENDROOT
BRANCH   1   2
ATOM      2  C   UNL A   1      36.818  22.155  25.539  1.00  0.00     0.202 C 
BRANCH   2   3
ATOM      3  C   UNL A   1      36.308  22.701  24.206  1.00  0.00     0.261 C 
BRANCH   3   4
ATOM      4  O   UNL A   1      35.148  23.521  24.438  1.00  0.00    -0.458 OA
BRANCH   4   5
ATOM      5  C   UNL A   1      34.074  23.272  23.652  1.00  0.00     0.358 C 
ATOM      6  O   UNL A   1      34.105  23.201  22.431  1.00  0.00    -0.244 OA
BRANCH   5   7
ATOM      7  C   UNL A   1      32.856  22.941  24.461  1.00  0.00     0.169 A 
ATOM      8  C   UNL A   1      32.279  21.676  24.636  1.00  0.00     0.074 A 
ATOM      9  N   UNL A   1      31.201  21.524  25.465  1.00  0.00    -0.257 NA
ATOM     10  C   UNL A   1      30.689  22.628  26.044  1.00  0.00     0.131 A 
ATOM     11  N   UNL A   1      32.310  24.054  25.045  1.00  0.00    -0.246 NA
ATOM     12  C   UNL A   1      31.225  23.874  25.824  1.00  0.00     0.132 A 
BRANCH   8  13
ATOM     13  C   UNL A   1      32.757  20.384  24.015  1.00  0.00     0.068 C 
BRANCH  13  14
ATOM     14  C   UNL A   1      33.417  19.426  25.031  1.00  0.00     0.056 C 
ATOM     15  C   UNL A   1      32.714  15.890  25.768  1.00  0.00     0.332 C 
ATOM     16  N   UNL A   1      33.412  17.161  25.658  1.00  0.00    -0.337 N 
ATOM     17  C   UNL A   1      34.316  17.241  24.516  1.00  0.00     0.262 C 
ATOM     18  C   UNL A   1      32.490  18.280  25.462  1.00  0.00     0.266 C 
ATOM     19  H   UNL A   1      33.924  17.218  26.538  1.00  0.00     0.347 HD
ATOM     20  C   UNL A   1      34.659  18.721  24.462  1.00  0.00     0.071 C 
ENDBRANCH  13  14
ENDBRANCH   8  13
ENDBRANCH   5   7
ENDBRANCH   4   5
ENDBRANCH   3   4
ENDBRANCH   2   3
ENDBRANCH   1   2
BRANCH   1  21
ATOM     21  C   UNL A   1      38.086  20.201  24.840  1.00  0.00     0.202 C 
BRANCH  21  22
ATOM     22  C   UNL A   1      39.166  19.501  25.673  1.00  0.00     0.261 C 
BRANCH  22  23
ATOM     23  O   UNL A   1      40.339  20.318  25.843  1.00  0.00    -0.460 OA
BRANCH  23  24
ATOM     24  C   UNL A   1      40.797  20.433  27.114  1.00  0.00     0.338 C 
ATOM     25  O   UNL A   1      41.116  19.537  27.879  1.00  0.00    -0.246 OA
BRANCH  24  26
ATOM     26  C   UNL A   1      41.006  21.861  27.409  1.00  0.00     0.060 A 
ATOM     27  C   UNL A   1      40.261  22.821  26.715  1.00  0.00     0.016 A 
ATOM     28  C   UNL A   1      41.948  22.254  28.355  1.00  0.00     0.016 A 
ATOM     29  C   UNL A   1      40.474  24.181  26.960  1.00  0.00     0.010 A 
ATOM     30  C   UNL A   1      42.119  23.609  28.641  1.00  0.00     0.010 A 
ATOM     31  C   UNL A   1      41.419  24.588  27.914  1.00  0.00    -0.014 A 
BRANCH  31  32
ATOM     32  C   UNL A   1      41.831  26.013  28.042  1.00  0.00     0.031 A 
ATOM     33  C   UNL A   1      43.160  26.427  27.459  1.00  0.00     0.074 A 
ATOM     34  C   UNL A   1      41.070  26.922  28.680  1.00  0.00     0.049 A 
ATOM     35  N   UNL A   1      43.805  27.560  27.566  1.00  0.00    -0.248 NA
ATOM     36  C   UNL A   1      43.875  25.405  26.676  1.00  0.00     0.031 C 
ATOM     37  C   UNL A   1      39.763  26.666  29.283  1.00  0.00     0.029 A 
ATOM     38  N   UNL A   1      41.303  28.252  28.939  1.00  0.00    -0.354 N 
ATOM     39  C   UNL A   1      45.012  27.369  26.904  1.00  0.00     0.074 A 
ATOM     40  C   UNL A   1      45.035  25.998  26.449  1.00  0.00     0.031 C 
ATOM     41  C   UNL A   1      39.306  27.803  29.835  1.00  0.00     0.029 A 
ATOM     42  C   UNL A   1      40.304  28.857  29.664  1.00  0.00     0.049 A 
ATOM     43  H   UNL A   1      42.109  28.726  28.633  1.00  0.00     0.167 HD
ATOM     44  C   UNL A   1      46.003  28.261  26.669  1.00  0.00     0.037 A 
ATOM     45  C   UNL A   1      40.218  30.112  30.151  1.00  0.00     0.037 A 
ATOM     46  C   UNL A   1      45.957  29.639  27.076  1.00  0.00     0.049 A 
ATOM     47  C   UNL A   1      41.346  31.084  29.898  1.00  0.00     0.074 A 
ATOM     48  C   UNL A   1      46.886  30.637  26.843  1.00  0.00     0.029 A 
ATOM     49  N   UNL A   1      44.921  30.215  27.795  1.00  0.00    -0.354 N 
ATOM     50  N   UNL A   1      42.468  30.904  29.244  1.00  0.00    -0.248 NA
ATOM     51  C   UNL A   1      41.190  32.439  30.449  1.00  0.00     0.031 C 
ATOM     52  C   UNL A   1      46.438  31.804  27.468  1.00  0.00     0.029 A 
ATOM     53  C   UNL A   1      45.198  31.551  28.032  1.00  0.00     0.049 A 
ATOM     54  H   UNL A   1      44.110  29.743  28.095  1.00  0.00     0.167 HD
ATOM     55  C   UNL A   1      43.128  32.127  29.269  1.00  0.00     0.074 A 
ATOM     56  C   UNL A   1      42.280  33.044  29.999  1.00  0.00     0.031 C 
ATOM     57  C   UNL A   1      44.330  32.460  28.734  1.00  0.00     0.037 A 
BRANCH  44  58
ATOM     58  C   UNL A   1      47.223  27.770  25.943  1.00  0.00     0.064 A 
ATOM     59  C   UNL A   1      47.299  27.760  24.542  1.00  0.00     0.173 A 
ATOM     60  C   UNL A   1      48.341  27.321  26.661  1.00  0.00     0.173 A 
ATOM     61  F   UNL A   1      46.252  28.166  23.805  1.00  0.00    -0.203 F 
ATOM     62  C   UNL A   1      48.431  27.282  23.887  1.00  0.00     0.198 A 
ATOM     63  C   UNL A   1      49.487  26.880  26.005  1.00  0.00     0.198 A 
ATOM     64  F   UNL A   1      48.326  27.312  28.003  1.00  0.00    -0.203 F 
ATOM     65  F   UNL A   1      48.453  27.222  22.548  1.00  0.00    -0.200 F 
ATOM     66  C   UNL A   1      49.527  26.850  24.618  1.00  0.00     0.200 A 
ATOM     67  F   UNL A   1      50.551  26.479  26.713  1.00  0.00    -0.200 F 
ATOM     68  F   UNL A   1      50.619  26.398  23.988  1.00  0.00    -0.200 F 
ENDBRANCH  44  58
BRANCH  45  69
ATOM     69  C   UNL A   1      39.020  30.535  30.925  1.00  0.00     0.064 A 
ATOM     70  C   UNL A   1      37.911  31.107  30.283  1.00  0.00     0.173 A 
ATOM     71  C   UNL A   1      38.965  30.405  32.320  1.00  0.00     0.173 A 
ATOM     72  F   UNL A   1      37.923  31.278  28.953  1.00  0.00    -0.203 F 
ATOM     73  C   UNL A   1      36.809  31.556  31.008  1.00  0.00     0.198 A 
ATOM     74  C   UNL A   1      37.849  30.825  33.042  1.00  0.00     0.198 A 
ATOM     75  F   UNL A   1      39.998  29.865  32.985  1.00  0.00    -0.203 F 
ATOM     76  F   UNL A   1      35.788  32.150  30.374  1.00  0.00    -0.200 F 
ATOM     77  C   UNL A   1      36.776  31.409  32.386  1.00  0.00     0.200 A 
ATOM     78  F   UNL A   1      37.815  30.667  34.372  1.00  0.00    -0.200 F 
ATOM     79  F   UNL A   1      35.715  31.838  33.084  1.00  0.00    -0.200 F 
ENDBRANCH  45  69
BRANCH  57  80
ATOM     80  C   UNL A   1      44.776  33.890  28.850  1.00  0.00     0.064 A 
ATOM     81  C   UNL A   1      44.421  34.859  27.900  1.00  0.00     0.173 A 
ATOM     82  C   UNL A   1      45.516  34.307  29.968  1.00  0.00     0.173 A 
ATOM     83  F   UNL A   1      43.724  34.511  26.808  1.00  0.00    -0.203 F 
ATOM     84  C   UNL A   1      44.811  36.188  28.055  1.00  0.00     0.198 A 
ATOM     85  C   UNL A   1      45.874  35.641  30.136  1.00  0.00     0.198 A 
ATOM     86  F   UNL A   1      45.873  33.422  30.912  1.00  0.00    -0.203 F 
ATOM     87  F   UNL A   1      44.498  37.089  27.114  1.00  0.00    -0.200 F 
ATOM     88  C   UNL A   1      45.527  36.579  29.177  1.00  0.00     0.200 A 
ATOM     89  F   UNL A   1      46.548  36.020  31.231  1.00  0.00    -0.200 F 
ATOM     90  F   UNL A   1      45.886  37.861  29.331  1.00  0.00    -0.200 F 
ENDBRANCH  57  80
ENDBRANCH  31  32
ENDBRANCH  24  26
ENDBRANCH  23  24
ENDBRANCH  22  23
ENDBRANCH  21  22
ENDBRANCH   1  21
TORSDOF 16
ENDMDL
MODEL 2
REMARK VINA RESULT:     -11.0      0.329      2.000
REMARK SMILES C[N@H+]1CC[C@@H](Cc2nccnc2C(=O)OCCOCCOC(=O)c2ccc(-c3c4nc(c(-c5c(F)c(F)c(F)c(F)c5F)c5ccc([nH]5)c(-c5c(F)c(F)c(F)c(F)c5F)c5nc(c(-c6c(F)c(F)c(F)c(F)c6F)c6ccc3[nH]6)C=C5)C=C4)cc2)C1
REMARK SMILES IDX 18 1 17 2 16 3 15 4 13 5 14 6 12 7 7 8 8 9 9 10 11 11 10 12
REMARK SMILES IDX 6 13 5 14 1 15 2 16 3 17 87 18 4 20 19 21 20 22 21 23 22 24
REMARK SMILES IDX 23 25 24 26 25 27 86 28 26 29 85 30 27 31 28 32 29 33 79 34
REMARK SMILES IDX 30 35 84 36 78 37 80 38 31 39 83 40 77 41 76 42 32 44 64 45
REMARK SMILES IDX 44 46 63 47 45 48 48 49 62 50 81 51 46 52 47 53 61 55 82 56
REMARK SMILES IDX 49 57 33 58 34 59 42 60 35 61 36 62 40 63 43 64 37 65 38 66
REMARK SMILES IDX 41 67 39 68 65 69 66 70 74 71 67 72 68 73 72 74 75 75 69 76
REMARK SMILES IDX 70 77 73 78 71 79 50 80 51 81 59 82 52 83 53 84 57 85 60 86
REMARK SMILES IDX 54 87 55 88 58 89 56 90
REMARK H PARENT 2 19 80 43 48 54
REMARK Flexibility Score: inf
ROOT
ATOM      1  O   UNL A   1      37.350  21.071  25.451  1.00  0.00    -0.374 OA
ENDROOT
BRANCH   1   2
ATOM      2  C   UNL A   1      36.939  22.058  24.505  1.00  0.00     0.202 C 
BRANCH   2   3
ATOM      3  C   UNL A   1      35.441  22.360  24.495  1.00  0.00     0.261 C 
BRANCH   3   4
ATOM      4  O   UNL A   1      35.111  23.106  23.309  1.00  0.00    -0.458 OA
BRANCH   4   5
ATOM      5  C   UNL A   1      33.833  23.003  22.875  1.00  0.00     0.358 C 
ATOM      6  O   UNL A   1      33.496  22.979  21.700  1.00  0.00    -0.244 OA
BRANCH   5   7
ATOM      7  C   UNL A   1      32.877  22.769  24.007  1.00  0.00     0.169 A 
ATOM      8  C   UNL A   1      32.407  21.533  24.470  1.00  0.00     0.074 A 
ATOM      9  N   UNL A   1      31.586  21.479  25.564  1.00  0.00    -0.257 NA
ATOM     10  C   UNL A   1      31.206  22.644  26.126  1.00  0.00     0.131 A 
ATOM     11  N   UNL A   1      32.465  23.943  24.582  1.00  0.00    -0.246 NA
ATOM     12  C   UNL A   1      31.626  23.856  25.632  1.00  0.00     0.132 A 
BRANCH   8  13
ATOM     13  C   UNL A   1      32.750  20.177  23.899  1.00  0.00     0.068 C 
BRANCH  13  14
ATOM     14  C   UNL A   1      33.392  19.224  24.931  1.00  0.00     0.056 C 
ATOM     15  C   UNL A   1      32.674  15.692  25.671  1.00  0.00     0.332 C 
ATOM     16  N   UNL A   1      33.375  16.962  25.568  1.00  0.00    -0.337 N 
ATOM     17  C   UNL A   1      34.300  17.036  24.443  1.00  0.00     0.262 C 
ATOM     18  C   UNL A   1      32.457  18.080  25.351  1.00  0.00     0.266 C 
ATOM     19  H   UNL A   1      33.870  17.022  26.457  1.00  0.00     0.347 HD
ATOM     20  C   UNL A   1      34.643  18.516  24.388  1.00  0.00     0.071 C 
ENDBRANCH  13  14
ENDBRANCH   8  13
ENDBRANCH   5   7
ENDBRANCH   4   5
ENDBRANCH   3   4
ENDBRANCH   2   3
ENDBRANCH   1   2
BRANCH   1  21
ATOM     21  C   UNL A   1      37.944  19.884  24.923  1.00  0.00     0.202 C 
BRANCH  21  22
ATOM     22  C   UNL A   1      39.234  19.430  25.615  1.00  0.00     0.261 C 
BRANCH  22  23
ATOM     23  O   UNL A   1      40.137  20.524  25.858  1.00  0.00    -0.460 OA
BRANCH  23  24
ATOM     24  C   UNL A   1      40.630  20.613  27.118  1.00  0.00     0.338 C 
ATOM     25  O   UNL A   1      40.950  19.701  27.863  1.00  0.00    -0.246 OA
BRANCH  24  26
ATOM     26  C   UNL A   1      40.874  22.032  27.426  1.00  0.00     0.060 A 
ATOM     27  C   UNL A   1      40.119  23.015  26.778  1.00  0.00     0.016 A 
ATOM     28  C   UNL A   1      41.861  22.394  28.339  1.00  0.00     0.016 A 
ATOM     29  C   UNL A   1      40.364  24.367  27.035  1.00  0.00     0.010 A 
ATOM     30  C   UNL A   1      42.065  23.742  28.638  1.00  0.00     0.010 A 
ATOM     31  C   UNL A   1      41.353  24.743  27.956  1.00  0.00    -0.014 A 
BRANCH  31  32
ATOM     32  C   UNL A   1      41.794  26.159  28.088  1.00  0.00     0.031 A 
ATOM     33  C   UNL A   1      43.138  26.545  27.518  1.00  0.00     0.074 A 
ATOM     34  C   UNL A   1      41.047  27.084  28.720  1.00  0.00     0.049 A 
ATOM     35  N   UNL A   1      43.804  27.664  27.632  1.00  0.00    -0.248 NA
ATOM     36  C   UNL A   1      43.837  25.509  26.741  1.00  0.00     0.031 C 
ATOM     37  C   UNL A   1      39.730  26.855  29.310  1.00  0.00     0.029 A 
ATOM     38  N   UNL A   1      41.305  28.409  28.982  1.00  0.00    -0.354 N 
ATOM     39  C   UNL A   1      45.014  27.449  26.980  1.00  0.00     0.074 A 
ATOM     40  C   UNL A   1      45.012  26.077  26.525  1.00  0.00     0.031 C 
ATOM     41  C   UNL A   1      39.291  28.002  29.859  1.00  0.00     0.029 A 
ATOM     42  C   UNL A   1      40.313  29.035  29.698  1.00  0.00     0.049 A 
ATOM     43  H   UNL A   1      42.124  28.866  28.683  1.00  0.00     0.167 HD
ATOM     44  C   UNL A   1      46.025  28.320  26.755  1.00  0.00     0.037 A 
ATOM     45  C   UNL A   1      40.249  30.291  30.185  1.00  0.00     0.037 A 
ATOM     46  C   UNL A   1      46.005  29.698  27.163  1.00  0.00     0.049 A 
ATOM     47  C   UNL A   1      41.399  31.239  29.943  1.00  0.00     0.074 A 
ATOM     48  C   UNL A   1      46.957  30.676  26.939  1.00  0.00     0.029 A 
ATOM     49  N   UNL A   1      44.975  30.295  27.873  1.00  0.00    -0.354 N 
ATOM     50  N   UNL A   1      42.523  31.035  29.299  1.00  0.00    -0.248 NA
ATOM     51  C   UNL A   1      41.267  32.597  30.494  1.00  0.00     0.031 C 
ATOM     52  C   UNL A   1      46.528  31.852  27.561  1.00  0.00     0.029 A 
ATOM     53  C   UNL A   1      45.277  31.625  28.113  1.00  0.00     0.049 A 
ATOM     54  H   UNL A   1      44.151  29.841  28.164  1.00  0.00     0.167 HD
ATOM     55  C   UNL A   1      43.209  32.244  29.332  1.00  0.00     0.074 A 
ATOM     56  C   UNL A   1      42.374  33.179  30.054  1.00  0.00     0.031 C 
ATOM     57  C   UNL A   1      44.422  32.552  28.808  1.00  0.00     0.037 A 
BRANCH  44  58
ATOM     58  C   UNL A   1      47.241  27.803  26.040  1.00  0.00     0.064 A 
ATOM     59  C   UNL A   1      48.370  27.342  26.735  1.00  0.00     0.173 A 
ATOM     60  C   UNL A   1      47.270  27.751  24.639  1.00  0.00     0.173 A 
ATOM     61  F   UNL A   1      48.402  27.382  28.076  1.00  0.00    -0.203 F 
ATOM     62  C   UNL A   1      49.495  26.885  26.053  1.00  0.00     0.198 A 
ATOM     63  C   UNL A   1      48.381  27.258  23.961  1.00  0.00     0.198 A 
ATOM     64  F   UNL A   1      46.217  28.175  23.924  1.00  0.00    -0.203 F 
ATOM     65  F   UNL A   1      50.585  26.512  26.738  1.00  0.00    -0.200 F 
ATOM     66  C   UNL A   1      49.497  26.836  24.668  1.00  0.00     0.200 A 
ATOM     67  F   UNL A   1      48.374  27.195  22.622  1.00  0.00    -0.200 F 
ATOM     68  F   UNL A   1      50.577  26.389  24.013  1.00  0.00    -0.200 F 
ENDBRANCH  44  58
BRANCH  45  69
ATOM     69  C   UNL A   1      39.053  30.738  30.948  1.00  0.00     0.064 A 
ATOM     70  C   UNL A   1      38.974  30.557  32.338  1.00  0.00     0.173 A 
ATOM     71  C   UNL A   1      37.953  31.328  30.309  1.00  0.00     0.173 A 
ATOM     72  F   UNL A   1      39.987  29.973  32.994  1.00  0.00    -0.203 F 
ATOM     73  C   UNL A   1      37.834  30.923  33.050  1.00  0.00     0.198 A 
ATOM     74  C   UNL A   1      36.826  31.724  31.027  1.00  0.00     0.198 A 
ATOM     75  F   UNL A   1      37.975  31.526  28.982  1.00  0.00    -0.203 F 
ATOM     76  F   UNL A   1      37.764  30.685  34.368  1.00  0.00    -0.200 F 
ATOM     77  C   UNL A   1      36.763  31.512  32.396  1.00  0.00     0.200 A 
ATOM     78  F   UNL A   1      35.800  32.307  30.392  1.00  0.00    -0.200 F 
ATOM     79  F   UNL A   1      35.667  31.867  33.081  1.00  0.00    -0.200 F 
ENDBRANCH  45  69
BRANCH  57  80
ATOM     80  C   UNL A   1      44.897  33.972  28.929  1.00  0.00     0.064 A 
ATOM     81  C   UNL A   1      45.733  34.391  29.974  1.00  0.00     0.173 A 
ATOM     82  C   UNL A   1      44.561  34.912  27.940  1.00  0.00     0.173 A 
ATOM     83  F   UNL A   1      46.075  33.536  30.949  1.00  0.00    -0.203 F 
ATOM     84  C   UNL A   1      46.196  35.704  30.036  1.00  0.00     0.198 A 
ATOM     85  C   UNL A   1      45.054  36.212  27.988  1.00  0.00     0.198 A 
ATOM     86  F   UNL A   1      43.772  34.561  26.913  1.00  0.00    -0.203 F 
ATOM     87  F   UNL A   1      46.959  36.093  31.067  1.00  0.00    -0.200 F 
ATOM     88  C   UNL A   1      45.865  36.609  29.039  1.00  0.00     0.200 A 
ATOM     89  F   UNL A   1      44.748  37.080  27.013  1.00  0.00    -0.200 F 
ATOM     90  F   UNL A   1      46.325  37.867  29.094  1.00  0.00    -0.200 F 
ENDBRANCH  57  80
ENDBRANCH  31  32
ENDBRANCH  24  26
ENDBRANCH  23  24
ENDBRANCH  22  23
ENDBRANCH  21  22
ENDBRANCH   1  21
TORSDOF 16
ENDMDL
MODEL 3
REMARK VINA RESULT:     -10.9      5.086     10.782
REMARK SMILES C[N@H+]1CC[C@@H](Cc2nccnc2C(=O)OCCOCCOC(=O)c2ccc(-c3c4nc(c(-c5c(F)c(F)c(F)c(F)c5F)c5ccc([nH]5)c(-c5c(F)c(F)c(F)c(F)c5F)c5nc(c(-c6c(F)c(F)c(F)c(F)c6F)c6ccc3[nH]6)C=C5)C=C4)cc2)C1
REMARK SMILES IDX 18 1 17 2 16 3 15 4 13 5 14 6 12 7 7 8 8 9 9 10 11 11 10 12
REMARK SMILES IDX 6 13 5 14 1 15 2 16 3 17 87 18 4 20 19 21 20 22 21 23 22 24
REMARK SMILES IDX 23 25 24 26 25 27 86 28 26 29 85 30 27 31 28 32 29 33 79 34
REMARK SMILES IDX 30 35 84 36 78 37 80 38 31 39 83 40 77 41 76 42 32 44 64 45
REMARK SMILES IDX 44 46 63 47 45 48 48 49 62 50 81 51 46 52 47 53 61 55 82 56
REMARK SMILES IDX 49 57 33 58 34 59 42 60 35 61 36 62 40 63 43 64 37 65 38 66
REMARK SMILES IDX 41 67 39 68 65 69 66 70 74 71 67 72 68 73 72 74 75 75 69 76
REMARK SMILES IDX 70 77 73 78 71 79 50 80 51 81 59 82 52 83 53 84 57 85 60 86
REMARK SMILES IDX 54 87 55 88 58 89 56 90
REMARK H PARENT 2 19 80 43 48 54
REMARK Flexibility Score: inf
ROOT
ATOM      1  O   UNL A   1      32.050  30.891  26.894  1.00  0.00    -0.374 OA
ENDROOT
BRANCH   1   2
ATOM      2  C   UNL A   1      32.354  29.964  25.852  1.00  0.00     0.202 C 
BRANCH   2   3
ATOM      3  C   UNL A   1      33.599  29.110  26.090  1.00  0.00     0.261 C 
BRANCH   3   4
ATOM      4  O   UNL A   1      33.295  27.732  25.804  1.00  0.00    -0.458 OA
BRANCH   4   5
ATOM      5  C   UNL A   1      33.264  27.387  24.495  1.00  0.00     0.358 C 
ATOM      6  O   UNL A   1      33.950  27.901  23.623  1.00  0.00    -0.244 OA
BRANCH   5   7
ATOM      7  C   UNL A   1      32.396  26.188  24.256  1.00  0.00     0.169 A 
ATOM      8  C   UNL A   1      31.281  26.111  23.409  1.00  0.00     0.074 A 
ATOM      9  N   UNL A   1      30.628  24.919  23.244  1.00  0.00    -0.257 NA
ATOM     10  C   UNL A   1      31.054  23.861  23.963  1.00  0.00     0.131 A 
ATOM     11  N   UNL A   1      32.802  25.105  24.990  1.00  0.00    -0.246 NA
ATOM     12  C   UNL A   1      32.113  23.958  24.833  1.00  0.00     0.132 A 
BRANCH   8  13
ATOM     13  C   UNL A   1      30.709  27.239  22.583  1.00  0.00     0.068 C 
BRANCH  13  14
ATOM     14  C   UNL A   1      29.847  28.222  23.406  1.00  0.00     0.056 C 
ATOM     15  C   UNL A   1      28.637  31.595  22.568  1.00  0.00     0.332 C 
ATOM     16  N   UNL A   1      28.740  30.284  23.188  1.00  0.00    -0.337 N 
ATOM     17  C   UNL A   1      27.822  29.295  22.633  1.00  0.00     0.262 C 
ATOM     18  C   UNL A   1      30.063  29.688  23.001  1.00  0.00     0.266 C 
ATOM     19  H   UNL A   1      28.526  30.476  24.167  1.00  0.00     0.347 HD
ATOM     20  C   UNL A   1      28.340  27.991  23.218  1.00  0.00     0.071 C 
ENDBRANCH  13  14
ENDBRANCH   8  13
ENDBRANCH   5   7
ENDBRANCH   4   5
ENDBRANCH   3   4
ENDBRANCH   2   3
ENDBRANCH   1   2
BRANCH   1  21
ATOM     21  C   UNL A   1      31.399  32.102  26.506  1.00  0.00     0.202 C 
BRANCH  21  22
ATOM     22  C   UNL A   1      32.105  33.394  26.933  1.00  0.00     0.261 C 
BRANCH  22  23
ATOM     23  O   UNL A   1      33.073  33.169  27.974  1.00  0.00    -0.460 OA
BRANCH  23  24
ATOM     24  C   UNL A   1      34.224  33.878  27.870  1.00  0.00     0.338 C 
ATOM     25  O   UNL A   1      34.356  35.050  27.557  1.00  0.00    -0.246 OA
BRANCH  24  26
ATOM     26  C   UNL A   1      35.336  33.040  28.352  1.00  0.00     0.060 A 
ATOM     27  C   UNL A   1      35.111  31.682  28.606  1.00  0.00     0.016 A 
ATOM     28  C   UNL A   1      36.592  33.596  28.573  1.00  0.00     0.016 A 
ATOM     29  C   UNL A   1      36.148  30.883  29.097  1.00  0.00     0.010 A 
ATOM     30  C   UNL A   1      37.641  32.785  29.008  1.00  0.00     0.010 A 
ATOM     31  C   UNL A   1      37.419  31.432  29.319  1.00  0.00    -0.014 A 
BRANCH  31  32
ATOM     32  C   UNL A   1      38.476  30.677  30.046  1.00  0.00     0.031 A 
ATOM     33  C   UNL A   1      38.695  30.982  31.508  1.00  0.00     0.074 A 
ATOM     34  C   UNL A   1      39.249  29.761  29.432  1.00  0.00     0.049 A 
ATOM     35  N   UNL A   1      39.639  30.573  32.316  1.00  0.00    -0.248 NA
ATOM     36  C   UNL A   1      37.734  31.906  32.132  1.00  0.00     0.031 C 
ATOM     37  C   UNL A   1      39.144  29.360  28.031  1.00  0.00     0.029 A 
ATOM     38  N   UNL A   1      40.293  29.009  29.917  1.00  0.00    -0.354 N 
ATOM     39  C   UNL A   1      39.407  31.222  33.523  1.00  0.00     0.074 A 
ATOM     40  C   UNL A   1      38.271  32.094  33.325  1.00  0.00     0.031 C 
ATOM     41  C   UNL A   1      40.080  28.430  27.770  1.00  0.00     0.029 A 
ATOM     42  C   UNL A   1      40.880  28.202  28.973  1.00  0.00     0.049 A 
ATOM     43  H   UNL A   1      40.592  29.046  30.854  1.00  0.00     0.167 HD
ATOM     44  C   UNL A   1      40.062  31.086  34.700  1.00  0.00     0.037 A 
ATOM     45  C   UNL A   1      41.951  27.388  29.065  1.00  0.00     0.037 A 
ATOM     46  C   UNL A   1      41.158  30.181  34.912  1.00  0.00     0.049 A 
ATOM     47  C   UNL A   1      42.681  27.270  30.382  1.00  0.00     0.074 A 
ATOM     48  C   UNL A   1      41.856  29.932  36.079  1.00  0.00     0.029 A 
ATOM     49  N   UNL A   1      41.711  29.371  33.932  1.00  0.00    -0.354 N 
ATOM     50  N   UNL A   1      42.435  27.864  31.524  1.00  0.00    -0.248 NA
ATOM     51  C   UNL A   1      43.838  26.362  30.420  1.00  0.00     0.031 C 
ATOM     52  C   UNL A   1      42.867  29.010  35.793  1.00  0.00     0.029 A 
ATOM     53  C   UNL A   1      42.755  28.634  34.464  1.00  0.00     0.049 A 
ATOM     54  H   UNL A   1      41.407  29.327  32.996  1.00  0.00     0.167 HD
ATOM     55  C   UNL A   1      43.375  27.371  32.423  1.00  0.00     0.074 A 
ATOM     56  C   UNL A   1      44.194  26.426  31.695  1.00  0.00     0.031 C 
ATOM     57  C   UNL A   1      43.543  27.675  33.735  1.00  0.00     0.037 A 
BRANCH  44  58
ATOM     58  C   UNL A   1      39.610  31.943  35.849  1.00  0.00     0.064 A 
ATOM     59  C   UNL A   1      40.224  33.170  36.145  1.00  0.00     0.173 A 
ATOM     60  C   UNL A   1      38.535  31.539  36.654  1.00  0.00     0.173 A 
ATOM     61  F   UNL A   1      41.267  33.598  35.416  1.00  0.00    -0.203 F 
ATOM     62  C   UNL A   1      39.804  33.940  37.226  1.00  0.00     0.198 A 
ATOM     63  C   UNL A   1      38.091  32.330  37.710  1.00  0.00     0.198 A 
ATOM     64  F   UNL A   1      37.908  30.377  36.414  1.00  0.00    -0.203 F 
ATOM     65  F   UNL A   1      40.448  35.076  37.528  1.00  0.00    -0.200 F 
ATOM     66  C   UNL A   1      38.733  33.524  38.003  1.00  0.00     0.200 A 
ATOM     67  F   UNL A   1      37.046  31.934  38.449  1.00  0.00    -0.200 F 
ATOM     68  F   UNL A   1      38.325  34.270  39.038  1.00  0.00    -0.200 F 
ENDBRANCH  44  58
BRANCH  45  69
ATOM     69  C   UNL A   1      42.405  26.610  27.880  1.00  0.00     0.064 A 
ATOM     70  C   UNL A   1      43.349  27.140  26.987  1.00  0.00     0.173 A 
ATOM     71  C   UNL A   1      41.889  25.337  27.597  1.00  0.00     0.173 A 
ATOM     72  F   UNL A   1      43.855  28.364  27.198  1.00  0.00    -0.203 F 
ATOM     73  C   UNL A   1      43.737  26.440  25.847  1.00  0.00     0.198 A 
ATOM     74  C   UNL A   1      42.301  24.624  26.473  1.00  0.00     0.198 A 
ATOM     75  F   UNL A   1      40.983  24.783  28.417  1.00  0.00    -0.203 F 
ATOM     76  F   UNL A   1      44.598  26.995  24.982  1.00  0.00    -0.200 F 
ATOM     77  C   UNL A   1      43.218  25.180  25.594  1.00  0.00     0.200 A 
ATOM     78  F   UNL A   1      41.808  23.400  26.241  1.00  0.00    -0.200 F 
ATOM     79  F   UNL A   1      43.592  24.505  24.498  1.00  0.00    -0.200 F 
ENDBRANCH  45  69
BRANCH  57  80
ATOM     80  C   UNL A   1      44.605  26.932  34.495  1.00  0.00     0.064 A 
ATOM     81  C   UNL A   1      45.894  27.453  34.675  1.00  0.00     0.173 A 
ATOM     82  C   UNL A   1      44.301  25.706  35.110  1.00  0.00     0.173 A 
ATOM     83  F   UNL A   1      46.239  28.615  34.100  1.00  0.00    -0.203 F 
ATOM     84  C   UNL A   1      46.846  26.764  35.424  1.00  0.00     0.198 A 
ATOM     85  C   UNL A   1      45.244  25.038  35.885  1.00  0.00     0.198 A 
ATOM     86  F   UNL A   1      43.079  25.168  34.979  1.00  0.00    -0.203 F 
ATOM     87  F   UNL A   1      48.085  27.260  35.546  1.00  0.00    -0.200 F 
ATOM     88  C   UNL A   1      46.517  25.563  36.036  1.00  0.00     0.200 A 
ATOM     89  F   UNL A   1      44.917  23.889  36.492  1.00  0.00    -0.200 F 
ATOM     90  F   UNL A   1      47.430  24.911  36.769  1.00  0.00    -0.200 F 
ENDBRANCH  57  80
ENDBRANCH  31  32
ENDBRANCH  24  26
ENDBRANCH  23  24
ENDBRANCH  22  23
ENDBRANCH  21  22
ENDBRANCH   1  21
TORSDOF 16
ENDMDL
