MODEL 1
REMARK VINA RESULT:     -13.2      0.000      0.000
REMARK SMILES Cc1ccc2cc(C[N@H+]3CC[NH2+][C@H](C(=O)OCCOCCOC(=O)c4ccc(-c5c6nc(c(-c7c(F)c(F)c(F)c(F)c7F)c7ccc([nH]7)c(-c7c(F)c(F)c(F)c(F)c7F)c7nc(c(-c8c(F)c(F)c(F)c(F)c8F)c8ccc5[nH]8)C=C7)C=C6)cc4)C3)c(N3CCOCC3)nc2c1
REMARK SMILES IDX 18 1 17 2 16 3 14 4 15 5 13 6 9 7 10 8 88 9 11 11 12 12 8 15
REMARK SMILES IDX 7 16 1 17 2 18 3 19 98 20 4 21 97 22 5 23 96 24 6 25 89 26
REMARK SMILES IDX 90 27 91 28 95 29 92 30 94 31 93 32 19 33 20 34 21 35 22 36
REMARK SMILES IDX 23 37 24 38 25 39 26 40 87 41 27 42 86 43 28 44 29 45 30 46
REMARK SMILES IDX 80 47 31 48 85 49 79 50 81 51 32 52 84 53 78 54 77 55 33 57
REMARK SMILES IDX 65 58 45 59 64 60 46 61 49 62 63 63 82 64 47 65 48 66 62 68
REMARK SMILES IDX 83 69 50 70 34 71 35 72 43 73 36 74 37 75 41 76 44 77 38 78
REMARK SMILES IDX 39 79 42 80 40 81 66 82 67 83 75 84 68 85 69 86 73 87 76 88
REMARK SMILES IDX 70 89 71 90 74 91 72 92 51 93 52 94 60 95 53 96 54 97 58 98
REMARK SMILES IDX 61 99 55 100 56 101 59 102 57 103
REMARK H PARENT 9 10 12 13 12 14 81 56 49 67
REMARK Flexibility Score: inf
ROOT
ATOM      1  C   UNL A   1      42.272  19.432  26.066  1.00  0.00     0.202 C 
ENDROOT
BRANCH   1   2
ATOM      2  C   UNL A   1      41.173  20.004  26.975  1.00  0.00     0.261 C 
BRANCH   2   3
ATOM      3  O   UNL A   1      40.229  20.766  26.201  1.00  0.00    -0.459 OA
BRANCH   3   4
ATOM      4  C   UNL A   1      39.706  21.933  26.705  1.00  0.00     0.371 C 
ATOM      5  O   UNL A   1      40.228  22.632  27.557  1.00  0.00    -0.245 OA
BRANCH   4   6
ATOM      6  C   UNL A   1      38.367  22.169  26.001  1.00  0.00     0.348 C 
ATOM      7  N   UNL A   1      36.617  21.011  24.589  1.00  0.00    -0.321 N 
ATOM      8  C   UNL A   1      36.251  22.347  24.093  1.00  0.00     0.324 C 
ATOM      9  C   UNL A   1      37.996  20.986  25.086  1.00  0.00     0.341 C 
ATOM     10  H   UNL A   1      36.600  20.403  23.769  1.00  0.00     0.348 HD
ATOM     11  C   UNL A   1      36.790  23.562  24.903  1.00  0.00     0.323 C 
ATOM     12  N   UNL A   1      38.221  23.464  25.294  1.00  0.00    -0.325 N 
ATOM     13  H   UNL A   1      38.473  24.235  25.913  1.00  0.00     0.347 HD
ATOM     14  H   UNL A   1      38.835  23.517  24.481  1.00  0.00     0.347 HD
BRANCH   7  15
ATOM     15  C   UNL A   1      35.611  20.306  25.414  1.00  0.00     0.303 C 
BRANCH  15  16
ATOM     16  C   UNL A   1      34.275  20.977  25.671  1.00  0.00     0.049 A 
ATOM     17  C   UNL A   1      29.736  25.638  25.680  1.00  0.00     0.044 C 
ATOM     18  C   UNL A   1      30.927  24.728  25.725  1.00  0.00    -0.049 A 
ATOM     19  C   UNL A   1      32.169  25.289  25.997  1.00  0.00     0.004 A 
ATOM     20  C   UNL A   1      30.832  23.331  25.539  1.00  0.00     0.032 A 
ATOM     21  C   UNL A   1      33.256  24.459  26.210  1.00  0.00     0.010 A 
ATOM     22  C   UNL A   1      31.946  22.482  25.627  1.00  0.00     0.073 A 
ATOM     23  C   UNL A   1      33.143  23.070  26.052  1.00  0.00     0.001 A 
ATOM     24  N   UNL A   1      31.899  21.165  25.298  1.00  0.00    -0.230 NA
ATOM     25  C   UNL A   1      34.261  22.259  26.214  1.00  0.00     0.023 A 
ATOM     26  C   UNL A   1      33.046  20.429  25.286  1.00  0.00     0.138 A 
BRANCH  26  27
ATOM     27  N   UNL A   1      32.999  19.131  24.826  1.00  0.00    -0.352 N 
ATOM     28  C   UNL A   1      32.779  18.030  25.772  1.00  0.00     0.146 C 
ATOM     29  C   UNL A   1      32.512  18.854  23.478  1.00  0.00     0.146 C 
ATOM     30  C   UNL A   1      33.456  16.767  25.208  1.00  0.00     0.181 C 
ATOM     31  C   UNL A   1      33.219  17.574  22.990  1.00  0.00     0.181 C 
ATOM     32  O   UNL A   1      32.989  16.463  23.880  1.00  0.00    -0.378 OA
ENDBRANCH  26  27
ENDBRANCH  15  16
ENDBRANCH   7  15
ENDBRANCH   4   6
ENDBRANCH   3   4
ENDBRANCH   2   3
ENDBRANCH   1   2
BRANCH   1  33
ATOM     33  O   UNL A   1      42.839  20.375  25.153  1.00  0.00    -0.374 OA
BRANCH  33  34
ATOM     34  C   UNL A   1      43.523  21.474  25.748  1.00  0.00     0.202 C 
BRANCH  34  35
ATOM     35  C   UNL A   1      44.227  22.425  24.776  1.00  0.00     0.261 C 
BRANCH  35  36
ATOM     36  O   UNL A   1      43.525  23.672  24.637  1.00  0.00    -0.460 OA
BRANCH  36  37
ATOM     37  C   UNL A   1      44.241  24.758  25.026  1.00  0.00     0.338 C 
ATOM     38  O   UNL A   1      45.337  25.097  24.635  1.00  0.00    -0.246 OA
BRANCH  37  39
ATOM     39  C   UNL A   1      43.446  25.578  25.960  1.00  0.00     0.060 A 
ATOM     40  C   UNL A   1      42.352  25.051  26.649  1.00  0.00     0.016 A 
ATOM     41  C   UNL A   1      43.902  26.872  26.232  1.00  0.00     0.016 A 
ATOM     42  C   UNL A   1      41.746  25.810  27.655  1.00  0.00     0.010 A 
ATOM     43  C   UNL A   1      43.301  27.626  27.239  1.00  0.00     0.010 A 
ATOM     44  C   UNL A   1      42.239  27.087  27.978  1.00  0.00    -0.014 A 
BRANCH  44  45
ATOM     45  C   UNL A   1      41.751  27.791  29.189  1.00  0.00     0.031 A 
ATOM     46  C   UNL A   1      42.435  27.645  30.511  1.00  0.00     0.074 A 
ATOM     47  C   UNL A   1      40.635  28.538  29.087  1.00  0.00     0.049 A 
ATOM     48  N   UNL A   1      42.170  28.243  31.644  1.00  0.00    -0.248 NA
ATOM     49  C   UNL A   1      43.549  26.690  30.576  1.00  0.00     0.031 C 
ATOM     50  C   UNL A   1      39.846  28.697  27.865  1.00  0.00     0.029 A 
ATOM     51  N   UNL A   1      39.971  29.299  30.016  1.00  0.00    -0.354 N 
ATOM     52  C   UNL A   1      43.093  27.754  32.556  1.00  0.00     0.074 A 
ATOM     53  C   UNL A   1      43.891  26.767  31.856  1.00  0.00     0.031 C 
ATOM     54  C   UNL A   1      38.825  29.530  28.109  1.00  0.00     0.029 A 
ATOM     55  C   UNL A   1      38.872  29.945  29.509  1.00  0.00     0.049 A 
ATOM     56  H   UNL A   1      40.257  29.374  30.955  1.00  0.00     0.167 HD
ATOM     57  C   UNL A   1      43.268  28.116  33.850  1.00  0.00     0.037 A 
ATOM     58  C   UNL A   1      38.003  30.787  30.100  1.00  0.00     0.037 A 
ATOM     59  C   UNL A   1      42.459  29.091  34.537  1.00  0.00     0.049 A 
ATOM     60  C   UNL A   1      38.205  31.162  31.540  1.00  0.00     0.074 A 
ATOM     61  C   UNL A   1      42.602  29.577  35.826  1.00  0.00     0.029 A 
ATOM     62  N   UNL A   1      41.339  29.714  34.001  1.00  0.00    -0.354 N 
ATOM     63  N   UNL A   1      39.147  30.778  32.366  1.00  0.00    -0.248 NA
ATOM     64  C   UNL A   1      37.232  32.091  32.130  1.00  0.00     0.031 C 
ATOM     65  C   UNL A   1      41.536  30.444  36.089  1.00  0.00     0.029 A 
ATOM     66  C   UNL A   1      40.760  30.547  34.946  1.00  0.00     0.049 A 
ATOM     67  H   UNL A   1      41.006  29.584  33.084  1.00  0.00     0.167 HD
ATOM     68  C   UNL A   1      38.891  31.424  33.567  1.00  0.00     0.074 A 
ATOM     69  C   UNL A   1      37.712  32.240  33.358  1.00  0.00     0.031 C 
ATOM     70  C   UNL A   1      39.575  31.344  34.735  1.00  0.00     0.037 A 
BRANCH  57  71
ATOM     71  C   UNL A   1      44.381  27.454  34.611  1.00  0.00     0.064 A 
ATOM     72  C   UNL A   1      44.179  26.254  35.311  1.00  0.00     0.173 A 
ATOM     73  C   UNL A   1      45.675  27.997  34.603  1.00  0.00     0.173 A 
ATOM     74  F   UNL A   1      42.960  25.695  35.355  1.00  0.00    -0.203 F 
ATOM     75  C   UNL A   1      45.221  25.640  35.998  1.00  0.00     0.198 A 
ATOM     76  C   UNL A   1      46.723  27.363  35.266  1.00  0.00     0.198 A 
ATOM     77  F   UNL A   1      45.928  29.137  33.944  1.00  0.00    -0.203 F 
ATOM     78  F   UNL A   1      44.991  24.522  36.702  1.00  0.00    -0.200 F 
ATOM     79  C   UNL A   1      46.494  26.189  35.969  1.00  0.00     0.200 A 
ATOM     80  F   UNL A   1      47.955  27.888  35.226  1.00  0.00    -0.200 F 
ATOM     81  F   UNL A   1      47.498  25.593  36.627  1.00  0.00    -0.200 F 
ENDBRANCH  57  71
BRANCH  58  82
ATOM     82  C   UNL A   1      36.903  31.367  29.290  1.00  0.00     0.064 A 
ATOM     83  C   UNL A   1      35.786  30.597  28.942  1.00  0.00     0.173 A 
ATOM     84  C   UNL A   1      36.907  32.720  28.921  1.00  0.00     0.173 A 
ATOM     85  F   UNL A   1      35.746  29.295  29.260  1.00  0.00    -0.203 F 
ATOM     86  C   UNL A   1      34.708  31.161  28.264  1.00  0.00     0.198 A 
ATOM     87  C   UNL A   1      35.817  33.289  28.264  1.00  0.00     0.198 A 
ATOM     88  F   UNL A   1      37.950  33.500  29.238  1.00  0.00    -0.203 F 
ATOM     89  F   UNL A   1      33.654  30.400  27.935  1.00  0.00    -0.200 F 
ATOM     90  C   UNL A   1      34.719  32.508  27.936  1.00  0.00     0.200 A 
ATOM     91  F   UNL A   1      35.823  34.596  27.967  1.00  0.00    -0.200 F 
ATOM     92  F   UNL A   1      33.668  33.057  27.310  1.00  0.00    -0.200 F 
ENDBRANCH  58  82
BRANCH  70  93
ATOM     93  C   UNL A   1      39.067  32.154  35.895  1.00  0.00     0.064 A 
ATOM     94  C   UNL A   1      38.217  31.595  36.860  1.00  0.00     0.173 A 
ATOM     95  C   UNL A   1      39.498  33.475  36.086  1.00  0.00     0.173 A 
ATOM     96  F   UNL A   1      37.764  30.340  36.716  1.00  0.00    -0.203 F 
ATOM     97  C   UNL A   1      37.810  32.333  37.969  1.00  0.00     0.198 A 
ATOM     98  C   UNL A   1      39.113  34.200  37.210  1.00  0.00     0.198 A 
ATOM     99  F   UNL A   1      40.317  34.055  35.195  1.00  0.00    -0.203 F 
ATOM    100  F   UNL A   1      36.972  31.789  38.862  1.00  0.00    -0.200 F 
ATOM    101  C   UNL A   1      38.266  33.630  38.149  1.00  0.00     0.200 A 
ATOM    102  F   UNL A   1      39.568  35.447  37.391  1.00  0.00    -0.200 F 
ATOM    103  F   UNL A   1      37.890  34.331  39.228  1.00  0.00    -0.200 F 
ENDBRANCH  70  93
ENDBRANCH  44  45
ENDBRANCH  37  39
ENDBRANCH  36  37
ENDBRANCH  35  36
ENDBRANCH  34  35
ENDBRANCH  33  34
ENDBRANCH   1  33
TORSDOF 17
ENDMDL
MODEL 2
REMARK VINA RESULT:     -12.7      4.871      7.976
REMARK SMILES Cc1ccc2cc(C[N@H+]3CC[NH2+][C@H](C(=O)OCCOCCOC(=O)c4ccc(-c5c6nc(c(-c7c(F)c(F)c(F)c(F)c7F)c7ccc([nH]7)c(-c7c(F)c(F)c(F)c(F)c7F)c7nc(c(-c8c(F)c(F)c(F)c(F)c8F)c8ccc5[nH]8)C=C7)C=C6)cc4)C3)c(N3CCOCC3)nc2c1
REMARK SMILES IDX 18 1 17 2 16 3 14 4 15 5 13 6 9 7 10 8 88 9 11 11 12 12 8 15
REMARK SMILES IDX 7 16 1 17 2 18 3 19 98 20 4 21 97 22 5 23 96 24 6 25 89 26
REMARK SMILES IDX 90 27 91 28 95 29 92 30 94 31 93 32 19 33 20 34 21 35 22 36
REMARK SMILES IDX 23 37 24 38 25 39 26 40 87 41 27 42 86 43 28 44 29 45 30 46
REMARK SMILES IDX 80 47 31 48 85 49 79 50 81 51 32 52 84 53 78 54 77 55 33 57
REMARK SMILES IDX 65 58 45 59 64 60 46 61 49 62 63 63 82 64 47 65 48 66 62 68
REMARK SMILES IDX 83 69 50 70 34 71 35 72 43 73 36 74 37 75 41 76 44 77 38 78
REMARK SMILES IDX 39 79 42 80 40 81 66 82 67 83 75 84 68 85 69 86 73 87 76 88
REMARK SMILES IDX 70 89 71 90 74 91 72 92 51 93 52 94 60 95 53 96 54 97 58 98
REMARK SMILES IDX 61 99 55 100 56 101 59 102 57 103
REMARK H PARENT 9 10 12 13 12 14 81 56 49 67
REMARK Flexibility Score: inf
ROOT
ATOM      1  C   UNL A   1      34.645  22.091  25.635  1.00  0.00     0.202 C 
ENDROOT
BRANCH   1   2
ATOM      2  C   UNL A   1      33.345  21.304  25.409  1.00  0.00     0.261 C 
BRANCH   2   3
ATOM      3  O   UNL A   1      32.348  22.148  24.803  1.00  0.00    -0.459 OA
BRANCH   3   4
ATOM      4  C   UNL A   1      32.439  22.476  23.471  1.00  0.00     0.371 C 
ATOM      5  O   UNL A   1      32.474  21.680  22.548  1.00  0.00    -0.245 OA
BRANCH   4   6
ATOM      6  C   UNL A   1      32.490  24.003  23.385  1.00  0.00     0.348 C 
ATOM      7  N   UNL A   1      31.082  26.024  22.808  1.00  0.00    -0.321 N 
ATOM      8  C   UNL A   1      32.346  26.721  22.524  1.00  0.00     0.324 C 
ATOM      9  C   UNL A   1      31.237  24.571  22.691  1.00  0.00     0.341 C 
ATOM     10  H   UNL A   1      30.445  26.303  22.061  1.00  0.00     0.348 HD
ATOM     11  C   UNL A   1      33.647  26.049  23.053  1.00  0.00     0.323 C 
ATOM     12  N   UNL A   1      33.731  24.584  22.818  1.00  0.00    -0.325 N 
ATOM     13  H   UNL A   1      34.550  24.196  23.287  1.00  0.00     0.347 HD
ATOM     14  H   UNL A   1      33.822  24.370  21.824  1.00  0.00     0.347 HD
BRANCH   7  15
ATOM     15  C   UNL A   1      30.299  26.508  23.966  1.00  0.00     0.303 C 
BRANCH  15  16
ATOM     16  C   UNL A   1      30.810  27.703  24.748  1.00  0.00     0.049 A 
ATOM     17  C   UNL A   1      35.032  31.556  27.856  1.00  0.00     0.044 C 
ATOM     18  C   UNL A   1      34.168  30.498  27.237  1.00  0.00    -0.049 A 
ATOM     19  C   UNL A   1      34.446  29.169  27.535  1.00  0.00     0.004 A 
ATOM     20  C   UNL A   1      33.071  30.797  26.399  1.00  0.00     0.032 A 
ATOM     21  C   UNL A   1      33.570  28.183  27.115  1.00  0.00     0.010 A 
ATOM     22  C   UNL A   1      32.242  29.802  25.860  1.00  0.00     0.073 A 
ATOM     23  C   UNL A   1      32.466  28.496  26.309  1.00  0.00     0.001 A 
ATOM     24  N   UNL A   1      31.284  30.061  24.932  1.00  0.00    -0.230 NA
ATOM     25  C   UNL A   1      31.631  27.482  25.851  1.00  0.00     0.023 A 
ATOM     26  C   UNL A   1      30.601  29.031  24.359  1.00  0.00     0.138 A 
BRANCH  26  27
ATOM     27  N   UNL A   1      29.726  29.303  23.328  1.00  0.00    -0.352 N 
ATOM     28  C   UNL A   1      30.248  29.718  22.020  1.00  0.00     0.146 C 
ATOM     29  C   UNL A   1      28.448  28.603  23.256  1.00  0.00     0.146 C 
ATOM     30  C   UNL A   1      29.191  30.607  21.339  1.00  0.00     0.181 C 
ATOM     31  C   UNL A   1      27.450  29.545  22.551  1.00  0.00     0.181 C 
ATOM     32  O   UNL A   1      27.918  29.941  21.246  1.00  0.00    -0.378 OA
ENDBRANCH  26  27
ENDBRANCH  15  16
ENDBRANCH   7  15
ENDBRANCH   4   6
ENDBRANCH   3   4
ENDBRANCH   2   3
ENDBRANCH   1   2
BRANCH   1  33
ATOM     33  O   UNL A   1      35.739  21.682  24.811  1.00  0.00    -0.374 OA
BRANCH  33  34
ATOM     34  C   UNL A   1      36.168  20.334  24.980  1.00  0.00     0.202 C 
BRANCH  34  35
ATOM     35  C   UNL A   1      37.683  20.120  25.042  1.00  0.00     0.261 C 
BRANCH  35  36
ATOM     36  O   UNL A   1      38.385  21.326  25.392  1.00  0.00    -0.460 OA
BRANCH  36  37
ATOM     37  C   UNL A   1      39.491  21.123  26.152  1.00  0.00     0.338 C 
ATOM     38  O   UNL A   1      40.130  20.099  26.265  1.00  0.00    -0.246 OA
BRANCH  37  39
ATOM     39  C   UNL A   1      39.906  22.389  26.786  1.00  0.00     0.060 A 
ATOM     40  C   UNL A   1      40.933  22.432  27.732  1.00  0.00     0.016 A 
ATOM     41  C   UNL A   1      39.323  23.570  26.315  1.00  0.00     0.016 A 
ATOM     42  C   UNL A   1      41.412  23.672  28.167  1.00  0.00     0.010 A 
ATOM     43  C   UNL A   1      39.805  24.805  26.745  1.00  0.00     0.010 A 
ATOM     44  C   UNL A   1      40.873  24.864  27.649  1.00  0.00    -0.014 A 
BRANCH  44  45
ATOM     45  C   UNL A   1      41.531  26.164  27.931  1.00  0.00     0.031 A 
ATOM     46  C   UNL A   1      42.912  26.466  27.441  1.00  0.00     0.074 A 
ATOM     47  C   UNL A   1      40.872  27.062  28.688  1.00  0.00     0.049 A 
ATOM     48  N   UNL A   1      43.597  27.577  27.548  1.00  0.00    -0.248 NA
ATOM     49  C   UNL A   1      43.625  25.379  26.760  1.00  0.00     0.031 C 
ATOM     50  C   UNL A   1      39.551  26.847  29.277  1.00  0.00     0.029 A 
ATOM     51  N   UNL A   1      41.218  28.327  29.091  1.00  0.00    -0.354 N 
ATOM     52  C   UNL A   1      44.814  27.331  26.933  1.00  0.00     0.074 A 
ATOM     53  C   UNL A   1      44.796  25.947  26.503  1.00  0.00     0.031 C 
ATOM     54  C   UNL A   1      39.182  27.953  29.939  1.00  0.00     0.029 A 
ATOM     55  C   UNL A   1      40.249  28.945  29.841  1.00  0.00     0.049 A 
ATOM     56  H   UNL A   1      42.078  28.749  28.864  1.00  0.00     0.167 HD
ATOM     57  C   UNL A   1      45.841  28.193  26.728  1.00  0.00     0.037 A 
ATOM     58  C   UNL A   1      40.217  30.178  30.383  1.00  0.00     0.037 A 
ATOM     59  C   UNL A   1      45.851  29.564  27.173  1.00  0.00     0.049 A 
ATOM     60  C   UNL A   1      41.373  31.111  30.159  1.00  0.00     0.074 A 
ATOM     61  C   UNL A   1      46.814  30.535  26.953  1.00  0.00     0.029 A 
ATOM     62  N   UNL A   1      44.862  30.155  27.948  1.00  0.00    -0.354 N 
ATOM     63  N   UNL A   1      42.476  30.907  29.482  1.00  0.00    -0.248 NA
ATOM     64  C   UNL A   1      41.279  32.445  30.765  1.00  0.00     0.031 C 
ATOM     65  C   UNL A   1      46.437  31.691  27.645  1.00  0.00     0.029 A 
ATOM     66  C   UNL A   1      45.211  31.463  28.249  1.00  0.00     0.049 A 
ATOM     67  H   UNL A   1      44.033  29.711  28.241  1.00  0.00     0.167 HD
ATOM     68  C   UNL A   1      43.202  32.086  29.568  1.00  0.00     0.074 A 
ATOM     69  C   UNL A   1      42.406  33.009  30.350  1.00  0.00     0.031 C 
ATOM     70  C   UNL A   1      44.420  32.371  29.044  1.00  0.00     0.037 A 
BRANCH  57  71
ATOM     71  C   UNL A   1      47.043  27.677  25.990  1.00  0.00     0.064 A 
ATOM     72  C   UNL A   1      47.127  27.738  24.591  1.00  0.00     0.173 A 
ATOM     73  C   UNL A   1      48.144  27.160  26.691  1.00  0.00     0.173 A 
ATOM     74  F   UNL A   1      46.101  28.219  23.873  1.00  0.00    -0.203 F 
ATOM     75  C   UNL A   1      48.254  27.273  23.918  1.00  0.00     0.198 A 
ATOM     76  C   UNL A   1      49.283  26.726  26.016  1.00  0.00     0.198 A 
ATOM     77  F   UNL A   1      48.122  27.086  28.030  1.00  0.00    -0.203 F 
ATOM     78  F   UNL A   1      48.289  27.294  22.578  1.00  0.00    -0.200 F 
ATOM     79  C   UNL A   1      49.334  26.775  24.631  1.00  0.00     0.200 A 
ATOM     80  F   UNL A   1      50.331  26.256  26.707  1.00  0.00    -0.200 F 
ATOM     81  F   UNL A   1      50.420  26.334  23.983  1.00  0.00    -0.200 F 
ENDBRANCH  57  71
BRANCH  58  82
ATOM     82  C   UNL A   1      39.009  30.598  31.136  1.00  0.00     0.064 A 
ATOM     83  C   UNL A   1      38.885  30.320  32.503  1.00  0.00     0.173 A 
ATOM     84  C   UNL A   1      38.000  31.358  30.527  1.00  0.00     0.173 A 
ATOM     85  F   UNL A   1      39.818  29.583  33.123  1.00  0.00    -0.203 F 
ATOM     86  C   UNL A   1      37.799  30.793  33.236  1.00  0.00     0.198 A 
ATOM     87  C   UNL A   1      36.927  31.852  31.266  1.00  0.00     0.198 A 
ATOM     88  F   UNL A   1      38.079  31.657  29.223  1.00  0.00    -0.203 F 
ATOM     89  F   UNL A   1      37.698  30.505  34.542  1.00  0.00    -0.200 F 
ATOM     90  C   UNL A   1      36.828  31.569  32.621  1.00  0.00     0.200 A 
ATOM     91  F   UNL A   1      36.002  32.618  30.672  1.00  0.00    -0.200 F 
ATOM     92  F   UNL A   1      35.800  32.050  33.333  1.00  0.00    -0.200 F 
ENDBRANCH  58  82
BRANCH  70  93
ATOM     93  C   UNL A   1      44.983  33.740  29.301  1.00  0.00     0.064 A 
ATOM     94  C   UNL A   1      44.684  34.824  28.462  1.00  0.00     0.173 A 
ATOM     95  C   UNL A   1      45.765  33.988  30.440  1.00  0.00     0.173 A 
ATOM     96  F   UNL A   1      43.953  34.636  27.352  1.00  0.00    -0.203 F 
ATOM     97  C   UNL A   1      45.154  36.103  28.750  1.00  0.00     0.198 A 
ATOM     98  C   UNL A   1      46.208  35.274  30.740  1.00  0.00     0.198 A 
ATOM     99  F   UNL A   1      46.076  32.988  31.278  1.00  0.00    -0.203 F 
ATOM    100  F   UNL A   1      44.881  37.117  27.917  1.00  0.00    -0.200 F 
ATOM    101  C   UNL A   1      45.905  36.329  29.892  1.00  0.00     0.200 A 
ATOM    102  F   UNL A   1      46.920  35.493  31.853  1.00  0.00    -0.200 F 
ATOM    103  F   UNL A   1      46.338  37.565  30.178  1.00  0.00    -0.200 F 
ENDBRANCH  70  93
ENDBRANCH  44  45
ENDBRANCH  37  39
ENDBRANCH  36  37
ENDBRANCH  35  36
ENDBRANCH  34  35
ENDBRANCH  33  34
ENDBRANCH   1  33
TORSDOF 17
ENDMDL
MODEL 3
REMARK VINA RESULT:     -12.6      5.580     10.800
REMARK SMILES Cc1ccc2cc(C[N@H+]3CC[NH2+][C@H](C(=O)OCCOCCOC(=O)c4ccc(-c5c6nc(c(-c7c(F)c(F)c(F)c(F)c7F)c7ccc([nH]7)c(-c7c(F)c(F)c(F)c(F)c7F)c7nc(c(-c8c(F)c(F)c(F)c(F)c8F)c8ccc5[nH]8)C=C7)C=C6)cc4)C3)c(N3CCOCC3)nc2c1
REMARK SMILES IDX 18 1 17 2 16 3 14 4 15 5 13 6 9 7 10 8 88 9 11 11 12 12 8 15
REMARK SMILES IDX 7 16 1 17 2 18 3 19 98 20 4 21 97 22 5 23 96 24 6 25 89 26
REMARK SMILES IDX 90 27 91 28 95 29 92 30 94 31 93 32 19 33 20 34 21 35 22 36
REMARK SMILES IDX 23 37 24 38 25 39 26 40 87 41 27 42 86 43 28 44 29 45 30 46
REMARK SMILES IDX 80 47 31 48 85 49 79 50 81 51 32 52 84 53 78 54 77 55 33 57
REMARK SMILES IDX 65 58 45 59 64 60 46 61 49 62 63 63 82 64 47 65 48 66 62 68
REMARK SMILES IDX 83 69 50 70 34 71 35 72 43 73 36 74 37 75 41 76 44 77 38 78
REMARK SMILES IDX 39 79 42 80 40 81 66 82 67 83 75 84 68 85 69 86 73 87 76 88
REMARK SMILES IDX 70 89 71 90 74 91 72 92 51 93 52 94 60 95 53 96 54 97 58 98
REMARK SMILES IDX 61 99 55 100 56 101 59 102 57 103
REMARK H PARENT 9 10 12 13 12 14 81 56 49 67
REMARK Flexibility Score: inf
ROOT
ATOM      1  C   UNL A   1      35.988  33.697  29.266  1.00  0.00     0.202 C 
ENDROOT
BRANCH   1   2
ATOM      2  C   UNL A   1      34.902  32.639  29.015  1.00  0.00     0.261 C 
BRANCH   2   3
ATOM      3  O   UNL A   1      35.241  31.834  27.871  1.00  0.00    -0.459 OA
BRANCH   3   4
ATOM      4  C   UNL A   1      35.172  30.464  27.947  1.00  0.00     0.371 C 
ATOM      5  O   UNL A   1      36.014  29.740  28.452  1.00  0.00    -0.245 OA
BRANCH   4   6
ATOM      6  C   UNL A   1      33.860  30.041  27.281  1.00  0.00     0.348 C 
ATOM      7  N   UNL A   1      32.904  28.419  25.592  1.00  0.00    -0.321 N 
ATOM      8  C   UNL A   1      31.806  29.381  25.411  1.00  0.00     0.324 C 
ATOM      9  C   UNL A   1      34.110  29.076  26.106  1.00  0.00     0.341 C 
ATOM     10  H   UNL A   1      33.137  28.093  24.653  1.00  0.00     0.348 HD
ATOM     11  C   UNL A   1      31.666  30.489  26.496  1.00  0.00     0.323 C 
ATOM     12  N   UNL A   1      32.943  31.139  26.892  1.00  0.00    -0.325 N 
ATOM     13  H   UNL A   1      32.791  31.769  27.680  1.00  0.00     0.347 HD
ATOM     14  H   UNL A   1      33.330  31.696  26.130  1.00  0.00     0.347 HD
BRANCH   7  15
ATOM     15  C   UNL A   1      32.556  27.117  26.203  1.00  0.00     0.303 C 
BRANCH  15  16
ATOM     16  C   UNL A   1      32.940  25.841  25.478  1.00  0.00     0.049 A 
ATOM     17  C   UNL A   1      34.402  19.560  24.626  1.00  0.00     0.044 C 
ATOM     18  C   UNL A   1      34.187  20.993  25.010  1.00  0.00    -0.049 A 
ATOM     19  C   UNL A   1      34.770  21.450  26.186  1.00  0.00     0.004 A 
ATOM     20  C   UNL A   1      33.452  21.898  24.213  1.00  0.00     0.032 A 
ATOM     21  C   UNL A   1      34.730  22.801  26.482  1.00  0.00     0.010 A 
ATOM     22  C   UNL A   1      33.292  23.248  24.559  1.00  0.00     0.073 A 
ATOM     23  C   UNL A   1      34.022  23.696  25.667  1.00  0.00     0.001 A 
ATOM     24  N   UNL A   1      32.462  24.090  23.889  1.00  0.00    -0.230 NA
ATOM     25  C   UNL A   1      33.945  25.041  26.013  1.00  0.00     0.023 A 
ATOM     26  C   UNL A   1      32.260  25.354  24.355  1.00  0.00     0.138 A 
BRANCH  26  27
ATOM     27  N   UNL A   1      31.318  26.149  23.738  1.00  0.00    -0.352 N 
ATOM     28  C   UNL A   1      31.643  26.813  22.470  1.00  0.00     0.146 C 
ATOM     29  C   UNL A   1      29.898  25.851  23.899  1.00  0.00     0.146 C 
ATOM     30  C   UNL A   1      30.813  28.107  22.376  1.00  0.00     0.181 C 
ATOM     31  C   UNL A   1      29.135  27.186  23.777  1.00  0.00     0.181 C 
ATOM     32  O   UNL A   1      29.405  27.845  22.523  1.00  0.00    -0.378 OA
ENDBRANCH  26  27
ENDBRANCH  15  16
ENDBRANCH   7  15
ENDBRANCH   4   6
ENDBRANCH   3   4
ENDBRANCH   2   3
ENDBRANCH   1   2
BRANCH   1  33
ATOM     33  O   UNL A   1      36.012  34.220  30.596  1.00  0.00    -0.374 OA
BRANCH  33  34
ATOM     34  C   UNL A   1      34.884  33.901  31.405  1.00  0.00     0.202 C 
BRANCH  34  35
ATOM     35  C   UNL A   1      35.190  33.536  32.860  1.00  0.00     0.261 C 
BRANCH  35  36
ATOM     36  O   UNL A   1      35.530  32.146  33.009  1.00  0.00    -0.460 OA
BRANCH  36  37
ATOM     37  C   UNL A   1      36.725  31.929  33.615  1.00  0.00     0.338 C 
ATOM     38  O   UNL A   1      37.028  32.187  34.760  1.00  0.00    -0.246 OA
BRANCH  37  39
ATOM     39  C   UNL A   1      37.633  31.213  32.699  1.00  0.00     0.060 A 
ATOM     40  C   UNL A   1      37.403  31.173  31.322  1.00  0.00     0.016 A 
ATOM     41  C   UNL A   1      38.807  30.679  33.241  1.00  0.00     0.016 A 
ATOM     42  C   UNL A   1      38.384  30.641  30.480  1.00  0.00     0.010 A 
ATOM     43  C   UNL A   1      39.787  30.154  32.399  1.00  0.00     0.010 A 
ATOM     44  C   UNL A   1      39.594  30.160  31.011  1.00  0.00    -0.014 A 
BRANCH  44  45
ATOM     45  C   UNL A   1      40.720  29.814  30.109  1.00  0.00     0.031 A 
ATOM     46  C   UNL A   1      41.777  30.811  29.755  1.00  0.00     0.074 A 
ATOM     47  C   UNL A   1      40.747  28.581  29.566  1.00  0.00     0.049 A 
ATOM     48  N   UNL A   1      42.857  30.643  29.034  1.00  0.00    -0.248 NA
ATOM     49  C   UNL A   1      41.592  32.178  30.259  1.00  0.00     0.031 C 
ATOM     50  C   UNL A   1      39.732  27.551  29.785  1.00  0.00     0.029 A 
ATOM     51  N   UNL A   1      41.654  27.987  28.725  1.00  0.00    -0.354 N 
ATOM     52  C   UNL A   1      43.491  31.876  29.010  1.00  0.00     0.074 A 
ATOM     53  C   UNL A   1      42.646  32.797  29.744  1.00  0.00     0.031 C 
ATOM     54  C   UNL A   1      40.088  26.440  29.124  1.00  0.00     0.029 A 
ATOM     55  C   UNL A   1      41.341  26.687  28.416  1.00  0.00     0.049 A 
ATOM     56  H   UNL A   1      42.451  28.448  28.379  1.00  0.00     0.167 HD
ATOM     57  C   UNL A   1      44.681  32.197  28.446  1.00  0.00     0.037 A 
ATOM     58  C   UNL A   1      41.994  25.788  27.655  1.00  0.00     0.037 A 
ATOM     59  C   UNL A   1      45.505  31.273  27.708  1.00  0.00     0.049 A 
ATOM     60  C   UNL A   1      43.303  26.170  27.024  1.00  0.00     0.074 A 
ATOM     61  C   UNL A   1      46.759  31.485  27.158  1.00  0.00     0.029 A 
ATOM     62  N   UNL A   1      45.151  29.968  27.395  1.00  0.00    -0.354 N 
ATOM     63  N   UNL A   1      43.951  27.307  27.097  1.00  0.00    -0.248 NA
ATOM     64  C   UNL A   1      43.975  25.147  26.213  1.00  0.00     0.031 C 
ATOM     65  C   UNL A   1      47.133  30.331  26.462  1.00  0.00     0.029 A 
ATOM     66  C   UNL A   1      46.142  29.376  26.626  1.00  0.00     0.049 A 
ATOM     67  H   UNL A   1      44.318  29.526  27.678  1.00  0.00     0.167 HD
ATOM     68  C   UNL A   1      45.110  27.135  26.355  1.00  0.00     0.074 A 
ATOM     69  C   UNL A   1      45.086  25.777  25.852  1.00  0.00     0.031 C 
ATOM     70  C   UNL A   1      46.102  28.027  26.115  1.00  0.00     0.037 A 
BRANCH  57  71
ATOM     71  C   UNL A   1      45.165  33.610  28.604  1.00  0.00     0.064 A 
ATOM     72  C   UNL A   1      46.039  33.976  29.639  1.00  0.00     0.173 A 
ATOM     73  C   UNL A   1      44.790  34.601  27.682  1.00  0.00     0.173 A 
ATOM     74  F   UNL A   1      46.424  33.069  30.549  1.00  0.00    -0.203 F 
ATOM     75  C   UNL A   1      46.495  35.285  29.765  1.00  0.00     0.198 A 
ATOM     76  C   UNL A   1      45.274  35.902  27.793  1.00  0.00     0.198 A 
ATOM     77  F   UNL A   1      43.964  34.306  26.668  1.00  0.00    -0.203 F 
ATOM     78  F   UNL A   1      47.287  35.621  30.793  1.00  0.00    -0.200 F 
ATOM     79  C   UNL A   1      46.119  36.245  28.838  1.00  0.00     0.200 A 
ATOM     80  F   UNL A   1      44.920  36.826  26.889  1.00  0.00    -0.200 F 
ATOM     81  F   UNL A   1      46.564  37.503  28.957  1.00  0.00    -0.200 F 
ENDBRANCH  57  71
BRANCH  58  82
ATOM     82  C   UNL A   1      41.429  24.423  27.513  1.00  0.00     0.064 A 
ATOM     83  C   UNL A   1      40.300  24.195  26.714  1.00  0.00     0.173 A 
ATOM     84  C   UNL A   1      42.051  23.313  28.101  1.00  0.00     0.173 A 
ATOM     85  F   UNL A   1      39.663  25.229  26.146  1.00  0.00    -0.203 F 
ATOM     86  C   UNL A   1      39.821  22.905  26.500  1.00  0.00     0.198 A 
ATOM     87  C   UNL A   1      41.586  22.020  27.867  1.00  0.00     0.198 A 
ATOM     88  F   UNL A   1      43.138  23.480  28.867  1.00  0.00    -0.203 F 
ATOM     89  F   UNL A   1      38.735  22.713  25.739  1.00  0.00    -0.200 F 
ATOM     90  C   UNL A   1      40.471  21.817  27.066  1.00  0.00     0.200 A 
ATOM     91  F   UNL A   1      42.228  20.971  28.399  1.00  0.00    -0.200 F 
ATOM     92  F   UNL A   1      40.027  20.574  26.836  1.00  0.00    -0.200 F 
ENDBRANCH  58  82
BRANCH  70  93
ATOM     93  C   UNL A   1      47.252  27.575  25.260  1.00  0.00     0.064 A 
ATOM     94  C   UNL A   1      47.270  27.804  23.876  1.00  0.00     0.173 A 
ATOM     95  C   UNL A   1      48.382  26.978  25.841  1.00  0.00     0.173 A 
ATOM     96  F   UNL A   1      46.208  28.358  23.270  1.00  0.00    -0.203 F 
ATOM     97  C   UNL A   1      48.372  27.444  23.105  1.00  0.00     0.198 A 
ATOM     98  C   UNL A   1      49.494  26.646  25.071  1.00  0.00     0.198 A 
ATOM     99  F   UNL A   1      48.418  26.741  27.161  1.00  0.00    -0.203 F 
ATOM    100  F   UNL A   1      48.354  27.645  21.780  1.00  0.00    -0.200 F 
ATOM    101  C   UNL A   1      49.486  26.877  23.703  1.00  0.00     0.200 A 
ATOM    102  F   UNL A   1      50.576  26.113  25.654  1.00  0.00    -0.200 F 
ATOM    103  F   UNL A   1      50.555  26.551  22.962  1.00  0.00    -0.200 F 
ENDBRANCH  70  93
ENDBRANCH  44  45
ENDBRANCH  37  39
ENDBRANCH  36  37
ENDBRANCH  35  36
ENDBRANCH  34  35
ENDBRANCH  33  34
ENDBRANCH   1  33
TORSDOF 17
ENDMDL
