MODEL 1
REMARK VINA RESULT:     -13.5      0.000      0.000
REMARK SMILES O=C(Cn1nc(C(=O)OCCOCCOC(=O)c2ccc(-c3c4nc(c(-c5c(F)c(F)c(F)c(F)c5F)c5ccc([nH]5)c(-c5c(F)c(F)c(F)c(F)c5F)c5nc(c(-c6c(F)c(F)c(F)c(F)c6F)c6ccc3[nH]6)C=C5)C=C4)cc2)c2ccccc2c1=O)Nc1ccc2c(c1)C(=O)c1ccccc1C2=O
REMARK SMILES IDX 11 1 10 2 9 3 7 4 8 5 6 6 4 7 5 8 87 9 86 10 88 11 81 12
REMARK SMILES IDX 85 13 82 14 84 15 83 16 3 17 2 18 1 19 89 20 90 22 91 23
REMARK SMILES IDX 95 24 92 25 94 26 93 27 96 28 104 29 97 30 98 31 103 32
REMARK SMILES IDX 105 33 99 34 102 35 100 36 101 37 12 38 13 39 14 40 15 41
REMARK SMILES IDX 16 42 17 43 18 44 19 45 80 46 20 47 79 48 21 49 22 50 23 51
REMARK SMILES IDX 73 52 24 53 78 54 72 55 74 56 25 57 77 58 71 59 70 60 26 62
REMARK SMILES IDX 58 63 38 64 57 65 39 66 42 67 56 68 75 69 40 70 41 71 55 73
REMARK SMILES IDX 76 74 43 75 27 76 28 77 36 78 29 79 30 80 34 81 37 82 31 83
REMARK SMILES IDX 32 84 35 85 33 86 59 87 60 88 68 89 61 90 62 91 66 92 69 93
REMARK SMILES IDX 63 94 64 95 67 96 65 97 44 98 45 99 53 100 46 101 47 102
REMARK SMILES IDX 51 103 54 104 48 105 49 106 52 107 50 108
REMARK H PARENT 89 21 74 61 42 72
REMARK Flexibility Score: inf
ROOT
ATOM      1  C   UNL A   1      46.272  23.181  36.365  1.00  0.00     0.202 C 
ENDROOT
BRANCH   1   2
ATOM      2  C   UNL A   1      45.622  21.850  35.985  1.00  0.00     0.261 C 
BRANCH   2   3
ATOM      3  O   UNL A   1      45.684  20.991  37.130  1.00  0.00    -0.458 OA
BRANCH   3   4
ATOM      4  C   UNL A   1      46.013  19.707  36.890  1.00  0.00     0.359 C 
ATOM      5  O   UNL A   1      45.754  19.022  35.926  1.00  0.00    -0.244 OA
BRANCH   4   6
ATOM      6  C   UNL A   1      46.992  19.289  37.973  1.00  0.00     0.176 A 
ATOM      7  N   UNL A   1      47.362  18.426  40.083  1.00  0.00    -0.219 N 
ATOM      8  N   UNL A   1      46.507  18.725  39.042  1.00  0.00    -0.161 NA
ATOM      9  C   UNL A   1      48.731  18.707  40.058  1.00  0.00     0.275 A 
ATOM     10  C   UNL A   1      49.281  19.251  38.802  1.00  0.00     0.051 A 
ATOM     11  O   UNL A   1      49.485  18.457  40.992  1.00  0.00    -0.267 OA
ATOM     12  C   UNL A   1      48.418  19.589  37.768  1.00  0.00     0.022 A 
ATOM     13  C   UNL A   1      50.664  19.435  38.651  1.00  0.00     0.014 A 
ATOM     14  C   UNL A   1      48.922  20.180  36.601  1.00  0.00     0.011 A 
ATOM     15  C   UNL A   1      51.169  20.001  37.479  1.00  0.00     0.001 A 
ATOM     16  C   UNL A   1      50.297  20.389  36.464  1.00  0.00     0.001 A 
BRANCH   7  17
ATOM     17  C   UNL A   1      46.732  17.913  41.327  1.00  0.00     0.248 C 
BRANCH  17  18
ATOM     18  C   UNL A   1      45.186  17.943  41.358  1.00  0.00     0.246 C 
ATOM     19  O   UNL A   1      44.549  18.923  41.731  1.00  0.00    -0.273 OA
ATOM     20  N   UNL A   1      44.643  16.741  40.991  1.00  0.00    -0.324 N 
ATOM     21  H   UNL A   1      45.240  16.134  40.497  1.00  0.00     0.169 HD
BRANCH  20  22
ATOM     22  C   UNL A   1      43.356  16.265  41.224  1.00  0.00     0.042 A 
ATOM     23  C   UNL A   1      42.576  15.738  40.193  1.00  0.00     0.027 A 
ATOM     24  C   UNL A   1      43.133  15.907  42.551  1.00  0.00     0.039 A 
ATOM     25  C   UNL A   1      41.723  14.663  40.480  1.00  0.00     0.015 A 
ATOM     26  C   UNL A   1      42.318  14.826  42.824  1.00  0.00     0.036 A 
ATOM     27  C   UNL A   1      41.694  14.145  41.782  1.00  0.00     0.034 A 
ATOM     28  C   UNL A   1      42.484  14.191  44.138  1.00  0.00     0.194 C 
ATOM     29  C   UNL A   1      41.351  12.720  42.007  1.00  0.00     0.194 C 
ATOM     30  O   UNL A   1      42.604  14.839  45.166  1.00  0.00    -0.289 OA
ATOM     31  C   UNL A   1      42.719  12.744  44.087  1.00  0.00     0.034 A 
ATOM     32  C   UNL A   1      42.179  12.016  43.023  1.00  0.00     0.034 A 
ATOM     33  O   UNL A   1      40.552  12.126  41.299  1.00  0.00    -0.289 OA
ATOM     34  C   UNL A   1      43.638  12.171  44.968  1.00  0.00     0.013 A 
ATOM     35  C   UNL A   1      42.567  10.691  42.830  1.00  0.00     0.013 A 
ATOM     36  C   UNL A   1      44.051  10.859  44.751  1.00  0.00     0.001 A 
ATOM     37  C   UNL A   1      43.519  10.124  43.686  1.00  0.00     0.001 A 
ENDBRANCH  20  22
ENDBRANCH  17  18
ENDBRANCH   7  17
ENDBRANCH   4   6
ENDBRANCH   3   4
ENDBRANCH   2   3
ENDBRANCH   1   2
BRANCH   1  38
ATOM     38  O   UNL A   1      47.076  23.070  37.545  1.00  0.00    -0.374 OA
BRANCH  38  39
ATOM     39  C   UNL A   1      46.831  24.040  38.569  1.00  0.00     0.202 C 
BRANCH  39  40
ATOM     40  C   UNL A   1      47.666  25.315  38.422  1.00  0.00     0.261 C 
BRANCH  40  41
ATOM     41  O   UNL A   1      46.847  26.376  37.895  1.00  0.00    -0.460 OA
BRANCH  41  42
ATOM     42  C   UNL A   1      47.294  26.957  36.757  1.00  0.00     0.338 C 
ATOM     43  O   UNL A   1      48.450  27.038  36.379  1.00  0.00    -0.246 OA
BRANCH  42  44
ATOM     44  C   UNL A   1      46.139  27.346  35.914  1.00  0.00     0.060 A 
ATOM     45  C   UNL A   1      44.936  26.631  35.910  1.00  0.00     0.016 A 
ATOM     46  C   UNL A   1      46.285  28.477  35.101  1.00  0.00     0.016 A 
ATOM     47  C   UNL A   1      43.871  27.071  35.116  1.00  0.00     0.010 A 
ATOM     48  C   UNL A   1      45.225  28.913  34.308  1.00  0.00     0.010 A 
ATOM     49  C   UNL A   1      44.005  28.224  34.325  1.00  0.00    -0.014 A 
BRANCH  49  50
ATOM     50  C   UNL A   1      42.832  28.796  33.624  1.00  0.00     0.031 A 
ATOM     51  C   UNL A   1      41.892  29.739  34.308  1.00  0.00     0.074 A 
ATOM     52  C   UNL A   1      42.602  28.411  32.356  1.00  0.00     0.049 A 
ATOM     53  N   UNL A   1      40.850  30.360  33.815  1.00  0.00    -0.248 NA
ATOM     54  C   UNL A   1      42.146  30.018  35.728  1.00  0.00     0.031 C 
ATOM     55  C   UNL A   1      43.427  27.466  31.603  1.00  0.00     0.029 A 
ATOM     56  N   UNL A   1      41.607  28.762  31.480  1.00  0.00    -0.354 N 
ATOM     57  C   UNL A   1      40.336  31.122  34.854  1.00  0.00     0.074 A 
ATOM     58  C   UNL A   1      41.155  30.853  36.018  1.00  0.00     0.031 C 
ATOM     59  C   UNL A   1      42.912  27.319  30.374  1.00  0.00     0.029 A 
ATOM     60  C   UNL A   1      41.718  28.152  30.255  1.00  0.00     0.049 A 
ATOM     61  H   UNL A   1      40.884  29.389  31.706  1.00  0.00     0.167 HD
ATOM     62  C   UNL A   1      39.289  31.980  34.825  1.00  0.00     0.037 A 
ATOM     63  C   UNL A   1      40.949  28.260  29.157  1.00  0.00     0.037 A 
ATOM     64  C   UNL A   1      38.468  32.234  33.668  1.00  0.00     0.049 A 
ATOM     65  C   UNL A   1      39.771  29.189  29.167  1.00  0.00     0.074 A 
ATOM     66  C   UNL A   1      37.424  33.133  33.531  1.00  0.00     0.029 A 
ATOM     67  N   UNL A   1      38.591  31.578  32.454  1.00  0.00    -0.354 N 
ATOM     68  N   UNL A   1      39.346  29.970  30.128  1.00  0.00    -0.248 NA
ATOM     69  C   UNL A   1      38.968  29.255  27.937  1.00  0.00     0.031 C 
ATOM     70  C   UNL A   1      36.890  32.993  32.246  1.00  0.00     0.029 A 
ATOM     71  C   UNL A   1      37.623  32.030  31.571  1.00  0.00     0.049 A 
ATOM     72  H   UNL A   1      39.265  30.891  32.249  1.00  0.00     0.167 HD
ATOM     73  C   UNL A   1      38.242  30.635  29.617  1.00  0.00     0.074 A 
ATOM     74  C   UNL A   1      38.064  30.170  28.256  1.00  0.00     0.031 C 
ATOM     75  C   UNL A   1      37.450  31.553  30.223  1.00  0.00     0.037 A 
BRANCH  62  76
ATOM     76  C   UNL A   1      38.973  32.735  36.080  1.00  0.00     0.064 A 
ATOM     77  C   UNL A   1      38.200  32.155  37.097  1.00  0.00     0.173 A 
ATOM     78  C   UNL A   1      39.512  34.009  36.307  1.00  0.00     0.173 A 
ATOM     79  F   UNL A   1      37.658  30.940  36.921  1.00  0.00    -0.203 F 
ATOM     80  C   UNL A   1      37.971  32.827  38.294  1.00  0.00     0.198 A 
ATOM     81  C   UNL A   1      39.295  34.673  37.513  1.00  0.00     0.198 A 
ATOM     82  F   UNL A   1      40.263  34.603  35.368  1.00  0.00    -0.203 F 
ATOM     83  F   UNL A   1      37.213  32.262  39.244  1.00  0.00    -0.200 F 
ATOM     84  C   UNL A   1      38.525  34.082  38.503  1.00  0.00     0.200 A 
ATOM     85  F   UNL A   1      39.836  35.881  37.718  1.00  0.00    -0.200 F 
ATOM     86  F   UNL A   1      38.313  34.723  39.661  1.00  0.00    -0.200 F 
ENDBRANCH  62  76
BRANCH  63  87
ATOM     87  C   UNL A   1      41.314  27.500  27.939  1.00  0.00     0.064 A 
ATOM     88  C   UNL A   1      42.125  28.079  26.954  1.00  0.00     0.173 A 
ATOM     89  C   UNL A   1      40.896  26.175  27.754  1.00  0.00     0.173 A 
ATOM     90  F   UNL A   1      42.533  29.349  27.086  1.00  0.00    -0.203 F 
ATOM     91  C   UNL A   1      42.502  27.359  25.823  1.00  0.00     0.198 A 
ATOM     92  C   UNL A   1      41.288  25.451  26.630  1.00  0.00     0.198 A 
ATOM     93  F   UNL A   1      40.122  25.580  28.674  1.00  0.00    -0.203 F 
ATOM     94  F   UNL A   1      43.263  27.941  24.886  1.00  0.00    -0.200 F 
ATOM     95  C   UNL A   1      42.089  26.044  25.666  1.00  0.00     0.200 A 
ATOM     96  F   UNL A   1      40.895  24.178  26.484  1.00  0.00    -0.200 F 
ATOM     97  F   UNL A   1      42.461  25.350  24.582  1.00  0.00    -0.200 F 
ENDBRANCH  63  87
BRANCH  75  98
ATOM     98  C   UNL A   1      36.320  32.120  29.420  1.00  0.00     0.064 A 
ATOM     99  C   UNL A   1      35.235  31.322  29.029  1.00  0.00     0.173 A 
ATOM    100  C   UNL A   1      36.297  33.480  29.083  1.00  0.00     0.173 A 
ATOM    101  F   UNL A   1      35.223  30.012  29.316  1.00  0.00    -0.203 F 
ATOM    102  C   UNL A   1      34.170  31.867  28.318  1.00  0.00     0.198 A 
ATOM    103  C   UNL A   1      35.221  34.026  28.388  1.00  0.00     0.198 A 
ATOM    104  F   UNL A   1      37.312  34.282  29.438  1.00  0.00    -0.203 F 
ATOM    105  F   UNL A   1      33.155  31.083  27.928  1.00  0.00    -0.200 F 
ATOM    106  C   UNL A   1      34.160  33.219  28.004  1.00  0.00     0.200 A 
ATOM    107  F   UNL A   1      35.210  35.333  28.091  1.00  0.00    -0.200 F 
ATOM    108  F   UNL A   1      33.131  33.743  27.325  1.00  0.00    -0.200 F 
ENDBRANCH  75  98
ENDBRANCH  49  50
ENDBRANCH  42  44
ENDBRANCH  41  42
ENDBRANCH  40  41
ENDBRANCH  39  40
ENDBRANCH  38  39
ENDBRANCH   1  38
TORSDOF 17
ENDMDL
MODEL 2
REMARK VINA RESULT:     -13.4      8.265     16.548
REMARK SMILES O=C(Cn1nc(C(=O)OCCOCCOC(=O)c2ccc(-c3c4nc(c(-c5c(F)c(F)c(F)c(F)c5F)c5ccc([nH]5)c(-c5c(F)c(F)c(F)c(F)c5F)c5nc(c(-c6c(F)c(F)c(F)c(F)c6F)c6ccc3[nH]6)C=C5)C=C4)cc2)c2ccccc2c1=O)Nc1ccc2c(c1)C(=O)c1ccccc1C2=O
REMARK SMILES IDX 11 1 10 2 9 3 7 4 8 5 6 6 4 7 5 8 87 9 86 10 88 11 81 12
REMARK SMILES IDX 85 13 82 14 84 15 83 16 3 17 2 18 1 19 89 20 90 22 91 23
REMARK SMILES IDX 95 24 92 25 94 26 93 27 96 28 104 29 97 30 98 31 103 32
REMARK SMILES IDX 105 33 99 34 102 35 100 36 101 37 12 38 13 39 14 40 15 41
REMARK SMILES IDX 16 42 17 43 18 44 19 45 80 46 20 47 79 48 21 49 22 50 23 51
REMARK SMILES IDX 73 52 24 53 78 54 72 55 74 56 25 57 77 58 71 59 70 60 26 62
REMARK SMILES IDX 58 63 38 64 57 65 39 66 42 67 56 68 75 69 40 70 41 71 55 73
REMARK SMILES IDX 76 74 43 75 27 76 28 77 36 78 29 79 30 80 34 81 37 82 31 83
REMARK SMILES IDX 32 84 35 85 33 86 59 87 60 88 68 89 61 90 62 91 66 92 69 93
REMARK SMILES IDX 63 94 64 95 67 96 65 97 44 98 45 99 53 100 46 101 47 102
REMARK SMILES IDX 51 103 54 104 48 105 49 106 52 107 50 108
REMARK H PARENT 89 21 74 61 42 72
REMARK Flexibility Score: inf
ROOT
ATOM      1  C   UNL A   1      34.042  35.173  31.747  1.00  0.00     0.202 C 
ENDROOT
BRANCH   1   2
ATOM      2  C   UNL A   1      33.191  35.662  30.574  1.00  0.00     0.261 C 
BRANCH   2   3
ATOM      3  O   UNL A   1      33.098  34.591  29.625  1.00  0.00    -0.458 OA
BRANCH   3   4
ATOM      4  C   UNL A   1      33.976  34.627  28.605  1.00  0.00     0.359 C 
ATOM      5  O   UNL A   1      34.402  35.585  28.000  1.00  0.00    -0.244 OA
BRANCH   4   6
ATOM      6  C   UNL A   1      34.545  33.227  28.459  1.00  0.00     0.176 A 
ATOM      7  N   UNL A   1      34.219  31.001  27.940  1.00  0.00    -0.219 N 
ATOM      8  N   UNL A   1      33.760  32.301  27.990  1.00  0.00    -0.161 NA
ATOM      9  C   UNL A   1      35.489  30.617  28.381  1.00  0.00     0.275 A 
ATOM     10  C   UNL A   1      36.402  31.692  28.814  1.00  0.00     0.051 A 
ATOM     11  O   UNL A   1      35.888  29.457  28.353  1.00  0.00    -0.267 OA
ATOM     12  C   UNL A   1      35.929  32.994  28.902  1.00  0.00     0.022 A 
ATOM     13  C   UNL A   1      37.735  31.404  29.143  1.00  0.00     0.014 A 
ATOM     14  C   UNL A   1      36.765  34.010  29.387  1.00  0.00     0.011 A 
ATOM     15  C   UNL A   1      38.574  32.420  29.604  1.00  0.00     0.001 A 
ATOM     16  C   UNL A   1      38.084  33.717  29.742  1.00  0.00     0.001 A 
BRANCH   7  17
ATOM     17  C   UNL A   1      33.234  29.968  27.527  1.00  0.00     0.248 C 
BRANCH  17  18
ATOM     18  C   UNL A   1      32.645  30.134  26.106  1.00  0.00     0.246 C 
ATOM     19  O   UNL A   1      31.697  30.873  25.864  1.00  0.00    -0.273 OA
ATOM     20  N   UNL A   1      33.261  29.316  25.197  1.00  0.00    -0.324 N 
ATOM     21  H   UNL A   1      34.140  28.963  25.465  1.00  0.00     0.169 HD
BRANCH  20  22
ATOM     22  C   UNL A   1      32.806  28.918  23.943  1.00  0.00     0.042 A 
ATOM     23  C   UNL A   1      33.646  28.925  22.828  1.00  0.00     0.027 A 
ATOM     24  C   UNL A   1      31.691  28.086  24.000  1.00  0.00     0.039 A 
ATOM     25  C   UNL A   1      33.493  27.916  21.867  1.00  0.00     0.015 A 
ATOM     26  C   UNL A   1      31.564  27.073  23.070  1.00  0.00     0.036 A 
ATOM     27  C   UNL A   1      32.518  26.929  22.065  1.00  0.00     0.034 A 
ATOM     28  C   UNL A   1      30.683  25.955  23.430  1.00  0.00     0.194 C 
ATOM     29  C   UNL A   1      32.705  25.574  21.492  1.00  0.00     0.194 C 
ATOM     30  O   UNL A   1      29.590  26.126  23.948  1.00  0.00    -0.289 OA
ATOM     31  C   UNL A   1      31.307  24.632  23.324  1.00  0.00     0.034 A 
ATOM     32  C   UNL A   1      32.323  24.445  22.383  1.00  0.00     0.034 A 
ATOM     33  O   UNL A   1      33.278  25.393  20.428  1.00  0.00    -0.289 OA
ATOM     34  C   UNL A   1      31.026  23.667  24.294  1.00  0.00     0.013 A 
ATOM     35  C   UNL A   1      33.079  23.274  22.412  1.00  0.00     0.013 A 
ATOM     36  C   UNL A   1      31.808  22.516  24.343  1.00  0.00     0.001 A 
ATOM     37  C   UNL A   1      32.830  22.322  23.407  1.00  0.00     0.001 A 
ENDBRANCH  20  22
ENDBRANCH  17  18
ENDBRANCH   7  17
ENDBRANCH   4   6
ENDBRANCH   3   4
ENDBRANCH   2   3
ENDBRANCH   1   2
BRANCH   1  38
ATOM     38  O   UNL A   1      33.298  34.338  32.641  1.00  0.00    -0.374 OA
BRANCH  38  39
ATOM     39  C   UNL A   1      34.036  33.300  33.296  1.00  0.00     0.202 C 
BRANCH  39  40
ATOM     40  C   UNL A   1      35.468  33.143  32.778  1.00  0.00     0.261 C 
BRANCH  40  41
ATOM     41  O   UNL A   1      36.060  31.953  33.333  1.00  0.00    -0.460 OA
BRANCH  41  42
ATOM     42  C   UNL A   1      37.049  32.152  34.235  1.00  0.00     0.338 C 
ATOM     43  O   UNL A   1      36.948  32.671  35.334  1.00  0.00    -0.246 OA
BRANCH  42  44
ATOM     44  C   UNL A   1      38.285  31.482  33.768  1.00  0.00     0.060 A 
ATOM     45  C   UNL A   1      38.272  30.462  32.811  1.00  0.00     0.016 A 
ATOM     46  C   UNL A   1      39.499  31.905  34.325  1.00  0.00     0.016 A 
ATOM     47  C   UNL A   1      39.479  29.892  32.388  1.00  0.00     0.010 A 
ATOM     48  C   UNL A   1      40.700  31.335  33.905  1.00  0.00     0.010 A 
ATOM     49  C   UNL A   1      40.699  30.339  32.920  1.00  0.00    -0.014 A 
BRANCH  49  50
ATOM     50  C   UNL A   1      41.984  29.870  32.352  1.00  0.00     0.031 A 
ATOM     51  C   UNL A   1      42.617  30.550  31.178  1.00  0.00     0.074 A 
ATOM     52  C   UNL A   1      42.557  28.781  32.894  1.00  0.00     0.049 A 
ATOM     53  N   UNL A   1      43.761  30.288  30.597  1.00  0.00    -0.248 NA
ATOM     54  C   UNL A   1      41.871  31.660  30.571  1.00  0.00     0.031 C 
ATOM     55  C   UNL A   1      42.009  28.014  34.013  1.00  0.00     0.029 A 
ATOM     56  N   UNL A   1      43.720  28.127  32.575  1.00  0.00    -0.354 N 
ATOM     57  C   UNL A   1      43.887  31.213  29.572  1.00  0.00     0.074 A 
ATOM     58  C   UNL A   1      42.681  32.017  29.581  1.00  0.00     0.031 C 
ATOM     59  C   UNL A   1      42.840  26.999  34.296  1.00  0.00     0.029 A 
ATOM     60  C   UNL A   1      43.972  27.041  33.374  1.00  0.00     0.049 A 
ATOM     61  H   UNL A   1      44.315  28.409  31.844  1.00  0.00     0.167 HD
ATOM     62  C   UNL A   1      44.925  31.384  28.719  1.00  0.00     0.037 A 
ATOM     63  C   UNL A   1      45.005  26.179  33.371  1.00  0.00     0.037 A 
ATOM     64  C   UNL A   1      46.115  30.573  28.704  1.00  0.00     0.049 A 
ATOM     65  C   UNL A   1      46.123  26.368  32.386  1.00  0.00     0.074 A 
ATOM     66  C   UNL A   1      47.244  30.711  27.915  1.00  0.00     0.029 A 
ATOM     67  N   UNL A   1      46.325  29.463  29.509  1.00  0.00    -0.354 N 
ATOM     68  N   UNL A   1      46.272  27.300  31.478  1.00  0.00    -0.248 NA
ATOM     69  C   UNL A   1      47.218  25.389  32.431  1.00  0.00     0.031 C 
ATOM     70  C   UNL A   1      48.120  29.662  28.214  1.00  0.00     0.029 A 
ATOM     71  C   UNL A   1      47.552  28.889  29.214  1.00  0.00     0.049 A 
ATOM     72  H   UNL A   1      45.695  29.130  30.188  1.00  0.00     0.167 HD
ATOM     73  C   UNL A   1      47.482  27.034  30.857  1.00  0.00     0.074 A 
ATOM     74  C   UNL A   1      48.033  25.856  31.495  1.00  0.00     0.031 C 
ATOM     75  C   UNL A   1      48.084  27.712  29.849  1.00  0.00     0.037 A 
BRANCH  62  76
ATOM     76  C   UNL A   1      44.837  32.508  27.733  1.00  0.00     0.064 A 
ATOM     77  C   UNL A   1      45.410  33.758  28.010  1.00  0.00     0.173 A 
ATOM     78  C   UNL A   1      44.255  32.315  26.472  1.00  0.00     0.173 A 
ATOM     79  F   UNL A   1      45.972  33.992  29.206  1.00  0.00    -0.203 F 
ATOM     80  C   UNL A   1      45.394  34.778  27.063  1.00  0.00     0.198 A 
ATOM     81  C   UNL A   1      44.256  33.332  25.520  1.00  0.00     0.198 A 
ATOM     82  F   UNL A   1      43.701  31.134  26.157  1.00  0.00    -0.203 F 
ATOM     83  F   UNL A   1      45.930  35.971  27.356  1.00  0.00    -0.200 F 
ATOM     84  C   UNL A   1      44.825  34.561  25.817  1.00  0.00     0.200 A 
ATOM     85  F   UNL A   1      43.713  33.119  24.314  1.00  0.00    -0.200 F 
ATOM     86  F   UNL A   1      44.822  35.540  24.902  1.00  0.00    -0.200 F 
ENDBRANCH  62  76
BRANCH  63  87
ATOM     87  C   UNL A   1      45.047  25.092  34.375  1.00  0.00     0.064 A 
ATOM     88  C   UNL A   1      44.606  23.803  34.048  1.00  0.00     0.173 A 
ATOM     89  C   UNL A   1      45.562  25.306  35.661  1.00  0.00     0.173 A 
ATOM     90  F   UNL A   1      44.092  23.560  32.834  1.00  0.00    -0.203 F 
ATOM     91  C   UNL A   1      44.675  22.767  34.975  1.00  0.00     0.198 A 
ATOM     92  C   UNL A   1      45.646  24.264  36.581  1.00  0.00     0.198 A 
ATOM     93  F   UNL A   1      46.000  26.523  36.014  1.00  0.00    -0.203 F 
ATOM     94  F   UNL A   1      44.229  21.546  34.645  1.00  0.00    -0.200 F 
ATOM     95  C   UNL A   1      45.201  22.996  36.238  1.00  0.00     0.200 A 
ATOM     96  F   UNL A   1      46.163  24.486  37.797  1.00  0.00    -0.200 F 
ATOM     97  F   UNL A   1      45.276  21.995  37.125  1.00  0.00    -0.200 F 
ENDBRANCH  63  87
BRANCH  75  98
ATOM     98  C   UNL A   1      49.408  27.199  29.374  1.00  0.00     0.064 A 
ATOM     99  C   UNL A   1      49.495  26.258  28.339  1.00  0.00     0.173 A 
ATOM    100  C   UNL A   1      50.602  27.690  29.923  1.00  0.00     0.173 A 
ATOM    101  F   UNL A   1      48.379  25.749  27.795  1.00  0.00    -0.203 F 
ATOM    102  C   UNL A   1      50.732  25.818  27.877  1.00  0.00     0.198 A 
ATOM    103  C   UNL A   1      51.837  27.262  29.446  1.00  0.00     0.198 A 
ATOM    104  F   UNL A   1      50.568  28.593  30.915  1.00  0.00    -0.203 F 
ATOM    105  F   UNL A   1      50.793  24.897  26.905  1.00  0.00    -0.200 F 
ATOM    106  C   UNL A   1      51.902  26.325  28.425  1.00  0.00     0.200 A 
ATOM    107  F   UNL A   1      52.966  27.757  29.972  1.00  0.00    -0.200 F 
ATOM    108  F   UNL A   1      53.091  25.905  27.974  1.00  0.00    -0.200 F 
ENDBRANCH  75  98
ENDBRANCH  49  50
ENDBRANCH  42  44
ENDBRANCH  41  42
ENDBRANCH  40  41
ENDBRANCH  39  40
ENDBRANCH  38  39
ENDBRANCH   1  38
TORSDOF 17
ENDMDL
MODEL 3
REMARK VINA RESULT:     -13.3      8.777     16.075
REMARK SMILES O=C(Cn1nc(C(=O)OCCOCCOC(=O)c2ccc(-c3c4nc(c(-c5c(F)c(F)c(F)c(F)c5F)c5ccc([nH]5)c(-c5c(F)c(F)c(F)c(F)c5F)c5nc(c(-c6c(F)c(F)c(F)c(F)c6F)c6ccc3[nH]6)C=C5)C=C4)cc2)c2ccccc2c1=O)Nc1ccc2c(c1)C(=O)c1ccccc1C2=O
REMARK SMILES IDX 11 1 10 2 9 3 7 4 8 5 6 6 4 7 5 8 87 9 86 10 88 11 81 12
REMARK SMILES IDX 85 13 82 14 84 15 83 16 3 17 2 18 1 19 89 20 90 22 91 23
REMARK SMILES IDX 95 24 92 25 94 26 93 27 96 28 104 29 97 30 98 31 103 32
REMARK SMILES IDX 105 33 99 34 102 35 100 36 101 37 12 38 13 39 14 40 15 41
REMARK SMILES IDX 16 42 17 43 18 44 19 45 80 46 20 47 79 48 21 49 22 50 23 51
REMARK SMILES IDX 73 52 24 53 78 54 72 55 74 56 25 57 77 58 71 59 70 60 26 62
REMARK SMILES IDX 58 63 38 64 57 65 39 66 42 67 56 68 75 69 40 70 41 71 55 73
REMARK SMILES IDX 76 74 43 75 27 76 28 77 36 78 29 79 30 80 34 81 37 82 31 83
REMARK SMILES IDX 32 84 35 85 33 86 59 87 60 88 68 89 61 90 62 91 66 92 69 93
REMARK SMILES IDX 63 94 64 95 67 96 65 97 44 98 45 99 53 100 46 101 47 102
REMARK SMILES IDX 51 103 54 104 48 105 49 106 52 107 50 108
REMARK H PARENT 89 21 74 61 42 72
REMARK Flexibility Score: inf
ROOT
ATOM      1  C   UNL A   1      43.185  26.896  25.034  1.00  0.00     0.202 C 
ENDROOT
BRANCH   1   2
ATOM      2  C   UNL A   1      42.479  25.582  25.370  1.00  0.00     0.261 C 
BRANCH   2   3
ATOM      3  O   UNL A   1      43.265  24.513  24.826  1.00  0.00    -0.458 OA
BRANCH   3   4
ATOM      4  C   UNL A   1      43.963  23.779  25.715  1.00  0.00     0.359 C 
ATOM      5  O   UNL A   1      44.773  24.146  26.536  1.00  0.00    -0.244 OA
BRANCH   4   6
ATOM      6  C   UNL A   1      43.391  22.373  25.676  1.00  0.00     0.176 A 
ATOM      7  N   UNL A   1      41.614  20.947  26.050  1.00  0.00    -0.219 N 
ATOM      8  N   UNL A   1      42.134  22.223  25.982  1.00  0.00    -0.161 NA
ATOM      9  C   UNL A   1      42.371  19.794  25.819  1.00  0.00     0.275 A 
ATOM     10  C   UNL A   1      43.765  19.986  25.375  1.00  0.00     0.051 A 
ATOM     11  O   UNL A   1      41.911  18.660  25.900  1.00  0.00    -0.267 OA
ATOM     12  C   UNL A   1      44.301  21.266  25.342  1.00  0.00     0.022 A 
ATOM     13  C   UNL A   1      44.548  18.886  24.995  1.00  0.00     0.014 A 
ATOM     14  C   UNL A   1      45.647  21.452  24.998  1.00  0.00     0.011 A 
ATOM     15  C   UNL A   1      45.882  19.073  24.628  1.00  0.00     0.001 A 
ATOM     16  C   UNL A   1      46.435  20.352  24.647  1.00  0.00     0.001 A 
BRANCH   7  17
ATOM     17  C   UNL A   1      40.216  20.829  26.538  1.00  0.00     0.248 C 
BRANCH  17  18
ATOM     18  C   UNL A   1      39.315  22.064  26.296  1.00  0.00     0.246 C 
ATOM     19  O   UNL A   1      39.449  23.113  26.917  1.00  0.00    -0.273 OA
ATOM     20  N   UNL A   1      38.335  21.810  25.374  1.00  0.00    -0.324 N 
ATOM     21  H   UNL A   1      38.485  21.030  24.793  1.00  0.00     0.169 HD
BRANCH  20  22
ATOM     22  C   UNL A   1      37.153  22.512  25.152  1.00  0.00     0.042 A 
ATOM     23  C   UNL A   1      36.911  23.166  23.943  1.00  0.00     0.027 A 
ATOM     24  C   UNL A   1      36.105  22.098  25.971  1.00  0.00     0.039 A 
ATOM     25  C   UNL A   1      35.600  23.190  23.445  1.00  0.00     0.015 A 
ATOM     26  C   UNL A   1      34.821  22.094  25.462  1.00  0.00     0.036 A 
ATOM     27  C   UNL A   1      34.585  22.546  24.166  1.00  0.00     0.034 A 
ATOM     28  C   UNL A   1      33.847  21.229  26.141  1.00  0.00     0.194 C 
ATOM     29  C   UNL A   1      33.402  22.000  23.458  1.00  0.00     0.194 C 
ATOM     30  O   UNL A   1      33.768  21.165  27.358  1.00  0.00    -0.289 OA
ATOM     31  C   UNL A   1      33.143  20.296  25.255  1.00  0.00     0.034 A 
ATOM     32  C   UNL A   1      32.940  20.664  23.922  1.00  0.00     0.034 A 
ATOM     33  O   UNL A   1      32.937  22.536  22.464  1.00  0.00    -0.289 OA
ATOM     34  C   UNL A   1      32.885  18.998  25.699  1.00  0.00     0.013 A 
ATOM     35  C   UNL A   1      32.476  19.716  23.011  1.00  0.00     0.013 A 
ATOM     36  C   UNL A   1      32.457  18.044  24.779  1.00  0.00     0.001 A 
ATOM     37  C   UNL A   1      32.256  18.402  23.441  1.00  0.00     0.001 A 
ENDBRANCH  20  22
ENDBRANCH  17  18
ENDBRANCH   7  17
ENDBRANCH   4   6
ENDBRANCH   3   4
ENDBRANCH   2   3
ENDBRANCH   1   2
BRANCH   1  38
ATOM     38  O   UNL A   1      42.257  27.952  24.764  1.00  0.00    -0.374 OA
BRANCH  38  39
ATOM     39  C   UNL A   1      41.898  28.776  25.879  1.00  0.00     0.202 C 
BRANCH  39  40
ATOM     40  C   UNL A   1      40.499  28.490  26.432  1.00  0.00     0.261 C 
BRANCH  40  41
ATOM     41  O   UNL A   1      40.559  28.348  27.864  1.00  0.00    -0.460 OA
BRANCH  41  42
ATOM     42  C   UNL A   1      40.463  27.084  28.336  1.00  0.00     0.338 C 
ATOM     43  O   UNL A   1      39.561  26.290  28.132  1.00  0.00    -0.246 OA
BRANCH  42  44
ATOM     44  C   UNL A   1      41.725  26.714  29.019  1.00  0.00     0.060 A 
ATOM     45  C   UNL A   1      42.303  25.446  28.897  1.00  0.00     0.016 A 
ATOM     46  C   UNL A   1      42.341  27.692  29.810  1.00  0.00     0.016 A 
ATOM     47  C   UNL A   1      43.515  25.171  29.542  1.00  0.00     0.010 A 
ATOM     48  C   UNL A   1      43.547  27.417  30.454  1.00  0.00     0.010 A 
ATOM     49  C   UNL A   1      44.150  26.161  30.309  1.00  0.00    -0.014 A 
BRANCH  49  50
ATOM     50  C   UNL A   1      45.514  25.939  30.844  1.00  0.00     0.031 A 
ATOM     51  C   UNL A   1      46.734  26.202  30.017  1.00  0.00     0.074 A 
ATOM     52  C   UNL A   1      45.633  25.448  32.090  1.00  0.00     0.049 A 
ATOM     53  N   UNL A   1      47.994  26.101  30.359  1.00  0.00    -0.248 NA
ATOM     54  C   UNL A   1      46.517  26.625  28.627  1.00  0.00     0.031 C 
ATOM     55  C   UNL A   1      44.513  25.115  32.971  1.00  0.00     0.029 A 
ATOM     56  N   UNL A   1      46.746  25.139  32.829  1.00  0.00    -0.354 N 
ATOM     57  C   UNL A   1      48.722  26.470  29.239  1.00  0.00     0.074 A 
ATOM     58  C   UNL A   1      47.764  26.757  28.190  1.00  0.00     0.031 C 
ATOM     59  C   UNL A   1      44.995  24.658  34.137  1.00  0.00     0.029 A 
ATOM     60  C   UNL A   1      46.454  24.659  34.081  1.00  0.00     0.049 A 
ATOM     61  H   UNL A   1      47.665  25.250  32.494  1.00  0.00     0.167 HD
ATOM     62  C   UNL A   1      50.066  26.579  29.110  1.00  0.00     0.037 A 
ATOM     63  C   UNL A   1      47.272  24.271  35.076  1.00  0.00     0.037 A 
ATOM     64  C   UNL A   1      51.016  26.280  30.151  1.00  0.00     0.049 A 
ATOM     65  C   UNL A   1      48.759  24.364  34.891  1.00  0.00     0.074 A 
ATOM     66  C   UNL A   1      52.393  26.419  30.129  1.00  0.00     0.029 A 
ATOM     67  N   UNL A   1      50.687  25.768  31.397  1.00  0.00    -0.354 N 
ATOM     68  N   UNL A   1      49.434  24.797  33.857  1.00  0.00    -0.248 NA
ATOM     69  C   UNL A   1      49.595  23.918  36.014  1.00  0.00     0.031 C 
ATOM     70  C   UNL A   1      52.901  25.955  31.347  1.00  0.00     0.029 A 
ATOM     71  C   UNL A   1      51.836  25.558  32.142  1.00  0.00     0.049 A 
ATOM     72  H   UNL A   1      49.771  25.581  31.707  1.00  0.00     0.167 HD
ATOM     73  C   UNL A   1      50.772  24.697  34.208  1.00  0.00     0.074 A 
ATOM     74  C   UNL A   1      50.814  24.166  35.555  1.00  0.00     0.031 C 
ATOM     75  C   UNL A   1      51.866  25.021  33.477  1.00  0.00     0.037 A 
BRANCH  62  76
ATOM     76  C   UNL A   1      50.603  27.063  27.798  1.00  0.00     0.064 A 
ATOM     77  C   UNL A   1      50.947  26.160  26.781  1.00  0.00     0.173 A 
ATOM     78  C   UNL A   1      50.696  28.434  27.521  1.00  0.00     0.173 A 
ATOM     79  F   UNL A   1      50.880  24.838  27.003  1.00  0.00    -0.203 F 
ATOM     80  C   UNL A   1      51.373  26.612  25.536  1.00  0.00     0.198 A 
ATOM     81  C   UNL A   1      51.107  28.884  26.268  1.00  0.00     0.198 A 
ATOM     82  F   UNL A   1      50.371  29.336  28.458  1.00  0.00    -0.203 F 
ATOM     83  F   UNL A   1      51.716  25.732  24.586  1.00  0.00    -0.200 F 
ATOM     84  C   UNL A   1      51.445  27.974  25.279  1.00  0.00     0.200 A 
ATOM     85  F   UNL A   1      51.169  30.199  26.018  1.00  0.00    -0.200 F 
ATOM     86  F   UNL A   1      51.845  28.408  24.075  1.00  0.00    -0.200 F 
ENDBRANCH  62  76
BRANCH  63  87
ATOM     87  C   UNL A   1      46.688  23.812  36.358  1.00  0.00     0.064 A 
ATOM     88  C   UNL A   1      46.543  22.444  36.623  1.00  0.00     0.173 A 
ATOM     89  C   UNL A   1      46.304  24.721  37.352  1.00  0.00     0.173 A 
ATOM     90  F   UNL A   1      46.885  21.541  35.693  1.00  0.00    -0.203 F 
ATOM     91  C   UNL A   1      46.028  22.002  37.839  1.00  0.00     0.198 A 
ATOM     92  C   UNL A   1      45.805  24.276  38.574  1.00  0.00     0.198 A 
ATOM     93  F   UNL A   1      46.430  26.039  37.141  1.00  0.00    -0.203 F 
ATOM     94  F   UNL A   1      45.881  20.688  38.064  1.00  0.00    -0.200 F 
ATOM     95  C   UNL A   1      45.666  22.918  38.816  1.00  0.00     0.200 A 
ATOM     96  F   UNL A   1      45.464  25.163  39.519  1.00  0.00    -0.200 F 
ATOM     97  F   UNL A   1      45.181  22.491  39.989  1.00  0.00    -0.200 F 
ENDBRANCH  63  87
BRANCH  75  98
ATOM     98  C   UNL A   1      53.204  24.815  34.119  1.00  0.00     0.064 A 
ATOM     99  C   UNL A   1      53.892  23.600  33.989  1.00  0.00     0.173 A 
ATOM    100  C   UNL A   1      53.825  25.855  34.824  1.00  0.00     0.173 A 
ATOM    101  F   UNL A   1      53.330  22.572  33.337  1.00  0.00    -0.203 F 
ATOM    102  C   UNL A   1      55.153  23.432  34.555  1.00  0.00     0.198 A 
ATOM    103  C   UNL A   1      55.093  25.690  35.372  1.00  0.00     0.198 A 
ATOM    104  F   UNL A   1      53.204  27.036  34.971  1.00  0.00    -0.203 F 
ATOM    105  F   UNL A   1      55.783  22.254  34.445  1.00  0.00    -0.200 F 
ATOM    106  C   UNL A   1      55.755  24.478  35.240  1.00  0.00     0.200 A 
ATOM    107  F   UNL A   1      55.677  26.703  36.028  1.00  0.00    -0.200 F 
ATOM    108  F   UNL A   1      56.972  24.316  35.777  1.00  0.00    -0.200 F 
ENDBRANCH  75  98
ENDBRANCH  49  50
ENDBRANCH  42  44
ENDBRANCH  41  42
ENDBRANCH  40  41
ENDBRANCH  39  40
ENDBRANCH  38  39
ENDBRANCH   1  38
TORSDOF 17
ENDMDL
