MODEL 1
REMARK VINA RESULT:     -12.3      0.000      0.000
REMARK SMILES Cc1cc(C(=O)OCCOCCOC(=O)c2ccc(-c3c4nc(c(-c5c(F)c(F)c(F)c(F)c5F)c5ccc([nH]5)c(-c5c(F)c(F)c(F)c(F)c5F)c5nc(c(-c6c(F)c(F)c(F)c(F)c6F)c6ccc3[nH]6)C=C5)C=C4)cc2)ccc1NS(=O)(=O)c1ccc(C#N)cc1C
REMARK SMILES IDX 9 1 8 2 7 3 5 4 6 5 4 6 1 7 2 8 3 9 81 10 80 11 79 12 82 13
REMARK SMILES IDX 83 15 84 16 85 17 86 18 87 19 93 20 88 21 92 22 94 23 89 24
REMARK SMILES IDX 90 25 91 26 10 27 11 28 12 29 13 30 14 31 15 32 16 33 17 34
REMARK SMILES IDX 78 35 18 36 77 37 19 38 20 39 21 40 71 41 22 42 76 43 70 44
REMARK SMILES IDX 72 45 23 46 75 47 69 48 68 49 24 51 56 52 36 53 55 54 37 55
REMARK SMILES IDX 40 56 54 57 73 58 38 59 39 60 53 62 74 63 41 64 25 65 26 66
REMARK SMILES IDX 34 67 27 68 28 69 32 70 35 71 29 72 30 73 33 74 31 75 57 76
REMARK SMILES IDX 58 77 66 78 59 79 60 80 64 81 67 82 61 83 62 84 65 85 63 86
REMARK SMILES IDX 42 87 43 88 51 89 44 90 45 91 49 92 52 93 46 94 47 95 50 96
REMARK SMILES IDX 48 97
REMARK H PARENT 82 14 72 50 40 61
REMARK Flexibility Score: inf
ROOT
ATOM      1  C   UNL A   1      40.882  20.301  26.719  1.00  0.00     0.202 C 
ENDROOT
BRANCH   1   2
ATOM      2  C   UNL A   1      40.286  21.340  25.836  1.00  0.00     0.261 C 
BRANCH   2   3
ATOM      3  O   UNL A   1      38.881  21.566  26.064  1.00  0.00    -0.460 OA
BRANCH   3   4
ATOM      4  C   UNL A   1      37.986  20.860  25.318  1.00  0.00     0.338 C 
ATOM      5  O   UNL A   1      38.166  19.812  24.728  1.00  0.00    -0.246 OA
BRANCH   4   6
ATOM      6  C   UNL A   1      36.779  21.693  25.224  1.00  0.00     0.060 A 
ATOM      7  C   UNL A   1      33.127  21.415  24.398  1.00  0.00     0.046 C 
ATOM      8  C   UNL A   1      34.513  21.980  24.512  1.00  0.00    -0.026 A 
ATOM      9  C   UNL A   1      35.556  21.128  24.887  1.00  0.00     0.021 A 
ATOM     10  C   UNL A   1      34.776  23.358  24.373  1.00  0.00     0.052 A 
ATOM     11  C   UNL A   1      35.840  23.908  25.068  1.00  0.00     0.028 A 
ATOM     12  C   UNL A   1      36.872  23.072  25.442  1.00  0.00     0.018 A 
BRANCH  10  13
ATOM     13  N   UNL A   1      34.450  23.925  23.098  1.00  0.00    -0.279 N 
ATOM     14  H   UNL A   1      35.006  23.644  22.335  1.00  0.00     0.180 HD
BRANCH  13  15
ATOM     15  S   UNL A   1      33.219  25.015  22.774  1.00  0.00     0.262 S 
ATOM     16  O   UNL A   1      33.562  25.578  21.484  1.00  0.00    -0.201 OA
ATOM     17  O   UNL A   1      31.964  24.324  22.988  1.00  0.00    -0.201 OA
BRANCH  15  18
ATOM     18  C   UNL A   1      33.245  26.401  23.938  1.00  0.00     0.090 A 
ATOM     19  C   UNL A   1      33.724  27.667  23.577  1.00  0.00     0.024 A 
ATOM     20  C   UNL A   1      32.926  26.154  25.293  1.00  0.00    -0.029 A 
ATOM     21  C   UNL A   1      34.063  28.611  24.562  1.00  0.00     0.021 A 
ATOM     22  C   UNL A   1      33.245  27.125  26.267  1.00  0.00     0.024 A 
ATOM     23  C   UNL A   1      32.177  24.940  25.775  1.00  0.00     0.046 C 
ATOM     24  C   UNL A   1      33.854  28.329  25.914  1.00  0.00     0.052 A 
BRANCH  24  25
ATOM     25  C   UNL A   1      34.251  29.258  26.943  1.00  0.00     0.099 C 
ATOM     26  N   UNL A   1      34.538  30.008  27.772  1.00  0.00    -0.192 NA
ENDBRANCH  24  25
ENDBRANCH  15  18
ENDBRANCH  13  15
ENDBRANCH  10  13
ENDBRANCH   4   6
ENDBRANCH   3   4
ENDBRANCH   2   3
ENDBRANCH   1   2
BRANCH   1  27
ATOM     27  O   UNL A   1      41.563  19.430  25.837  1.00  0.00    -0.374 OA
BRANCH  27  28
ATOM     28  C   UNL A   1      42.761  18.878  26.331  1.00  0.00     0.202 C 
BRANCH  28  29
ATOM     29  C   UNL A   1      43.918  19.082  25.350  1.00  0.00     0.261 C 
BRANCH  29  30
ATOM     30  O   UNL A   1      43.821  20.400  24.756  1.00  0.00    -0.460 OA
BRANCH  30  31
ATOM     31  C   UNL A   1      44.669  21.359  25.234  1.00  0.00     0.338 C 
ATOM     32  O   UNL A   1      45.823  21.168  25.573  1.00  0.00    -0.246 OA
BRANCH  31  33
ATOM     33  C   UNL A   1      43.901  22.602  25.563  1.00  0.00     0.060 A 
ATOM     34  C   UNL A   1      43.865  23.686  24.660  1.00  0.00     0.016 A 
ATOM     35  C   UNL A   1      43.548  22.805  26.891  1.00  0.00     0.016 A 
ATOM     36  C   UNL A   1      43.658  24.996  25.131  1.00  0.00     0.010 A 
ATOM     37  C   UNL A   1      43.502  24.097  27.364  1.00  0.00     0.010 A 
ATOM     38  C   UNL A   1      43.590  25.206  26.503  1.00  0.00    -0.014 A 
BRANCH  38  39
ATOM     39  C   UNL A   1      43.658  26.492  27.209  1.00  0.00     0.031 A 
ATOM     40  C   UNL A   1      42.356  27.151  27.462  1.00  0.00     0.074 A 
ATOM     41  C   UNL A   1      44.775  26.875  27.888  1.00  0.00     0.049 A 
ATOM     42  N   UNL A   1      42.239  28.285  28.044  1.00  0.00    -0.248 NA
ATOM     43  C   UNL A   1      41.055  26.608  27.058  1.00  0.00     0.031 C 
ATOM     44  C   UNL A   1      44.893  27.730  29.079  1.00  0.00     0.029 A 
ATOM     45  N   UNL A   1      46.112  26.495  27.701  1.00  0.00    -0.354 N 
ATOM     46  C   UNL A   1      40.922  28.455  28.392  1.00  0.00     0.074 A 
ATOM     47  C   UNL A   1      40.207  27.462  27.640  1.00  0.00     0.031 C 
ATOM     48  C   UNL A   1      46.184  28.067  29.280  1.00  0.00     0.029 A 
ATOM     49  C   UNL A   1      46.944  27.523  28.166  1.00  0.00     0.049 A 
ATOM     50  H   UNL A   1      46.417  25.646  27.307  1.00  0.00     0.167 HD
ATOM     51  C   UNL A   1      40.653  29.358  29.375  1.00  0.00     0.037 A 
ATOM     52  C   UNL A   1      47.784  28.160  27.310  1.00  0.00     0.037 A 
ATOM     53  C   UNL A   1      41.884  30.095  29.706  1.00  0.00     0.049 A 
ATOM     54  C   UNL A   1      47.261  29.557  27.209  1.00  0.00     0.074 A 
ATOM     55  C   UNL A   1      42.766  30.057  30.771  1.00  0.00     0.029 A 
ATOM     56  N   UNL A   1      42.549  30.763  28.676  1.00  0.00    -0.354 N 
ATOM     57  N   UNL A   1      45.991  29.836  27.362  1.00  0.00    -0.248 NA
ATOM     58  C   UNL A   1      48.115  30.736  27.182  1.00  0.00     0.031 C 
ATOM     59  C   UNL A   1      44.001  30.632  30.327  1.00  0.00     0.029 A 
ATOM     60  C   UNL A   1      43.863  31.035  29.003  1.00  0.00     0.049 A 
ATOM     61  H   UNL A   1      42.132  31.009  27.818  1.00  0.00     0.167 HD
ATOM     62  C   UNL A   1      45.876  31.159  27.642  1.00  0.00     0.074 A 
ATOM     63  C   UNL A   1      47.216  31.697  27.450  1.00  0.00     0.031 C 
ATOM     64  C   UNL A   1      44.725  31.750  28.065  1.00  0.00     0.037 A 
BRANCH  51  65
ATOM     65  C   UNL A   1      39.358  29.505  30.146  1.00  0.00     0.064 A 
ATOM     66  C   UNL A   1      38.398  30.449  29.720  1.00  0.00     0.173 A 
ATOM     67  C   UNL A   1      39.013  28.823  31.334  1.00  0.00     0.173 A 
ATOM     68  F   UNL A   1      38.592  31.184  28.615  1.00  0.00    -0.203 F 
ATOM     69  C   UNL A   1      37.206  30.687  30.415  1.00  0.00     0.198 A 
ATOM     70  C   UNL A   1      37.801  29.032  32.006  1.00  0.00     0.198 A 
ATOM     71  F   UNL A   1      39.837  27.960  31.932  1.00  0.00    -0.203 F 
ATOM     72  F   UNL A   1      36.358  31.627  29.977  1.00  0.00    -0.200 F 
ATOM     73  C   UNL A   1      36.903  29.970  31.553  1.00  0.00     0.200 A 
ATOM     74  F   UNL A   1      37.528  28.325  33.114  1.00  0.00    -0.200 F 
ATOM     75  F   UNL A   1      35.758  30.188  32.214  1.00  0.00    -0.200 F 
ENDBRANCH  51  65
BRANCH  52  76
ATOM     76  C   UNL A   1      48.314  27.219  26.271  1.00  0.00     0.064 A 
ATOM     77  C   UNL A   1      47.797  27.397  24.965  1.00  0.00     0.173 A 
ATOM     78  C   UNL A   1      49.583  26.629  26.372  1.00  0.00     0.173 A 
ATOM     79  F   UNL A   1      46.605  27.991  24.801  1.00  0.00    -0.203 F 
ATOM     80  C   UNL A   1      48.577  27.169  23.829  1.00  0.00     0.198 A 
ATOM     81  C   UNL A   1      50.357  26.393  25.226  1.00  0.00     0.198 A 
ATOM     82  F   UNL A   1      50.147  26.443  27.574  1.00  0.00    -0.203 F 
ATOM     83  F   UNL A   1      48.141  27.575  22.625  1.00  0.00    -0.200 F 
ATOM     84  C   UNL A   1      49.875  26.712  23.965  1.00  0.00     0.200 A 
ATOM     85  F   UNL A   1      51.627  25.975  25.350  1.00  0.00    -0.200 F 
ATOM     86  F   UNL A   1      50.691  26.686  22.900  1.00  0.00    -0.200 F 
ENDBRANCH  52  76
BRANCH  64  87
ATOM     87  C   UNL A   1      44.366  33.128  27.589  1.00  0.00     0.064 A 
ATOM     88  C   UNL A   1      43.939  33.389  26.273  1.00  0.00     0.173 A 
ATOM     89  C   UNL A   1      44.259  34.206  28.492  1.00  0.00     0.173 A 
ATOM     90  F   UNL A   1      43.819  32.416  25.359  1.00  0.00    -0.203 F 
ATOM     91  C   UNL A   1      43.562  34.660  25.860  1.00  0.00     0.198 A 
ATOM     92  C   UNL A   1      43.789  35.453  28.096  1.00  0.00     0.198 A 
ATOM     93  F   UNL A   1      44.566  34.080  29.791  1.00  0.00    -0.203 F 
ATOM     94  F   UNL A   1      43.254  34.869  24.574  1.00  0.00    -0.200 F 
ATOM     95  C   UNL A   1      43.479  35.689  26.774  1.00  0.00     0.200 A 
ATOM     96  F   UNL A   1      43.622  36.417  29.011  1.00  0.00    -0.200 F 
ATOM     97  F   UNL A   1      43.077  36.904  26.383  1.00  0.00    -0.200 F 
ENDBRANCH  64  87
ENDBRANCH  38  39
ENDBRANCH  31  33
ENDBRANCH  30  31
ENDBRANCH  29  30
ENDBRANCH  28  29
ENDBRANCH  27  28
ENDBRANCH   1  27
TORSDOF 18
ENDMDL
MODEL 2
REMARK VINA RESULT:     -12.1      1.518      3.123
REMARK SMILES Cc1cc(C(=O)OCCOCCOC(=O)c2ccc(-c3c4nc(c(-c5c(F)c(F)c(F)c(F)c5F)c5ccc([nH]5)c(-c5c(F)c(F)c(F)c(F)c5F)c5nc(c(-c6c(F)c(F)c(F)c(F)c6F)c6ccc3[nH]6)C=C5)C=C4)cc2)ccc1NS(=O)(=O)c1ccc(C#N)cc1C
REMARK SMILES IDX 9 1 8 2 7 3 5 4 6 5 4 6 1 7 2 8 3 9 81 10 80 11 79 12 82 13
REMARK SMILES IDX 83 15 84 16 85 17 86 18 87 19 93 20 88 21 92 22 94 23 89 24
REMARK SMILES IDX 90 25 91 26 10 27 11 28 12 29 13 30 14 31 15 32 16 33 17 34
REMARK SMILES IDX 78 35 18 36 77 37 19 38 20 39 21 40 71 41 22 42 76 43 70 44
REMARK SMILES IDX 72 45 23 46 75 47 69 48 68 49 24 51 56 52 36 53 55 54 37 55
REMARK SMILES IDX 40 56 54 57 73 58 38 59 39 60 53 62 74 63 41 64 25 65 26 66
REMARK SMILES IDX 34 67 27 68 28 69 32 70 35 71 29 72 30 73 33 74 31 75 57 76
REMARK SMILES IDX 58 77 66 78 59 79 60 80 64 81 67 82 61 83 62 84 65 85 63 86
REMARK SMILES IDX 42 87 43 88 51 89 44 90 45 91 49 92 52 93 46 94 47 95 50 96
REMARK SMILES IDX 48 97
REMARK H PARENT 82 14 72 50 40 61
REMARK Flexibility Score: inf
ROOT
ATOM      1  C   UNL A   1      40.511  20.699  26.925  1.00  0.00     0.202 C 
ENDROOT
BRANCH   1   2
ATOM      2  C   UNL A   1      39.883  21.443  25.801  1.00  0.00     0.261 C 
BRANCH   2   3
ATOM      3  O   UNL A   1      38.583  21.983  26.110  1.00  0.00    -0.460 OA
BRANCH   3   4
ATOM      4  C   UNL A   1      37.513  21.536  25.394  1.00  0.00     0.338 C 
ATOM      5  O   UNL A   1      37.497  20.682  24.528  1.00  0.00    -0.246 OA
BRANCH   4   6
ATOM      6  C   UNL A   1      36.383  22.402  25.757  1.00  0.00     0.060 A 
ATOM      7  C   UNL A   1      33.376  22.449  28.006  1.00  0.00     0.046 C 
ATOM      8  C   UNL A   1      34.258  22.696  26.816  1.00  0.00    -0.026 A 
ATOM      9  C   UNL A   1      35.467  22.001  26.720  1.00  0.00     0.021 A 
ATOM     10  C   UNL A   1      33.967  23.691  25.860  1.00  0.00     0.052 A 
ATOM     11  C   UNL A   1      35.015  24.306  25.198  1.00  0.00     0.028 A 
ATOM     12  C   UNL A   1      36.211  23.625  25.100  1.00  0.00     0.018 A 
BRANCH  10  13
ATOM     13  N   UNL A   1      32.736  23.521  25.146  1.00  0.00    -0.279 N 
ATOM     14  H   UNL A   1      31.935  23.935  25.541  1.00  0.00     0.180 HD
BRANCH  13  15
ATOM     15  S   UNL A   1      32.522  22.690  23.706  1.00  0.00     0.262 S 
ATOM     16  O   UNL A   1      31.225  23.118  23.227  1.00  0.00    -0.201 OA
ATOM     17  O   UNL A   1      33.722  22.881  22.916  1.00  0.00    -0.201 OA
BRANCH  15  18
ATOM     18  C   UNL A   1      32.378  20.908  23.991  1.00  0.00     0.090 A 
ATOM     19  C   UNL A   1      32.560  20.340  25.260  1.00  0.00     0.024 A 
ATOM     20  C   UNL A   1      32.242  20.052  22.874  1.00  0.00    -0.029 A 
ATOM     21  C   UNL A   1      32.793  18.961  25.398  1.00  0.00     0.021 A 
ATOM     22  C   UNL A   1      32.449  18.665  23.036  1.00  0.00     0.024 A 
ATOM     23  C   UNL A   1      31.798  20.509  21.510  1.00  0.00     0.046 C 
ATOM     24  C   UNL A   1      32.771  18.123  24.281  1.00  0.00     0.052 A 
BRANCH  24  25
ATOM     25  C   UNL A   1      33.067  16.717  24.393  1.00  0.00     0.099 C 
ATOM     26  N   UNL A   1      33.294  15.591  24.512  1.00  0.00    -0.192 NA
ENDBRANCH  24  25
ENDBRANCH  15  18
ENDBRANCH  13  15
ENDBRANCH  10  13
ENDBRANCH   4   6
ENDBRANCH   3   4
ENDBRANCH   2   3
ENDBRANCH   1   2
BRANCH   1  27
ATOM     27  O   UNL A   1      41.106  19.569  26.316  1.00  0.00    -0.374 OA
BRANCH  27  28
ATOM     28  C   UNL A   1      42.412  19.263  26.747  1.00  0.00     0.202 C 
BRANCH  28  29
ATOM     29  C   UNL A   1      43.398  19.239  25.575  1.00  0.00     0.261 C 
BRANCH  29  30
ATOM     30  O   UNL A   1      43.364  20.516  24.891  1.00  0.00    -0.460 OA
BRANCH  30  31
ATOM     31  C   UNL A   1      44.284  21.449  25.275  1.00  0.00     0.338 C 
ATOM     32  O   UNL A   1      45.442  21.212  25.571  1.00  0.00    -0.246 OA
BRANCH  31  33
ATOM     33  C   UNL A   1      43.602  22.750  25.569  1.00  0.00     0.060 A 
ATOM     34  C   UNL A   1      43.708  23.837  24.675  1.00  0.00     0.016 A 
ATOM     35  C   UNL A   1      43.187  22.976  26.875  1.00  0.00     0.016 A 
ATOM     36  C   UNL A   1      43.580  25.157  25.144  1.00  0.00     0.010 A 
ATOM     37  C   UNL A   1      43.217  24.265  27.356  1.00  0.00     0.010 A 
ATOM     38  C   UNL A   1      43.447  25.367  26.512  1.00  0.00    -0.014 A 
BRANCH  38  39
ATOM     39  C   UNL A   1      43.576  26.640  27.232  1.00  0.00     0.031 A 
ATOM     40  C   UNL A   1      42.304  27.332  27.541  1.00  0.00     0.074 A 
ATOM     41  C   UNL A   1      44.728  26.983  27.875  1.00  0.00     0.049 A 
ATOM     42  N   UNL A   1      42.240  28.460  28.142  1.00  0.00    -0.248 NA
ATOM     43  C   UNL A   1      40.974  26.830  27.177  1.00  0.00     0.031 C 
ATOM     44  C   UNL A   1      44.912  27.817  29.072  1.00  0.00     0.029 A 
ATOM     45  N   UNL A   1      46.046  26.568  27.634  1.00  0.00    -0.354 N 
ATOM     46  C   UNL A   1      40.941  28.661  28.539  1.00  0.00     0.074 A 
ATOM     47  C   UNL A   1      40.172  27.699  27.801  1.00  0.00     0.031 C 
ATOM     48  C   UNL A   1      46.218  28.115  29.231  1.00  0.00     0.029 A 
ATOM     49  C   UNL A   1      46.923  27.566  28.083  1.00  0.00     0.049 A 
ATOM     50  H   UNL A   1      46.312  25.717  27.218  1.00  0.00     0.167 HD
ATOM     51  C   UNL A   1      40.733  29.557  29.543  1.00  0.00     0.037 A 
ATOM     52  C   UNL A   1      47.749  28.192  27.205  1.00  0.00     0.037 A 
ATOM     53  C   UNL A   1      41.996  30.255  29.840  1.00  0.00     0.049 A 
ATOM     54  C   UNL A   1      47.262  29.604  27.142  1.00  0.00     0.074 A 
ATOM     55  C   UNL A   1      42.914  30.177  30.871  1.00  0.00     0.029 A 
ATOM     56  N   UNL A   1      42.642  30.919  28.795  1.00  0.00    -0.354 N 
ATOM     57  N   UNL A   1      46.007  29.916  27.344  1.00  0.00    -0.248 NA
ATOM     58  C   UNL A   1      48.147  30.760  27.100  1.00  0.00     0.031 C 
ATOM     59  C   UNL A   1      44.147  30.724  30.391  1.00  0.00     0.029 A 
ATOM     60  C   UNL A   1      43.974  31.150  29.078  1.00  0.00     0.049 A 
ATOM     61  H   UNL A   1      42.201  31.189  27.956  1.00  0.00     0.167 HD
ATOM     62  C   UNL A   1      45.939  31.238  27.647  1.00  0.00     0.074 A 
ATOM     63  C   UNL A   1      47.286  31.741  27.414  1.00  0.00     0.031 C 
ATOM     64  C   UNL A   1      44.821  31.854  28.119  1.00  0.00     0.037 A 
BRANCH  51  65
ATOM     65  C   UNL A   1      39.471  29.728  30.363  1.00  0.00     0.064 A 
ATOM     66  C   UNL A   1      38.669  30.875  30.173  1.00  0.00     0.173 A 
ATOM     67  C   UNL A   1      39.019  28.868  31.389  1.00  0.00     0.173 A 
ATOM     68  F   UNL A   1      38.979  31.791  29.244  1.00  0.00    -0.203 F 
ATOM     69  C   UNL A   1      37.524  31.135  30.935  1.00  0.00     0.198 A 
ATOM     70  C   UNL A   1      37.850  29.108  32.123  1.00  0.00     0.198 A 
ATOM     71  F   UNL A   1      39.699  27.784  31.768  1.00  0.00    -0.203 F 
ATOM     72  F   UNL A   1      36.831  32.263  30.729  1.00  0.00    -0.200 F 
ATOM     73  C   UNL A   1      37.108  30.245  31.902  1.00  0.00     0.200 A 
ATOM     74  F   UNL A   1      37.466  28.231  33.062  1.00  0.00    -0.200 F 
ATOM     75  F   UNL A   1      36.005  30.487  32.625  1.00  0.00    -0.200 F 
ENDBRANCH  51  65
BRANCH  52  76
ATOM     76  C   UNL A   1      48.215  27.251  26.136  1.00  0.00     0.064 A 
ATOM     77  C   UNL A   1      47.660  27.465  24.850  1.00  0.00     0.173 A 
ATOM     78  C   UNL A   1      49.468  26.622  26.185  1.00  0.00     0.173 A 
ATOM     79  F   UNL A   1      46.481  28.098  24.736  1.00  0.00    -0.203 F 
ATOM     80  C   UNL A   1      48.394  27.232  23.685  1.00  0.00     0.198 A 
ATOM     81  C   UNL A   1      50.195  26.381  25.009  1.00  0.00     0.198 A 
ATOM     82  F   UNL A   1      50.065  26.400  27.364  1.00  0.00    -0.203 F 
ATOM     83  F   UNL A   1      47.930  27.669  22.503  1.00  0.00    -0.200 F 
ATOM     84  C   UNL A   1      49.681  26.734  23.771  1.00  0.00     0.200 A 
ATOM     85  F   UNL A   1      51.454  25.923  25.084  1.00  0.00    -0.200 F 
ATOM     86  F   UNL A   1      50.459  26.699  22.678  1.00  0.00    -0.200 F 
ENDBRANCH  52  76
BRANCH  64  87
ATOM     87  C   UNL A   1      44.484  33.248  27.674  1.00  0.00     0.064 A 
ATOM     88  C   UNL A   1      43.943  33.530  26.406  1.00  0.00     0.173 A 
ATOM     89  C   UNL A   1      44.519  34.329  28.580  1.00  0.00     0.173 A 
ATOM     90  F   UNL A   1      43.687  32.564  25.512  1.00  0.00    -0.203 F 
ATOM     91  C   UNL A   1      43.589  34.818  26.027  1.00  0.00     0.198 A 
ATOM     92  C   UNL A   1      44.074  35.598  28.226  1.00  0.00     0.198 A 
ATOM     93  F   UNL A   1      44.946  34.188  29.842  1.00  0.00    -0.203 F 
ATOM     94  F   UNL A   1      43.167  35.043  24.776  1.00  0.00    -0.200 F 
ATOM     95  C   UNL A   1      43.647  35.850  26.940  1.00  0.00     0.200 A 
ATOM     96  F   UNL A   1      44.044  36.568  29.149  1.00  0.00    -0.200 F 
ATOM     97  F   UNL A   1      43.268  37.083  26.586  1.00  0.00    -0.200 F 
ENDBRANCH  64  87
ENDBRANCH  38  39
ENDBRANCH  31  33
ENDBRANCH  30  31
ENDBRANCH  29  30
ENDBRANCH  28  29
ENDBRANCH  27  28
ENDBRANCH   1  27
TORSDOF 18
ENDMDL
MODEL 3
REMARK VINA RESULT:     -12.0      4.977     10.975
REMARK SMILES Cc1cc(C(=O)OCCOCCOC(=O)c2ccc(-c3c4nc(c(-c5c(F)c(F)c(F)c(F)c5F)c5ccc([nH]5)c(-c5c(F)c(F)c(F)c(F)c5F)c5nc(c(-c6c(F)c(F)c(F)c(F)c6F)c6ccc3[nH]6)C=C5)C=C4)cc2)ccc1NS(=O)(=O)c1ccc(C#N)cc1C
REMARK SMILES IDX 9 1 8 2 7 3 5 4 6 5 4 6 1 7 2 8 3 9 81 10 80 11 79 12 82 13
REMARK SMILES IDX 83 15 84 16 85 17 86 18 87 19 93 20 88 21 92 22 94 23 89 24
REMARK SMILES IDX 90 25 91 26 10 27 11 28 12 29 13 30 14 31 15 32 16 33 17 34
REMARK SMILES IDX 78 35 18 36 77 37 19 38 20 39 21 40 71 41 22 42 76 43 70 44
REMARK SMILES IDX 72 45 23 46 75 47 69 48 68 49 24 51 56 52 36 53 55 54 37 55
REMARK SMILES IDX 40 56 54 57 73 58 38 59 39 60 53 62 74 63 41 64 25 65 26 66
REMARK SMILES IDX 34 67 27 68 28 69 32 70 35 71 29 72 30 73 33 74 31 75 57 76
REMARK SMILES IDX 58 77 66 78 59 79 60 80 64 81 67 82 61 83 62 84 65 85 63 86
REMARK SMILES IDX 42 87 43 88 51 89 44 90 45 91 49 92 52 93 46 94 47 95 50 96
REMARK SMILES IDX 48 97
REMARK H PARENT 82 14 72 50 40 61
REMARK Flexibility Score: inf
ROOT
ATOM      1  C   UNL A   1      34.404  32.260  27.648  1.00  0.00     0.202 C 
ENDROOT
BRANCH   1   2
ATOM      2  C   UNL A   1      33.961  30.841  27.688  1.00  0.00     0.261 C 
BRANCH   2   3
ATOM      3  O   UNL A   1      33.576  30.312  26.404  1.00  0.00    -0.460 OA
BRANCH   3   4
ATOM      4  C   UNL A   1      33.745  28.979  26.179  1.00  0.00     0.338 C 
ATOM      5  O   UNL A   1      34.378  28.182  26.846  1.00  0.00    -0.246 OA
BRANCH   4   6
ATOM      6  C   UNL A   1      33.140  28.701  24.868  1.00  0.00     0.060 A 
ATOM      7  C   UNL A   1      29.873  29.059  23.054  1.00  0.00     0.046 C 
ATOM      8  C   UNL A   1      31.197  28.501  23.488  1.00  0.00    -0.026 A 
ATOM      9  C   UNL A   1      31.821  29.047  24.613  1.00  0.00     0.021 A 
ATOM     10  C   UNL A   1      31.888  27.532  22.730  1.00  0.00     0.052 A 
ATOM     11  C   UNL A   1      33.272  27.511  22.777  1.00  0.00     0.028 A 
ATOM     12  C   UNL A   1      33.892  28.050  23.885  1.00  0.00     0.018 A 
BRANCH  10  13
ATOM     13  N   UNL A   1      31.208  26.282  22.557  1.00  0.00    -0.279 N 
ATOM     14  H   UNL A   1      30.852  26.094  21.659  1.00  0.00     0.180 HD
BRANCH  13  15
ATOM     15  S   UNL A   1      30.961  25.109  23.729  1.00  0.00     0.262 S 
ATOM     16  O   UNL A   1      30.332  25.816  24.825  1.00  0.00    -0.201 OA
ATOM     17  O   UNL A   1      30.313  23.985  23.083  1.00  0.00    -0.201 OA
BRANCH  15  18
ATOM     18  C   UNL A   1      32.531  24.488  24.380  1.00  0.00     0.090 A 
ATOM     19  C   UNL A   1      32.893  24.646  25.725  1.00  0.00     0.024 A 
ATOM     20  C   UNL A   1      33.487  23.978  23.473  1.00  0.00    -0.029 A 
ATOM     21  C   UNL A   1      34.229  24.483  26.130  1.00  0.00     0.021 A 
ATOM     22  C   UNL A   1      34.819  23.791  23.903  1.00  0.00     0.024 A 
ATOM     23  C   UNL A   1      33.164  23.527  22.073  1.00  0.00     0.046 C 
ATOM     24  C   UNL A   1      35.203  24.086  25.211  1.00  0.00     0.052 A 
BRANCH  24  25
ATOM     25  C   UNL A   1      36.589  23.972  25.591  1.00  0.00     0.099 C 
ATOM     26  N   UNL A   1      37.707  23.874  25.866  1.00  0.00    -0.192 NA
ENDBRANCH  24  25
ENDBRANCH  15  18
ENDBRANCH  13  15
ENDBRANCH  10  13
ENDBRANCH   4   6
ENDBRANCH   3   4
ENDBRANCH   2   3
ENDBRANCH   1   2
BRANCH   1  27
ATOM     27  O   UNL A   1      33.288  32.996  28.112  1.00  0.00    -0.374 OA
BRANCH  27  28
ATOM     28  C   UNL A   1      33.465  34.392  28.179  1.00  0.00     0.202 C 
BRANCH  28  29
ATOM     29  C   UNL A   1      33.171  34.927  29.583  1.00  0.00     0.261 C 
BRANCH  29  30
ATOM     30  O   UNL A   1      34.404  34.991  30.343  1.00  0.00    -0.460 OA
BRANCH  30  31
ATOM     31  C   UNL A   1      34.464  34.251  31.489  1.00  0.00     0.338 C 
ATOM     32  O   UNL A   1      34.126  34.640  32.593  1.00  0.00    -0.246 OA
BRANCH  31  33
ATOM     33  C   UNL A   1      35.275  33.013  31.257  1.00  0.00     0.060 A 
ATOM     34  C   UNL A   1      35.258  31.955  32.192  1.00  0.00     0.016 A 
ATOM     35  C   UNL A   1      36.298  33.082  30.321  1.00  0.00     0.016 A 
ATOM     36  C   UNL A   1      36.359  31.087  32.302  1.00  0.00     0.010 A 
ATOM     37  C   UNL A   1      37.431  32.332  30.536  1.00  0.00     0.010 A 
ATOM     38  C   UNL A   1      37.493  31.353  31.545  1.00  0.00    -0.014 A 
BRANCH  38  39
ATOM     39  C   UNL A   1      38.827  30.759  31.704  1.00  0.00     0.031 A 
ATOM     40  C   UNL A   1      39.108  29.582  30.850  1.00  0.00     0.074 A 
ATOM     41  C   UNL A   1      39.841  31.435  32.312  1.00  0.00     0.049 A 
ATOM     42  N   UNL A   1      40.211  28.933  30.881  1.00  0.00    -0.248 NA
ATOM     43  C   UNL A   1      38.159  29.002  29.894  1.00  0.00     0.031 C 
ATOM     44  C   UNL A   1      41.291  31.346  32.078  1.00  0.00     0.029 A 
ATOM     45  N   UNL A   1      39.789  32.464  33.264  1.00  0.00    -0.354 N 
ATOM     46  C   UNL A   1      40.261  28.120  29.776  1.00  0.00     0.074 A 
ATOM     47  C   UNL A   1      38.916  28.092  29.273  1.00  0.00     0.031 C 
ATOM     48  C   UNL A   1      41.958  31.989  33.058  1.00  0.00     0.029 A 
ATOM     49  C   UNL A   1      40.967  32.438  34.024  1.00  0.00     0.049 A 
ATOM     50  H   UNL A   1      39.047  33.100  33.379  1.00  0.00     0.167 HD
ATOM     51  C   UNL A   1      41.489  27.681  29.386  1.00  0.00     0.037 A 
ATOM     52  C   UNL A   1      40.909  32.210  35.361  1.00  0.00     0.037 A 
ATOM     53  C   UNL A   1      42.485  28.057  30.404  1.00  0.00     0.049 A 
ATOM     54  C   UNL A   1      41.559  30.879  35.564  1.00  0.00     0.074 A 
ATOM     55  C   UNL A   1      43.477  29.019  30.464  1.00  0.00     0.029 A 
ATOM     56  N   UNL A   1      42.272  27.636  31.719  1.00  0.00    -0.354 N 
ATOM     57  N   UNL A   1      41.540  29.949  34.643  1.00  0.00    -0.248 NA
ATOM     58  C   UNL A   1      42.463  30.584  36.667  1.00  0.00     0.031 C 
ATOM     59  C   UNL A   1      43.789  29.228  31.847  1.00  0.00     0.029 A 
ATOM     60  C   UNL A   1      43.001  28.385  32.623  1.00  0.00     0.049 A 
ATOM     61  H   UNL A   1      41.674  26.895  31.971  1.00  0.00     0.167 HD
ATOM     62  C   UNL A   1      42.531  29.061  34.912  1.00  0.00     0.074 A 
ATOM     63  C   UNL A   1      43.035  29.454  36.220  1.00  0.00     0.031 C 
ATOM     64  C   UNL A   1      42.935  28.087  34.052  1.00  0.00     0.037 A 
BRANCH  51  65
ATOM     65  C   UNL A   1      41.850  27.051  28.057  1.00  0.00     0.064 A 
ATOM     66  C   UNL A   1      41.899  25.644  27.945  1.00  0.00     0.173 A 
ATOM     67  C   UNL A   1      42.227  27.740  26.882  1.00  0.00     0.173 A 
ATOM     68  F   UNL A   1      41.583  24.855  28.982  1.00  0.00    -0.203 F 
ATOM     69  C   UNL A   1      42.287  24.989  26.770  1.00  0.00     0.198 A 
ATOM     70  C   UNL A   1      42.573  27.084  25.694  1.00  0.00     0.198 A 
ATOM     71  F   UNL A   1      42.325  29.070  26.829  1.00  0.00    -0.203 F 
ATOM     72  F   UNL A   1      42.349  23.651  26.745  1.00  0.00    -0.200 F 
ATOM     73  C   UNL A   1      42.612  25.709  25.640  1.00  0.00     0.200 A 
ATOM     74  F   UNL A   1      42.891  27.804  24.607  1.00  0.00    -0.200 F 
ATOM     75  F   UNL A   1      42.971  25.084  24.511  1.00  0.00    -0.200 F 
ENDBRANCH  51  65
BRANCH  52  76
ATOM     76  C   UNL A   1      39.678  32.818  35.961  1.00  0.00     0.064 A 
ATOM     77  C   UNL A   1      38.714  31.898  36.439  1.00  0.00     0.173 A 
ATOM     78  C   UNL A   1      39.682  34.091  36.551  1.00  0.00     0.173 A 
ATOM     79  F   UNL A   1      38.685  30.651  35.942  1.00  0.00    -0.203 F 
ATOM     80  C   UNL A   1      37.928  32.173  37.561  1.00  0.00     0.198 A 
ATOM     81  C   UNL A   1      38.882  34.364  37.672  1.00  0.00     0.198 A 
ATOM     82  F   UNL A   1      40.576  35.011  36.164  1.00  0.00    -0.203 F 
ATOM     83  F   UNL A   1      37.204  31.194  38.128  1.00  0.00    -0.200 F 
ATOM     84  C   UNL A   1      38.050  33.391  38.205  1.00  0.00     0.200 A 
ATOM     85  F   UNL A   1      39.013  35.533  38.318  1.00  0.00    -0.200 F 
ATOM     86  F   UNL A   1      37.454  33.584  39.391  1.00  0.00    -0.200 F 
ENDBRANCH  52  76
BRANCH  64  87
ATOM     87  C   UNL A   1      43.328  26.736  34.573  1.00  0.00     0.064 A 
ATOM     88  C   UNL A   1      42.383  25.766  34.959  1.00  0.00     0.173 A 
ATOM     89  C   UNL A   1      44.669  26.300  34.529  1.00  0.00     0.173 A 
ATOM     90  F   UNL A   1      41.063  25.988  34.876  1.00  0.00    -0.203 F 
ATOM     91  C   UNL A   1      42.761  24.502  35.392  1.00  0.00     0.198 A 
ATOM     92  C   UNL A   1      45.032  25.003  34.872  1.00  0.00     0.198 A 
ATOM     93  F   UNL A   1      45.663  27.097  34.114  1.00  0.00    -0.203 F 
ATOM     94  F   UNL A   1      41.825  23.652  35.835  1.00  0.00    -0.200 F 
ATOM     95  C   UNL A   1      44.084  24.118  35.341  1.00  0.00     0.200 A 
ATOM     96  F   UNL A   1      46.305  24.612  34.726  1.00  0.00    -0.200 F 
ATOM     97  F   UNL A   1      44.442  22.886  35.721  1.00  0.00    -0.200 F 
ENDBRANCH  64  87
ENDBRANCH  38  39
ENDBRANCH  31  33
ENDBRANCH  30  31
ENDBRANCH  29  30
ENDBRANCH  28  29
ENDBRANCH  27  28
ENDBRANCH   1  27
TORSDOF 18
ENDMDL
