MODEL 1
REMARK VINA RESULT:     -11.3      0.000      0.000
REMARK SMILES CCN1C(=O)C[C@@H](C(=O)OCCOCCOC(=O)c2ccc(-c3c4nc(c(-c5c(F)c(F)c(F)c(F)c5F)c5ccc([nH]5)c(-c5c(F)c(F)c(F)c(F)c5F)c5nc(c(-c6c(F)c(F)c(F)c(F)c6F)c6ccc3[nH]6)C=C5)C=C4)cc2)[C@H]1c1ccccc1C1CC1
REMARK SMILES IDX 13 1 12 2 11 3 10 4 8 5 9 6 7 7 3 8 4 9 82 10 5 11 6 12 2 13
REMARK SMILES IDX 1 14 83 15 84 16 88 17 85 18 87 19 86 20 89 21 90 22 91 23
REMARK SMILES IDX 14 24 15 25 16 26 17 27 18 28 19 29 20 30 81 31 21 32 80 33
REMARK SMILES IDX 22 34 23 35 24 36 74 37 25 38 79 39 73 40 75 41 26 42 78 43
REMARK SMILES IDX 72 44 71 45 27 47 59 48 39 49 58 50 40 51 43 52 57 53 76 54
REMARK SMILES IDX 41 55 42 56 56 58 77 59 44 60 28 61 29 62 37 63 30 64 31 65
REMARK SMILES IDX 35 66 38 67 32 68 33 69 36 70 34 71 60 72 61 73 69 74 62 75
REMARK SMILES IDX 63 76 67 77 70 78 64 79 65 80 68 81 66 82 45 83 46 84 54 85
REMARK SMILES IDX 47 86 48 87 52 88 55 89 49 90 50 91 53 92 51 93
REMARK H PARENT 75 46 43 57
REMARK Flexibility Score: inf
ROOT
ATOM      1  O   UNL A   1      37.592  21.683  24.877  1.00  0.00    -0.374 OA
ENDROOT
BRANCH   1   2
ATOM      2  C   UNL A   1      36.846  22.229  23.794  1.00  0.00     0.202 C 
BRANCH   2   3
ATOM      3  C   UNL A   1      35.944  23.425  24.097  1.00  0.00     0.261 C 
BRANCH   3   4
ATOM      4  O   UNL A   1      35.040  23.712  23.020  1.00  0.00    -0.463 OA
BRANCH   4   5
ATOM      5  C   UNL A   1      34.042  24.581  23.343  1.00  0.00     0.312 C 
ATOM      6  O   UNL A   1      34.218  25.713  23.774  1.00  0.00    -0.252 OA
BRANCH   5   7
ATOM      7  C   UNL A   1      32.686  23.971  23.074  1.00  0.00     0.135 C 
ATOM      8  N   UNL A   1      31.383  25.077  24.656  1.00  0.00    -0.335 N 
ATOM      9  C   UNL A   1      31.223  25.802  23.470  1.00  0.00     0.224 C 
ATOM     10  C   UNL A   1      31.875  23.744  24.349  1.00  0.00     0.130 C 
ATOM     11  O   UNL A   1      30.647  26.864  23.305  1.00  0.00    -0.275 OA
ATOM     12  C   UNL A   1      31.836  25.004  22.336  1.00  0.00     0.118 C 
BRANCH   8  13
ATOM     13  C   UNL A   1      30.823  25.433  25.956  1.00  0.00     0.117 C 
ATOM     14  C   UNL A   1      31.300  26.751  26.546  1.00  0.00     0.027 C 
ENDBRANCH   8  13
BRANCH  10  15
ATOM     15  C   UNL A   1      32.572  22.924  25.423  1.00  0.00    -0.021 A 
ATOM     16  C   UNL A   1      33.204  23.636  26.478  1.00  0.00     0.006 A 
ATOM     17  C   UNL A   1      32.737  21.511  25.352  1.00  0.00    -0.040 A 
ATOM     18  C   UNL A   1      34.096  23.030  27.356  1.00  0.00     0.000 A 
ATOM     19  C   UNL A   1      33.669  20.943  26.265  1.00  0.00     0.004 A 
ATOM     20  C   UNL A   1      34.354  21.680  27.229  1.00  0.00     0.000 A 
BRANCH  17  21
ATOM     21  C   UNL A   1      32.038  20.486  24.453  1.00  0.00     0.019 C 
ATOM     22  C   UNL A   1      32.377  20.196  23.017  1.00  0.00     0.009 C 
ATOM     23  C   UNL A   1      32.639  19.160  24.082  1.00  0.00     0.009 C 
ENDBRANCH  17  21
ENDBRANCH  10  15
ENDBRANCH   5   7
ENDBRANCH   4   5
ENDBRANCH   3   4
ENDBRANCH   2   3
ENDBRANCH   1   2
BRANCH   1  24
ATOM     24  C   UNL A   1      37.699  20.263  24.972  1.00  0.00     0.202 C 
BRANCH  24  25
ATOM     25  C   UNL A   1      39.004  19.704  25.546  1.00  0.00     0.261 C 
BRANCH  25  26
ATOM     26  O   UNL A   1      39.990  20.737  25.726  1.00  0.00    -0.460 OA
BRANCH  26  27
ATOM     27  C   UNL A   1      40.654  20.680  26.902  1.00  0.00     0.338 C 
ATOM     28  O   UNL A   1      41.174  19.697  27.416  1.00  0.00    -0.246 OA
BRANCH  27  29
ATOM     29  C   UNL A   1      40.845  22.034  27.445  1.00  0.00     0.060 A 
ATOM     30  C   UNL A   1      40.087  23.067  26.879  1.00  0.00     0.016 A 
ATOM     31  C   UNL A   1      41.811  22.307  28.416  1.00  0.00     0.016 A 
ATOM     32  C   UNL A   1      40.340  24.388  27.229  1.00  0.00     0.010 A 
ATOM     33  C   UNL A   1      42.075  23.637  28.756  1.00  0.00     0.010 A 
ATOM     34  C   UNL A   1      41.374  24.681  28.127  1.00  0.00    -0.014 A 
BRANCH  34  35
ATOM     35  C   UNL A   1      41.845  26.080  28.248  1.00  0.00     0.031 A 
ATOM     36  C   UNL A   1      43.177  26.440  27.650  1.00  0.00     0.074 A 
ATOM     37  C   UNL A   1      41.082  27.017  28.833  1.00  0.00     0.049 A 
ATOM     38  N   UNL A   1      43.806  27.588  27.651  1.00  0.00    -0.248 NA
ATOM     39  C   UNL A   1      43.899  25.359  26.958  1.00  0.00     0.031 C 
ATOM     40  C   UNL A   1      39.755  26.793  29.400  1.00  0.00     0.029 A 
ATOM     41  N   UNL A   1      41.322  28.350  29.048  1.00  0.00    -0.354 N 
ATOM     42  C   UNL A   1      44.994  27.365  26.966  1.00  0.00     0.074 A 
ATOM     43  C   UNL A   1      45.014  25.968  26.590  1.00  0.00     0.031 C 
ATOM     44  C   UNL A   1      39.300  27.949  29.913  1.00  0.00     0.029 A 
ATOM     45  C   UNL A   1      40.316  28.984  29.734  1.00  0.00     0.049 A 
ATOM     46  H   UNL A   1      42.137  28.809  28.741  1.00  0.00     0.167 HD
ATOM     47  C   UNL A   1      45.976  28.249  26.672  1.00  0.00     0.037 A 
ATOM     48  C   UNL A   1      40.241  30.252  30.182  1.00  0.00     0.037 A 
ATOM     49  C   UNL A   1      45.949  29.638  27.047  1.00  0.00     0.049 A 
ATOM     50  C   UNL A   1      41.378  31.200  29.902  1.00  0.00     0.074 A 
ATOM     51  C   UNL A   1      46.886  30.621  26.787  1.00  0.00     0.029 A 
ATOM     52  N   UNL A   1      44.927  30.237  27.771  1.00  0.00    -0.354 N 
ATOM     53  N   UNL A   1      42.490  30.988  29.239  1.00  0.00    -0.248 NA
ATOM     54  C   UNL A   1      41.247  32.565  30.428  1.00  0.00     0.031 C 
ATOM     55  C   UNL A   1      46.454  31.806  27.394  1.00  0.00     0.029 A 
ATOM     56  C   UNL A   1      45.224  31.572  27.988  1.00  0.00     0.049 A 
ATOM     57  H   UNL A   1      44.113  29.781  28.083  1.00  0.00     0.167 HD
ATOM     58  C   UNL A   1      43.177  32.196  29.246  1.00  0.00     0.074 A 
ATOM     59  C   UNL A   1      42.350  33.140  29.968  1.00  0.00     0.031 C 
ATOM     60  C   UNL A   1      44.381  32.497  28.703  1.00  0.00     0.037 A 
BRANCH  47  61
ATOM     61  C   UNL A   1      47.174  27.734  25.931  1.00  0.00     0.064 A 
ATOM     62  C   UNL A   1      47.225  27.723  24.529  1.00  0.00     0.173 A 
ATOM     63  C   UNL A   1      48.296  27.271  26.634  1.00  0.00     0.173 A 
ATOM     64  F   UNL A   1      46.171  28.139  23.812  1.00  0.00    -0.203 F 
ATOM     65  C   UNL A   1      48.349  27.248  23.858  1.00  0.00     0.198 A 
ATOM     66  C   UNL A   1      49.429  26.821  25.959  1.00  0.00     0.198 A 
ATOM     67  F   UNL A   1      48.297  27.261  27.974  1.00  0.00    -0.203 F 
ATOM     68  F   UNL A   1      48.360  27.206  22.518  1.00  0.00    -0.200 F 
ATOM     69  C   UNL A   1      49.451  26.804  24.573  1.00  0.00     0.200 A 
ATOM     70  F   UNL A   1      50.496  26.402  26.652  1.00  0.00    -0.200 F 
ATOM     71  F   UNL A   1      50.535  26.353  23.926  1.00  0.00    -0.200 F 
ENDBRANCH  47  61
BRANCH  48  72
ATOM     72  C   UNL A   1      39.051  30.696  30.953  1.00  0.00     0.064 A 
ATOM     73  C   UNL A   1      38.981  30.522  32.342  1.00  0.00     0.173 A 
ATOM     74  C   UNL A   1      37.952  31.290  30.313  1.00  0.00     0.173 A 
ATOM     75  F   UNL A   1      39.995  29.937  32.994  1.00  0.00    -0.203 F 
ATOM     76  C   UNL A   1      37.852  30.911  33.059  1.00  0.00     0.198 A 
ATOM     77  C   UNL A   1      36.835  31.703  31.036  1.00  0.00     0.198 A 
ATOM     78  F   UNL A   1      37.969  31.478  28.985  1.00  0.00    -0.203 F 
ATOM     79  F   UNL A   1      37.793  30.693  34.380  1.00  0.00    -0.200 F 
ATOM     80  C   UNL A   1      36.783  31.506  32.407  1.00  0.00     0.200 A 
ATOM     81  F   UNL A   1      35.811  32.289  30.402  1.00  0.00    -0.200 F 
ATOM     82  F   UNL A   1      35.699  31.883  33.098  1.00  0.00    -0.200 F 
ENDBRANCH  48  72
BRANCH  60  83
ATOM     83  C   UNL A   1      44.864  33.912  28.839  1.00  0.00     0.064 A 
ATOM     84  C   UNL A   1      44.525  34.898  27.902  1.00  0.00     0.173 A 
ATOM     85  C   UNL A   1      45.637  34.293  29.947  1.00  0.00     0.173 A 
ATOM     86  F   UNL A   1      43.801  34.580  26.818  1.00  0.00    -0.203 F 
ATOM     87  C   UNL A   1      44.964  36.211  28.056  1.00  0.00     0.198 A 
ATOM     88  C   UNL A   1      46.049  35.612  30.113  1.00  0.00     0.198 A 
ATOM     89  F   UNL A   1      45.979  33.388  30.877  1.00  0.00    -0.203 F 
ATOM     90  F   UNL A   1      44.668  37.127  27.125  1.00  0.00    -0.200 F 
ATOM     91  C   UNL A   1      45.719  36.567  29.164  1.00  0.00     0.200 A 
ATOM     92  F   UNL A   1      46.766  35.958  31.191  1.00  0.00    -0.200 F 
ATOM     93  F   UNL A   1      46.134  37.833  29.314  1.00  0.00    -0.200 F 
ENDBRANCH  60  83
ENDBRANCH  34  35
ENDBRANCH  27  29
ENDBRANCH  26  27
ENDBRANCH  25  26
ENDBRANCH  24  25
ENDBRANCH   1  24
TORSDOF 17
ENDMDL
MODEL 2
REMARK VINA RESULT:     -11.2      1.196      2.590
REMARK SMILES CCN1C(=O)C[C@@H](C(=O)OCCOCCOC(=O)c2ccc(-c3c4nc(c(-c5c(F)c(F)c(F)c(F)c5F)c5ccc([nH]5)c(-c5c(F)c(F)c(F)c(F)c5F)c5nc(c(-c6c(F)c(F)c(F)c(F)c6F)c6ccc3[nH]6)C=C5)C=C4)cc2)[C@H]1c1ccccc1C1CC1
REMARK SMILES IDX 13 1 12 2 11 3 10 4 8 5 9 6 7 7 3 8 4 9 82 10 5 11 6 12 2 13
REMARK SMILES IDX 1 14 83 15 84 16 88 17 85 18 87 19 86 20 89 21 90 22 91 23
REMARK SMILES IDX 14 24 15 25 16 26 17 27 18 28 19 29 20 30 81 31 21 32 80 33
REMARK SMILES IDX 22 34 23 35 24 36 74 37 25 38 79 39 73 40 75 41 26 42 78 43
REMARK SMILES IDX 72 44 71 45 27 47 59 48 39 49 58 50 40 51 43 52 57 53 76 54
REMARK SMILES IDX 41 55 42 56 56 58 77 59 44 60 28 61 29 62 37 63 30 64 31 65
REMARK SMILES IDX 35 66 38 67 32 68 33 69 36 70 34 71 60 72 61 73 69 74 62 75
REMARK SMILES IDX 63 76 67 77 70 78 64 79 65 80 68 81 66 82 45 83 46 84 54 85
REMARK SMILES IDX 47 86 48 87 52 88 55 89 49 90 50 91 53 92 51 93
REMARK H PARENT 75 46 43 57
REMARK Flexibility Score: inf
ROOT
ATOM      1  O   UNL A   1      37.870  21.506  25.165  1.00  0.00    -0.374 OA
ENDROOT
BRANCH   1   2
ATOM      2  C   UNL A   1      36.592  21.998  25.558  1.00  0.00     0.202 C 
BRANCH   2   3
ATOM      3  C   UNL A   1      36.454  23.508  25.758  1.00  0.00     0.261 C 
BRANCH   3   4
ATOM      4  O   UNL A   1      35.696  24.128  24.709  1.00  0.00    -0.463 OA
BRANCH   4   5
ATOM      5  C   UNL A   1      34.382  23.770  24.682  1.00  0.00     0.312 C 
ATOM      6  O   UNL A   1      33.853  23.137  23.779  1.00  0.00    -0.252 OA
BRANCH   5   7
ATOM      7  C   UNL A   1      33.668  24.238  25.929  1.00  0.00     0.135 C 
ATOM      8  N   UNL A   1      31.467  24.324  25.172  1.00  0.00    -0.335 N 
ATOM      9  C   UNL A   1      31.600  23.076  25.791  1.00  0.00     0.224 C 
ATOM     10  C   UNL A   1      32.527  25.209  25.629  1.00  0.00     0.130 C 
ATOM     11  O   UNL A   1      30.798  22.157  25.819  1.00  0.00    -0.275 OA
ATOM     12  C   UNL A   1      32.924  23.046  26.528  1.00  0.00     0.118 C 
BRANCH   8  13
ATOM     13  C   UNL A   1      30.284  24.807  24.468  1.00  0.00     0.117 C 
ATOM     14  C   UNL A   1      29.505  25.914  25.160  1.00  0.00     0.027 C 
ENDBRANCH   8  13
BRANCH  10  15
ATOM     15  C   UNL A   1      32.911  26.426  24.804  1.00  0.00    -0.021 A 
ATOM     16  C   UNL A   1      32.964  26.266  23.394  1.00  0.00     0.006 A 
ATOM     17  C   UNL A   1      33.345  27.658  25.372  1.00  0.00    -0.040 A 
ATOM     18  C   UNL A   1      33.560  27.206  22.558  1.00  0.00     0.000 A 
ATOM     19  C   UNL A   1      33.956  28.579  24.477  1.00  0.00     0.004 A 
ATOM     20  C   UNL A   1      34.088  28.356  23.108  1.00  0.00     0.000 A 
BRANCH  17  21
ATOM     21  C   UNL A   1      33.229  28.168  26.813  1.00  0.00     0.019 C 
ATOM     22  C   UNL A   1      32.838  29.559  27.228  1.00  0.00     0.009 C 
ATOM     23  C   UNL A   1      31.919  28.396  27.511  1.00  0.00     0.009 C 
ENDBRANCH  17  21
ENDBRANCH  10  15
ENDBRANCH   5   7
ENDBRANCH   4   5
ENDBRANCH   3   4
ENDBRANCH   2   3
ENDBRANCH   1   2
BRANCH   1  24
ATOM     24  C   UNL A   1      38.037  20.095  25.041  1.00  0.00     0.202 C 
BRANCH  24  25
ATOM     25  C   UNL A   1      39.266  19.481  25.718  1.00  0.00     0.261 C 
BRANCH  25  26
ATOM     26  O   UNL A   1      40.360  20.414  25.780  1.00  0.00    -0.460 OA
BRANCH  26  27
ATOM     27  C   UNL A   1      41.001  20.449  26.969  1.00  0.00     0.338 C 
ATOM     28  O   UNL A   1      41.568  19.522  27.536  1.00  0.00    -0.246 OA
BRANCH  27  29
ATOM     29  C   UNL A   1      41.102  21.835  27.454  1.00  0.00     0.060 A 
ATOM     30  C   UNL A   1      40.456  22.827  26.705  1.00  0.00     0.016 A 
ATOM     31  C   UNL A   1      41.887  22.172  28.558  1.00  0.00     0.016 A 
ATOM     32  C   UNL A   1      40.650  24.168  27.012  1.00  0.00     0.010 A 
ATOM     33  C   UNL A   1      42.094  23.522  28.857  1.00  0.00     0.010 A 
ATOM     34  C   UNL A   1      41.515  24.522  28.055  1.00  0.00    -0.014 A 
BRANCH  34  35
ATOM     35  C   UNL A   1      41.964  25.928  28.169  1.00  0.00     0.031 A 
ATOM     36  C   UNL A   1      43.287  26.309  27.566  1.00  0.00     0.074 A 
ATOM     37  C   UNL A   1      41.188  26.855  28.754  1.00  0.00     0.049 A 
ATOM     38  N   UNL A   1      43.897  27.466  27.560  1.00  0.00    -0.248 NA
ATOM     39  C   UNL A   1      44.024  25.238  26.874  1.00  0.00     0.031 C 
ATOM     40  C   UNL A   1      39.867  26.610  29.328  1.00  0.00     0.029 A 
ATOM     41  N   UNL A   1      41.407  28.192  28.965  1.00  0.00    -0.354 N 
ATOM     42  C   UNL A   1      45.087  27.261  26.871  1.00  0.00     0.074 A 
ATOM     43  C   UNL A   1      45.128  25.864  26.499  1.00  0.00     0.031 C 
ATOM     44  C   UNL A   1      39.395  27.760  29.839  1.00  0.00     0.029 A 
ATOM     45  C   UNL A   1      40.393  28.812  29.653  1.00  0.00     0.049 A 
ATOM     46  H   UNL A   1      42.213  28.663  28.654  1.00  0.00     0.167 HD
ATOM     47  C   UNL A   1      46.052  28.160  26.570  1.00  0.00     0.037 A 
ATOM     48  C   UNL A   1      40.299  30.080  30.097  1.00  0.00     0.037 A 
ATOM     49  C   UNL A   1      46.004  29.549  26.942  1.00  0.00     0.049 A 
ATOM     50  C   UNL A   1      41.420  31.045  29.810  1.00  0.00     0.074 A 
ATOM     51  C   UNL A   1      46.924  30.547  26.676  1.00  0.00     0.029 A 
ATOM     52  N   UNL A   1      44.976  30.134  27.668  1.00  0.00    -0.354 N 
ATOM     53  N   UNL A   1      42.532  30.849  29.143  1.00  0.00    -0.248 NA
ATOM     54  C   UNL A   1      41.269  32.410  30.333  1.00  0.00     0.031 C 
ATOM     55  C   UNL A   1      46.475  31.726  27.281  1.00  0.00     0.029 A 
ATOM     56  C   UNL A   1      45.251  31.474  27.880  1.00  0.00     0.049 A 
ATOM     57  H   UNL A   1      44.171  29.665  27.985  1.00  0.00     0.167 HD
ATOM     58  C   UNL A   1      43.199  32.068  29.145  1.00  0.00     0.074 A 
ATOM     59  C   UNL A   1      42.360  33.001  29.867  1.00  0.00     0.031 C 
ATOM     60  C   UNL A   1      44.397  32.387  28.596  1.00  0.00     0.037 A 
BRANCH  47  61
ATOM     61  C   UNL A   1      47.255  27.662  25.826  1.00  0.00     0.064 A 
ATOM     62  C   UNL A   1      47.316  27.681  24.425  1.00  0.00     0.173 A 
ATOM     63  C   UNL A   1      48.375  27.187  26.526  1.00  0.00     0.173 A 
ATOM     64  F   UNL A   1      46.264  28.110  23.710  1.00  0.00    -0.203 F 
ATOM     65  C   UNL A   1      48.445  27.222  23.751  1.00  0.00     0.198 A 
ATOM     66  C   UNL A   1      49.512  26.753  25.849  1.00  0.00     0.198 A 
ATOM     67  F   UNL A   1      48.368  27.149  27.866  1.00  0.00    -0.203 F 
ATOM     68  F   UNL A   1      48.463  27.208  22.411  1.00  0.00    -0.200 F 
ATOM     69  C   UNL A   1      49.543  26.765  24.463  1.00  0.00     0.200 A 
ATOM     70  F   UNL A   1      50.576  26.322  26.540  1.00  0.00    -0.200 F 
ATOM     71  F   UNL A   1      50.632  26.329  23.813  1.00  0.00    -0.200 F 
ENDBRANCH  47  61
BRANCH  48  72
ATOM     72  C   UNL A   1      39.106  30.506  30.872  1.00  0.00     0.064 A 
ATOM     73  C   UNL A   1      39.057  30.365  32.265  1.00  0.00     0.173 A 
ATOM     74  C   UNL A   1      37.982  31.050  30.232  1.00  0.00     0.173 A 
ATOM     75  F   UNL A   1      40.096  29.827  32.920  1.00  0.00    -0.203 F 
ATOM     76  C   UNL A   1      37.924  30.737  32.987  1.00  0.00     0.198 A 
ATOM     77  C   UNL A   1      36.861  31.447  30.957  1.00  0.00     0.198 A 
ATOM     78  F   UNL A   1      37.977  31.205  28.899  1.00  0.00    -0.203 F 
ATOM     79  F   UNL A   1      37.888  30.550  34.314  1.00  0.00    -0.200 F 
ATOM     80  C   UNL A   1      36.830  31.283  32.334  1.00  0.00     0.200 A 
ATOM     81  F   UNL A   1      35.811  31.985  30.322  1.00  0.00    -0.200 F 
ATOM     82  F   UNL A   1      35.743  31.644  33.029  1.00  0.00    -0.200 F 
ENDBRANCH  48  72
BRANCH  60  83
ATOM     83  C   UNL A   1      44.856  33.810  28.726  1.00  0.00     0.064 A 
ATOM     84  C   UNL A   1      44.483  34.792  27.797  1.00  0.00     0.173 A 
ATOM     85  C   UNL A   1      45.642  34.204  29.820  1.00  0.00     0.173 A 
ATOM     86  F   UNL A   1      43.744  34.463  26.727  1.00  0.00    -0.203 F 
ATOM     87  C   UNL A   1      44.901  36.112  27.946  1.00  0.00     0.198 A 
ATOM     88  C   UNL A   1      46.034  35.529  29.981  1.00  0.00     0.198 A 
ATOM     89  F   UNL A   1      46.018  33.303  30.741  1.00  0.00    -0.203 F 
ATOM     90  F   UNL A   1      44.571  37.024  27.022  1.00  0.00    -0.200 F 
ATOM     91  C   UNL A   1      45.670  36.480  29.041  1.00  0.00     0.200 A 
ATOM     92  F   UNL A   1      46.765  35.886  31.046  1.00  0.00    -0.200 F 
ATOM     93  F   UNL A   1      46.065  37.753  29.186  1.00  0.00    -0.200 F 
ENDBRANCH  60  83
ENDBRANCH  34  35
ENDBRANCH  27  29
ENDBRANCH  26  27
ENDBRANCH  25  26
ENDBRANCH  24  25
ENDBRANCH   1  24
TORSDOF 17
ENDMDL
MODEL 3
REMARK VINA RESULT:     -11.1      1.345      7.830
REMARK SMILES CCN1C(=O)C[C@@H](C(=O)OCCOCCOC(=O)c2ccc(-c3c4nc(c(-c5c(F)c(F)c(F)c(F)c5F)c5ccc([nH]5)c(-c5c(F)c(F)c(F)c(F)c5F)c5nc(c(-c6c(F)c(F)c(F)c(F)c6F)c6ccc3[nH]6)C=C5)C=C4)cc2)[C@H]1c1ccccc1C1CC1
REMARK SMILES IDX 13 1 12 2 11 3 10 4 8 5 9 6 7 7 3 8 4 9 82 10 5 11 6 12 2 13
REMARK SMILES IDX 1 14 83 15 84 16 88 17 85 18 87 19 86 20 89 21 90 22 91 23
REMARK SMILES IDX 14 24 15 25 16 26 17 27 18 28 19 29 20 30 81 31 21 32 80 33
REMARK SMILES IDX 22 34 23 35 24 36 74 37 25 38 79 39 73 40 75 41 26 42 78 43
REMARK SMILES IDX 72 44 71 45 27 47 59 48 39 49 58 50 40 51 43 52 57 53 76 54
REMARK SMILES IDX 41 55 42 56 56 58 77 59 44 60 28 61 29 62 37 63 30 64 31 65
REMARK SMILES IDX 35 66 38 67 32 68 33 69 36 70 34 71 60 72 61 73 69 74 62 75
REMARK SMILES IDX 63 76 67 77 70 78 64 79 65 80 68 81 66 82 45 83 46 84 54 85
REMARK SMILES IDX 47 86 48 87 52 88 55 89 49 90 50 91 53 92 51 93
REMARK H PARENT 75 46 43 57
REMARK Flexibility Score: inf
ROOT
ATOM      1  O   UNL A   1      35.374  22.482  25.553  1.00  0.00    -0.374 OA
ENDROOT
BRANCH   1   2
ATOM      2  C   UNL A   1      34.729  23.026  26.701  1.00  0.00     0.202 C 
BRANCH   2   3
ATOM      3  C   UNL A   1      33.271  22.632  26.938  1.00  0.00     0.261 C 
BRANCH   3   4
ATOM      4  O   UNL A   1      32.428  22.969  25.826  1.00  0.00    -0.463 OA
BRANCH   4   5
ATOM      5  C   UNL A   1      31.531  23.961  26.085  1.00  0.00     0.312 C 
ATOM      6  O   UNL A   1      31.334  24.450  27.190  1.00  0.00    -0.252 OA
BRANCH   5   7
ATOM      7  C   UNL A   1      30.828  24.399  24.820  1.00  0.00     0.135 C 
ATOM      8  N   UNL A   1      32.639  24.673  23.381  1.00  0.00    -0.335 N 
ATOM      9  C   UNL A   1      32.156  23.384  23.130  1.00  0.00     0.224 C 
ATOM     10  C   UNL A   1      31.609  25.458  24.045  1.00  0.00     0.130 C 
ATOM     11  O   UNL A   1      32.642  22.519  22.420  1.00  0.00    -0.275 OA
ATOM     12  C   UNL A   1      30.828  23.223  23.844  1.00  0.00     0.118 C 
BRANCH   8  13
ATOM     13  C   UNL A   1      33.824  25.273  22.777  1.00  0.00     0.117 C 
ATOM     14  C   UNL A   1      33.586  26.527  21.951  1.00  0.00     0.027 C 
ENDBRANCH   8  13
BRANCH  10  15
ATOM     15  C   UNL A   1      31.991  26.695  24.840  1.00  0.00    -0.021 A 
ATOM     16  C   UNL A   1      33.112  26.592  25.706  1.00  0.00     0.006 A 
ATOM     17  C   UNL A   1      31.212  27.887  24.864  1.00  0.00    -0.040 A 
ATOM     18  C   UNL A   1      33.393  27.545  26.680  1.00  0.00     0.000 A 
ATOM     19  C   UNL A   1      31.533  28.824  25.885  1.00  0.00     0.004 A 
ATOM     20  C   UNL A   1      32.579  28.654  26.790  1.00  0.00     0.000 A 
BRANCH  17  21
ATOM     21  C   UNL A   1      30.083  28.341  23.931  1.00  0.00     0.019 C 
ATOM     22  C   UNL A   1      29.872  29.737  23.416  1.00  0.00     0.009 C 
ATOM     23  C   UNL A   1      30.280  28.634  22.472  1.00  0.00     0.009 C 
ENDBRANCH  17  21
ENDBRANCH  10  15
ENDBRANCH   5   7
ENDBRANCH   4   5
ENDBRANCH   3   4
ENDBRANCH   2   3
ENDBRANCH   1   2
BRANCH   1  24
ATOM     24  C   UNL A   1      35.679  21.089  25.551  1.00  0.00     0.202 C 
BRANCH  24  25
ATOM     25  C   UNL A   1      37.070  20.686  25.052  1.00  0.00     0.261 C 
BRANCH  25  26
ATOM     26  O   UNL A   1      38.026  21.747  25.231  1.00  0.00    -0.460 OA
BRANCH  26  27
ATOM     27  C   UNL A   1      39.075  21.429  26.021  1.00  0.00     0.338 C 
ATOM     28  O   UNL A   1      39.653  20.351  26.093  1.00  0.00    -0.246 OA
BRANCH  27  29
ATOM     29  C   UNL A   1      39.588  22.632  26.696  1.00  0.00     0.060 A 
ATOM     30  C   UNL A   1      38.998  23.858  26.362  1.00  0.00     0.016 A 
ATOM     31  C   UNL A   1      40.682  22.579  27.563  1.00  0.00     0.016 A 
ATOM     32  C   UNL A   1      39.544  25.045  26.834  1.00  0.00     0.010 A 
ATOM     33  C   UNL A   1      41.239  23.774  28.026  1.00  0.00     0.010 A 
ATOM     34  C   UNL A   1      40.702  25.010  27.623  1.00  0.00    -0.014 A 
BRANCH  34  35
ATOM     35  C   UNL A   1      41.453  26.265  27.852  1.00  0.00     0.031 A 
ATOM     36  C   UNL A   1      40.778  27.375  28.609  1.00  0.00     0.074 A 
ATOM     37  C   UNL A   1      42.724  26.394  27.438  1.00  0.00     0.049 A 
ATOM     38  N   UNL A   1      41.224  28.568  28.910  1.00  0.00    -0.248 NA
ATOM     39  C   UNL A   1      39.414  27.103  29.092  1.00  0.00     0.031 C 
ATOM     40  C   UNL A   1      43.493  25.367  26.740  1.00  0.00     0.029 A 
ATOM     41  N   UNL A   1      43.589  27.454  27.543  1.00  0.00    -0.354 N 
ATOM     42  C   UNL A   1      40.196  29.187  29.611  1.00  0.00     0.074 A 
ATOM     43  C   UNL A   1      39.094  28.252  29.667  1.00  0.00     0.031 C 
ATOM     44  C   UNL A   1      44.717  25.851  26.468  1.00  0.00     0.029 A 
ATOM     45  C   UNL A   1      44.804  27.229  26.946  1.00  0.00     0.049 A 
ATOM     46  H   UNL A   1      43.360  28.293  28.002  1.00  0.00     0.167 HD
ATOM     47  C   UNL A   1      40.179  30.422  30.166  1.00  0.00     0.037 A 
ATOM     48  C   UNL A   1      45.856  28.056  26.789  1.00  0.00     0.037 A 
ATOM     49  C   UNL A   1      41.279  31.346  30.109  1.00  0.00     0.049 A 
ATOM     50  C   UNL A   1      45.785  29.451  27.354  1.00  0.00     0.074 A 
ATOM     51  C   UNL A   1      41.369  32.616  30.648  1.00  0.00     0.029 A 
ATOM     52  N   UNL A   1      42.484  31.096  29.466  1.00  0.00    -0.354 N 
ATOM     53  N   UNL A   1      44.819  30.024  28.031  1.00  0.00    -0.248 NA
ATOM     54  C   UNL A   1      46.955  30.313  27.138  1.00  0.00     0.031 C 
ATOM     55  C   UNL A   1      42.611  33.154  30.292  1.00  0.00     0.029 A 
ATOM     56  C   UNL A   1      43.314  32.199  29.574  1.00  0.00     0.049 A 
ATOM     57  H   UNL A   1      42.714  30.260  29.002  1.00  0.00     0.167 HD
ATOM     58  C   UNL A   1      45.272  31.299  28.343  1.00  0.00     0.074 A 
ATOM     59  C   UNL A   1      46.607  31.412  27.792  1.00  0.00     0.031 C 
ATOM     60  C   UNL A   1      44.643  32.287  29.025  1.00  0.00     0.037 A 
BRANCH  47  61
ATOM     61  C   UNL A   1      38.920  30.853  30.857  1.00  0.00     0.064 A 
ATOM     62  C   UNL A   1      37.862  31.453  30.157  1.00  0.00     0.173 A 
ATOM     63  C   UNL A   1      38.758  30.637  32.234  1.00  0.00     0.173 A 
ATOM     64  F   UNL A   1      37.976  31.696  28.842  1.00  0.00    -0.203 F 
ATOM     65  C   UNL A   1      36.697  31.840  30.814  1.00  0.00     0.198 A 
ATOM     66  C   UNL A   1      37.580  31.002  32.883  1.00  0.00     0.198 A 
ATOM     67  F   UNL A   1      39.739  30.067  32.949  1.00  0.00    -0.203 F 
ATOM     68  F   UNL A   1      35.717  32.451  30.134  1.00  0.00    -0.200 F 
ATOM     69  C   UNL A   1      36.555  31.608  32.174  1.00  0.00     0.200 A 
ATOM     70  F   UNL A   1      37.441  30.768  34.195  1.00  0.00    -0.200 F 
ATOM     71  F   UNL A   1      35.430  31.976  32.804  1.00  0.00    -0.200 F 
ENDBRANCH  47  61
BRANCH  48  72
ATOM     72  C   UNL A   1      47.059  27.592  26.053  1.00  0.00     0.064 A 
ATOM     73  C   UNL A   1      47.129  27.670  24.655  1.00  0.00     0.173 A 
ATOM     74  C   UNL A   1      48.160  27.047  26.732  1.00  0.00     0.173 A 
ATOM     75  F   UNL A   1      46.093  28.160  23.960  1.00  0.00    -0.203 F 
ATOM     76  C   UNL A   1      48.247  27.205  23.964  1.00  0.00     0.198 A 
ATOM     77  C   UNL A   1      49.287  26.608  26.042  1.00  0.00     0.198 A 
ATOM     78  F   UNL A   1      48.142  26.950  28.069  1.00  0.00    -0.203 F 
ATOM     79  F   UNL A   1      48.269  27.250  22.625  1.00  0.00    -0.200 F 
ATOM     80  C   UNL A   1      49.326  26.681  24.658  1.00  0.00     0.200 A 
ATOM     81  F   UNL A   1      50.333  26.114  26.718  1.00  0.00    -0.200 F 
ATOM     82  F   UNL A   1      50.402  26.238  23.993  1.00  0.00    -0.200 F 
ENDBRANCH  48  72
BRANCH  60  83
ATOM     83  C   UNL A   1      45.401  33.564  29.243  1.00  0.00     0.064 A 
ATOM     84  C   UNL A   1      46.246  33.738  30.348  1.00  0.00     0.173 A 
ATOM     85  C   UNL A   1      45.315  34.608  28.309  1.00  0.00     0.173 A 
ATOM     86  F   UNL A   1      46.351  32.776  31.277  1.00  0.00    -0.203 F 
ATOM     87  C   UNL A   1      46.958  34.922  30.524  1.00  0.00     0.198 A 
ATOM     88  C   UNL A   1      46.051  35.778  28.472  1.00  0.00     0.198 A 
ATOM     89  F   UNL A   1      44.527  34.485  27.229  1.00  0.00    -0.203 F 
ATOM     90  F   UNL A   1      47.724  35.086  31.611  1.00  0.00    -0.200 F 
ATOM     91  C   UNL A   1      46.865  35.937  29.582  1.00  0.00     0.200 A 
ATOM     92  F   UNL A   1      45.970  36.751  27.555  1.00  0.00    -0.200 F 
ATOM     93  F   UNL A   1      47.558  37.073  29.749  1.00  0.00    -0.200 F 
ENDBRANCH  60  83
ENDBRANCH  34  35
ENDBRANCH  27  29
ENDBRANCH  26  27
ENDBRANCH  25  26
ENDBRANCH  24  25
ENDBRANCH   1  24
TORSDOF 17
ENDMDL
