MODEL 1
REMARK VINA RESULT:     -10.7      0.000      0.000
REMARK SMILES CSCC[C@H](C(=O)OCCOCCOC(=O)c1ccc(-c2c3nc(c(-c4c(F)c(F)c(F)c(F)c4F)c4ccc([nH]4)c(-c4c(F)c(F)c(F)c(F)c4F)c4nc(c(-c5c(F)c(F)c(F)c(F)c5F)c5ccc2[nH]5)C=C4)C=C3)cc1)N1C(=O)/C(=C/c2ccc3ncccc3c2)SC1=S
REMARK SMILES IDX 10 1 9 2 8 3 6 4 7 5 5 6 4 7 3 8 2 9 1 10 80 11 81 12 96 13
REMARK SMILES IDX 82 14 83 15 95 16 97 17 84 18 85 19 86 20 94 21 87 22 93 23
REMARK SMILES IDX 88 24 92 25 89 26 91 27 90 28 11 29 12 30 13 31 14 32 15 33
REMARK SMILES IDX 16 34 17 35 18 36 79 37 19 38 78 39 20 40 21 41 22 42 72 43
REMARK SMILES IDX 23 44 77 45 71 46 73 47 24 48 76 49 70 50 69 51 25 53 57 54
REMARK SMILES IDX 37 55 56 56 38 57 41 58 55 59 74 60 39 61 40 62 54 64 75 65
REMARK SMILES IDX 42 66 26 67 27 68 35 69 28 70 29 71 33 72 36 73 30 74 31 75
REMARK SMILES IDX 34 76 32 77 58 78 59 79 67 80 60 81 61 82 65 83 68 84 62 85
REMARK SMILES IDX 63 86 66 87 64 88 43 89 44 90 52 91 45 92 46 93 50 94 53 95
REMARK SMILES IDX 47 96 48 97 51 98 49 99
REMARK H PARENT 73 52 41 63
REMARK Flexibility Score: inf
ROOT
ATOM      1  C   UNL A   1      34.074  30.800  27.819  1.00  0.00     0.202 C 
ENDROOT
BRANCH   1   2
ATOM      2  C   UNL A   1      33.982  29.890  26.591  1.00  0.00     0.261 C 
BRANCH   2   3
ATOM      3  O   UNL A   1      32.793  29.074  26.601  1.00  0.00    -0.462 OA
BRANCH   3   4
ATOM      4  C   UNL A   1      31.760  29.560  25.859  1.00  0.00     0.329 C 
ATOM      5  O   UNL A   1      31.478  30.751  25.759  1.00  0.00    -0.250 OA
BRANCH   4   6
ATOM      6  C   UNL A   1      31.046  28.486  25.014  1.00  0.00     0.202 C 
BRANCH   6   7
ATOM      7  C   UNL A   1      30.405  29.269  23.839  1.00  0.00     0.048 C 
BRANCH   7   8
ATOM      8  C   UNL A   1      29.258  28.624  23.062  1.00  0.00     0.072 C 
BRANCH   8   9
ATOM      9  S   UNL A   1      28.045  29.805  22.395  1.00  0.00    -0.165 SA
ATOM     10  C   UNL A   1      28.312  31.207  23.505  1.00  0.00     0.085 C 
ENDBRANCH   8   9
ENDBRANCH   7   8
ENDBRANCH   6   7
BRANCH   6  11
ATOM     11  N   UNL A   1      31.884  27.295  24.691  1.00  0.00    -0.278 N 
ATOM     12  C   UNL A   1      31.898  26.139  25.458  1.00  0.00     0.266 C 
ATOM     13  C   UNL A   1      32.873  27.352  23.713  1.00  0.00     0.149 C 
ATOM     14  O   UNL A   1      31.109  25.809  26.331  1.00  0.00    -0.268 OA
ATOM     15  C   UNL A   1      33.103  25.319  25.140  1.00  0.00     0.081 C 
ATOM     16  S   UNL A   1      33.744  25.831  23.637  1.00  0.00    -0.054 SA
ATOM     17  S   UNL A   1      33.305  28.621  22.717  1.00  0.00    -0.052 S 
ATOM     18  C   UNL A   1      33.624  24.424  25.995  1.00  0.00     0.029 C 
BRANCH  18  19
ATOM     19  C   UNL A   1      34.879  23.678  25.799  1.00  0.00    -0.024 A 
ATOM     20  C   UNL A   1      36.103  24.311  26.014  1.00  0.00     0.010 A 
ATOM     21  C   UNL A   1      34.883  22.338  25.393  1.00  0.00     0.018 A 
ATOM     22  C   UNL A   1      37.299  23.589  25.902  1.00  0.00     0.029 A 
ATOM     23  C   UNL A   1      36.084  21.608  25.315  1.00  0.00     0.001 A 
ATOM     24  C   UNL A   1      37.315  22.238  25.582  1.00  0.00     0.070 A 
ATOM     25  C   UNL A   1      36.094  20.242  25.001  1.00  0.00     0.012 A 
ATOM     26  N   UNL A   1      38.483  21.572  25.547  1.00  0.00    -0.256 NA
ATOM     27  C   UNL A   1      37.297  19.548  24.982  1.00  0.00     0.021 A 
ATOM     28  C   UNL A   1      38.453  20.251  25.261  1.00  0.00     0.112 A 
ENDBRANCH  18  19
ENDBRANCH   6  11
ENDBRANCH   4   6
ENDBRANCH   3   4
ENDBRANCH   2   3
ENDBRANCH   1   2
BRANCH   1  29
ATOM     29  O   UNL A   1      33.820  32.190  27.630  1.00  0.00    -0.374 OA
BRANCH  29  30
ATOM     30  C   UNL A   1      34.564  33.117  28.413  1.00  0.00     0.202 C 
BRANCH  30  31
ATOM     31  C   UNL A   1      33.902  34.460  28.744  1.00  0.00     0.261 C 
BRANCH  31  32
ATOM     32  O   UNL A   1      32.939  34.367  29.806  1.00  0.00    -0.460 OA
BRANCH  32  33
ATOM     33  C   UNL A   1      33.190  35.195  30.851  1.00  0.00     0.338 C 
ATOM     34  O   UNL A   1      32.593  36.215  31.150  1.00  0.00    -0.246 OA
BRANCH  33  35
ATOM     35  C   UNL A   1      34.221  34.611  31.725  1.00  0.00     0.060 A 
ATOM     36  C   UNL A   1      35.354  35.391  31.993  1.00  0.00     0.016 A 
ATOM     37  C   UNL A   1      34.136  33.296  32.184  1.00  0.00     0.016 A 
ATOM     38  C   UNL A   1      36.436  34.839  32.670  1.00  0.00     0.010 A 
ATOM     39  C   UNL A   1      35.229  32.738  32.855  1.00  0.00     0.010 A 
ATOM     40  C   UNL A   1      36.398  33.494  33.059  1.00  0.00    -0.014 A 
BRANCH  40  41
ATOM     41  C   UNL A   1      37.647  32.839  33.512  1.00  0.00     0.031 A 
ATOM     42  C   UNL A   1      38.283  31.807  32.623  1.00  0.00     0.074 A 
ATOM     43  C   UNL A   1      38.225  33.187  34.674  1.00  0.00     0.049 A 
ATOM     44  N   UNL A   1      39.356  31.085  32.821  1.00  0.00    -0.248 NA
ATOM     45  C   UNL A   1      37.617  31.554  31.335  1.00  0.00     0.031 C 
ATOM     46  C   UNL A   1      37.723  34.206  35.593  1.00  0.00     0.029 A 
ATOM     47  N   UNL A   1      39.362  32.715  35.279  1.00  0.00    -0.354 N 
ATOM     48  C   UNL A   1      39.488  30.290  31.689  1.00  0.00     0.074 A 
ATOM     49  C   UNL A   1      38.371  30.594  30.822  1.00  0.00     0.031 C 
ATOM     50  C   UNL A   1      38.544  34.275  36.655  1.00  0.00     0.029 A 
ATOM     51  C   UNL A   1      39.609  33.285  36.502  1.00  0.00     0.049 A 
ATOM     52  H   UNL A   1      39.944  32.032  34.874  1.00  0.00     0.167 HD
ATOM     53  C   UNL A   1      40.460  29.392  31.398  1.00  0.00     0.037 A 
ATOM     54  C   UNL A   1      40.575  33.020  37.401  1.00  0.00     0.037 A 
ATOM     55  C   UNL A   1      41.570  29.097  32.264  1.00  0.00     0.049 A 
ATOM     56  C   UNL A   1      41.608  31.969  37.083  1.00  0.00     0.074 A 
ATOM     57  C   UNL A   1      42.618  28.217  32.057  1.00  0.00     0.029 A 
ATOM     58  N   UNL A   1      41.772  29.673  33.510  1.00  0.00    -0.354 N 
ATOM     59  N   UNL A   1      41.739  31.235  36.004  1.00  0.00    -0.248 NA
ATOM     60  C   UNL A   1      42.630  31.714  38.108  1.00  0.00     0.031 C 
ATOM     61  C   UNL A   1      43.427  28.225  33.199  1.00  0.00     0.029 A 
ATOM     62  C   UNL A   1      42.913  29.149  34.095  1.00  0.00     0.049 A 
ATOM     63  H   UNL A   1      41.189  30.354  33.919  1.00  0.00     0.167 HD
ATOM     64  C   UNL A   1      42.869  30.454  36.206  1.00  0.00     0.074 A 
ATOM     65  C   UNL A   1      43.394  30.812  37.508  1.00  0.00     0.031 C 
ATOM     66  C   UNL A   1      43.424  29.524  35.389  1.00  0.00     0.037 A 
BRANCH  53  67
ATOM     67  C   UNL A   1      40.347  28.646  30.101  1.00  0.00     0.064 A 
ATOM     68  C   UNL A   1      39.629  27.445  30.000  1.00  0.00     0.173 A 
ATOM     69  C   UNL A   1      40.945  29.154  28.937  1.00  0.00     0.173 A 
ATOM     70  F   UNL A   1      39.051  26.910  31.085  1.00  0.00    -0.203 F 
ATOM     71  C   UNL A   1      39.537  26.765  28.787  1.00  0.00     0.198 A 
ATOM     72  C   UNL A   1      40.826  28.487  27.720  1.00  0.00     0.198 A 
ATOM     73  F   UNL A   1      41.640  30.300  28.978  1.00  0.00    -0.203 F 
ATOM     74  F   UNL A   1      38.888  25.595  28.724  1.00  0.00    -0.200 F 
ATOM     75  C   UNL A   1      40.130  27.290  27.648  1.00  0.00     0.200 A 
ATOM     76  F   UNL A   1      41.391  29.001  26.619  1.00  0.00    -0.200 F 
ATOM     77  F   UNL A   1      40.037  26.637  26.481  1.00  0.00    -0.200 F 
ENDBRANCH  53  67
BRANCH  54  78
ATOM     78  C   UNL A   1      40.606  33.753  38.694  1.00  0.00     0.064 A 
ATOM     79  C   UNL A   1      41.456  34.850  38.883  1.00  0.00     0.173 A 
ATOM     80  C   UNL A   1      39.791  33.364  39.768  1.00  0.00     0.173 A 
ATOM     81  F   UNL A   1      42.271  35.244  37.895  1.00  0.00    -0.203 F 
ATOM     82  C   UNL A   1      41.501  35.523  40.103  1.00  0.00     0.198 A 
ATOM     83  C   UNL A   1      39.817  34.055  40.977  1.00  0.00     0.198 A 
ATOM     84  F   UNL A   1      38.962  32.318  39.638  1.00  0.00    -0.203 F 
ATOM     85  F   UNL A   1      42.353  36.543  40.273  1.00  0.00    -0.200 F 
ATOM     86  C   UNL A   1      40.677  35.128  41.147  1.00  0.00     0.200 A 
ATOM     87  F   UNL A   1      39.011  33.676  41.979  1.00  0.00    -0.200 F 
ATOM     88  F   UNL A   1      40.717  35.778  42.318  1.00  0.00    -0.200 F 
ENDBRANCH  54  78
BRANCH  66  89
ATOM     89  C   UNL A   1      44.682  28.855  35.860  1.00  0.00     0.064 A 
ATOM     90  C   UNL A   1      44.650  27.661  36.594  1.00  0.00     0.173 A 
ATOM     91  C   UNL A   1      45.936  29.394  35.534  1.00  0.00     0.173 A 
ATOM     92  F   UNL A   1      43.476  27.114  36.943  1.00  0.00    -0.203 F 
ATOM     93  C   UNL A   1      45.828  27.043  37.004  1.00  0.00     0.198 A 
ATOM     94  C   UNL A   1      47.112  28.757  35.920  1.00  0.00     0.198 A 
ATOM     95  F   UNL A   1      46.021  30.530  34.826  1.00  0.00    -0.203 F 
ATOM     96  F   UNL A   1      45.775  25.926  37.743  1.00  0.00    -0.200 F 
ATOM     97  C   UNL A   1      47.058  27.586  36.661  1.00  0.00     0.200 A 
ATOM     98  F   UNL A   1      48.297  29.277  35.574  1.00  0.00    -0.200 F 
ATOM     99  F   UNL A   1      48.190  26.986  37.049  1.00  0.00    -0.200 F 
ENDBRANCH  66  89
ENDBRANCH  40  41
ENDBRANCH  33  35
ENDBRANCH  32  33
ENDBRANCH  31  32
ENDBRANCH  30  31
ENDBRANCH  29  30
ENDBRANCH   1  29
TORSDOF 19
ENDMDL
MODEL 2
REMARK VINA RESULT:     -10.4      1.890      3.245
REMARK SMILES CSCC[C@H](C(=O)OCCOCCOC(=O)c1ccc(-c2c3nc(c(-c4c(F)c(F)c(F)c(F)c4F)c4ccc([nH]4)c(-c4c(F)c(F)c(F)c(F)c4F)c4nc(c(-c5c(F)c(F)c(F)c(F)c5F)c5ccc2[nH]5)C=C4)C=C3)cc1)N1C(=O)/C(=C/c2ccc3ncccc3c2)SC1=S
REMARK SMILES IDX 10 1 9 2 8 3 6 4 7 5 5 6 4 7 3 8 2 9 1 10 80 11 81 12 96 13
REMARK SMILES IDX 82 14 83 15 95 16 97 17 84 18 85 19 86 20 94 21 87 22 93 23
REMARK SMILES IDX 88 24 92 25 89 26 91 27 90 28 11 29 12 30 13 31 14 32 15 33
REMARK SMILES IDX 16 34 17 35 18 36 79 37 19 38 78 39 20 40 21 41 22 42 72 43
REMARK SMILES IDX 23 44 77 45 71 46 73 47 24 48 76 49 70 50 69 51 25 53 57 54
REMARK SMILES IDX 37 55 56 56 38 57 41 58 55 59 74 60 39 61 40 62 54 64 75 65
REMARK SMILES IDX 42 66 26 67 27 68 35 69 28 70 29 71 33 72 36 73 30 74 31 75
REMARK SMILES IDX 34 76 32 77 58 78 59 79 67 80 60 81 61 82 65 83 68 84 62 85
REMARK SMILES IDX 63 86 66 87 64 88 43 89 44 90 52 91 45 92 46 93 50 94 53 95
REMARK SMILES IDX 47 96 48 97 51 98 49 99
REMARK H PARENT 73 52 41 63
REMARK Flexibility Score: inf
ROOT
ATOM      1  C   UNL A   1      31.757  29.369  25.830  1.00  0.00     0.202 C 
ENDROOT
BRANCH   1   2
ATOM      2  C   UNL A   1      31.531  28.230  26.826  1.00  0.00     0.261 C 
BRANCH   2   3
ATOM      3  O   UNL A   1      31.860  26.940  26.269  1.00  0.00    -0.462 OA
BRANCH   3   4
ATOM      4  C   UNL A   1      30.787  26.185  25.903  1.00  0.00     0.329 C 
ATOM      5  O   UNL A   1      29.758  26.075  26.563  1.00  0.00    -0.250 OA
BRANCH   4   6
ATOM      6  C   UNL A   1      30.910  25.584  24.488  1.00  0.00     0.202 C 
BRANCH   6   7
ATOM      7  C   UNL A   1      30.550  26.749  23.531  1.00  0.00     0.048 C 
BRANCH   7   8
ATOM      8  C   UNL A   1      29.136  27.328  23.571  1.00  0.00     0.072 C 
BRANCH   8   9
ATOM      9  S   UNL A   1      28.913  28.838  22.581  1.00  0.00    -0.165 SA
ATOM     10  C   UNL A   1      30.636  29.336  22.357  1.00  0.00     0.085 C 
ENDBRANCH   8   9
ENDBRANCH   7   8
ENDBRANCH   6   7
BRANCH   6  11
ATOM     11  N   UNL A   1      32.176  24.836  24.241  1.00  0.00    -0.278 N 
ATOM     12  C   UNL A   1      32.436  23.577  24.764  1.00  0.00     0.266 C 
ATOM     13  C   UNL A   1      33.273  25.451  23.643  1.00  0.00     0.149 C 
ATOM     14  O   UNL A   1      31.644  22.802  25.279  1.00  0.00    -0.268 OA
ATOM     15  C   UNL A   1      33.896  23.279  24.699  1.00  0.00     0.081 C 
ATOM     16  S   UNL A   1      34.633  24.345  23.580  1.00  0.00    -0.054 SA
ATOM     17  S   UNL A   1      33.426  27.010  23.063  1.00  0.00    -0.052 S 
ATOM     18  C   UNL A   1      34.496  22.388  25.506  1.00  0.00     0.029 C 
BRANCH  18  19
ATOM     19  C   UNL A   1      35.946  22.140  25.583  1.00  0.00    -0.024 A 
ATOM     20  C   UNL A   1      36.810  23.177  25.938  1.00  0.00     0.010 A 
ATOM     21  C   UNL A   1      36.494  20.882  25.304  1.00  0.00     0.018 A 
ATOM     22  C   UNL A   1      38.182  22.931  26.086  1.00  0.00     0.029 A 
ATOM     23  C   UNL A   1      37.866  20.632  25.486  1.00  0.00     0.001 A 
ATOM     24  C   UNL A   1      38.728  21.669  25.893  1.00  0.00     0.070 A 
ATOM     25  C   UNL A   1      38.411  19.354  25.300  1.00  0.00     0.012 A 
ATOM     26  N   UNL A   1      40.040  21.468  26.108  1.00  0.00    -0.256 NA
ATOM     27  C   UNL A   1      39.763  19.139  25.539  1.00  0.00     0.021 A 
ATOM     28  C   UNL A   1      40.528  20.218  25.939  1.00  0.00     0.112 A 
ENDBRANCH  18  19
ENDBRANCH   6  11
ENDBRANCH   4   6
ENDBRANCH   3   4
ENDBRANCH   2   3
ENDBRANCH   1   2
BRANCH   1  29
ATOM     29  O   UNL A   1      32.389  30.552  26.312  1.00  0.00    -0.374 OA
BRANCH  29  30
ATOM     30  C   UNL A   1      31.607  31.462  27.079  1.00  0.00     0.202 C 
BRANCH  30  31
ATOM     31  C   UNL A   1      31.736  32.956  26.758  1.00  0.00     0.261 C 
BRANCH  31  32
ATOM     32  O   UNL A   1      33.079  33.447  26.889  1.00  0.00    -0.460 OA
BRANCH  32  33
ATOM     33  C   UNL A   1      33.427  33.772  28.159  1.00  0.00     0.338 C 
ATOM     34  O   UNL A   1      32.776  34.415  28.966  1.00  0.00    -0.246 OA
BRANCH  33  35
ATOM     35  C   UNL A   1      34.679  33.093  28.533  1.00  0.00     0.060 A 
ATOM     36  C   UNL A   1      34.581  31.781  29.014  1.00  0.00     0.016 A 
ATOM     37  C   UNL A   1      35.907  33.757  28.515  1.00  0.00     0.016 A 
ATOM     38  C   UNL A   1      35.701  31.146  29.539  1.00  0.00     0.010 A 
ATOM     39  C   UNL A   1      37.031  33.121  29.053  1.00  0.00     0.010 A 
ATOM     40  C   UNL A   1      36.920  31.832  29.607  1.00  0.00    -0.014 A 
BRANCH  40  41
ATOM     41  C   UNL A   1      38.020  31.268  30.421  1.00  0.00     0.031 A 
ATOM     42  C   UNL A   1      38.974  30.301  29.775  1.00  0.00     0.074 A 
ATOM     43  C   UNL A   1      38.192  31.640  31.701  1.00  0.00     0.049 A 
ATOM     44  N   UNL A   1      39.990  29.660  30.294  1.00  0.00    -0.248 NA
ATOM     45  C   UNL A   1      38.749  30.018  28.347  1.00  0.00     0.031 C 
ATOM     46  C   UNL A   1      37.358  32.603  32.417  1.00  0.00     0.029 A 
ATOM     47  N   UNL A   1      39.126  31.247  32.625  1.00  0.00    -0.354 N 
ATOM     48  C   UNL A   1      40.519  28.896  29.262  1.00  0.00     0.074 A 
ATOM     49  C   UNL A   1      39.696  29.127  28.095  1.00  0.00     0.031 C 
ATOM     50  C   UNL A   1      37.812  32.718  33.676  1.00  0.00     0.029 A 
ATOM     51  C   UNL A   1      38.947  31.815  33.861  1.00  0.00     0.049 A 
ATOM     52  H   UNL A   1      39.854  30.617  32.421  1.00  0.00     0.167 HD
ATOM     53  C   UNL A   1      41.600  28.079  29.286  1.00  0.00     0.037 A 
ATOM     54  C   UNL A   1      39.613  31.611  35.013  1.00  0.00     0.037 A 
ATOM     55  C   UNL A   1      42.416  27.857  30.450  1.00  0.00     0.049 A 
ATOM     56  C   UNL A   1      40.773  30.647  35.031  1.00  0.00     0.074 A 
ATOM     57  C   UNL A   1      43.542  27.062  30.577  1.00  0.00     0.029 A 
ATOM     58  N   UNL A   1      42.186  28.426  31.694  1.00  0.00    -0.354 N 
ATOM     59  N   UNL A   1      41.280  29.943  34.047  1.00  0.00    -0.248 NA
ATOM     60  C   UNL A   1      41.454  30.455  36.318  1.00  0.00     0.031 C 
ATOM     61  C   UNL A   1      43.965  27.114  31.909  1.00  0.00     0.029 A 
ATOM     62  C   UNL A   1      43.134  27.983  32.600  1.00  0.00     0.049 A 
ATOM     63  H   UNL A   1      41.456  29.055  31.901  1.00  0.00     0.167 HD
ATOM     64  C   UNL A   1      42.353  29.247  34.588  1.00  0.00     0.074 A 
ATOM     65  C   UNL A   1      42.431  29.623  35.985  1.00  0.00     0.031 C 
ATOM     66  C   UNL A   1      43.199  28.375  33.985  1.00  0.00     0.037 A 
BRANCH  53  67
ATOM     67  C   UNL A   1      41.942  27.347  28.021  1.00  0.00     0.064 A 
ATOM     68  C   UNL A   1      42.859  27.863  27.094  1.00  0.00     0.173 A 
ATOM     69  C   UNL A   1      41.361  26.100  27.745  1.00  0.00     0.173 A 
ATOM     70  F   UNL A   1      43.431  29.058  27.303  1.00  0.00    -0.203 F 
ATOM     71  C   UNL A   1      43.162  27.170  25.924  1.00  0.00     0.198 A 
ATOM     72  C   UNL A   1      41.688  25.396  26.589  1.00  0.00     0.198 A 
ATOM     73  F   UNL A   1      40.480  25.560  28.601  1.00  0.00    -0.203 F 
ATOM     74  F   UNL A   1      44.004  27.704  25.029  1.00  0.00    -0.200 F 
ATOM     75  C   UNL A   1      42.582  25.935  25.676  1.00  0.00     0.200 A 
ATOM     76  F   UNL A   1      41.133  24.199  26.357  1.00  0.00    -0.200 F 
ATOM     77  F   UNL A   1      42.877  25.267  24.552  1.00  0.00    -0.200 F 
ENDBRANCH  53  67
BRANCH  54  78
ATOM     78  C   UNL A   1      39.195  32.324  36.248  1.00  0.00     0.064 A 
ATOM     79  C   UNL A   1      39.734  33.574  36.579  1.00  0.00     0.173 A 
ATOM     80  C   UNL A   1      38.254  31.764  37.125  1.00  0.00     0.173 A 
ATOM     81  F   UNL A   1      40.655  34.138  35.785  1.00  0.00    -0.203 F 
ATOM     82  C   UNL A   1      39.358  34.231  37.750  1.00  0.00     0.198 A 
ATOM     83  C   UNL A   1      37.859  32.435  38.280  1.00  0.00     0.198 A 
ATOM     84  F   UNL A   1      37.711  30.568  36.854  1.00  0.00    -0.203 F 
ATOM     85  F   UNL A   1      39.920  35.407  38.065  1.00  0.00    -0.200 F 
ATOM     86  C   UNL A   1      38.417  33.664  38.596  1.00  0.00     0.200 A 
ATOM     87  F   UNL A   1      36.941  31.888  39.088  1.00  0.00    -0.200 F 
ATOM     88  F   UNL A   1      38.052  34.299  39.718  1.00  0.00    -0.200 F 
ENDBRANCH  54  78
BRANCH  66  89
ATOM     89  C   UNL A   1      44.304  27.796  34.820  1.00  0.00     0.064 A 
ATOM     90  C   UNL A   1      45.536  28.451  34.968  1.00  0.00     0.173 A 
ATOM     91  C   UNL A   1      44.110  26.593  35.515  1.00  0.00     0.173 A 
ATOM     92  F   UNL A   1      45.775  29.596  34.312  1.00  0.00    -0.203 F 
ATOM     93  C   UNL A   1      46.541  27.909  35.764  1.00  0.00     0.198 A 
ATOM     94  C   UNL A   1      45.107  26.070  36.334  1.00  0.00     0.198 A 
ATOM     95  F   UNL A   1      42.947  25.932  35.414  1.00  0.00    -0.203 F 
ATOM     96  F   UNL A   1      47.727  28.527  35.856  1.00  0.00    -0.200 F 
ATOM     97  C   UNL A   1      46.324  26.724  36.452  1.00  0.00     0.200 A 
ATOM     98  F   UNL A   1      44.889  24.933  37.008  1.00  0.00    -0.200 F 
ATOM     99  F   UNL A   1      47.290  26.208  37.224  1.00  0.00    -0.200 F 
ENDBRANCH  66  89
ENDBRANCH  40  41
ENDBRANCH  33  35
ENDBRANCH  32  33
ENDBRANCH  31  32
ENDBRANCH  30  31
ENDBRANCH  29  30
ENDBRANCH   1  29
TORSDOF 19
ENDMDL
MODEL 3
REMARK VINA RESULT:     -10.1      3.641      8.537
REMARK SMILES CSCC[C@H](C(=O)OCCOCCOC(=O)c1ccc(-c2c3nc(c(-c4c(F)c(F)c(F)c(F)c4F)c4ccc([nH]4)c(-c4c(F)c(F)c(F)c(F)c4F)c4nc(c(-c5c(F)c(F)c(F)c(F)c5F)c5ccc2[nH]5)C=C4)C=C3)cc1)N1C(=O)/C(=C/c2ccc3ncccc3c2)SC1=S
REMARK SMILES IDX 10 1 9 2 8 3 6 4 7 5 5 6 4 7 3 8 2 9 1 10 80 11 81 12 96 13
REMARK SMILES IDX 82 14 83 15 95 16 97 17 84 18 85 19 86 20 94 21 87 22 93 23
REMARK SMILES IDX 88 24 92 25 89 26 91 27 90 28 11 29 12 30 13 31 14 32 15 33
REMARK SMILES IDX 16 34 17 35 18 36 79 37 19 38 78 39 20 40 21 41 22 42 72 43
REMARK SMILES IDX 23 44 77 45 71 46 73 47 24 48 76 49 70 50 69 51 25 53 57 54
REMARK SMILES IDX 37 55 56 56 38 57 41 58 55 59 74 60 39 61 40 62 54 64 75 65
REMARK SMILES IDX 42 66 26 67 27 68 35 69 28 70 29 71 33 72 36 73 30 74 31 75
REMARK SMILES IDX 34 76 32 77 58 78 59 79 67 80 60 81 61 82 65 83 68 84 62 85
REMARK SMILES IDX 63 86 66 87 64 88 43 89 44 90 52 91 45 92 46 93 50 94 53 95
REMARK SMILES IDX 47 96 48 97 51 98 49 99
REMARK H PARENT 73 52 41 63
REMARK Flexibility Score: inf
ROOT
ATOM      1  C   UNL A   1      33.579  30.262  27.572  1.00  0.00     0.202 C 
ENDROOT
BRANCH   1   2
ATOM      2  C   UNL A   1      33.505  29.454  26.274  1.00  0.00     0.261 C 
BRANCH   2   3
ATOM      3  O   UNL A   1      32.254  28.749  26.137  1.00  0.00    -0.462 OA
BRANCH   3   4
ATOM      4  C   UNL A   1      31.388  29.291  25.237  1.00  0.00     0.329 C 
ATOM      5  O   UNL A   1      31.132  30.490  25.156  1.00  0.00    -0.250 OA
BRANCH   4   6
ATOM      6  C   UNL A   1      30.853  28.278  24.205  1.00  0.00     0.202 C 
BRANCH   6   7
ATOM      7  C   UNL A   1      30.475  29.135  22.969  1.00  0.00     0.048 C 
BRANCH   7   8
ATOM      8  C   UNL A   1      29.044  29.072  22.437  1.00  0.00     0.072 C 
BRANCH   8   9
ATOM      9  S   UNL A   1      27.965  30.417  23.020  1.00  0.00    -0.165 SA
ATOM     10  C   UNL A   1      28.496  31.756  21.926  1.00  0.00     0.085 C 
ENDBRANCH   8   9
ENDBRANCH   7   8
ENDBRANCH   6   7
BRANCH   6  11
ATOM     11  N   UNL A   1      31.728  27.089  23.995  1.00  0.00    -0.278 N 
ATOM     12  C   UNL A   1      31.526  25.870  24.627  1.00  0.00     0.266 C 
ATOM     13  C   UNL A   1      32.936  27.193  23.312  1.00  0.00     0.149 C 
ATOM     14  O   UNL A   1      30.534  25.496  25.233  1.00  0.00    -0.268 OA
ATOM     15  C   UNL A   1      32.760  25.035  24.551  1.00  0.00     0.081 C 
ATOM     16  S   UNL A   1      33.774  25.652  23.317  1.00  0.00    -0.054 SA
ATOM     17  S   UNL A   1      33.629  28.527  22.584  1.00  0.00    -0.052 S 
ATOM     18  C   UNL A   1      33.029  24.048  25.420  1.00  0.00     0.029 C 
BRANCH  18  19
ATOM     19  C   UNL A   1      34.282  23.275  25.481  1.00  0.00    -0.024 A 
ATOM     20  C   UNL A   1      34.316  21.970  24.990  1.00  0.00     0.010 A 
ATOM     21  C   UNL A   1      35.454  23.813  26.027  1.00  0.00     0.018 A 
ATOM     22  C   UNL A   1      35.521  21.253  24.976  1.00  0.00     0.029 A 
ATOM     23  C   UNL A   1      36.668  23.103  25.980  1.00  0.00     0.001 A 
ATOM     24  C   UNL A   1      36.709  21.804  25.438  1.00  0.00     0.070 A 
ATOM     25  C   UNL A   1      37.867  23.667  26.438  1.00  0.00     0.012 A 
ATOM     26  N   UNL A   1      37.852  21.101  25.347  1.00  0.00    -0.256 NA
ATOM     27  C   UNL A   1      39.052  22.950  26.328  1.00  0.00     0.021 A 
ATOM     28  C   UNL A   1      38.993  21.684  25.779  1.00  0.00     0.112 A 
ENDBRANCH  18  19
ENDBRANCH   6  11
ENDBRANCH   4   6
ENDBRANCH   3   4
ENDBRANCH   2   3
ENDBRANCH   1   2
BRANCH   1  29
ATOM     29  O   UNL A   1      33.621  31.682  27.463  1.00  0.00    -0.374 OA
BRANCH  29  30
ATOM     30  C   UNL A   1      34.745  32.362  28.012  1.00  0.00     0.202 C 
BRANCH  30  31
ATOM     31  C   UNL A   1      34.665  32.797  29.480  1.00  0.00     0.261 C 
BRANCH  31  32
ATOM     32  O   UNL A   1      35.124  31.787  30.393  1.00  0.00    -0.460 OA
BRANCH  32  33
ATOM     33  C   UNL A   1      36.163  32.180  31.172  1.00  0.00     0.338 C 
ATOM     34  O   UNL A   1      36.144  32.988  32.084  1.00  0.00    -0.246 OA
BRANCH  33  35
ATOM     35  C   UNL A   1      37.352  31.361  30.881  1.00  0.00     0.060 A 
ATOM     36  C   UNL A   1      37.645  30.316  31.767  1.00  0.00     0.016 A 
ATOM     37  C   UNL A   1      38.220  31.672  29.832  1.00  0.00     0.016 A 
ATOM     38  C   UNL A   1      38.840  29.615  31.645  1.00  0.00     0.010 A 
ATOM     39  C   UNL A   1      39.426  30.974  29.718  1.00  0.00     0.010 A 
ATOM     40  C   UNL A   1      39.759  29.974  30.651  1.00  0.00    -0.014 A 
BRANCH  40  41
ATOM     41  C   UNL A   1      41.134  29.429  30.708  1.00  0.00     0.031 A 
ATOM     42  C   UNL A   1      42.167  30.158  31.522  1.00  0.00     0.074 A 
ATOM     43  C   UNL A   1      41.448  28.283  30.080  1.00  0.00     0.049 A 
ATOM     44  N   UNL A   1      43.435  29.886  31.696  1.00  0.00    -0.248 NA
ATOM     45  C   UNL A   1      41.705  31.359  32.238  1.00  0.00     0.031 C 
ATOM     46  C   UNL A   1      40.518  27.468  29.300  1.00  0.00     0.029 A 
ATOM     47  N   UNL A   1      42.640  27.610  29.997  1.00  0.00    -0.354 N 
ATOM     48  C   UNL A   1      43.921  30.883  32.532  1.00  0.00     0.074 A 
ATOM     49  C   UNL A   1      42.823  31.783  32.807  1.00  0.00     0.031 C 
ATOM     50  C   UNL A   1      41.179  26.408  28.807  1.00  0.00     0.029 A 
ATOM     51  C   UNL A   1      42.582  26.487  29.211  1.00  0.00     0.049 A 
ATOM     52  H   UNL A   1      43.458  27.906  30.457  1.00  0.00     0.167 HD
ATOM     53  C   UNL A   1      45.173  31.029  33.031  1.00  0.00     0.037 A 
ATOM     54  C   UNL A   1      43.558  25.635  28.846  1.00  0.00     0.037 A 
ATOM     55  C   UNL A   1      46.260  30.127  32.756  1.00  0.00     0.049 A 
ATOM     56  C   UNL A   1      44.958  25.855  29.361  1.00  0.00     0.074 A 
ATOM     57  C   UNL A   1      47.561  30.175  33.224  1.00  0.00     0.029 A 
ATOM     58  N   UNL A   1      46.172  29.016  31.930  1.00  0.00    -0.354 N 
ATOM     59  N   UNL A   1      45.408  26.787  30.167  1.00  0.00    -0.248 NA
ATOM     60  C   UNL A   1      45.984  24.901  28.919  1.00  0.00     0.031 C 
ATOM     61  C   UNL A   1      48.273  29.120  32.643  1.00  0.00     0.029 A 
ATOM     62  C   UNL A   1      47.401  28.384  31.855  1.00  0.00     0.049 A 
ATOM     63  H   UNL A   1      45.355  28.720  31.466  1.00  0.00     0.167 HD
ATOM     64  C   UNL A   1      46.757  26.518  30.350  1.00  0.00     0.074 A 
ATOM     65  C   UNL A   1      47.052  25.326  29.580  1.00  0.00     0.031 C 
ATOM     66  C   UNL A   1      47.672  27.193  31.089  1.00  0.00     0.037 A 
BRANCH  53  67
ATOM     67  C   UNL A   1      45.435  32.222  33.902  1.00  0.00     0.064 A 
ATOM     68  C   UNL A   1      45.283  32.168  35.296  1.00  0.00     0.173 A 
ATOM     69  C   UNL A   1      45.869  33.430  33.336  1.00  0.00     0.173 A 
ATOM     70  F   UNL A   1      44.856  31.041  35.885  1.00  0.00    -0.203 F 
ATOM     71  C   UNL A   1      45.529  33.288  36.087  1.00  0.00     0.198 A 
ATOM     72  C   UNL A   1      46.143  34.539  34.133  1.00  0.00     0.198 A 
ATOM     73  F   UNL A   1      46.035  33.535  32.009  1.00  0.00    -0.203 F 
ATOM     74  F   UNL A   1      45.330  33.228  37.411  1.00  0.00    -0.200 F 
ATOM     75  C   UNL A   1      45.965  34.469  35.507  1.00  0.00     0.200 A 
ATOM     76  F   UNL A   1      46.573  35.677  33.570  1.00  0.00    -0.200 F 
ATOM     77  F   UNL A   1      46.206  35.544  36.270  1.00  0.00    -0.200 F 
ENDBRANCH  53  67
BRANCH  54  78
ATOM     78  C   UNL A   1      43.250  24.500  27.937  1.00  0.00     0.064 A 
ATOM     79  C   UNL A   1      43.391  24.625  26.549  1.00  0.00     0.173 A 
ATOM     80  C   UNL A   1      42.800  23.270  28.440  1.00  0.00     0.173 A 
ATOM     81  F   UNL A   1      43.794  25.789  26.020  1.00  0.00    -0.203 F 
ATOM     82  C   UNL A   1      43.080  23.568  25.696  1.00  0.00     0.198 A 
ATOM     83  C   UNL A   1      42.516  22.205  27.589  1.00  0.00     0.198 A 
ATOM     84  F   UNL A   1      42.646  23.100  29.762  1.00  0.00    -0.203 F 
ATOM     85  F   UNL A   1      43.183  23.727  24.370  1.00  0.00    -0.200 F 
ATOM     86  C   UNL A   1      42.648  22.356  26.217  1.00  0.00     0.200 A 
ATOM     87  F   UNL A   1      42.110  21.034  28.098  1.00  0.00    -0.200 F 
ATOM     88  F   UNL A   1      42.354  21.339  25.397  1.00  0.00    -0.200 F 
ENDBRANCH  54  78
BRANCH  66  89
ATOM     89  C   UNL A   1      49.068  26.642  31.131  1.00  0.00     0.064 A 
ATOM     90  C   UNL A   1      50.069  27.105  30.266  1.00  0.00     0.173 A 
ATOM     91  C   UNL A   1      49.416  25.669  32.080  1.00  0.00     0.173 A 
ATOM     92  F   UNL A   1      49.782  28.025  29.332  1.00  0.00    -0.203 F 
ATOM     93  C   UNL A   1      51.364  26.597  30.335  1.00  0.00     0.198 A 
ATOM     94  C   UNL A   1      50.718  25.185  32.166  1.00  0.00     0.198 A 
ATOM     95  F   UNL A   1      48.496  25.198  32.936  1.00  0.00    -0.203 F 
ATOM     96  F   UNL A   1      52.295  27.021  29.469  1.00  0.00    -0.200 F 
ATOM     97  C   UNL A   1      51.689  25.644  31.289  1.00  0.00     0.200 A 
ATOM     98  F   UNL A   1      51.033  24.274  33.097  1.00  0.00    -0.200 F 
ATOM     99  F   UNL A   1      52.937  25.162  31.358  1.00  0.00    -0.200 F 
ENDBRANCH  66  89
ENDBRANCH  40  41
ENDBRANCH  33  35
ENDBRANCH  32  33
ENDBRANCH  31  32
ENDBRANCH  30  31
ENDBRANCH  29  30
ENDBRANCH   1  29
TORSDOF 19
ENDMDL
