MODEL 1
REMARK VINA RESULT:     -11.9      0.000      0.000
REMARK SMILES Cc1cc([N+](=O)[O-])c(C(C)(C)C)cc1C(=O)OCCOCCOC(=O)c1ccc(-c2c3nc(c(-c4c(F)c(F)c(F)c(F)c4F)c4ccc([nH]4)c(-c4c(F)c(F)c(F)c(F)c4F)c4nc(c(-c5c(F)c(F)c(F)c(F)c5F)c5ccc2[nH]5)C=C4)C=C3)cc1
REMARK SMILES IDX 21 1 20 2 19 3 18 4 17 5 15 6 16 7 14 8 1 9 2 10 3 11 4 12
REMARK SMILES IDX 13 13 8 14 5 15 6 16 7 17 9 18 10 19 11 20 12 21 22 22 23 23
REMARK SMILES IDX 24 24 25 25 26 26 27 27 88 28 28 29 87 30 29 31 30 32 31 33
REMARK SMILES IDX 81 34 32 35 86 36 80 37 82 38 33 39 85 40 79 41 78 42 34 44
REMARK SMILES IDX 66 45 46 46 65 47 47 48 50 49 64 50 83 51 48 52 49 53 63 55
REMARK SMILES IDX 84 56 51 57 35 58 36 59 44 60 37 61 38 62 42 63 45 64 39 65
REMARK SMILES IDX 40 66 43 67 41 68 67 69 68 70 76 71 69 72 70 73 74 74 77 75
REMARK SMILES IDX 71 76 72 77 75 78 73 79 52 80 53 81 61 82 54 83 55 84 59 85
REMARK SMILES IDX 62 86 56 87 57 88 60 89 58 90
REMARK H PARENT 82 43 50 54
REMARK Flexibility Score: inf
ROOT
ATOM      1  C   UNL A   1      33.481  29.092  26.855  1.00  0.00     0.202 C 
ENDROOT
BRANCH   1   2
ATOM      2  O   UNL A   1      32.965  28.521  25.671  1.00  0.00    -0.374 OA
BRANCH   2   3
ATOM      3  C   UNL A   1      32.657  29.435  24.631  1.00  0.00     0.202 C 
BRANCH   3   4
ATOM      4  C   UNL A   1      33.390  28.914  23.436  1.00  0.00     0.261 C 
BRANCH   4   5
ATOM      5  O   UNL A   1      33.899  27.599  23.686  1.00  0.00    -0.460 OA
BRANCH   5   6
ATOM      6  C   UNL A   1      33.488  26.581  22.903  1.00  0.00     0.338 C 
ATOM      7  O   UNL A   1      33.813  26.371  21.754  1.00  0.00    -0.246 OA
BRANCH   6   8
ATOM      8  C   UNL A   1      32.662  25.665  23.739  1.00  0.00     0.063 A 
ATOM      9  C   UNL A   1      30.318  26.783  23.398  1.00  0.00     0.045 C 
ATOM     10  C   UNL A   1      31.291  25.792  23.991  1.00  0.00    -0.030 A 
ATOM     11  C   UNL A   1      30.719  24.852  24.858  1.00  0.00     0.090 A 
ATOM     12  C   UNL A   1      31.462  23.845  25.529  1.00  0.00     0.273 A 
ATOM     13  C   UNL A   1      33.411  24.667  24.405  1.00  0.00     0.027 A 
ATOM     14  C   UNL A   1      32.871  23.767  25.357  1.00  0.00     0.036 A 
BRANCH  12  15
ATOM     15  N   UNL A   1      30.619  22.930  26.348  1.00  0.00     0.063 N 
ATOM     16  O   UNL A   1      30.468  21.769  25.934  1.00  0.00    -0.258 OA
ATOM     17  O   UNL A   1      30.116  23.329  27.400  1.00  0.00    -0.258 OA
ENDBRANCH  12  15
BRANCH  14  18
ATOM     18  C   UNL A   1      33.868  22.857  26.121  1.00  0.00    -0.006 C 
ATOM     19  C   UNL A   1      35.327  23.302  25.849  1.00  0.00     0.016 C 
ATOM     20  C   UNL A   1      33.488  22.777  27.615  1.00  0.00     0.016 C 
ATOM     21  C   UNL A   1      33.881  21.357  25.663  1.00  0.00     0.016 C 
ENDBRANCH  14  18
ENDBRANCH   6   8
ENDBRANCH   5   6
ENDBRANCH   4   5
ENDBRANCH   3   4
ENDBRANCH   2   3
ENDBRANCH   1   2
BRANCH   1  22
ATOM     22  C   UNL A   1      33.455  30.627  26.839  1.00  0.00     0.261 C 
BRANCH  22  23
ATOM     23  O   UNL A   1      34.032  31.131  28.064  1.00  0.00    -0.460 OA
BRANCH  23  24
ATOM     24  C   UNL A   1      35.339  31.513  28.017  1.00  0.00     0.338 C 
ATOM     25  O   UNL A   1      35.749  32.585  27.603  1.00  0.00    -0.246 OA
BRANCH  24  26
ATOM     26  C   UNL A   1      36.217  30.326  28.251  1.00  0.00     0.060 A 
ATOM     27  C   UNL A   1      36.279  29.726  29.528  1.00  0.00     0.016 A 
ATOM     28  C   UNL A   1      37.207  30.050  27.312  1.00  0.00     0.016 A 
ATOM     29  C   UNL A   1      37.410  28.984  29.911  1.00  0.00     0.010 A 
ATOM     30  C   UNL A   1      38.358  29.415  27.729  1.00  0.00     0.010 A 
ATOM     31  C   UNL A   1      38.491  28.907  29.034  1.00  0.00    -0.014 A 
BRANCH  31  32
ATOM     32  C   UNL A   1      39.857  28.470  29.355  1.00  0.00     0.031 A 
ATOM     33  C   UNL A   1      40.250  27.099  28.945  1.00  0.00     0.074 A 
ATOM     34  C   UNL A   1      40.823  29.374  29.665  1.00  0.00     0.049 A 
ATOM     35  N   UNL A   1      41.413  26.601  29.161  1.00  0.00    -0.248 NA
ATOM     36  C   UNL A   1      39.358  26.146  28.283  1.00  0.00     0.031 C 
ATOM     37  C   UNL A   1      42.263  29.292  29.388  1.00  0.00     0.029 A 
ATOM     38  N   UNL A   1      40.709  30.631  30.275  1.00  0.00    -0.354 N 
ATOM     39  C   UNL A   1      41.541  25.464  28.405  1.00  0.00     0.074 A 
ATOM     40  C   UNL A   1      40.200  25.150  27.988  1.00  0.00     0.031 C 
ATOM     41  C   UNL A   1      42.914  30.265  30.047  1.00  0.00     0.029 A 
ATOM     42  C   UNL A   1      41.940  30.948  30.875  1.00  0.00     0.049 A 
ATOM     43  H   UNL A   1      39.902  31.197  30.283  1.00  0.00     0.167 HD
ATOM     44  C   UNL A   1      42.802  25.016  28.151  1.00  0.00     0.037 A 
ATOM     45  C   UNL A   1      42.013  31.205  32.207  1.00  0.00     0.037 A 
ATOM     46  C   UNL A   1      43.773  25.761  28.971  1.00  0.00     0.049 A 
ATOM     47  C   UNL A   1      42.800  30.092  32.826  1.00  0.00     0.074 A 
ATOM     48  C   UNL A   1      44.737  26.714  28.692  1.00  0.00     0.029 A 
ATOM     49  N   UNL A   1      43.595  25.785  30.358  1.00  0.00    -0.354 N 
ATOM     50  N   UNL A   1      42.892  28.917  32.259  1.00  0.00    -0.248 NA
ATOM     51  C   UNL A   1      43.657  30.226  33.995  1.00  0.00     0.031 C 
ATOM     52  C   UNL A   1      45.054  27.379  29.919  1.00  0.00     0.029 A 
ATOM     53  C   UNL A   1      44.320  26.802  30.949  1.00  0.00     0.049 A 
ATOM     54  H   UNL A   1      43.022  25.155  30.853  1.00  0.00     0.167 HD
ATOM     55  C   UNL A   1      43.876  28.208  32.864  1.00  0.00     0.074 A 
ATOM     56  C   UNL A   1      44.287  29.037  33.985  1.00  0.00     0.031 C 
ATOM     57  C   UNL A   1      44.298  27.001  32.398  1.00  0.00     0.037 A 
BRANCH  44  58
ATOM     58  C   UNL A   1      43.196  24.010  27.087  1.00  0.00     0.064 A 
ATOM     59  C   UNL A   1      42.832  22.653  27.231  1.00  0.00     0.173 A 
ATOM     60  C   UNL A   1      43.990  24.280  25.950  1.00  0.00     0.173 A 
ATOM     61  F   UNL A   1      42.106  22.238  28.278  1.00  0.00    -0.203 F 
ATOM     62  C   UNL A   1      43.213  21.665  26.313  1.00  0.00     0.198 A 
ATOM     63  C   UNL A   1      44.326  23.302  25.005  1.00  0.00     0.198 A 
ATOM     64  F   UNL A   1      44.529  25.480  25.721  1.00  0.00    -0.203 F 
ATOM     65  F   UNL A   1      42.870  20.387  26.529  1.00  0.00    -0.200 F 
ATOM     66  C   UNL A   1      43.944  21.992  25.190  1.00  0.00     0.200 A 
ATOM     67  F   UNL A   1      45.047  23.643  23.926  1.00  0.00    -0.200 F 
ATOM     68  F   UNL A   1      44.296  21.052  24.303  1.00  0.00    -0.200 F 
ENDBRANCH  44  58
BRANCH  45  69
ATOM     69  C   UNL A   1      40.803  31.940  32.682  1.00  0.00     0.064 A 
ATOM     70  C   UNL A   1      40.662  33.261  32.194  1.00  0.00     0.173 A 
ATOM     71  C   UNL A   1      39.625  31.269  33.048  1.00  0.00     0.173 A 
ATOM     72  F   UNL A   1      41.747  33.944  31.795  1.00  0.00    -0.203 F 
ATOM     73  C   UNL A   1      39.408  33.818  31.936  1.00  0.00     0.198 A 
ATOM     74  C   UNL A   1      38.368  31.833  32.783  1.00  0.00     0.198 A 
ATOM     75  F   UNL A   1      39.678  30.008  33.497  1.00  0.00    -0.203 F 
ATOM     76  F   UNL A   1      39.317  34.996  31.300  1.00  0.00    -0.200 F 
ATOM     77  C   UNL A   1      38.263  33.084  32.194  1.00  0.00     0.200 A 
ATOM     78  F   UNL A   1      37.255  31.112  32.987  1.00  0.00    -0.200 F 
ATOM     79  F   UNL A   1      37.070  33.545  31.788  1.00  0.00    -0.200 F 
ENDBRANCH  45  69
BRANCH  57  80
ATOM     80  C   UNL A   1      44.777  25.929  33.331  1.00  0.00     0.064 A 
ATOM     81  C   UNL A   1      46.123  25.523  33.395  1.00  0.00     0.173 A 
ATOM     82  C   UNL A   1      43.932  25.411  34.336  1.00  0.00     0.173 A 
ATOM     83  F   UNL A   1      47.060  26.056  32.597  1.00  0.00    -0.203 F 
ATOM     84  C   UNL A   1      46.569  24.592  34.326  1.00  0.00     0.198 A 
ATOM     85  C   UNL A   1      44.400  24.541  35.314  1.00  0.00     0.198 A 
ATOM     86  F   UNL A   1      42.642  25.765  34.423  1.00  0.00    -0.203 F 
ATOM     87  F   UNL A   1      47.847  24.192  34.297  1.00  0.00    -0.200 F 
ATOM     88  C   UNL A   1      45.710  24.109  35.292  1.00  0.00     0.200 A 
ATOM     89  F   UNL A   1      43.578  24.143  36.294  1.00  0.00    -0.200 F 
ATOM     90  F   UNL A   1      46.154  23.247  36.215  1.00  0.00    -0.200 F 
ENDBRANCH  57  80
ENDBRANCH  31  32
ENDBRANCH  24  26
ENDBRANCH  23  24
ENDBRANCH  22  23
ENDBRANCH   1  22
TORSDOF 16
ENDMDL
MODEL 2
REMARK VINA RESULT:     -11.7      3.127      9.235
REMARK SMILES Cc1cc([N+](=O)[O-])c(C(C)(C)C)cc1C(=O)OCCOCCOC(=O)c1ccc(-c2c3nc(c(-c4c(F)c(F)c(F)c(F)c4F)c4ccc([nH]4)c(-c4c(F)c(F)c(F)c(F)c4F)c4nc(c(-c5c(F)c(F)c(F)c(F)c5F)c5ccc2[nH]5)C=C4)C=C3)cc1
REMARK SMILES IDX 21 1 20 2 19 3 18 4 17 5 15 6 16 7 14 8 1 9 2 10 3 11 4 12
REMARK SMILES IDX 13 13 8 14 5 15 6 16 7 17 9 18 10 19 11 20 12 21 22 22 23 23
REMARK SMILES IDX 24 24 25 25 26 26 27 27 88 28 28 29 87 30 29 31 30 32 31 33
REMARK SMILES IDX 81 34 32 35 86 36 80 37 82 38 33 39 85 40 79 41 78 42 34 44
REMARK SMILES IDX 66 45 46 46 65 47 47 48 50 49 64 50 83 51 48 52 49 53 63 55
REMARK SMILES IDX 84 56 51 57 35 58 36 59 44 60 37 61 38 62 42 63 45 64 39 65
REMARK SMILES IDX 40 66 43 67 41 68 67 69 68 70 76 71 69 72 70 73 74 74 77 75
REMARK SMILES IDX 71 76 72 77 75 78 73 79 52 80 53 81 61 82 54 83 55 84 59 85
REMARK SMILES IDX 62 86 56 87 57 88 60 89 58 90
REMARK H PARENT 82 43 50 54
REMARK Flexibility Score: inf
ROOT
ATOM      1  C   UNL A   1      37.258  23.204  25.278  1.00  0.00     0.202 C 
ENDROOT
BRANCH   1   2
ATOM      2  O   UNL A   1      35.901  22.842  25.428  1.00  0.00    -0.374 OA
BRANCH   2   3
ATOM      3  C   UNL A   1      35.665  21.534  25.923  1.00  0.00     0.202 C 
BRANCH   3   4
ATOM      4  C   UNL A   1      34.664  21.716  27.019  1.00  0.00     0.261 C 
BRANCH   4   5
ATOM      5  O   UNL A   1      34.152  23.053  27.022  1.00  0.00    -0.460 OA
BRANCH   5   6
ATOM      6  C   UNL A   1      32.832  23.246  26.822  1.00  0.00     0.338 C 
ATOM      7  O   UNL A   1      31.939  23.035  27.615  1.00  0.00    -0.246 OA
BRANCH   6   8
ATOM      8  C   UNL A   1      32.661  23.902  25.496  1.00  0.00     0.063 A 
ATOM      9  C   UNL A   1      32.411  21.767  24.000  1.00  0.00     0.045 C 
ATOM     10  C   UNL A   1      32.531  23.249  24.265  1.00  0.00    -0.030 A 
ATOM     11  C   UNL A   1      32.440  24.059  23.126  1.00  0.00     0.090 A 
ATOM     12  C   UNL A   1      32.542  25.476  23.158  1.00  0.00     0.273 A 
ATOM     13  C   UNL A   1      32.767  25.312  25.537  1.00  0.00     0.027 A 
ATOM     14  C   UNL A   1      32.774  26.145  24.390  1.00  0.00     0.036 A 
BRANCH  12  15
ATOM     15  N   UNL A   1      32.355  26.116  21.826  1.00  0.00     0.063 N 
ATOM     16  O   UNL A   1      33.264  25.974  20.992  1.00  0.00    -0.258 OA
ATOM     17  O   UNL A   1      31.323  26.742  21.581  1.00  0.00    -0.258 OA
ENDBRANCH  12  15
BRANCH  14  18
ATOM     18  C   UNL A   1      33.077  27.650  24.606  1.00  0.00    -0.006 C 
ATOM     19  C   UNL A   1      31.779  28.488  24.484  1.00  0.00     0.016 C 
ATOM     20  C   UNL A   1      33.857  27.859  25.922  1.00  0.00     0.016 C 
ATOM     21  C   UNL A   1      34.002  28.302  23.521  1.00  0.00     0.016 C 
ENDBRANCH  14  18
ENDBRANCH   6   8
ENDBRANCH   5   6
ENDBRANCH   4   5
ENDBRANCH   3   4
ENDBRANCH   2   3
ENDBRANCH   1   2
BRANCH   1  22
ATOM     22  C   UNL A   1      38.224  22.101  25.730  1.00  0.00     0.261 C 
BRANCH  22  23
ATOM     23  O   UNL A   1      38.964  22.553  26.886  1.00  0.00    -0.460 OA
BRANCH  23  24
ATOM     24  C   UNL A   1      40.113  23.247  26.647  1.00  0.00     0.338 C 
ATOM     25  O   UNL A   1      41.229  22.761  26.565  1.00  0.00    -0.246 OA
BRANCH  24  26
ATOM     26  C   UNL A   1      39.857  24.711  26.808  1.00  0.00     0.060 A 
ATOM     27  C   UNL A   1      40.583  25.649  26.043  1.00  0.00     0.016 A 
ATOM     28  C   UNL A   1      39.165  25.133  27.939  1.00  0.00     0.016 A 
ATOM     29  C   UNL A   1      40.744  26.969  26.502  1.00  0.00     0.010 A 
ATOM     30  C   UNL A   1      39.416  26.394  28.438  1.00  0.00     0.010 A 
ATOM     31  C   UNL A   1      40.230  27.312  27.751  1.00  0.00    -0.014 A 
BRANCH  31  32
ATOM     32  C   UNL A   1      40.557  28.508  28.540  1.00  0.00     0.031 A 
ATOM     33  C   UNL A   1      39.530  29.574  28.623  1.00  0.00     0.074 A 
ATOM     34  C   UNL A   1      41.571  28.490  29.446  1.00  0.00     0.049 A 
ATOM     35  N   UNL A   1      39.690  30.663  29.284  1.00  0.00    -0.248 NA
ATOM     36  C   UNL A   1      38.235  29.531  27.940  1.00  0.00     0.031 C 
ATOM     37  C   UNL A   1      41.669  29.228  30.710  1.00  0.00     0.029 A 
ATOM     38  N   UNL A   1      42.755  27.739  29.447  1.00  0.00    -0.354 N 
ATOM     39  C   UNL A   1      38.469  31.276  29.406  1.00  0.00     0.074 A 
ATOM     40  C   UNL A   1      37.629  30.612  28.444  1.00  0.00     0.031 C 
ATOM     41  C   UNL A   1      42.913  29.124  31.209  1.00  0.00     0.029 A 
ATOM     42  C   UNL A   1      43.709  28.413  30.228  1.00  0.00     0.049 A 
ATOM     43  H   UNL A   1      42.895  26.883  28.979  1.00  0.00     0.167 HD
ATOM     44  C   UNL A   1      38.323  32.196  30.399  1.00  0.00     0.037 A 
ATOM     45  C   UNL A   1      44.900  28.788  29.692  1.00  0.00     0.037 A 
ATOM     46  C   UNL A   1      39.634  32.499  30.999  1.00  0.00     0.049 A 
ATOM     47  C   UNL A   1      44.911  30.284  29.651  1.00  0.00     0.074 A 
ATOM     48  C   UNL A   1      40.226  32.211  32.216  1.00  0.00     0.029 A 
ATOM     49  N   UNL A   1      40.667  32.931  30.159  1.00  0.00    -0.354 N 
ATOM     50  N   UNL A   1      43.803  30.979  29.636  1.00  0.00    -0.248 NA
ATOM     51  C   UNL A   1      46.100  31.114  29.786  1.00  0.00     0.031 C 
ATOM     52  C   UNL A   1      41.638  32.377  32.060  1.00  0.00     0.029 A 
ATOM     53  C   UNL A   1      41.902  32.807  30.765  1.00  0.00     0.049 A 
ATOM     54  H   UNL A   1      40.530  33.278  29.248  1.00  0.00     0.167 HD
ATOM     55  C   UNL A   1      44.092  32.279  29.888  1.00  0.00     0.074 A 
ATOM     56  C   UNL A   1      45.544  32.333  29.912  1.00  0.00     0.031 C 
ATOM     57  C   UNL A   1      43.125  33.219  30.075  1.00  0.00     0.037 A 
BRANCH  44  58
ATOM     58  C   UNL A   1      37.010  32.737  30.932  1.00  0.00     0.064 A 
ATOM     59  C   UNL A   1      36.213  33.577  30.123  1.00  0.00     0.173 A 
ATOM     60  C   UNL A   1      36.507  32.543  32.239  1.00  0.00     0.173 A 
ATOM     61  F   UNL A   1      36.577  33.880  28.869  1.00  0.00    -0.203 F 
ATOM     62  C   UNL A   1      35.019  34.153  30.576  1.00  0.00     0.198 A 
ATOM     63  C   UNL A   1      35.287  33.076  32.673  1.00  0.00     0.198 A 
ATOM     64  F   UNL A   1      37.189  31.881  33.178  1.00  0.00    -0.203 F 
ATOM     65  F   UNL A   1      34.330  34.976  29.773  1.00  0.00    -0.200 F 
ATOM     66  C   UNL A   1      34.546  33.888  31.845  1.00  0.00     0.200 A 
ATOM     67  F   UNL A   1      34.853  32.812  33.914  1.00  0.00    -0.200 F 
ATOM     68  F   UNL A   1      33.396  34.425  32.274  1.00  0.00    -0.200 F 
ENDBRANCH  44  58
BRANCH  45  69
ATOM     69  C   UNL A   1      45.397  27.770  28.719  1.00  0.00     0.064 A 
ATOM     70  C   UNL A   1      45.764  26.522  29.277  1.00  0.00     0.173 A 
ATOM     71  C   UNL A   1      44.993  27.771  27.375  1.00  0.00     0.173 A 
ATOM     72  F   UNL A   1      46.129  26.449  30.568  1.00  0.00    -0.203 F 
ATOM     73  C   UNL A   1      45.582  25.326  28.581  1.00  0.00     0.198 A 
ATOM     74  C   UNL A   1      44.809  26.565  26.682  1.00  0.00     0.198 A 
ATOM     75  F   UNL A   1      44.609  28.911  26.786  1.00  0.00    -0.203 F 
ATOM     76  F   UNL A   1      45.764  24.153  29.207  1.00  0.00    -0.200 F 
ATOM     77  C   UNL A   1      45.065  25.348  27.298  1.00  0.00     0.200 A 
ATOM     78  F   UNL A   1      44.266  26.574  25.455  1.00  0.00    -0.200 F 
ATOM     79  F   UNL A   1      44.728  24.199  26.693  1.00  0.00    -0.200 F 
ENDBRANCH  45  69
BRANCH  57  80
ATOM     80  C   UNL A   1      43.324  34.641  29.640  1.00  0.00     0.064 A 
ATOM     81  C   UNL A   1      43.513  35.695  30.554  1.00  0.00     0.173 A 
ATOM     82  C   UNL A   1      43.531  34.961  28.282  1.00  0.00     0.173 A 
ATOM     83  F   UNL A   1      43.497  35.492  31.880  1.00  0.00    -0.203 F 
ATOM     84  C   UNL A   1      43.785  36.992  30.136  1.00  0.00     0.198 A 
ATOM     85  C   UNL A   1      43.882  36.244  27.874  1.00  0.00     0.198 A 
ATOM     86  F   UNL A   1      43.442  34.035  27.317  1.00  0.00    -0.203 F 
ATOM     87  F   UNL A   1      43.889  37.970  31.046  1.00  0.00    -0.200 F 
ATOM     88  C   UNL A   1      43.980  37.265  28.798  1.00  0.00     0.200 A 
ATOM     89  F   UNL A   1      44.148  36.478  26.583  1.00  0.00    -0.200 F 
ATOM     90  F   UNL A   1      44.287  38.507  28.402  1.00  0.00    -0.200 F 
ENDBRANCH  57  80
ENDBRANCH  31  32
ENDBRANCH  24  26
ENDBRANCH  23  24
ENDBRANCH  22  23
ENDBRANCH   1  22
TORSDOF 16
ENDMDL
MODEL 3
REMARK VINA RESULT:     -11.6      1.218      2.097
REMARK SMILES Cc1cc([N+](=O)[O-])c(C(C)(C)C)cc1C(=O)OCCOCCOC(=O)c1ccc(-c2c3nc(c(-c4c(F)c(F)c(F)c(F)c4F)c4ccc([nH]4)c(-c4c(F)c(F)c(F)c(F)c4F)c4nc(c(-c5c(F)c(F)c(F)c(F)c5F)c5ccc2[nH]5)C=C4)C=C3)cc1
REMARK SMILES IDX 21 1 20 2 19 3 18 4 17 5 15 6 16 7 14 8 1 9 2 10 3 11 4 12
REMARK SMILES IDX 13 13 8 14 5 15 6 16 7 17 9 18 10 19 11 20 12 21 22 22 23 23
REMARK SMILES IDX 24 24 25 25 26 26 27 27 88 28 28 29 87 30 29 31 30 32 31 33
REMARK SMILES IDX 81 34 32 35 86 36 80 37 82 38 33 39 85 40 79 41 78 42 34 44
REMARK SMILES IDX 66 45 46 46 65 47 47 48 50 49 64 50 83 51 48 52 49 53 63 55
REMARK SMILES IDX 84 56 51 57 35 58 36 59 44 60 37 61 38 62 42 63 45 64 39 65
REMARK SMILES IDX 40 66 43 67 41 68 67 69 68 70 76 71 69 72 70 73 74 74 77 75
REMARK SMILES IDX 71 76 72 77 75 78 73 79 52 80 53 81 61 82 54 83 55 84 59 85
REMARK SMILES IDX 62 86 56 87 57 88 60 89 58 90
REMARK H PARENT 82 43 50 54
REMARK Flexibility Score: inf
ROOT
ATOM      1  C   UNL A   1      33.227  29.778  26.482  1.00  0.00     0.202 C 
ENDROOT
BRANCH   1   2
ATOM      2  O   UNL A   1      32.489  29.686  25.281  1.00  0.00    -0.374 OA
BRANCH   2   3
ATOM      3  C   UNL A   1      32.062  28.382  24.920  1.00  0.00     0.202 C 
BRANCH   3   4
ATOM      4  C   UNL A   1      32.670  28.139  23.576  1.00  0.00     0.261 C 
BRANCH   4   5
ATOM      5  O   UNL A   1      33.488  26.964  23.595  1.00  0.00    -0.460 OA
BRANCH   5   6
ATOM      6  C   UNL A   1      33.390  26.085  22.576  1.00  0.00     0.338 C 
ATOM      7  O   UNL A   1      33.536  26.321  21.396  1.00  0.00    -0.246 OA
BRANCH   6   8
ATOM      8  C   UNL A   1      33.206  24.727  23.160  1.00  0.00     0.063 A 
ATOM      9  C   UNL A   1      30.589  24.668  23.267  1.00  0.00     0.045 C 
ATOM     10  C   UNL A   1      31.983  24.139  23.506  1.00  0.00    -0.030 A 
ATOM     11  C   UNL A   1      32.038  22.871  24.099  1.00  0.00     0.090 A 
ATOM     12  C   UNL A   1      33.250  22.204  24.420  1.00  0.00     0.273 A 
ATOM     13  C   UNL A   1      34.417  24.071  23.478  1.00  0.00     0.027 A 
ATOM     14  C   UNL A   1      34.499  22.833  24.164  1.00  0.00     0.036 A 
BRANCH  12  15
ATOM     15  N   UNL A   1      33.047  20.842  24.989  1.00  0.00     0.063 N 
ATOM     16  O   UNL A   1      32.785  19.925  24.195  1.00  0.00    -0.258 OA
ATOM     17  O   UNL A   1      33.155  20.657  26.203  1.00  0.00    -0.258 OA
ENDBRANCH  12  15
BRANCH  14  18
ATOM     18  C   UNL A   1      35.908  22.346  24.588  1.00  0.00    -0.006 C 
ATOM     19  C   UNL A   1      36.930  22.583  23.449  1.00  0.00     0.016 C 
ATOM     20  C   UNL A   1      36.304  22.963  25.947  1.00  0.00     0.016 C 
ATOM     21  C   UNL A   1      36.029  20.802  24.835  1.00  0.00     0.016 C 
ENDBRANCH  14  18
ENDBRANCH   6   8
ENDBRANCH   5   6
ENDBRANCH   4   5
ENDBRANCH   3   4
ENDBRANCH   2   3
ENDBRANCH   1   2
BRANCH   1  22
ATOM     22  C   UNL A   1      33.190  31.182  27.100  1.00  0.00     0.261 C 
BRANCH  22  23
ATOM     23  O   UNL A   1      34.033  31.213  28.274  1.00  0.00    -0.460 OA
BRANCH  23  24
ATOM     24  C   UNL A   1      35.331  31.582  28.088  1.00  0.00     0.338 C 
ATOM     25  O   UNL A   1      35.705  32.636  27.600  1.00  0.00    -0.246 OA
BRANCH  24  26
ATOM     26  C   UNL A   1      36.222  30.397  28.280  1.00  0.00     0.060 A 
ATOM     27  C   UNL A   1      36.269  29.735  29.525  1.00  0.00     0.016 A 
ATOM     28  C   UNL A   1      37.233  30.182  27.348  1.00  0.00     0.016 A 
ATOM     29  C   UNL A   1      37.403  28.989  29.893  1.00  0.00     0.010 A 
ATOM     30  C   UNL A   1      38.385  29.543  27.754  1.00  0.00     0.010 A 
ATOM     31  C   UNL A   1      38.501  28.971  29.034  1.00  0.00    -0.014 A 
BRANCH  31  32
ATOM     32  C   UNL A   1      39.867  28.537  29.359  1.00  0.00     0.031 A 
ATOM     33  C   UNL A   1      40.256  27.159  28.973  1.00  0.00     0.074 A 
ATOM     34  C   UNL A   1      40.836  29.445  29.650  1.00  0.00     0.049 A 
ATOM     35  N   UNL A   1      41.419  26.662  29.195  1.00  0.00    -0.248 NA
ATOM     36  C   UNL A   1      39.360  26.195  28.331  1.00  0.00     0.031 C 
ATOM     37  C   UNL A   1      42.274  29.354  29.371  1.00  0.00     0.029 A 
ATOM     38  N   UNL A   1      40.726  30.713  30.238  1.00  0.00    -0.354 N 
ATOM     39  C   UNL A   1      41.542  25.511  28.459  1.00  0.00     0.074 A 
ATOM     40  C   UNL A   1      40.199  25.192  28.051  1.00  0.00     0.031 C 
ATOM     41  C   UNL A   1      42.930  30.338  30.010  1.00  0.00     0.029 A 
ATOM     42  C   UNL A   1      41.959  31.037  30.829  1.00  0.00     0.049 A 
ATOM     43  H   UNL A   1      39.920  31.280  30.238  1.00  0.00     0.167 HD
ATOM     44  C   UNL A   1      42.801  25.056  28.210  1.00  0.00     0.037 A 
ATOM     45  C   UNL A   1      42.036  31.318  32.156  1.00  0.00     0.037 A 
ATOM     46  C   UNL A   1      43.776  25.813  29.013  1.00  0.00     0.049 A 
ATOM     47  C   UNL A   1      42.823  30.215  32.792  1.00  0.00     0.074 A 
ATOM     48  C   UNL A   1      44.741  26.759  28.715  1.00  0.00     0.029 A 
ATOM     49  N   UNL A   1      43.602  25.862  30.400  1.00  0.00    -0.354 N 
ATOM     50  N   UNL A   1      42.911  29.030  32.246  1.00  0.00    -0.248 NA
ATOM     51  C   UNL A   1      43.684  30.368  33.957  1.00  0.00     0.031 C 
ATOM     52  C   UNL A   1      45.063  27.445  29.928  1.00  0.00     0.029 A 
ATOM     53  C   UNL A   1      44.331  26.888  30.970  1.00  0.00     0.049 A 
ATOM     54  H   UNL A   1      43.029  25.243  30.907  1.00  0.00     0.167 HD
ATOM     55  C   UNL A   1      43.895  28.330  32.861  1.00  0.00     0.074 A 
ATOM     56  C   UNL A   1      44.311  29.177  33.967  1.00  0.00     0.031 C 
ATOM     57  C   UNL A   1      44.314  27.113  32.416  1.00  0.00     0.037 A 
BRANCH  44  58
ATOM     58  C   UNL A   1      43.190  24.029  27.163  1.00  0.00     0.064 A 
ATOM     59  C   UNL A   1      42.844  22.672  27.344  1.00  0.00     0.173 A 
ATOM     60  C   UNL A   1      43.964  24.282  26.007  1.00  0.00     0.173 A 
ATOM     61  F   UNL A   1      42.139  22.273  28.411  1.00  0.00    -0.203 F 
ATOM     62  C   UNL A   1      43.222  21.668  26.443  1.00  0.00     0.198 A 
ATOM     63  C   UNL A   1      44.296  23.286  25.080  1.00  0.00     0.198 A 
ATOM     64  F   UNL A   1      44.485  25.483  25.743  1.00  0.00    -0.203 F 
ATOM     65  F   UNL A   1      42.897  20.392  26.692  1.00  0.00    -0.200 F 
ATOM     66  C   UNL A   1      43.932  21.977  25.301  1.00  0.00     0.200 A 
ATOM     67  F   UNL A   1      44.996  23.610  23.982  1.00  0.00    -0.200 F 
ATOM     68  F   UNL A   1      44.281  21.021  24.430  1.00  0.00    -0.200 F 
ENDBRANCH  44  58
BRANCH  45  69
ATOM     69  C   UNL A   1      40.829  32.064  32.620  1.00  0.00     0.064 A 
ATOM     70  C   UNL A   1      39.892  31.306  33.362  1.00  0.00     0.173 A 
ATOM     71  C   UNL A   1      40.861  33.446  32.861  1.00  0.00     0.173 A 
ATOM     72  F   UNL A   1      39.835  29.973  33.202  1.00  0.00    -0.203 F 
ATOM     73  C   UNL A   1      39.145  31.871  34.397  1.00  0.00     0.198 A 
ATOM     74  C   UNL A   1      40.110  34.008  33.905  1.00  0.00     0.198 A 
ATOM     75  F   UNL A   1      41.737  34.225  32.214  1.00  0.00    -0.203 F 
ATOM     76  F   UNL A   1      38.409  31.086  35.198  1.00  0.00    -0.200 F 
ATOM     77  C   UNL A   1      39.288  33.216  34.693  1.00  0.00     0.200 A 
ATOM     78  F   UNL A   1      40.276  35.300  34.228  1.00  0.00    -0.200 F 
ATOM     79  F   UNL A   1      38.707  33.723  35.791  1.00  0.00    -0.200 F 
ENDBRANCH  45  69
BRANCH  57  80
ATOM     80  C   UNL A   1      44.792  26.057  33.367  1.00  0.00     0.064 A 
ATOM     81  C   UNL A   1      43.927  25.376  34.244  1.00  0.00     0.173 A 
ATOM     82  C   UNL A   1      46.108  25.553  33.289  1.00  0.00     0.173 A 
ATOM     83  F   UNL A   1      42.616  25.654  34.300  1.00  0.00    -0.203 F 
ATOM     84  C   UNL A   1      44.368  24.338  35.057  1.00  0.00     0.198 A 
ATOM     85  C   UNL A   1      46.524  24.463  34.046  1.00  0.00     0.198 A 
ATOM     86  F   UNL A   1      47.014  26.073  32.449  1.00  0.00    -0.203 F 
ATOM     87  F   UNL A   1      43.516  23.771  35.921  1.00  0.00    -0.200 F 
ATOM     88  C   UNL A   1      45.663  23.875  34.950  1.00  0.00     0.200 A 
ATOM     89  F   UNL A   1      47.758  23.970  33.875  1.00  0.00    -0.200 F 
ATOM     90  F   UNL A   1      46.073  22.845  35.702  1.00  0.00    -0.200 F 
ENDBRANCH  57  80
ENDBRANCH  31  32
ENDBRANCH  24  26
ENDBRANCH  23  24
ENDBRANCH  22  23
ENDBRANCH   1  22
TORSDOF 16
ENDMDL
