MODEL 1
REMARK VINA RESULT:     -10.5      0.000      0.000
REMARK SMILES CCCC[C@H](C(=O)OCCOCCOC(=O)c1ccc(-c2c3nc(c(-c4c(F)c(F)c(F)c(F)c4F)c4ccc([nH]4)c(-c4c(F)c(F)c(F)c(F)c4F)c4nc(c(-c5c(F)c(F)c(F)c(F)c5F)c5ccc2[nH]5)C=C4)C=C3)cc1)[C@@]1(O)CCc2ccc(OC)cc21
REMARK SMILES IDX 10 1 9 2 8 3 6 4 7 5 5 6 4 7 3 8 2 9 1 10 80 11 82 12 91 13
REMARK SMILES IDX 83 14 84 15 90 16 85 17 87 18 86 19 81 20 88 22 89 23 11 24
REMARK SMILES IDX 12 25 13 26 14 27 15 28 16 29 17 30 18 31 79 32 19 33 78 34
REMARK SMILES IDX 20 35 21 36 22 37 72 38 23 39 77 40 71 41 73 42 24 43 76 44
REMARK SMILES IDX 70 45 69 46 25 48 57 49 37 50 56 51 38 52 41 53 55 54 74 55
REMARK SMILES IDX 39 56 40 57 54 59 75 60 42 61 26 62 27 63 35 64 28 65 29 66
REMARK SMILES IDX 33 67 36 68 30 69 31 70 34 71 32 72 58 73 59 74 67 75 60 76
REMARK SMILES IDX 61 77 65 78 68 79 62 80 63 81 66 82 64 83 43 84 44 85 52 86
REMARK SMILES IDX 45 87 46 88 50 89 53 90 47 91 48 92 51 93 49 94
REMARK H PARENT 81 21 73 47 41 58
REMARK Flexibility Score: inf
ROOT
ATOM      1  C   UNL A   1      36.826  22.694  24.869  1.00  0.00     0.202 C 
ENDROOT
BRANCH   1   2
ATOM      2  C   UNL A   1      36.274  22.429  26.283  1.00  0.00     0.261 C 
BRANCH   2   3
ATOM      3  O   UNL A   1      34.905  21.982  26.163  1.00  0.00    -0.463 OA
BRANCH   3   4
ATOM      4  C   UNL A   1      33.908  22.870  25.861  1.00  0.00     0.312 C 
ATOM      5  O   UNL A   1      33.748  23.953  26.400  1.00  0.00    -0.252 OA
BRANCH   4   6
ATOM      6  C   UNL A   1      33.045  22.266  24.743  1.00  0.00     0.135 C 
BRANCH   6   7
ATOM      7  C   UNL A   1      33.582  20.959  24.047  1.00  0.00     0.019 C 
BRANCH   7   8
ATOM      8  C   UNL A   1      32.564  19.818  23.819  1.00  0.00     0.001 C 
BRANCH   8   9
ATOM      9  C   UNL A   1      32.783  18.498  24.550  1.00  0.00    -0.003 C 
ATOM     10  C   UNL A   1      33.370  17.458  23.611  1.00  0.00     0.004 C 
ENDBRANCH   8   9
ENDBRANCH   7   8
ENDBRANCH   6   7
BRANCH   6  11
ATOM     11  C   UNL A   1      31.533  22.338  25.266  1.00  0.00     0.104 C 
ATOM     12  C   UNL A   1      30.311  22.573  26.263  1.00  0.00     0.046 C 
ATOM     13  C   UNL A   1      31.188  23.782  24.619  1.00  0.00    -0.009 A 
ATOM     14  C   UNL A   1      30.179  24.025  26.734  1.00  0.00     0.039 C 
ATOM     15  C   UNL A   1      30.593  24.695  25.490  1.00  0.00    -0.042 A 
ATOM     16  C   UNL A   1      31.392  24.216  23.295  1.00  0.00     0.053 A 
ATOM     17  C   UNL A   1      30.478  26.050  25.186  1.00  0.00     0.008 A 
ATOM     18  C   UNL A   1      31.180  25.554  22.944  1.00  0.00     0.119 A 
ATOM     19  C   UNL A   1      30.815  26.486  23.908  1.00  0.00     0.047 A 
BRANCH  11  20
ATOM     20  O   UNL A   1      32.150  21.810  26.537  1.00  0.00    -0.384 OA
ATOM     21  H   UNL A   1      31.454  21.452  27.110  1.00  0.00     0.211 HD
ENDBRANCH  11  20
BRANCH  18  22
ATOM     22  O   UNL A   1      31.417  26.009  21.674  1.00  0.00    -0.497 OA
ATOM     23  C   UNL A   1      32.799  26.324  21.485  1.00  0.00     0.278 C 
ENDBRANCH  18  22
ENDBRANCH   6  11
ENDBRANCH   4   6
ENDBRANCH   3   4
ENDBRANCH   2   3
ENDBRANCH   1   2
BRANCH   1  24
ATOM     24  O   UNL A   1      37.206  21.524  24.126  1.00  0.00    -0.374 OA
BRANCH  24  25
ATOM     25  C   UNL A   1      37.403  20.343  24.898  1.00  0.00     0.202 C 
BRANCH  25  26
ATOM     26  C   UNL A   1      38.859  19.974  25.191  1.00  0.00     0.261 C 
BRANCH  26  27
ATOM     27  O   UNL A   1      39.279  20.556  26.425  1.00  0.00    -0.460 OA
BRANCH  27  28
ATOM     28  C   UNL A   1      40.608  20.793  26.472  1.00  0.00     0.338 C 
ATOM     29  O   UNL A   1      41.503  20.151  25.965  1.00  0.00    -0.246 OA
BRANCH  28  30
ATOM     30  C   UNL A   1      40.823  22.097  27.105  1.00  0.00     0.060 A 
ATOM     31  C   UNL A   1      40.207  23.186  26.485  1.00  0.00     0.016 A 
ATOM     32  C   UNL A   1      41.653  22.260  28.218  1.00  0.00     0.016 A 
ATOM     33  C   UNL A   1      40.497  24.467  26.918  1.00  0.00     0.010 A 
ATOM     34  C   UNL A   1      41.937  23.551  28.661  1.00  0.00     0.010 A 
ATOM     35  C   UNL A   1      41.404  24.654  27.970  1.00  0.00    -0.014 A 
BRANCH  35  36
ATOM     36  C   UNL A   1      41.920  26.017  28.197  1.00  0.00     0.031 A 
ATOM     37  C   UNL A   1      43.255  26.383  27.617  1.00  0.00     0.074 A 
ATOM     38  C   UNL A   1      41.147  26.923  28.814  1.00  0.00     0.049 A 
ATOM     39  N   UNL A   1      43.873  27.535  27.618  1.00  0.00    -0.248 NA
ATOM     40  C   UNL A   1      43.997  25.305  26.941  1.00  0.00     0.031 C 
ATOM     41  C   UNL A   1      39.819  26.655  29.367  1.00  0.00     0.029 A 
ATOM     42  N   UNL A   1      41.355  28.253  29.061  1.00  0.00    -0.354 N 
ATOM     43  C   UNL A   1      45.071  27.318  26.948  1.00  0.00     0.074 A 
ATOM     44  C   UNL A   1      45.116  25.919  26.592  1.00  0.00     0.031 C 
ATOM     45  C   UNL A   1      39.324  27.792  29.879  1.00  0.00     0.029 A 
ATOM     46  C   UNL A   1      40.314  28.854  29.720  1.00  0.00     0.049 A 
ATOM     47  H   UNL A   1      42.173  28.731  28.791  1.00  0.00     0.167 HD
ATOM     48  C   UNL A   1      46.036  28.219  26.649  1.00  0.00     0.037 A 
ATOM     49  C   UNL A   1      40.191  30.122  30.154  1.00  0.00     0.037 A 
ATOM     50  C   UNL A   1      45.961  29.608  27.016  1.00  0.00     0.049 A 
ATOM     51  C   UNL A   1      41.307  31.088  29.863  1.00  0.00     0.074 A 
ATOM     52  C   UNL A   1      46.868  30.619  26.761  1.00  0.00     0.029 A 
ATOM     53  N   UNL A   1      44.914  30.176  27.730  1.00  0.00    -0.354 N 
ATOM     54  N   UNL A   1      42.427  30.888  29.209  1.00  0.00    -0.248 NA
ATOM     55  C   UNL A   1      41.141  32.458  30.360  1.00  0.00     0.031 C 
ATOM     56  C   UNL A   1      46.401  31.784  27.378  1.00  0.00     0.029 A 
ATOM     57  C   UNL A   1      45.167  31.519  27.954  1.00  0.00     0.049 A 
ATOM     58  H   UNL A   1      44.109  29.695  28.032  1.00  0.00     0.167 HD
ATOM     59  C   UNL A   1      43.087  32.107  29.193  1.00  0.00     0.074 A 
ATOM     60  C   UNL A   1      42.230  33.047  29.889  1.00  0.00     0.031 C 
ATOM     61  C   UNL A   1      44.290  32.427  28.652  1.00  0.00     0.037 A 
BRANCH  48  62
ATOM     62  C   UNL A   1      47.260  27.718  25.934  1.00  0.00     0.064 A 
ATOM     63  C   UNL A   1      47.342  27.678  24.533  1.00  0.00     0.173 A 
ATOM     64  C   UNL A   1      48.375  27.280  26.665  1.00  0.00     0.173 A 
ATOM     65  F   UNL A   1      46.299  28.069  23.783  1.00  0.00    -0.203 F 
ATOM     66  C   UNL A   1      48.479  27.188  23.894  1.00  0.00     0.198 A 
ATOM     67  C   UNL A   1      49.522  26.823  26.022  1.00  0.00     0.198 A 
ATOM     68  F   UNL A   1      48.353  27.295  28.006  1.00  0.00    -0.203 F 
ATOM     69  F   UNL A   1      48.510  27.104  22.556  1.00  0.00    -0.200 F 
ATOM     70  C   UNL A   1      49.570  26.768  24.639  1.00  0.00     0.200 A 
ATOM     71  F   UNL A   1      50.580  26.429  26.745  1.00  0.00    -0.200 F 
ATOM     72  F   UNL A   1      50.666  26.300  24.022  1.00  0.00    -0.200 F 
ENDBRANCH  48  62
BRANCH  49  73
ATOM     73  C   UNL A   1      38.976  30.529  30.906  1.00  0.00     0.064 A 
ATOM     74  C   UNL A   1      38.919  30.446  32.304  1.00  0.00     0.173 A 
ATOM     75  C   UNL A   1      37.847  31.030  30.239  1.00  0.00     0.173 A 
ATOM     76  F   UNL A   1      39.965  29.961  32.988  1.00  0.00    -0.203 F 
ATOM     77  C   UNL A   1      37.775  30.830  33.002  1.00  0.00     0.198 A 
ATOM     78  C   UNL A   1      36.718  31.444  30.939  1.00  0.00     0.198 A 
ATOM     79  F   UNL A   1      37.850  31.137  28.901  1.00  0.00    -0.203 F 
ATOM     80  F   UNL A   1      37.733  30.701  34.335  1.00  0.00    -0.200 F 
ATOM     81  C   UNL A   1      36.679  31.336  32.321  1.00  0.00     0.200 A 
ATOM     82  F   UNL A   1      35.669  31.951  30.276  1.00  0.00    -0.200 F 
ATOM     83  F   UNL A   1      35.584  31.715  32.994  1.00  0.00    -0.200 F 
ENDBRANCH  49  73
BRANCH  61  84
ATOM     84  C   UNL A   1      44.729  33.858  28.761  1.00  0.00     0.064 A 
ATOM     85  C   UNL A   1      45.538  34.304  29.817  1.00  0.00     0.173 A 
ATOM     86  C   UNL A   1      44.371  34.784  27.769  1.00  0.00     0.173 A 
ATOM     87  F   UNL A   1      45.897  33.461  30.796  1.00  0.00    -0.203 F 
ATOM     88  C   UNL A   1      45.946  35.633  29.891  1.00  0.00     0.198 A 
ATOM     89  C   UNL A   1      44.811  36.102  27.827  1.00  0.00     0.198 A 
ATOM     90  F   UNL A   1      43.607  34.406  26.734  1.00  0.00    -0.203 F 
ATOM     91  F   UNL A   1      46.671  36.051  30.938  1.00  0.00    -0.200 F 
ATOM     92  C   UNL A   1      45.590  36.528  28.893  1.00  0.00     0.200 A 
ATOM     93  F   UNL A   1      44.484  36.959  26.852  1.00  0.00    -0.200 F 
ATOM     94  F   UNL A   1      45.993  37.804  28.961  1.00  0.00    -0.200 F 
ENDBRANCH  61  84
ENDBRANCH  35  36
ENDBRANCH  28  30
ENDBRANCH  27  28
ENDBRANCH  26  27
ENDBRANCH  25  26
ENDBRANCH  24  25
ENDBRANCH   1  24
TORSDOF 20
ENDMDL
MODEL 2
REMARK VINA RESULT:     -10.5      1.361      2.951
REMARK SMILES CCCC[C@H](C(=O)OCCOCCOC(=O)c1ccc(-c2c3nc(c(-c4c(F)c(F)c(F)c(F)c4F)c4ccc([nH]4)c(-c4c(F)c(F)c(F)c(F)c4F)c4nc(c(-c5c(F)c(F)c(F)c(F)c5F)c5ccc2[nH]5)C=C4)C=C3)cc1)[C@@]1(O)CCc2ccc(OC)cc21
REMARK SMILES IDX 10 1 9 2 8 3 6 4 7 5 5 6 4 7 3 8 2 9 1 10 80 11 82 12 91 13
REMARK SMILES IDX 83 14 84 15 90 16 85 17 87 18 86 19 81 20 88 22 89 23 11 24
REMARK SMILES IDX 12 25 13 26 14 27 15 28 16 29 17 30 18 31 79 32 19 33 78 34
REMARK SMILES IDX 20 35 21 36 22 37 72 38 23 39 77 40 71 41 73 42 24 43 76 44
REMARK SMILES IDX 70 45 69 46 25 48 57 49 37 50 56 51 38 52 41 53 55 54 74 55
REMARK SMILES IDX 39 56 40 57 54 59 75 60 42 61 26 62 27 63 35 64 28 65 29 66
REMARK SMILES IDX 33 67 36 68 30 69 31 70 34 71 32 72 58 73 59 74 67 75 60 76
REMARK SMILES IDX 61 77 65 78 68 79 62 80 63 81 66 82 64 83 43 84 44 85 52 86
REMARK SMILES IDX 45 87 46 88 50 89 53 90 47 91 48 92 51 93 49 94
REMARK H PARENT 81 21 73 47 41 58
REMARK Flexibility Score: inf
ROOT
ATOM      1  C   UNL A   1      34.313  21.742  26.436  1.00  0.00     0.202 C 
ENDROOT
BRANCH   1   2
ATOM      2  C   UNL A   1      33.605  23.076  26.743  1.00  0.00     0.261 C 
BRANCH   2   3
ATOM      3  O   UNL A   1      32.507  23.235  25.816  1.00  0.00    -0.463 OA
BRANCH   3   4
ATOM      4  C   UNL A   1      31.469  24.077  26.107  1.00  0.00     0.312 C 
ATOM      5  O   UNL A   1      30.931  24.175  27.198  1.00  0.00    -0.252 OA
BRANCH   4   6
ATOM      6  C   UNL A   1      31.111  24.861  24.835  1.00  0.00     0.135 C 
BRANCH   6   7
ATOM      7  C   UNL A   1      30.645  26.354  25.019  1.00  0.00     0.019 C 
BRANCH   7   8
ATOM      8  C   UNL A   1      29.796  26.968  23.882  1.00  0.00     0.001 C 
BRANCH   8   9
ATOM      9  C   UNL A   1      28.295  26.702  23.878  1.00  0.00    -0.003 C 
ATOM     10  C   UNL A   1      27.532  27.953  23.476  1.00  0.00     0.004 C 
ENDBRANCH   8   9
ENDBRANCH   7   8
ENDBRANCH   6   7
BRANCH   6  11
ATOM     11  C   UNL A   1      32.241  24.495  23.760  1.00  0.00     0.104 C 
ATOM     12  C   UNL A   1      32.918  24.233  22.340  1.00  0.00     0.046 C 
ATOM     13  C   UNL A   1      32.962  25.945  23.755  1.00  0.00    -0.009 A 
ATOM     14  C   UNL A   1      32.957  25.478  21.446  1.00  0.00     0.039 C 
ATOM     15  C   UNL A   1      33.192  26.488  22.492  1.00  0.00    -0.042 A 
ATOM     16  C   UNL A   1      33.398  26.706  24.857  1.00  0.00     0.053 A 
ATOM     17  C   UNL A   1      33.549  27.822  22.306  1.00  0.00     0.008 A 
ATOM     18  C   UNL A   1      33.860  28.014  24.680  1.00  0.00     0.119 A 
ATOM     19  C   UNL A   1      33.846  28.602  23.420  1.00  0.00     0.047 A 
BRANCH  11  20
ATOM     20  O   UNL A   1      31.085  23.827  23.058  1.00  0.00    -0.384 OA
ATOM     21  H   UNL A   1      30.271  23.971  23.566  1.00  0.00     0.211 HD
ENDBRANCH  11  20
BRANCH  18  22
ATOM     22  O   UNL A   1      34.246  28.790  25.741  1.00  0.00    -0.497 OA
ATOM     23  C   UNL A   1      33.596  28.378  26.946  1.00  0.00     0.278 C 
ENDBRANCH  18  22
ENDBRANCH   6  11
ENDBRANCH   4   6
ENDBRANCH   3   4
ENDBRANCH   2   3
ENDBRANCH   1   2
BRANCH   1  24
ATOM     24  O   UNL A   1      35.175  21.752  25.286  1.00  0.00    -0.374 OA
BRANCH  24  25
ATOM     25  C   UNL A   1      35.992  20.596  25.122  1.00  0.00     0.202 C 
BRANCH  25  26
ATOM     26  C   UNL A   1      37.447  20.861  24.726  1.00  0.00     0.261 C 
BRANCH  26  27
ATOM     27  O   UNL A   1      37.989  21.922  25.513  1.00  0.00    -0.460 OA
BRANCH  27  28
ATOM     28  C   UNL A   1      39.157  21.596  26.106  1.00  0.00     0.338 C 
ATOM     29  O   UNL A   1      39.822  20.593  25.955  1.00  0.00    -0.246 OA
BRANCH  28  30
ATOM     30  C   UNL A   1      39.630  22.757  26.865  1.00  0.00     0.060 A 
ATOM     31  C   UNL A   1      38.928  23.947  26.664  1.00  0.00     0.016 A 
ATOM     32  C   UNL A   1      40.759  22.703  27.688  1.00  0.00     0.016 A 
ATOM     33  C   UNL A   1      39.412  25.122  27.210  1.00  0.00     0.010 A 
ATOM     34  C   UNL A   1      41.241  23.886  28.247  1.00  0.00     0.010 A 
ATOM     35  C   UNL A   1      40.598  25.102  27.955  1.00  0.00    -0.014 A 
BRANCH  35  36
ATOM     36  C   UNL A   1      41.242  26.395  28.255  1.00  0.00     0.031 A 
ATOM     37  C   UNL A   1      42.624  26.646  27.726  1.00  0.00     0.074 A 
ATOM     38  C   UNL A   1      40.546  27.350  28.890  1.00  0.00     0.049 A 
ATOM     39  N   UNL A   1      43.354  27.728  27.793  1.00  0.00    -0.248 NA
ATOM     40  C   UNL A   1      43.273  25.526  27.023  1.00  0.00     0.031 C 
ATOM     41  C   UNL A   1      39.182  27.196  29.397  1.00  0.00     0.029 A 
ATOM     42  N   UNL A   1      40.880  28.640  29.200  1.00  0.00    -0.354 N 
ATOM     43  C   UNL A   1      44.545  27.417  27.146  1.00  0.00     0.074 A 
ATOM     44  C   UNL A   1      44.459  26.037  26.730  1.00  0.00     0.031 C 
ATOM     45  C   UNL A   1      38.789  28.357  29.944  1.00  0.00     0.029 A 
ATOM     46  C   UNL A   1      39.886  29.317  29.858  1.00  0.00     0.049 A 
ATOM     47  H   UNL A   1      41.750  29.042  28.973  1.00  0.00     0.167 HD
ATOM     48  C   UNL A   1      45.604  28.226  26.911  1.00  0.00     0.037 A 
ATOM     49  C   UNL A   1      39.878  30.572  30.344  1.00  0.00     0.037 A 
ATOM     50  C   UNL A   1      45.659  29.600  27.336  1.00  0.00     0.049 A 
ATOM     51  C   UNL A   1      41.094  31.430  30.124  1.00  0.00     0.074 A 
ATOM     52  C   UNL A   1      46.671  30.522  27.149  1.00  0.00     0.029 A 
ATOM     53  N   UNL A   1      44.653  30.242  28.048  1.00  0.00    -0.354 N 
ATOM     54  N   UNL A   1      42.208  31.143  29.491  1.00  0.00    -0.248 NA
ATOM     55  C   UNL A   1      41.052  32.789  30.676  1.00  0.00     0.031 C 
ATOM     56  C   UNL A   1      46.305  31.703  27.805  1.00  0.00     0.029 A 
ATOM     57  C   UNL A   1      45.034  31.542  28.337  1.00  0.00     0.049 A 
ATOM     58  H   UNL A   1      43.796  29.834  28.307  1.00  0.00     0.167 HD
ATOM     59  C   UNL A   1      42.987  32.289  29.545  1.00  0.00     0.074 A 
ATOM     60  C   UNL A   1      42.210  33.282  30.259  1.00  0.00     0.031 C 
ATOM     61  C   UNL A   1      44.232  32.506  29.050  1.00  0.00     0.037 A 
BRANCH  48  62
ATOM     62  C   UNL A   1      46.792  27.633  26.207  1.00  0.00     0.064 A 
ATOM     63  C   UNL A   1      46.922  27.660  24.809  1.00  0.00     0.173 A 
ATOM     64  C   UNL A   1      47.825  27.033  26.946  1.00  0.00     0.173 A 
ATOM     65  F   UNL A   1      45.958  28.205  24.052  1.00  0.00    -0.203 F 
ATOM     66  C   UNL A   1      48.022  27.083  24.179  1.00  0.00     0.198 A 
ATOM     67  C   UNL A   1      48.938  26.488  26.314  1.00  0.00     0.198 A 
ATOM     68  F   UNL A   1      47.753  26.977  28.284  1.00  0.00    -0.203 F 
ATOM     69  F   UNL A   1      48.095  27.070  22.840  1.00  0.00    -0.200 F 
ATOM     70  C   UNL A   1      49.032  26.504  24.932  1.00  0.00     0.200 A 
ATOM     71  F   UNL A   1      49.919  25.940  27.045  1.00  0.00    -0.200 F 
ATOM     72  F   UNL A   1      50.093  25.952  24.324  1.00  0.00    -0.200 F 
ENDBRANCH  48  62
BRANCH  49  73
ATOM     73  C   UNL A   1      38.688  31.071  31.081  1.00  0.00     0.064 A 
ATOM     74  C   UNL A   1      38.599  30.973  32.476  1.00  0.00     0.173 A 
ATOM     75  C   UNL A   1      37.618  31.674  30.402  1.00  0.00     0.173 A 
ATOM     76  F   UNL A   1      39.588  30.391  33.171  1.00  0.00    -0.203 F 
ATOM     77  C   UNL A   1      37.480  31.443  33.161  1.00  0.00     0.198 A 
ATOM     78  C   UNL A   1      36.515  32.173  31.090  1.00  0.00     0.198 A 
ATOM     79  F   UNL A   1      37.654  31.799  29.067  1.00  0.00    -0.203 F 
ATOM     80  F   UNL A   1      37.402  31.299  34.491  1.00  0.00    -0.200 F 
ATOM     81  C   UNL A   1      36.443  32.050  32.469  1.00  0.00     0.200 A 
ATOM     82  F   UNL A   1      35.526  32.776  30.417  1.00  0.00    -0.200 F 
ATOM     83  F   UNL A   1      35.372  32.511  33.129  1.00  0.00    -0.200 F 
ENDBRANCH  49  73
BRANCH  61  84
ATOM     84  C   UNL A   1      44.811  33.879  29.233  1.00  0.00     0.064 A 
ATOM     85  C   UNL A   1      44.573  34.910  28.313  1.00  0.00     0.173 A 
ATOM     86  C   UNL A   1      45.576  34.175  30.372  1.00  0.00     0.173 A 
ATOM     87  F   UNL A   1      43.858  34.674  27.203  1.00  0.00    -0.203 F 
ATOM     88  C   UNL A   1      45.107  36.180  28.511  1.00  0.00     0.198 A 
ATOM     89  C   UNL A   1      46.077  35.455  30.585  1.00  0.00     0.198 A 
ATOM     90  F   UNL A   1      45.824  33.226  31.287  1.00  0.00    -0.203 F 
ATOM     91  F   UNL A   1      44.915  37.136  27.591  1.00  0.00    -0.200 F 
ATOM     92  C   UNL A   1      45.850  36.454  29.649  1.00  0.00     0.200 A 
ATOM     93  F   UNL A   1      46.776  35.722  31.695  1.00  0.00    -0.200 F 
ATOM     94  F   UNL A   1      46.355  37.680  29.843  1.00  0.00    -0.200 F 
ENDBRANCH  61  84
ENDBRANCH  35  36
ENDBRANCH  28  30
ENDBRANCH  27  28
ENDBRANCH  26  27
ENDBRANCH  25  26
ENDBRANCH  24  25
ENDBRANCH   1  24
TORSDOF 20
ENDMDL
MODEL 3
REMARK VINA RESULT:     -10.4      1.068      2.327
REMARK SMILES CCCC[C@H](C(=O)OCCOCCOC(=O)c1ccc(-c2c3nc(c(-c4c(F)c(F)c(F)c(F)c4F)c4ccc([nH]4)c(-c4c(F)c(F)c(F)c(F)c4F)c4nc(c(-c5c(F)c(F)c(F)c(F)c5F)c5ccc2[nH]5)C=C4)C=C3)cc1)[C@@]1(O)CCc2ccc(OC)cc21
REMARK SMILES IDX 10 1 9 2 8 3 6 4 7 5 5 6 4 7 3 8 2 9 1 10 80 11 82 12 91 13
REMARK SMILES IDX 83 14 84 15 90 16 85 17 87 18 86 19 81 20 88 22 89 23 11 24
REMARK SMILES IDX 12 25 13 26 14 27 15 28 16 29 17 30 18 31 79 32 19 33 78 34
REMARK SMILES IDX 20 35 21 36 22 37 72 38 23 39 77 40 71 41 73 42 24 43 76 44
REMARK SMILES IDX 70 45 69 46 25 48 57 49 37 50 56 51 38 52 41 53 55 54 74 55
REMARK SMILES IDX 39 56 40 57 54 59 75 60 42 61 26 62 27 63 35 64 28 65 29 66
REMARK SMILES IDX 33 67 36 68 30 69 31 70 34 71 32 72 58 73 59 74 67 75 60 76
REMARK SMILES IDX 61 77 65 78 68 79 62 80 63 81 66 82 64 83 43 84 44 85 52 86
REMARK SMILES IDX 45 87 46 88 50 89 53 90 47 91 48 92 51 93 49 94
REMARK H PARENT 81 21 73 47 41 58
REMARK Flexibility Score: inf
ROOT
ATOM      1  C   UNL A   1      34.724  20.010  24.987  1.00  0.00     0.202 C 
ENDROOT
BRANCH   1   2
ATOM      2  C   UNL A   1      33.350  20.142  24.302  1.00  0.00     0.261 C 
BRANCH   2   3
ATOM      3  O   UNL A   1      32.802  21.440  24.623  1.00  0.00    -0.463 OA
BRANCH   3   4
ATOM      4  C   UNL A   1      33.235  22.559  23.967  1.00  0.00     0.312 C 
ATOM      5  O   UNL A   1      33.664  22.579  22.825  1.00  0.00    -0.252 OA
BRANCH   4   6
ATOM      6  C   UNL A   1      33.088  23.762  24.912  1.00  0.00     0.135 C 
BRANCH   6   7
ATOM      7  C   UNL A   1      33.858  25.080  24.522  1.00  0.00     0.019 C 
BRANCH   7   8
ATOM      8  C   UNL A   1      34.317  25.992  25.683  1.00  0.00     0.001 C 
BRANCH   8   9
ATOM      9  C   UNL A   1      33.612  27.331  25.870  1.00  0.00    -0.003 C 
ATOM     10  C   UNL A   1      33.789  28.204  24.640  1.00  0.00     0.004 C 
ENDBRANCH   8   9
ENDBRANCH   7   8
ENDBRANCH   6   7
BRANCH   6  11
ATOM     11  C   UNL A   1      31.538  23.821  25.311  1.00  0.00     0.104 C 
ATOM     12  C   UNL A   1      30.225  24.189  26.138  1.00  0.00     0.046 C 
ATOM     13  C   UNL A   1      31.131  25.000  24.278  1.00  0.00    -0.009 A 
ATOM     14  C   UNL A   1      29.941  25.694  26.189  1.00  0.00     0.039 C 
ATOM     15  C   UNL A   1      30.398  26.048  24.834  1.00  0.00    -0.042 A 
ATOM     16  C   UNL A   1      31.404  25.085  22.899  1.00  0.00     0.053 A 
ATOM     17  C   UNL A   1      30.198  27.255  24.168  1.00  0.00     0.008 A 
ATOM     18  C   UNL A   1      31.115  26.254  22.187  1.00  0.00     0.119 A 
ATOM     19  C   UNL A   1      30.601  27.368  22.841  1.00  0.00     0.047 A 
BRANCH  11  20
ATOM     20  O   UNL A   1      32.092  23.711  26.710  1.00  0.00    -0.384 OA
ATOM     21  H   UNL A   1      32.760  24.401  26.848  1.00  0.00     0.211 HD
ENDBRANCH  11  20
BRANCH  18  22
ATOM     22  O   UNL A   1      31.415  26.377  20.856  1.00  0.00    -0.497 OA
ATOM     23  C   UNL A   1      32.519  25.544  20.495  1.00  0.00     0.278 C 
ENDBRANCH  18  22
ENDBRANCH   6  11
ENDBRANCH   4   6
ENDBRANCH   3   4
ENDBRANCH   2   3
ENDBRANCH   1   2
BRANCH   1  24
ATOM     24  O   UNL A   1      35.041  21.041  25.938  1.00  0.00    -0.374 OA
BRANCH  24  25
ATOM     25  C   UNL A   1      36.253  21.749  25.694  1.00  0.00     0.202 C 
BRANCH  25  26
ATOM     26  C   UNL A   1      37.461  20.891  25.315  1.00  0.00     0.261 C 
BRANCH  26  27
ATOM     27  O   UNL A   1      38.640  21.693  25.260  1.00  0.00    -0.460 OA
BRANCH  27  28
ATOM     28  C   UNL A   1      39.555  21.353  26.194  1.00  0.00     0.338 C 
ATOM     29  O   UNL A   1      40.103  20.283  26.354  1.00  0.00    -0.246 OA
BRANCH  28  30
ATOM     30  C   UNL A   1      39.951  22.565  26.917  1.00  0.00     0.060 A 
ATOM     31  C   UNL A   1      39.271  23.734  26.570  1.00  0.00     0.016 A 
ATOM     32  C   UNL A   1      40.993  22.573  27.849  1.00  0.00     0.016 A 
ATOM     33  C   UNL A   1      39.698  24.946  27.081  1.00  0.00     0.010 A 
ATOM     34  C   UNL A   1      41.417  23.794  28.372  1.00  0.00     0.010 A 
ATOM     35  C   UNL A   1      40.805  24.983  27.939  1.00  0.00    -0.014 A 
BRANCH  35  36
ATOM     36  C   UNL A   1      41.416  26.297  28.215  1.00  0.00     0.031 A 
ATOM     37  C   UNL A   1      42.790  26.574  27.678  1.00  0.00     0.074 A 
ATOM     38  C   UNL A   1      40.696  27.245  28.834  1.00  0.00     0.049 A 
ATOM     39  N   UNL A   1      43.492  27.676  27.725  1.00  0.00    -0.248 NA
ATOM     40  C   UNL A   1      43.467  25.460  26.994  1.00  0.00     0.031 C 
ATOM     41  C   UNL A   1      39.337  27.065  29.346  1.00  0.00     0.029 A 
ATOM     42  N   UNL A   1      40.997  28.549  29.121  1.00  0.00    -0.354 N 
ATOM     43  C   UNL A   1      44.689  27.385  27.081  1.00  0.00     0.074 A 
ATOM     44  C   UNL A   1      44.639  25.996  26.691  1.00  0.00     0.031 C 
ATOM     45  C   UNL A   1      38.914  28.225  29.873  1.00  0.00     0.029 A 
ATOM     46  C   UNL A   1      39.986  29.212  29.767  1.00  0.00     0.049 A 
ATOM     47  H   UNL A   1      41.855  28.969  28.884  1.00  0.00     0.167 HD
ATOM     48  C   UNL A   1      45.727  28.217  26.830  1.00  0.00     0.037 A 
ATOM     49  C   UNL A   1      39.946  30.474  30.231  1.00  0.00     0.037 A 
ATOM     50  C   UNL A   1      45.746  29.599  27.230  1.00  0.00     0.049 A 
ATOM     51  C   UNL A   1      41.140  31.360  29.994  1.00  0.00     0.074 A 
ATOM     52  C   UNL A   1      46.734  30.544  27.025  1.00  0.00     0.029 A 
ATOM     53  N   UNL A   1      44.725  30.228  27.932  1.00  0.00    -0.354 N 
ATOM     54  N   UNL A   1      42.259  31.091  29.364  1.00  0.00    -0.248 NA
ATOM     55  C   UNL A   1      41.063  32.727  30.521  1.00  0.00     0.031 C 
ATOM     56  C   UNL A   1      46.338  31.726  27.660  1.00  0.00     0.029 A 
ATOM     57  C   UNL A   1      45.073  31.542  28.197  1.00  0.00     0.049 A 
ATOM     58  H   UNL A   1      43.879  29.802  28.200  1.00  0.00     0.167 HD
ATOM     59  C   UNL A   1      43.009  32.257  29.396  1.00  0.00     0.074 A 
ATOM     60  C   UNL A   1      42.207  33.242  30.093  1.00  0.00     0.031 C 
ATOM     61  C   UNL A   1      44.247  32.497  28.894  1.00  0.00     0.037 A 
BRANCH  48  62
ATOM     62  C   UNL A   1      46.929  27.642  26.134  1.00  0.00     0.064 A 
ATOM     63  C   UNL A   1      47.066  27.667  24.737  1.00  0.00     0.173 A 
ATOM     64  C   UNL A   1      47.967  27.063  26.881  1.00  0.00     0.173 A 
ATOM     65  F   UNL A   1      46.096  28.192  23.973  1.00  0.00    -0.203 F 
ATOM     66  C   UNL A   1      48.179  27.106  24.115  1.00  0.00     0.198 A 
ATOM     67  C   UNL A   1      49.094  26.536  26.257  1.00  0.00     0.198 A 
ATOM     68  F   UNL A   1      47.890  27.011  28.219  1.00  0.00    -0.203 F 
ATOM     69  F   UNL A   1      48.260  27.090  22.777  1.00  0.00    -0.200 F 
ATOM     70  C   UNL A   1      49.195  26.548  24.875  1.00  0.00     0.200 A 
ATOM     71  F   UNL A   1      50.080  26.008  26.995  1.00  0.00    -0.200 F 
ATOM     72  F   UNL A   1      50.268  26.013  24.275  1.00  0.00    -0.200 F 
ENDBRANCH  48  62
BRANCH  49  73
ATOM     73  C   UNL A   1      38.745  30.955  30.961  1.00  0.00     0.064 A 
ATOM     74  C   UNL A   1      38.642  30.840  32.354  1.00  0.00     0.173 A 
ATOM     75  C   UNL A   1      37.678  31.559  30.279  1.00  0.00     0.173 A 
ATOM     76  F   UNL A   1      39.628  30.258  33.052  1.00  0.00    -0.203 F 
ATOM     77  C   UNL A   1      37.512  31.293  33.032  1.00  0.00     0.198 A 
ATOM     78  C   UNL A   1      36.564  32.041  30.960  1.00  0.00     0.198 A 
ATOM     79  F   UNL A   1      37.727  31.700  28.945  1.00  0.00    -0.203 F 
ATOM     80  F   UNL A   1      37.421  31.133  34.359  1.00  0.00    -0.200 F 
ATOM     81  C   UNL A   1      36.477  31.901  32.337  1.00  0.00     0.200 A 
ATOM     82  F   UNL A   1      35.577  32.644  30.284  1.00  0.00    -0.200 F 
ATOM     83  F   UNL A   1      35.396  32.345  32.991  1.00  0.00    -0.200 F 
ENDBRANCH  49  73
BRANCH  61  84
ATOM     84  C   UNL A   1      44.790  33.888  29.052  1.00  0.00     0.064 A 
ATOM     85  C   UNL A   1      44.562  34.883  28.091  1.00  0.00     0.173 A 
ATOM     86  C   UNL A   1      45.509  34.237  30.205  1.00  0.00     0.173 A 
ATOM     87  F   UNL A   1      43.891  34.596  26.965  1.00  0.00    -0.203 F 
ATOM     88  C   UNL A   1      45.063  36.171  28.265  1.00  0.00     0.198 A 
ATOM     89  C   UNL A   1      45.975  35.534  30.393  1.00  0.00     0.198 A 
ATOM     90  F   UNL A   1      45.745  33.324  31.159  1.00  0.00    -0.203 F 
ATOM     91  F   UNL A   1      44.882  37.092  27.308  1.00  0.00    -0.200 F 
ATOM     92  C   UNL A   1      45.760  36.497  29.418  1.00  0.00     0.200 A 
ATOM     93  F   UNL A   1      46.630  35.853  31.517  1.00  0.00    -0.200 F 
ATOM     94  F   UNL A   1      46.232  37.740  29.589  1.00  0.00    -0.200 F 
ENDBRANCH  61  84
ENDBRANCH  35  36
ENDBRANCH  28  30
ENDBRANCH  27  28
ENDBRANCH  26  27
ENDBRANCH  25  26
ENDBRANCH  24  25
ENDBRANCH   1  24
TORSDOF 20
ENDMDL
