MODEL 1
REMARK VINA RESULT:     -10.3      0.000      0.000
REMARK SMILES C#CC[NH2+]CC(=O)Nc1ccc(F)cc1C(=O)OCCOCCOC(=O)c1ccc(-c2c3nc(c(-c4c(F)c(F)c(F)c(F)c4F)c4ccc([nH]4)c(-c4c(F)c(F)c(F)c(F)c4F)c4nc(c(-c5c(F)c(F)c(F)c(F)c5F)c5ccc2[nH]5)C=C4)C=C3)cc1
REMARK SMILES IDX 19 1 18 2 16 3 17 4 15 5 9 6 10 7 11 8 14 9 12 10 13 11 8 12
REMARK SMILES IDX 6 13 7 14 5 16 4 17 3 20 2 21 1 22 20 23 21 24 22 25 23 26
REMARK SMILES IDX 24 27 25 28 26 29 27 30 28 31 89 32 29 33 88 34 30 35 31 36
REMARK SMILES IDX 32 37 82 38 33 39 87 40 81 41 83 42 34 43 86 44 80 45 79 46
REMARK SMILES IDX 35 48 67 49 47 50 66 51 48 52 51 53 65 54 84 55 49 56 50 57
REMARK SMILES IDX 64 59 85 60 52 61 36 62 37 63 45 64 38 65 39 66 43 67 46 68
REMARK SMILES IDX 40 69 41 70 44 71 42 72 68 73 69 74 77 75 70 76 71 77 75 78
REMARK SMILES IDX 78 79 72 80 73 81 76 82 74 83 53 84 54 85 62 86 55 87 56 88
REMARK SMILES IDX 60 89 63 90 57 91 58 92 61 93 59 94
REMARK H PARENT 8 15 4 18 4 19 83 47 51 58
REMARK Flexibility Score: inf
ROOT
ATOM      1  C   UNL A   1      33.339  28.876  26.525  1.00  0.00     0.261 C 
ENDROOT
BRANCH   1   2
ATOM      2  O   UNL A   1      33.453  27.491  26.185  1.00  0.00    -0.460 OA
BRANCH   2   3
ATOM      3  C   UNL A   1      32.272  26.836  26.217  1.00  0.00     0.340 C 
ATOM      4  O   UNL A   1      31.411  26.936  27.075  1.00  0.00    -0.246 OA
BRANCH   3   5
ATOM      5  C   UNL A   1      32.103  25.964  25.039  1.00  0.00     0.086 A 
ATOM      6  C   UNL A   1      31.110  24.991  24.902  1.00  0.00     0.056 A 
ATOM      7  C   UNL A   1      30.646  24.830  23.593  1.00  0.00     0.030 A 
ATOM      8  C   UNL A   1      31.439  25.157  22.485  1.00  0.00     0.041 A 
ATOM      9  C   UNL A   1      32.948  26.264  23.953  1.00  0.00     0.057 A 
ATOM     10  C   UNL A   1      32.645  25.789  22.693  1.00  0.00     0.124 A 
ATOM     11  F   UNL A   1      33.464  26.033  21.664  1.00  0.00    -0.207 F 
BRANCH   6  12
ATOM     12  N   UNL A   1      30.440  24.375  25.994  1.00  0.00    -0.320 N 
ATOM     13  C   UNL A   1      30.621  23.190  26.701  1.00  0.00     0.279 C 
ATOM     14  O   UNL A   1      29.737  22.910  27.526  1.00  0.00    -0.268 OA
ATOM     15  H   UNL A   1      29.679  24.904  26.324  1.00  0.00     0.170 HD
BRANCH  13  16
ATOM     16  C   UNL A   1      31.892  22.260  26.648  1.00  0.00     0.363 C 
BRANCH  16  17
ATOM     17  N   UNL A   1      32.587  21.988  27.962  1.00  0.00    -0.328 N 
ATOM     18  H   UNL A   1      32.081  22.408  28.742  1.00  0.00     0.347 HD
ATOM     19  H   UNL A   1      32.654  20.997  28.190  1.00  0.00     0.347 HD
BRANCH  17  20
ATOM     20  C   UNL A   1      33.858  22.616  27.774  1.00  0.00     0.352 C 
BRANCH  20  21
ATOM     21  C   UNL A   1      34.516  23.181  26.526  1.00  0.00    -0.047 C 
ATOM     22  C   UNL A   1      35.080  23.666  25.455  1.00  0.00     0.010 C 
ENDBRANCH  20  21
ENDBRANCH  17  20
ENDBRANCH  16  17
ENDBRANCH  13  16
ENDBRANCH   6  12
ENDBRANCH   3   5
ENDBRANCH   2   3
ENDBRANCH   1   2
BRANCH   1  23
ATOM     23  C   UNL A   1      33.014  29.694  25.273  1.00  0.00     0.202 C 
BRANCH  23  24
ATOM     24  O   UNL A   1      31.811  30.462  25.328  1.00  0.00    -0.374 OA
BRANCH  24  25
ATOM     25  C   UNL A   1      31.454  31.011  26.600  1.00  0.00     0.202 C 
BRANCH  25  26
ATOM     26  C   UNL A   1      31.988  32.416  26.886  1.00  0.00     0.261 C 
BRANCH  26  27
ATOM     27  O   UNL A   1      32.922  32.384  27.981  1.00  0.00    -0.460 OA
BRANCH  27  28
ATOM     28  C   UNL A   1      33.940  33.271  27.873  1.00  0.00     0.338 C 
ATOM     29  O   UNL A   1      33.859  34.468  27.668  1.00  0.00    -0.246 OA
BRANCH  28  30
ATOM     30  C   UNL A   1      35.208  32.619  28.250  1.00  0.00     0.060 A 
ATOM     31  C   UNL A   1      35.143  31.265  28.606  1.00  0.00     0.016 A 
ATOM     32  C   UNL A   1      36.415  33.316  28.315  1.00  0.00     0.016 A 
ATOM     33  C   UNL A   1      36.273  30.619  29.090  1.00  0.00     0.010 A 
ATOM     34  C   UNL A   1      37.549  32.668  28.814  1.00  0.00     0.010 A 
ATOM     35  C   UNL A   1      37.471  31.330  29.241  1.00  0.00    -0.014 A 
BRANCH  35  36
ATOM     36  C   UNL A   1      38.589  30.695  29.975  1.00  0.00     0.031 A 
ATOM     37  C   UNL A   1      38.808  31.048  31.419  1.00  0.00     0.074 A 
ATOM     38  C   UNL A   1      39.349  29.762  29.378  1.00  0.00     0.049 A 
ATOM     39  N   UNL A   1      39.706  30.596  32.256  1.00  0.00    -0.248 NA
ATOM     40  C   UNL A   1      37.890  32.041  32.000  1.00  0.00     0.031 C 
ATOM     41  C   UNL A   1      39.197  29.310  27.997  1.00  0.00     0.029 A 
ATOM     42  N   UNL A   1      40.396  29.021  29.865  1.00  0.00    -0.354 N 
ATOM     43  C   UNL A   1      39.461  31.245  33.458  1.00  0.00     0.074 A 
ATOM     44  C   UNL A   1      38.351  32.146  33.238  1.00  0.00     0.031 C 
ATOM     45  C   UNL A   1      40.116  28.362  27.746  1.00  0.00     0.029 A 
ATOM     46  C   UNL A   1      40.939  28.166  28.938  1.00  0.00     0.049 A 
ATOM     47  H   UNL A   1      40.727  29.095  30.789  1.00  0.00     0.167 HD
ATOM     48  C   UNL A   1      40.098  31.089  34.642  1.00  0.00     0.037 A 
ATOM     49  C   UNL A   1      41.991  27.331  29.039  1.00  0.00     0.037 A 
ATOM     50  C   UNL A   1      41.200  30.187  34.856  1.00  0.00     0.049 A 
ATOM     51  C   UNL A   1      42.730  27.233  30.347  1.00  0.00     0.074 A 
ATOM     52  C   UNL A   1      41.899  29.944  36.024  1.00  0.00     0.029 A 
ATOM     53  N   UNL A   1      41.763  29.383  33.876  1.00  0.00    -0.354 N 
ATOM     54  N   UNL A   1      42.485  27.838  31.483  1.00  0.00    -0.248 NA
ATOM     55  C   UNL A   1      43.892  26.335  30.386  1.00  0.00     0.031 C 
ATOM     56  C   UNL A   1      42.921  29.034  35.740  1.00  0.00     0.029 A 
ATOM     57  C   UNL A   1      42.823  28.666  34.407  1.00  0.00     0.049 A 
ATOM     58  H   UNL A   1      41.456  29.329  32.943  1.00  0.00     0.167 HD
ATOM     59  C   UNL A   1      43.450  27.389  32.375  1.00  0.00     0.074 A 
ATOM     60  C   UNL A   1      44.273  26.440  31.652  1.00  0.00     0.031 C 
ATOM     61  C   UNL A   1      43.640  27.734  33.672  1.00  0.00     0.037 A 
BRANCH  48  62
ATOM     62  C   UNL A   1      39.635  31.921  35.802  1.00  0.00     0.064 A 
ATOM     63  C   UNL A   1      38.578  31.480  36.613  1.00  0.00     0.173 A 
ATOM     64  C   UNL A   1      40.184  33.184  36.066  1.00  0.00     0.173 A 
ATOM     65  F   UNL A   1      38.017  30.281  36.400  1.00  0.00    -0.203 F 
ATOM     66  C   UNL A   1      38.078  32.282  37.636  1.00  0.00     0.198 A 
ATOM     67  C   UNL A   1      39.698  33.972  37.107  1.00  0.00     0.198 A 
ATOM     68  F   UNL A   1      41.204  33.645  35.328  1.00  0.00    -0.203 F 
ATOM     69  F   UNL A   1      37.046  31.853  38.376  1.00  0.00    -0.200 F 
ATOM     70  C   UNL A   1      38.639  33.525  37.883  1.00  0.00     0.200 A 
ATOM     71  F   UNL A   1      40.256  35.164  37.360  1.00  0.00    -0.200 F 
ATOM     72  F   UNL A   1      38.160  34.292  38.872  1.00  0.00    -0.200 F 
ENDBRANCH  48  62
BRANCH  49  73
ATOM     73  C   UNL A   1      42.402  26.525  27.861  1.00  0.00     0.064 A 
ATOM     74  C   UNL A   1      43.372  26.994  26.963  1.00  0.00     0.173 A 
ATOM     75  C   UNL A   1      41.815  25.281  27.597  1.00  0.00     0.173 A 
ATOM     76  F   UNL A   1      43.968  28.178  27.175  1.00  0.00    -0.203 F 
ATOM     77  C   UNL A   1      43.721  26.260  25.832  1.00  0.00     0.198 A 
ATOM     78  C   UNL A   1      42.184  24.536  26.480  1.00  0.00     0.198 A 
ATOM     79  F   UNL A   1      40.901  24.779  28.440  1.00  0.00    -0.203 F 
ATOM     80  F   UNL A   1      44.626  26.748  24.972  1.00  0.00    -0.200 F 
ATOM     81  C   UNL A   1      43.129  25.030  25.593  1.00  0.00     0.200 A 
ATOM     82  F   UNL A   1      41.629  23.334  26.265  1.00  0.00    -0.200 F 
ATOM     83  F   UNL A   1      43.472  24.318  24.510  1.00  0.00    -0.200 F 
ENDBRANCH  49  73
BRANCH  61  84
ATOM     84  C   UNL A   1      44.781  27.085  34.401  1.00  0.00     0.064 A 
ATOM     85  C   UNL A   1      44.615  25.838  35.023  1.00  0.00     0.173 A 
ATOM     86  C   UNL A   1      46.021  27.727  34.538  1.00  0.00     0.173 A 
ATOM     87  F   UNL A   1      43.446  25.186  34.931  1.00  0.00    -0.203 F 
ATOM     88  C   UNL A   1      45.644  25.264  35.764  1.00  0.00     0.198 A 
ATOM     89  C   UNL A   1      47.058  27.135  35.254  1.00  0.00     0.198 A 
ATOM     90  F   UNL A   1      46.234  28.915  33.952  1.00  0.00    -0.203 F 
ATOM     91  F   UNL A   1      45.451  24.088  36.376  1.00  0.00    -0.200 F 
ATOM     92  C   UNL A   1      46.866  25.910  35.874  1.00  0.00     0.200 A 
ATOM     93  F   UNL A   1      48.247  27.749  35.337  1.00  0.00    -0.200 F 
ATOM     94  F   UNL A   1      47.862  25.349  36.574  1.00  0.00    -0.200 F 
ENDBRANCH  61  84
ENDBRANCH  35  36
ENDBRANCH  28  30
ENDBRANCH  27  28
ENDBRANCH  26  27
ENDBRANCH  25  26
ENDBRANCH  24  25
ENDBRANCH  23  24
ENDBRANCH   1  23
TORSDOF 19
ENDMDL
MODEL 2
REMARK VINA RESULT:     -10.3      1.481      2.961
REMARK SMILES C#CC[NH2+]CC(=O)Nc1ccc(F)cc1C(=O)OCCOCCOC(=O)c1ccc(-c2c3nc(c(-c4c(F)c(F)c(F)c(F)c4F)c4ccc([nH]4)c(-c4c(F)c(F)c(F)c(F)c4F)c4nc(c(-c5c(F)c(F)c(F)c(F)c5F)c5ccc2[nH]5)C=C4)C=C3)cc1
REMARK SMILES IDX 19 1 18 2 16 3 17 4 15 5 9 6 10 7 11 8 14 9 12 10 13 11 8 12
REMARK SMILES IDX 6 13 7 14 5 16 4 17 3 20 2 21 1 22 20 23 21 24 22 25 23 26
REMARK SMILES IDX 24 27 25 28 26 29 27 30 28 31 89 32 29 33 88 34 30 35 31 36
REMARK SMILES IDX 32 37 82 38 33 39 87 40 81 41 83 42 34 43 86 44 80 45 79 46
REMARK SMILES IDX 35 48 67 49 47 50 66 51 48 52 51 53 65 54 84 55 49 56 50 57
REMARK SMILES IDX 64 59 85 60 52 61 36 62 37 63 45 64 38 65 39 66 43 67 46 68
REMARK SMILES IDX 40 69 41 70 44 71 42 72 68 73 69 74 77 75 70 76 71 77 75 78
REMARK SMILES IDX 78 79 72 80 73 81 76 82 74 83 53 84 54 85 62 86 55 87 56 88
REMARK SMILES IDX 60 89 63 90 57 91 58 92 61 93 59 94
REMARK H PARENT 8 15 4 18 4 19 83 47 51 58
REMARK Flexibility Score: inf
ROOT
ATOM      1  C   UNL A   1      33.360  28.297  25.997  1.00  0.00     0.261 C 
ENDROOT
BRANCH   1   2
ATOM      2  O   UNL A   1      32.113  27.790  25.511  1.00  0.00    -0.460 OA
BRANCH   2   3
ATOM      3  C   UNL A   1      31.465  27.020  26.412  1.00  0.00     0.340 C 
ATOM      4  O   UNL A   1      31.243  27.301  27.578  1.00  0.00    -0.246 OA
BRANCH   3   5
ATOM      5  C   UNL A   1      31.002  25.754  25.812  1.00  0.00     0.086 A 
ATOM      6  C   UNL A   1      30.213  25.657  24.664  1.00  0.00     0.056 A 
ATOM      7  C   UNL A   1      30.493  24.538  23.873  1.00  0.00     0.030 A 
ATOM      8  C   UNL A   1      31.056  23.376  24.415  1.00  0.00     0.041 A 
ATOM      9  C   UNL A   1      31.528  24.590  26.405  1.00  0.00     0.057 A 
ATOM     10  C   UNL A   1      31.480  23.389  25.725  1.00  0.00     0.124 A 
ATOM     11  F   UNL A   1      31.939  22.271  26.298  1.00  0.00    -0.207 F 
BRANCH   6  12
ATOM     12  N   UNL A   1      29.368  26.695  24.185  1.00  0.00    -0.320 N 
ATOM     13  C   UNL A   1      29.503  27.689  23.220  1.00  0.00     0.279 C 
ATOM     14  O   UNL A   1      28.584  28.522  23.168  1.00  0.00    -0.268 OA
ATOM     15  H   UNL A   1      28.493  26.715  24.635  1.00  0.00     0.170 HD
BRANCH  13  16
ATOM     16  C   UNL A   1      30.626  27.770  22.118  1.00  0.00     0.363 C 
BRANCH  16  17
ATOM     17  N   UNL A   1      31.949  28.366  22.541  1.00  0.00    -0.328 N 
ATOM     18  H   UNL A   1      32.214  29.143  21.935  1.00  0.00     0.347 HD
ATOM     19  H   UNL A   1      31.937  28.754  23.484  1.00  0.00     0.347 HD
BRANCH  17  20
ATOM     20  C   UNL A   1      32.846  27.264  22.389  1.00  0.00     0.352 C 
BRANCH  20  21
ATOM     21  C   UNL A   1      32.816  26.077  21.440  1.00  0.00    -0.047 C 
ATOM     22  C   UNL A   1      32.791  25.059  20.625  1.00  0.00     0.010 C 
ENDBRANCH  20  21
ENDBRANCH  17  20
ENDBRANCH  16  17
ENDBRANCH  13  16
ENDBRANCH   6  12
ENDBRANCH   3   5
ENDBRANCH   2   3
ENDBRANCH   1   2
BRANCH   1  23
ATOM     23  C   UNL A   1      33.408  29.816  25.819  1.00  0.00     0.202 C 
BRANCH  23  24
ATOM     24  O   UNL A   1      32.143  30.472  25.736  1.00  0.00    -0.374 OA
BRANCH  24  25
ATOM     25  C   UNL A   1      31.671  31.118  26.922  1.00  0.00     0.202 C 
BRANCH  25  26
ATOM     26  C   UNL A   1      31.652  32.647  26.878  1.00  0.00     0.261 C 
BRANCH  26  27
ATOM     27  O   UNL A   1      32.994  33.165  26.822  1.00  0.00    -0.460 OA
BRANCH  27  28
ATOM     28  C   UNL A   1      33.448  33.666  27.996  1.00  0.00     0.338 C 
ATOM     29  O   UNL A   1      32.860  34.411  28.759  1.00  0.00    -0.246 OA
BRANCH  28  30
ATOM     30  C   UNL A   1      34.721  33.013  28.354  1.00  0.00     0.060 A 
ATOM     31  C   UNL A   1      34.663  31.654  28.690  1.00  0.00     0.016 A 
ATOM     32  C   UNL A   1      35.925  33.714  28.423  1.00  0.00     0.016 A 
ATOM     33  C   UNL A   1      35.799  31.004  29.156  1.00  0.00     0.010 A 
ATOM     34  C   UNL A   1      37.065  33.062  28.904  1.00  0.00     0.010 A 
ATOM     35  C   UNL A   1      36.995  31.718  29.310  1.00  0.00    -0.014 A 
BRANCH  35  36
ATOM     36  C   UNL A   1      38.120  31.075  30.026  1.00  0.00     0.031 A 
ATOM     37  C   UNL A   1      38.342  31.401  31.476  1.00  0.00     0.074 A 
ATOM     38  C   UNL A   1      38.884  30.160  29.408  1.00  0.00     0.049 A 
ATOM     39  N   UNL A   1      39.247  30.938  32.300  1.00  0.00    -0.248 NA
ATOM     40  C   UNL A   1      37.420  32.375  32.081  1.00  0.00     0.031 C 
ATOM     41  C   UNL A   1      38.729  29.736  28.018  1.00  0.00     0.029 A 
ATOM     42  N   UNL A   1      39.938  29.416  29.875  1.00  0.00    -0.354 N 
ATOM     43  C   UNL A   1      39.002  31.560  33.517  1.00  0.00     0.074 A 
ATOM     44  C   UNL A   1      37.885  32.458  33.319  1.00  0.00     0.031 C 
ATOM     45  C   UNL A   1      39.654  28.799  27.745  1.00  0.00     0.029 A 
ATOM     46  C   UNL A   1      40.483  28.584  28.929  1.00  0.00     0.049 A 
ATOM     47  H   UNL A   1      40.272  29.474  30.799  1.00  0.00     0.167 HD
ATOM     48  C   UNL A   1      39.645  31.384  34.695  1.00  0.00     0.037 A 
ATOM     49  C   UNL A   1      41.541  27.755  29.009  1.00  0.00     0.037 A 
ATOM     50  C   UNL A   1      40.753  30.486  34.886  1.00  0.00     0.049 A 
ATOM     51  C   UNL A   1      42.286  27.635  30.312  1.00  0.00     0.074 A 
ATOM     52  C   UNL A   1      41.459  30.224  36.047  1.00  0.00     0.029 A 
ATOM     53  N   UNL A   1      41.318  29.706  33.888  1.00  0.00    -0.354 N 
ATOM     54  N   UNL A   1      42.041  28.215  31.461  1.00  0.00    -0.248 NA
ATOM     55  C   UNL A   1      43.454  26.743  30.328  1.00  0.00     0.031 C 
ATOM     56  C   UNL A   1      42.486  29.326  35.740  1.00  0.00     0.029 A 
ATOM     57  C   UNL A   1      42.385  28.985  34.400  1.00  0.00     0.049 A 
ATOM     58  H   UNL A   1      41.008  29.669  32.955  1.00  0.00     0.167 HD
ATOM     59  C   UNL A   1      43.013  27.754  32.340  1.00  0.00     0.074 A 
ATOM     60  C   UNL A   1      43.839  26.826  31.595  1.00  0.00     0.031 C 
ATOM     61  C   UNL A   1      43.206  28.073  33.643  1.00  0.00     0.037 A 
BRANCH  48  62
ATOM     62  C   UNL A   1      39.181  32.189  35.873  1.00  0.00     0.064 A 
ATOM     63  C   UNL A   1      39.691  33.477  36.097  1.00  0.00     0.173 A 
ATOM     64  C   UNL A   1      38.290  31.661  36.820  1.00  0.00     0.173 A 
ATOM     65  F   UNL A   1      40.548  34.027  35.224  1.00  0.00    -0.203 F 
ATOM     66  C   UNL A   1      39.338  34.200  37.234  1.00  0.00     0.198 A 
ATOM     67  C   UNL A   1      37.920  32.398  37.942  1.00  0.00     0.198 A 
ATOM     68  F   UNL A   1      37.765  30.440  36.644  1.00  0.00    -0.203 F 
ATOM     69  F   UNL A   1      39.864  35.415  37.443  1.00  0.00    -0.200 F 
ATOM     70  C   UNL A   1      38.452  33.661  38.154  1.00  0.00     0.200 A 
ATOM     71  F   UNL A   1      37.045  31.885  38.820  1.00  0.00    -0.200 F 
ATOM     72  F   UNL A   1      38.110  34.360  39.244  1.00  0.00    -0.200 F 
ENDBRANCH  48  62
BRANCH  49  73
ATOM     73  C   UNL A   1      41.952  26.976  27.813  1.00  0.00     0.064 A 
ATOM     74  C   UNL A   1      41.440  25.692  27.572  1.00  0.00     0.173 A 
ATOM     75  C   UNL A   1      42.883  27.489  26.901  1.00  0.00     0.173 A 
ATOM     76  F   UNL A   1      40.542  25.158  28.413  1.00  0.00    -0.203 F 
ATOM     77  C   UNL A   1      41.863  24.943  26.477  1.00  0.00     0.198 A 
ATOM     78  C   UNL A   1      43.285  26.749  25.792  1.00  0.00     0.198 A 
ATOM     79  F   UNL A   1      43.382  28.722  27.076  1.00  0.00    -0.203 F 
ATOM     80  F   UNL A   1      41.384  23.705  26.289  1.00  0.00    -0.200 F 
ATOM     81  C   UNL A   1      42.782  25.472  25.586  1.00  0.00     0.200 A 
ATOM     82  F   UNL A   1      44.155  27.275  24.918  1.00  0.00    -0.200 F 
ATOM     83  F   UNL A   1      43.182  24.755  24.526  1.00  0.00    -0.200 F 
ENDBRANCH  49  73
BRANCH  61  84
ATOM     84  C   UNL A   1      44.354  27.417  34.354  1.00  0.00     0.064 A 
ATOM     85  C   UNL A   1      45.631  27.998  34.338  1.00  0.00     0.173 A 
ATOM     86  C   UNL A   1      44.203  26.180  34.998  1.00  0.00     0.173 A 
ATOM     87  F   UNL A   1      45.831  29.176  33.727  1.00  0.00    -0.203 F 
ATOM     88  C   UNL A   1      46.716  27.360  34.930  1.00  0.00     0.198 A 
ATOM     89  C   UNL A   1      45.285  25.560  35.616  1.00  0.00     0.198 A 
ATOM     90  F   UNL A   1      43.000  25.589  35.052  1.00  0.00    -0.203 F 
ATOM     91  F   UNL A   1      47.933  27.919  34.873  1.00  0.00    -0.200 F 
ATOM     92  C   UNL A   1      46.542  26.144  35.574  1.00  0.00     0.200 A 
ATOM     93  F   UNL A   1      45.109  24.397  36.261  1.00  0.00    -0.200 F 
ATOM     94  F   UNL A   1      47.585  25.538  36.158  1.00  0.00    -0.200 F 
ENDBRANCH  61  84
ENDBRANCH  35  36
ENDBRANCH  28  30
ENDBRANCH  27  28
ENDBRANCH  26  27
ENDBRANCH  25  26
ENDBRANCH  24  25
ENDBRANCH  23  24
ENDBRANCH   1  23
TORSDOF 19
ENDMDL
MODEL 3
REMARK VINA RESULT:     -10.2      5.104     10.352
REMARK SMILES C#CC[NH2+]CC(=O)Nc1ccc(F)cc1C(=O)OCCOCCOC(=O)c1ccc(-c2c3nc(c(-c4c(F)c(F)c(F)c(F)c4F)c4ccc([nH]4)c(-c4c(F)c(F)c(F)c(F)c4F)c4nc(c(-c5c(F)c(F)c(F)c(F)c5F)c5ccc2[nH]5)C=C4)C=C3)cc1
REMARK SMILES IDX 19 1 18 2 16 3 17 4 15 5 9 6 10 7 11 8 14 9 12 10 13 11 8 12
REMARK SMILES IDX 6 13 7 14 5 16 4 17 3 20 2 21 1 22 20 23 21 24 22 25 23 26
REMARK SMILES IDX 24 27 25 28 26 29 27 30 28 31 89 32 29 33 88 34 30 35 31 36
REMARK SMILES IDX 32 37 82 38 33 39 87 40 81 41 83 42 34 43 86 44 80 45 79 46
REMARK SMILES IDX 35 48 67 49 47 50 66 51 48 52 51 53 65 54 84 55 49 56 50 57
REMARK SMILES IDX 64 59 85 60 52 61 36 62 37 63 45 64 38 65 39 66 43 67 46 68
REMARK SMILES IDX 40 69 41 70 44 71 42 72 68 73 69 74 77 75 70 76 71 77 75 78
REMARK SMILES IDX 78 79 72 80 73 81 76 82 74 83 53 84 54 85 62 86 55 87 56 88
REMARK SMILES IDX 60 89 63 90 57 91 58 92 61 93 59 94
REMARK H PARENT 8 15 4 18 4 19 83 47 51 58
REMARK Flexibility Score: inf
ROOT
ATOM      1  C   UNL A   1      36.116  22.097  24.253  1.00  0.00     0.261 C 
ENDROOT
BRANCH   1   2
ATOM      2  O   UNL A   1      35.068  22.983  24.660  1.00  0.00    -0.460 OA
BRANCH   2   3
ATOM      3  C   UNL A   1      34.521  23.668  23.633  1.00  0.00     0.340 C 
ATOM      4  O   UNL A   1      34.499  23.326  22.463  1.00  0.00    -0.246 OA
BRANCH   3   5
ATOM      5  C   UNL A   1      33.897  24.924  24.091  1.00  0.00     0.086 A 
ATOM      6  C   UNL A   1      33.505  25.189  25.405  1.00  0.00     0.056 A 
ATOM      7  C   UNL A   1      33.653  26.527  25.786  1.00  0.00     0.030 A 
ATOM      8  C   UNL A   1      33.637  27.565  24.847  1.00  0.00     0.041 A 
ATOM      9  C   UNL A   1      33.830  25.942  23.119  1.00  0.00     0.057 A 
ATOM     10  C   UNL A   1      33.623  27.251  23.506  1.00  0.00     0.124 A 
ATOM     11  F   UNL A   1      33.517  28.217  22.588  1.00  0.00    -0.207 F 
BRANCH   6  12
ATOM     12  N   UNL A   1      33.211  24.185  26.368  1.00  0.00    -0.320 N 
ATOM     13  C   UNL A   1      32.044  23.550  26.782  1.00  0.00     0.279 C 
ATOM     14  O   UNL A   1      32.154  22.803  27.767  1.00  0.00    -0.268 OA
ATOM     15  H   UNL A   1      34.009  23.869  26.849  1.00  0.00     0.170 HD
BRANCH  13  16
ATOM     16  C   UNL A   1      30.653  23.585  26.043  1.00  0.00     0.363 C 
BRANCH  16  17
ATOM     17  N   UNL A   1      29.579  24.452  26.660  1.00  0.00    -0.328 N 
ATOM     18  H   UNL A   1      28.648  24.142  26.381  1.00  0.00     0.347 HD
ATOM     19  H   UNL A   1      29.574  24.429  27.679  1.00  0.00     0.347 HD
BRANCH  17  20
ATOM     20  C   UNL A   1      29.877  25.742  26.120  1.00  0.00     0.352 C 
BRANCH  20  21
ATOM     21  C   UNL A   1      30.003  26.216  24.681  1.00  0.00    -0.047 C 
ATOM     22  C   UNL A   1      30.112  26.622  23.447  1.00  0.00     0.010 C 
ENDBRANCH  20  21
ENDBRANCH  17  20
ENDBRANCH  16  17
ENDBRANCH  13  16
ENDBRANCH   6  12
ENDBRANCH   3   5
ENDBRANCH   2   3
ENDBRANCH   1   2
BRANCH   1  23
ATOM     23  C   UNL A   1      37.141  21.950  25.379  1.00  0.00     0.202 C 
BRANCH  23  24
ATOM     24  O   UNL A   1      38.404  21.402  25.001  1.00  0.00    -0.374 OA
BRANCH  24  25
ATOM     25  C   UNL A   1      39.298  21.052  26.062  1.00  0.00     0.202 C 
BRANCH  25  26
ATOM     26  C   UNL A   1      39.700  19.577  26.128  1.00  0.00     0.261 C 
BRANCH  26  27
ATOM     27  O   UNL A   1      40.900  19.350  25.367  1.00  0.00    -0.460 OA
BRANCH  27  28
ATOM     28  C   UNL A   1      42.011  19.165  26.121  1.00  0.00     0.338 C 
ATOM     29  O   UNL A   1      42.536  18.108  26.418  1.00  0.00    -0.246 OA
BRANCH  28  30
ATOM     30  C   UNL A   1      42.654  20.466  26.382  1.00  0.00     0.060 A 
ATOM     31  C   UNL A   1      42.569  20.964  27.689  1.00  0.00     0.016 A 
ATOM     32  C   UNL A   1      43.269  21.210  25.375  1.00  0.00     0.016 A 
ATOM     33  C   UNL A   1      43.043  22.237  27.980  1.00  0.00     0.010 A 
ATOM     34  C   UNL A   1      43.735  22.496  25.666  1.00  0.00     0.010 A 
ATOM     35  C   UNL A   1      43.586  23.028  26.959  1.00  0.00    -0.014 A 
BRANCH  35  36
ATOM     36  C   UNL A   1      43.864  24.456  27.235  1.00  0.00     0.031 A 
ATOM     37  C   UNL A   1      45.248  24.989  26.998  1.00  0.00     0.074 A 
ATOM     38  C   UNL A   1      42.873  25.277  27.621  1.00  0.00     0.049 A 
ATOM     39  N   UNL A   1      45.705  26.206  27.149  1.00  0.00    -0.248 NA
ATOM     40  C   UNL A   1      46.254  24.024  26.524  1.00  0.00     0.031 C 
ATOM     41  C   UNL A   1      41.485  24.876  27.837  1.00  0.00     0.029 A 
ATOM     42  N   UNL A   1      42.885  26.622  27.889  1.00  0.00    -0.354 N 
ATOM     43  C   UNL A   1      47.044  26.153  26.788  1.00  0.00     0.074 A 
ATOM     44  C   UNL A   1      47.338  24.780  26.440  1.00  0.00     0.031 C 
ATOM     45  C   UNL A   1      40.773  25.957  28.201  1.00  0.00     0.029 A 
ATOM     46  C   UNL A   1      41.662  27.114  28.275  1.00  0.00     0.049 A 
ATOM     47  H   UNL A   1      43.691  27.182  27.814  1.00  0.00     0.167 HD
ATOM     48  C   UNL A   1      47.941  27.166  26.738  1.00  0.00     0.037 A 
ATOM     49  C   UNL A   1      41.308  28.356  28.656  1.00  0.00     0.037 A 
ATOM     50  C   UNL A   1      47.641  28.531  27.081  1.00  0.00     0.049 A 
ATOM     51  C   UNL A   1      42.344  29.448  28.664  1.00  0.00     0.074 A 
ATOM     52  C   UNL A   1      48.478  29.632  27.044  1.00  0.00     0.029 A 
ATOM     53  N   UNL A   1      46.407  28.979  27.528  1.00  0.00    -0.354 N 
ATOM     54  N   UNL A   1      43.605  29.395  28.308  1.00  0.00    -0.248 NA
ATOM     55  C   UNL A   1      41.908  30.773  29.126  1.00  0.00     0.031 C 
ATOM     56  C   UNL A   1      47.766  30.737  27.521  1.00  0.00     0.029 A 
ATOM     57  C   UNL A   1      46.469  30.337  27.800  1.00  0.00     0.049 A 
ATOM     58  H   UNL A   1      45.606  28.418  27.635  1.00  0.00     0.167 HD
ATOM     59  C   UNL A   1      44.110  30.675  28.491  1.00  0.00     0.074 A 
ATOM     60  C   UNL A   1      43.012  31.491  28.967  1.00  0.00     0.031 C 
ATOM     61  C   UNL A   1      45.370  31.133  28.286  1.00  0.00     0.037 A 
BRANCH  48  62
ATOM     62  C   UNL A   1      49.343  26.839  26.311  1.00  0.00     0.064 A 
ATOM     63  C   UNL A   1      50.310  26.486  27.264  1.00  0.00     0.173 A 
ATOM     64  C   UNL A   1      49.747  26.947  24.972  1.00  0.00     0.173 A 
ATOM     65  F   UNL A   1      49.975  26.373  28.558  1.00  0.00    -0.203 F 
ATOM     66  C   UNL A   1      51.635  26.269  26.894  1.00  0.00     0.198 A 
ATOM     67  C   UNL A   1      51.067  26.703  24.602  1.00  0.00     0.198 A 
ATOM     68  F   UNL A   1      48.858  27.269  24.022  1.00  0.00    -0.203 F 
ATOM     69  F   UNL A   1      52.548  25.965  27.827  1.00  0.00    -0.200 F 
ATOM     70  C   UNL A   1      52.011  26.376  25.564  1.00  0.00     0.200 A 
ATOM     71  F   UNL A   1      51.427  26.784  23.313  1.00  0.00    -0.200 F 
ATOM     72  F   UNL A   1      53.286  26.161  25.209  1.00  0.00    -0.200 F 
ENDBRANCH  48  62
BRANCH  49  73
ATOM     73  C   UNL A   1      39.905  28.625  29.062  1.00  0.00     0.064 A 
ATOM     74  C   UNL A   1      38.966  29.118  28.144  1.00  0.00     0.173 A 
ATOM     75  C   UNL A   1      39.481  28.417  30.381  1.00  0.00     0.173 A 
ATOM     76  F   UNL A   1      39.321  29.329  26.867  1.00  0.00    -0.203 F 
ATOM     77  C   UNL A   1      37.663  29.416  28.536  1.00  0.00     0.198 A 
ATOM     78  C   UNL A   1      38.171  28.690  30.766  1.00  0.00     0.198 A 
ATOM     79  F   UNL A   1      40.336  27.923  31.289  1.00  0.00    -0.203 F 
ATOM     80  F   UNL A   1      36.796  29.919  27.647  1.00  0.00    -0.200 F 
ATOM     81  C   UNL A   1      37.265  29.199  29.845  1.00  0.00     0.200 A 
ATOM     82  F   UNL A   1      37.782  28.454  32.026  1.00  0.00    -0.200 F 
ATOM     83  F   UNL A   1      36.009  29.476  30.221  1.00  0.00    -0.200 F 
ENDBRANCH  49  73
BRANCH  61  84
ATOM     84  C   UNL A   1      45.636  32.582  28.575  1.00  0.00     0.064 A 
ATOM     85  C   UNL A   1      45.472  33.552  27.575  1.00  0.00     0.173 A 
ATOM     86  C   UNL A   1      46.116  33.001  29.825  1.00  0.00     0.173 A 
ATOM     87  F   UNL A   1      45.026  33.202  26.359  1.00  0.00    -0.203 F 
ATOM     88  C   UNL A   1      45.788  34.887  27.812  1.00  0.00     0.198 A 
ATOM     89  C   UNL A   1      46.401  34.342  30.068  1.00  0.00     0.198 A 
ATOM     90  F   UNL A   1      46.279  32.114  30.818  1.00  0.00    -0.203 F 
ATOM     91  F   UNL A   1      45.654  35.790  26.832  1.00  0.00    -0.200 F 
ATOM     92  C   UNL A   1      46.247  35.282  29.060  1.00  0.00     0.200 A 
ATOM     93  F   UNL A   1      46.820  34.726  31.282  1.00  0.00    -0.200 F 
ATOM     94  F   UNL A   1      46.536  36.569  29.292  1.00  0.00    -0.200 F 
ENDBRANCH  61  84
ENDBRANCH  35  36
ENDBRANCH  28  30
ENDBRANCH  27  28
ENDBRANCH  26  27
ENDBRANCH  25  26
ENDBRANCH  24  25
ENDBRANCH  23  24
ENDBRANCH   1  23
TORSDOF 19
ENDMDL
