MODEL 1
REMARK VINA RESULT:     -12.7      0.000      0.000
REMARK SMILES CS(=O)(=O)c1ccc(-c2cc(Cl)cnc2-c2ccc(C(=O)OCCOCCOC(=O)c3ccc(-c4c5nc(c(-c6c(F)c(F)c(F)c(F)c6F)c6ccc([nH]6)c(-c6c(F)c(F)c(F)c(F)c6F)c6nc(c(-c7c(F)c(F)c(F)c(F)c7F)c7ccc4[nH]7)C=C6)C=C5)cc3)nc2)cc1
REMARK SMILES IDX 24 1 23 2 22 3 20 4 21 5 19 6 16 7 17 8 95 9 18 10 94 11
REMARK SMILES IDX 15 12 9 13 10 14 11 15 14 16 12 17 13 18 8 19 5 20 6 21
REMARK SMILES IDX 97 22 7 23 96 24 2 25 1 26 3 27 4 28 25 29 26 30 27 31 28 32
REMARK SMILES IDX 29 33 30 34 31 35 32 36 93 37 33 38 92 39 34 40 35 41 36 42
REMARK SMILES IDX 86 43 37 44 91 45 85 46 87 47 38 48 90 49 84 50 83 51 39 53
REMARK SMILES IDX 71 54 51 55 70 56 52 57 55 58 69 59 88 60 53 61 54 62 68 64
REMARK SMILES IDX 89 65 56 66 40 67 41 68 49 69 42 70 43 71 47 72 50 73 44 74
REMARK SMILES IDX 45 75 48 76 46 77 72 78 73 79 81 80 74 81 75 82 79 83 82 84
REMARK SMILES IDX 76 85 77 86 80 87 78 88 57 89 58 90 66 91 59 92 60 93 64 94
REMARK SMILES IDX 67 95 61 96 62 97 65 98 63 99
REMARK H PARENT 87 52 55 63
REMARK Flexibility Score: inf
ROOT
ATOM      1  C   UNL A   1      34.530  33.275  27.999  1.00  0.00     0.202 C 
ENDROOT
BRANCH   1   2
ATOM      2  C   UNL A   1      33.909  31.910  28.310  1.00  0.00     0.261 C 
BRANCH   2   3
ATOM      3  O   UNL A   1      34.020  31.037  27.175  1.00  0.00    -0.459 OA
BRANCH   3   4
ATOM      4  C   UNL A   1      34.527  29.807  27.450  1.00  0.00     0.356 C 
ATOM      5  O   UNL A   1      35.317  29.534  28.340  1.00  0.00    -0.244 OA
BRANCH   4   6
ATOM      6  C   UNL A   1      33.869  28.789  26.580  1.00  0.00     0.148 A 
ATOM      7  C   UNL A   1      32.847  26.631  25.230  1.00  0.00     0.019 A 
ATOM      8  C   UNL A   1      33.693  27.528  24.563  1.00  0.00     0.014 A 
ATOM      9  C   UNL A   1      32.437  26.976  26.514  1.00  0.00     0.122 A 
ATOM     10  C   UNL A   1      34.222  28.623  25.247  1.00  0.00     0.037 A 
ATOM     11  N   UNL A   1      32.937  28.021  27.205  1.00  0.00    -0.249 NA
BRANCH   7  12
ATOM     12  C   UNL A   1      32.639  25.263  24.747  1.00  0.00     0.080 A 
ATOM     13  C   UNL A   1      31.581  24.969  23.849  1.00  0.00     0.010 A 
ATOM     14  C   UNL A   1      31.456  23.646  23.412  1.00  0.00     0.033 A 
ATOM     15  C   UNL A   1      32.370  22.691  23.844  1.00  0.00     0.060 A 
ATOM     16  N   UNL A   1      33.545  24.345  25.165  1.00  0.00    -0.254 NA
ATOM     17  Cl  UNL A   1      32.241  21.064  23.313  1.00  0.00    -0.083 Cl
ATOM     18  C   UNL A   1      33.388  23.081  24.702  1.00  0.00     0.132 A 
BRANCH  13  19
ATOM     19  C   UNL A   1      30.644  26.015  23.388  1.00  0.00    -0.016 A 
ATOM     20  C   UNL A   1      29.023  28.238  22.833  1.00  0.00     0.067 A 
ATOM     21  C   UNL A   1      30.270  28.129  22.220  1.00  0.00     0.021 A 
ATOM     22  C   UNL A   1      28.560  27.239  23.691  1.00  0.00     0.021 A 
ATOM     23  C   UNL A   1      31.060  27.006  22.479  1.00  0.00     0.010 A 
ATOM     24  C   UNL A   1      29.367  26.130  23.962  1.00  0.00     0.010 A 
BRANCH  20  25
ATOM     25  S   UNL A   1      28.055  29.712  22.601  1.00  0.00     0.175 S 
ATOM     26  C   UNL A   1      28.990  30.951  23.456  1.00  0.00     0.163 C 
ATOM     27  O   UNL A   1      26.798  29.526  23.301  1.00  0.00    -0.224 OA
ATOM     28  O   UNL A   1      28.074  30.020  21.186  1.00  0.00    -0.224 OA
ENDBRANCH  20  25
ENDBRANCH  13  19
ENDBRANCH   7  12
ENDBRANCH   4   6
ENDBRANCH   3   4
ENDBRANCH   2   3
ENDBRANCH   1   2
BRANCH   1  29
ATOM     29  O   UNL A   1      34.945  34.053  29.122  1.00  0.00    -0.374 OA
BRANCH  29  30
ATOM     30  C   UNL A   1      33.998  34.261  30.170  1.00  0.00     0.202 C 
BRANCH  30  31
ATOM     31  C   UNL A   1      34.509  34.058  31.601  1.00  0.00     0.261 C 
BRANCH  31  32
ATOM     32  O   UNL A   1      34.647  32.665  31.936  1.00  0.00    -0.460 OA
BRANCH  32  33
ATOM     33  C   UNL A   1      35.698  32.378  32.738  1.00  0.00     0.338 C 
ATOM     34  O   UNL A   1      35.791  32.572  33.942  1.00  0.00    -0.246 OA
BRANCH  33  35
ATOM     35  C   UNL A   1      36.717  31.623  31.987  1.00  0.00     0.060 A 
ATOM     36  C   UNL A   1      37.685  30.933  32.726  1.00  0.00     0.016 A 
ATOM     37  C   UNL A   1      36.776  31.652  30.592  1.00  0.00     0.016 A 
ATOM     38  C   UNL A   1      38.748  30.309  32.076  1.00  0.00     0.010 A 
ATOM     39  C   UNL A   1      37.849  31.033  29.940  1.00  0.00     0.010 A 
ATOM     40  C   UNL A   1      38.856  30.388  30.681  1.00  0.00    -0.014 A 
BRANCH  40  41
ATOM     41  C   UNL A   1      40.096  29.919  30.016  1.00  0.00     0.031 A 
ATOM     42  C   UNL A   1      41.243  30.878  29.847  1.00  0.00     0.074 A 
ATOM     43  C   UNL A   1      40.212  28.647  29.596  1.00  0.00     0.049 A 
ATOM     44  N   UNL A   1      42.399  30.699  29.261  1.00  0.00    -0.248 NA
ATOM     45  C   UNL A   1      41.061  32.223  30.419  1.00  0.00     0.031 C 
ATOM     46  C   UNL A   1      39.190  27.613  29.740  1.00  0.00     0.029 A 
ATOM     47  N   UNL A   1      41.247  28.012  28.955  1.00  0.00    -0.354 N 
ATOM     48  C   UNL A   1      43.080  31.901  29.392  1.00  0.00     0.074 A 
ATOM     49  C   UNL A   1      42.198  32.816  30.084  1.00  0.00     0.031 C 
ATOM     50  C   UNL A   1      39.642  26.474  29.188  1.00  0.00     0.029 A 
ATOM     51  C   UNL A   1      40.972  26.707  28.627  1.00  0.00     0.049 A 
ATOM     52  H   UNL A   1      42.105  28.449  28.749  1.00  0.00     0.167 HD
ATOM     53  C   UNL A   1      44.332  32.211  28.981  1.00  0.00     0.037 A 
ATOM     54  C   UNL A   1      41.702  25.812  27.934  1.00  0.00     0.037 A 
ATOM     55  C   UNL A   1      45.211  31.301  28.294  1.00  0.00     0.049 A 
ATOM     56  C   UNL A   1      43.065  26.208  27.424  1.00  0.00     0.074 A 
ATOM     57  C   UNL A   1      46.500  31.521  27.842  1.00  0.00     0.029 A 
ATOM     58  N   UNL A   1      44.888  29.995  27.960  1.00  0.00    -0.354 N 
ATOM     59  N   UNL A   1      43.708  27.342  27.566  1.00  0.00    -0.248 NA
ATOM     60  C   UNL A   1      43.806  25.194  26.658  1.00  0.00     0.031 C 
ATOM     61  C   UNL A   1      46.940  30.363  27.194  1.00  0.00     0.029 A 
ATOM     62  C   UNL A   1      45.946  29.404  27.290  1.00  0.00     0.049 A 
ATOM     63  H   UNL A   1      44.033  29.553  28.169  1.00  0.00     0.167 HD
ATOM     64  C   UNL A   1      44.936  27.167  26.940  1.00  0.00     0.074 A 
ATOM     65  C   UNL A   1      44.955  25.815  26.426  1.00  0.00     0.031 C 
ATOM     66  C   UNL A   1      45.956  28.049  26.801  1.00  0.00     0.037 A 
BRANCH  53  67
ATOM     67  C   UNL A   1      44.830  33.600  29.251  1.00  0.00     0.064 A 
ATOM     68  C   UNL A   1      44.607  34.649  28.347  1.00  0.00     0.173 A 
ATOM     69  C   UNL A   1      45.488  33.898  30.454  1.00  0.00     0.173 A 
ATOM     70  F   UNL A   1      43.994  34.412  27.177  1.00  0.00    -0.203 F 
ATOM     71  C   UNL A   1      45.036  35.943  28.630  1.00  0.00     0.198 A 
ATOM     72  C   UNL A   1      45.893  35.198  30.746  1.00  0.00     0.198 A 
ATOM     73  F   UNL A   1      45.723  32.932  31.354  1.00  0.00    -0.203 F 
ATOM     74  F   UNL A   1      44.842  36.922  27.738  1.00  0.00    -0.200 F 
ATOM     75  C   UNL A   1      45.670  36.218  29.833  1.00  0.00     0.200 A 
ATOM     76  F   UNL A   1      46.494  35.465  31.914  1.00  0.00    -0.200 F 
ATOM     77  F   UNL A   1      46.070  37.466  30.111  1.00  0.00    -0.200 F 
ENDBRANCH  53  67
BRANCH  54  78
ATOM     78  C   UNL A   1      41.159  24.457  27.656  1.00  0.00     0.064 A 
ATOM     79  C   UNL A   1      41.707  23.318  28.261  1.00  0.00     0.173 A 
ATOM     80  C   UNL A   1      40.112  24.270  26.741  1.00  0.00     0.173 A 
ATOM     81  F   UNL A   1      42.728  23.442  29.121  1.00  0.00    -0.203 F 
ATOM     82  C   UNL A   1      41.247  22.041  27.942  1.00  0.00     0.198 A 
ATOM     83  C   UNL A   1      39.633  22.995  26.445  1.00  0.00     0.198 A 
ATOM     84  F   UNL A   1      39.556  25.326  26.129  1.00  0.00    -0.203 F 
ATOM     85  F   UNL A   1      41.829  20.965  28.489  1.00  0.00    -0.200 F 
ATOM     86  C   UNL A   1      40.208  21.882  27.037  1.00  0.00     0.200 A 
ATOM     87  F   UNL A   1      38.624  22.847  25.576  1.00  0.00    -0.200 F 
ATOM     88  F   UNL A   1      39.772  20.654  26.724  1.00  0.00    -0.200 F 
ENDBRANCH  54  78
BRANCH  66  89
ATOM     89  C   UNL A   1      47.198  27.566  26.108  1.00  0.00     0.064 A 
ATOM     90  C   UNL A   1      48.253  26.973  26.814  1.00  0.00     0.173 A 
ATOM     91  C   UNL A   1      47.312  27.661  24.712  1.00  0.00     0.173 A 
ATOM     92  F   UNL A   1      48.197  26.873  28.152  1.00  0.00    -0.203 F 
ATOM     93  C   UNL A   1      49.389  26.515  26.153  1.00  0.00     0.198 A 
ATOM     94  C   UNL A   1      48.437  27.175  24.051  1.00  0.00     0.198 A 
ATOM     95  F   UNL A   1      46.327  28.212  23.988  1.00  0.00    -0.203 F 
ATOM     96  F   UNL A   1      50.407  25.995  26.854  1.00  0.00    -0.200 F 
ATOM     97  C   UNL A   1      49.478  26.611  24.772  1.00  0.00     0.200 A 
ATOM     98  F   UNL A   1      48.512  27.254  22.715  1.00  0.00    -0.200 F 
ATOM     99  F   UNL A   1      50.569  26.163  24.136  1.00  0.00    -0.200 F 
ENDBRANCH  66  89
ENDBRANCH  40  41
ENDBRANCH  33  35
ENDBRANCH  32  33
ENDBRANCH  31  32
ENDBRANCH  30  31
ENDBRANCH  29  30
ENDBRANCH   1  29
TORSDOF 17
ENDMDL
MODEL 2
REMARK VINA RESULT:     -12.5      0.916      7.083
REMARK SMILES CS(=O)(=O)c1ccc(-c2cc(Cl)cnc2-c2ccc(C(=O)OCCOCCOC(=O)c3ccc(-c4c5nc(c(-c6c(F)c(F)c(F)c(F)c6F)c6ccc([nH]6)c(-c6c(F)c(F)c(F)c(F)c6F)c6nc(c(-c7c(F)c(F)c(F)c(F)c7F)c7ccc4[nH]7)C=C6)C=C5)cc3)nc2)cc1
REMARK SMILES IDX 24 1 23 2 22 3 20 4 21 5 19 6 16 7 17 8 95 9 18 10 94 11
REMARK SMILES IDX 15 12 9 13 10 14 11 15 14 16 12 17 13 18 8 19 5 20 6 21
REMARK SMILES IDX 97 22 7 23 96 24 2 25 1 26 3 27 4 28 25 29 26 30 27 31 28 32
REMARK SMILES IDX 29 33 30 34 31 35 32 36 93 37 33 38 92 39 34 40 35 41 36 42
REMARK SMILES IDX 86 43 37 44 91 45 85 46 87 47 38 48 90 49 84 50 83 51 39 53
REMARK SMILES IDX 71 54 51 55 70 56 52 57 55 58 69 59 88 60 53 61 54 62 68 64
REMARK SMILES IDX 89 65 56 66 40 67 41 68 49 69 42 70 43 71 47 72 50 73 44 74
REMARK SMILES IDX 45 75 48 76 46 77 72 78 73 79 81 80 74 81 75 82 79 83 82 84
REMARK SMILES IDX 76 85 77 86 80 87 78 88 57 89 58 90 66 91 59 92 60 93 64 94
REMARK SMILES IDX 67 95 61 96 62 97 65 98 63 99
REMARK H PARENT 87 52 55 63
REMARK Flexibility Score: inf
ROOT
ATOM      1  C   UNL A   1      34.059  32.765  28.339  1.00  0.00     0.202 C 
ENDROOT
BRANCH   1   2
ATOM      2  C   UNL A   1      34.155  31.255  28.100  1.00  0.00     0.261 C 
BRANCH   2   3
ATOM      3  O   UNL A   1      33.771  30.934  26.754  1.00  0.00    -0.459 OA
BRANCH   3   4
ATOM      4  C   UNL A   1      32.506  30.456  26.621  1.00  0.00     0.356 C 
ATOM      5  O   UNL A   1      31.487  31.125  26.541  1.00  0.00    -0.244 OA
BRANCH   4   6
ATOM      6  C   UNL A   1      32.546  28.975  26.449  1.00  0.00     0.148 A 
ATOM      7  C   UNL A   1      32.573  26.332  25.718  1.00  0.00     0.019 A 
ATOM      8  C   UNL A   1      31.558  26.807  26.562  1.00  0.00     0.014 A 
ATOM      9  C   UNL A   1      33.616  27.202  25.423  1.00  0.00     0.122 A 
ATOM     10  C   UNL A   1      31.535  28.152  26.931  1.00  0.00     0.037 A 
ATOM     11  N   UNL A   1      33.619  28.510  25.755  1.00  0.00    -0.249 NA
BRANCH   7  12
ATOM     12  C   UNL A   1      32.413  25.102  24.937  1.00  0.00     0.080 A 
ATOM     13  C   UNL A   1      31.513  25.057  23.840  1.00  0.00     0.010 A 
ATOM     14  C   UNL A   1      31.429  23.857  23.126  1.00  0.00     0.033 A 
ATOM     15  C   UNL A   1      32.232  22.782  23.492  1.00  0.00     0.060 A 
ATOM     16  N   UNL A   1      33.212  24.067  25.295  1.00  0.00    -0.254 NA
ATOM     17  Cl  UNL A   1      32.151  21.304  22.624  1.00  0.00    -0.083 Cl
ATOM     18  C   UNL A   1      33.101  22.932  24.563  1.00  0.00     0.132 A 
BRANCH  13  19
ATOM     19  C   UNL A   1      30.695  26.228  23.462  1.00  0.00    -0.016 A 
ATOM     20  C   UNL A   1      29.262  28.617  23.119  1.00  0.00     0.067 A 
ATOM     21  C   UNL A   1      30.578  28.535  22.665  1.00  0.00     0.021 A 
ATOM     22  C   UNL A   1      28.641  27.514  23.710  1.00  0.00     0.021 A 
ATOM     23  C   UNL A   1      31.276  27.335  22.815  1.00  0.00     0.010 A 
ATOM     24  C   UNL A   1      29.356  26.324  23.875  1.00  0.00     0.010 A 
BRANCH  20  25
ATOM     25  S   UNL A   1      28.399  30.170  23.039  1.00  0.00     0.175 S 
ATOM     26  C   UNL A   1      28.578  30.647  21.341  1.00  0.00     0.163 C 
ATOM     27  O   UNL A   1      29.128  31.120  23.859  1.00  0.00    -0.224 OA
ATOM     28  O   UNL A   1      26.999  29.897  23.292  1.00  0.00    -0.224 OA
ENDBRANCH  20  25
ENDBRANCH  13  19
ENDBRANCH   7  12
ENDBRANCH   4   6
ENDBRANCH   3   4
ENDBRANCH   2   3
ENDBRANCH   1   2
BRANCH   1  29
ATOM     29  O   UNL A   1      34.943  33.310  29.320  1.00  0.00    -0.374 OA
BRANCH  29  30
ATOM     30  C   UNL A   1      34.358  33.951  30.454  1.00  0.00     0.202 C 
BRANCH  30  31
ATOM     31  C   UNL A   1      34.964  33.606  31.819  1.00  0.00     0.261 C 
BRANCH  31  32
ATOM     32  O   UNL A   1      35.162  32.189  31.982  1.00  0.00    -0.460 OA
BRANCH  32  33
ATOM     33  C   UNL A   1      36.216  31.853  32.761  1.00  0.00     0.338 C 
ATOM     34  O   UNL A   1      36.307  31.954  33.976  1.00  0.00    -0.246 OA
BRANCH  33  35
ATOM     35  C   UNL A   1      37.243  31.168  31.955  1.00  0.00     0.060 A 
ATOM     36  C   UNL A   1      38.417  30.771  32.607  1.00  0.00     0.016 A 
ATOM     37  C   UNL A   1      37.101  30.989  30.578  1.00  0.00     0.016 A 
ATOM     38  C   UNL A   1      39.476  30.236  31.877  1.00  0.00     0.010 A 
ATOM     39  C   UNL A   1      38.170  30.461  29.843  1.00  0.00     0.010 A 
ATOM     40  C   UNL A   1      39.373  30.115  30.485  1.00  0.00    -0.014 A 
BRANCH  40  41
ATOM     41  C   UNL A   1      40.574  29.759  29.691  1.00  0.00     0.031 A 
ATOM     42  C   UNL A   1      40.684  28.374  29.114  1.00  0.00     0.074 A 
ATOM     43  C   UNL A   1      41.540  30.666  29.459  1.00  0.00     0.049 A 
ATOM     44  N   UNL A   1      41.658  27.833  28.427  1.00  0.00    -0.248 NA
ATOM     45  C   UNL A   1      39.538  27.477  29.341  1.00  0.00     0.031 C 
ATOM     46  C   UNL A   1      41.528  32.049  29.927  1.00  0.00     0.029 A 
ATOM     47  N   UNL A   1      42.723  30.551  28.773  1.00  0.00    -0.354 N 
ATOM     48  C   UNL A   1      41.246  26.538  28.141  1.00  0.00     0.074 A 
ATOM     49  C   UNL A   1      39.948  26.361  28.755  1.00  0.00     0.031 C 
ATOM     50  C   UNL A   1      42.660  32.654  29.528  1.00  0.00     0.029 A 
ATOM     51  C   UNL A   1      43.488  31.691  28.802  1.00  0.00     0.049 A 
ATOM     52  H   UNL A   1      42.999  29.729  28.304  1.00  0.00     0.167 HD
ATOM     53  C   UNL A   1      41.888  25.587  27.423  1.00  0.00     0.037 A 
ATOM     54  C   UNL A   1      44.723  31.922  28.317  1.00  0.00     0.037 A 
ATOM     55  C   UNL A   1      43.179  25.764  26.811  1.00  0.00     0.049 A 
ATOM     56  C   UNL A   1      45.447  30.820  27.584  1.00  0.00     0.074 A 
ATOM     57  C   UNL A   1      43.909  24.861  26.058  1.00  0.00     0.029 A 
ATOM     58  N   UNL A   1      43.932  26.926  26.882  1.00  0.00    -0.354 N 
ATOM     59  N   UNL A   1      45.043  29.604  27.304  1.00  0.00    -0.248 NA
ATOM     60  C   UNL A   1      46.799  31.127  27.095  1.00  0.00     0.031 C 
ATOM     61  C   UNL A   1      45.124  25.461  25.712  1.00  0.00     0.029 A 
ATOM     62  C   UNL A   1      45.128  26.755  26.203  1.00  0.00     0.049 A 
ATOM     63  H   UNL A   1      43.657  27.751  27.345  1.00  0.00     0.167 HD
ATOM     64  C   UNL A   1      46.073  29.015  26.581  1.00  0.00     0.074 A 
ATOM     65  C   UNL A   1      47.116  30.010  26.454  1.00  0.00     0.031 C 
ATOM     66  C   UNL A   1      46.149  27.762  26.071  1.00  0.00     0.037 A 
BRANCH  53  67
ATOM     67  C   UNL A   1      41.212  24.258  27.266  1.00  0.00     0.064 A 
ATOM     68  C   UNL A   1      40.110  24.090  26.416  1.00  0.00     0.173 A 
ATOM     69  C   UNL A   1      41.709  23.125  27.929  1.00  0.00     0.173 A 
ATOM     70  F   UNL A   1      39.589  25.145  25.770  1.00  0.00    -0.203 F 
ATOM     71  C   UNL A   1      39.520  22.840  26.246  1.00  0.00     0.198 A 
ATOM     72  C   UNL A   1      41.133  21.872  27.736  1.00  0.00     0.198 A 
ATOM     73  F   UNL A   1      42.764  23.230  28.750  1.00  0.00    -0.203 F 
ATOM     74  F   UNL A   1      38.446  22.710  25.455  1.00  0.00    -0.200 F 
ATOM     75  C   UNL A   1      40.037  21.731  26.899  1.00  0.00     0.200 A 
ATOM     76  F   UNL A   1      41.642  20.799  28.358  1.00  0.00    -0.200 F 
ATOM     77  F   UNL A   1      39.477  20.527  26.722  1.00  0.00    -0.200 F 
ENDBRANCH  53  67
BRANCH  54  78
ATOM     78  C   UNL A   1      45.375  33.242  28.525  1.00  0.00     0.064 A 
ATOM     79  C   UNL A   1      46.198  33.478  29.634  1.00  0.00     0.173 A 
ATOM     80  C   UNL A   1      45.147  34.308  27.642  1.00  0.00     0.173 A 
ATOM     81  F   UNL A   1      46.423  32.499  30.522  1.00  0.00    -0.203 F 
ATOM     82  C   UNL A   1      46.747  34.738  29.867  1.00  0.00     0.198 A 
ATOM     83  C   UNL A   1      45.720  35.559  27.861  1.00  0.00     0.198 A 
ATOM     84  F   UNL A   1      44.362  34.137  26.568  1.00  0.00    -0.203 F 
ATOM     85  F   UNL A   1      47.480  34.953  30.968  1.00  0.00    -0.200 F 
ATOM     86  C   UNL A   1      46.510  35.776  28.978  1.00  0.00     0.200 A 
ATOM     87  F   UNL A   1      45.495  36.557  26.995  1.00  0.00    -0.200 F 
ATOM     88  F   UNL A   1      47.031  36.989  29.208  1.00  0.00    -0.200 F 
ENDBRANCH  54  78
BRANCH  66  89
ATOM     89  C   UNL A   1      47.379  27.409  25.286  1.00  0.00     0.064 A 
ATOM     90  C   UNL A   1      47.478  27.672  23.912  1.00  0.00     0.173 A 
ATOM     91  C   UNL A   1      48.490  26.839  25.927  1.00  0.00     0.173 A 
ATOM     92  F   UNL A   1      46.438  28.203  23.250  1.00  0.00    -0.203 F 
ATOM     93  C   UNL A   1      48.634  27.354  23.204  1.00  0.00     0.198 A 
ATOM     94  C   UNL A   1      49.655  26.549  25.222  1.00  0.00     0.198 A 
ATOM     95  F   UNL A   1      48.450  26.576  27.242  1.00  0.00    -0.203 F 
ATOM     96  F   UNL A   1      48.688  27.570  21.882  1.00  0.00    -0.200 F 
ATOM     97  C   UNL A   1      49.723  26.799  23.860  1.00  0.00     0.200 A 
ATOM     98  F   UNL A   1      50.711  26.028  25.862  1.00  0.00    -0.200 F 
ATOM     99  F   UNL A   1      50.837  26.500  23.178  1.00  0.00    -0.200 F 
ENDBRANCH  66  89
ENDBRANCH  40  41
ENDBRANCH  33  35
ENDBRANCH  32  33
ENDBRANCH  31  32
ENDBRANCH  30  31
ENDBRANCH  29  30
ENDBRANCH   1  29
TORSDOF 17
ENDMDL
MODEL 3
REMARK VINA RESULT:     -12.4      4.569      9.312
REMARK SMILES CS(=O)(=O)c1ccc(-c2cc(Cl)cnc2-c2ccc(C(=O)OCCOCCOC(=O)c3ccc(-c4c5nc(c(-c6c(F)c(F)c(F)c(F)c6F)c6ccc([nH]6)c(-c6c(F)c(F)c(F)c(F)c6F)c6nc(c(-c7c(F)c(F)c(F)c(F)c7F)c7ccc4[nH]7)C=C6)C=C5)cc3)nc2)cc1
REMARK SMILES IDX 24 1 23 2 22 3 20 4 21 5 19 6 16 7 17 8 95 9 18 10 94 11
REMARK SMILES IDX 15 12 9 13 10 14 11 15 14 16 12 17 13 18 8 19 5 20 6 21
REMARK SMILES IDX 97 22 7 23 96 24 2 25 1 26 3 27 4 28 25 29 26 30 27 31 28 32
REMARK SMILES IDX 29 33 30 34 31 35 32 36 93 37 33 38 92 39 34 40 35 41 36 42
REMARK SMILES IDX 86 43 37 44 91 45 85 46 87 47 38 48 90 49 84 50 83 51 39 53
REMARK SMILES IDX 71 54 51 55 70 56 52 57 55 58 69 59 88 60 53 61 54 62 68 64
REMARK SMILES IDX 89 65 56 66 40 67 41 68 49 69 42 70 43 71 47 72 50 73 44 74
REMARK SMILES IDX 45 75 48 76 46 77 72 78 73 79 81 80 74 81 75 82 79 83 82 84
REMARK SMILES IDX 76 85 77 86 80 87 78 88 57 89 58 90 66 91 59 92 60 93 64 94
REMARK SMILES IDX 67 95 61 96 62 97 65 98 63 99
REMARK H PARENT 87 52 55 63
REMARK Flexibility Score: inf
ROOT
ATOM      1  C   UNL A   1      40.591  21.902  27.219  1.00  0.00     0.202 C 
ENDROOT
BRANCH   1   2
ATOM      2  C   UNL A   1      39.696  22.230  26.021  1.00  0.00     0.261 C 
BRANCH   2   3
ATOM      3  O   UNL A   1      38.337  21.853  26.292  1.00  0.00    -0.459 OA
BRANCH   3   4
ATOM      4  C   UNL A   1      37.634  21.436  25.206  1.00  0.00     0.356 C 
ATOM      5  O   UNL A   1      37.725  20.346  24.663  1.00  0.00    -0.244 OA
BRANCH   4   6
ATOM      6  C   UNL A   1      36.618  22.466  24.842  1.00  0.00     0.148 A 
ATOM      7  C   UNL A   1      34.480  24.125  24.398  1.00  0.00     0.019 A 
ATOM      8  C   UNL A   1      35.098  23.487  23.313  1.00  0.00     0.014 A 
ATOM      9  C   UNL A   1      35.093  24.007  25.641  1.00  0.00     0.122 A 
ATOM     10  C   UNL A   1      36.181  22.636  23.533  1.00  0.00     0.037 A 
ATOM     11  N   UNL A   1      36.134  23.185  25.888  1.00  0.00    -0.249 NA
BRANCH   7  12
ATOM     12  C   UNL A   1      33.109  24.635  24.313  1.00  0.00     0.080 A 
ATOM     13  C   UNL A   1      32.009  23.741  24.253  1.00  0.00     0.010 A 
ATOM     14  C   UNL A   1      30.727  24.299  24.197  1.00  0.00     0.033 A 
ATOM     15  C   UNL A   1      30.578  25.681  24.227  1.00  0.00     0.060 A 
ATOM     16  N   UNL A   1      32.977  25.984  24.358  1.00  0.00    -0.254 NA
ATOM     17  Cl  UNL A   1      29.015  26.387  24.167  1.00  0.00    -0.083 Cl
ATOM     18  C   UNL A   1      31.714  26.474  24.313  1.00  0.00     0.132 A 
BRANCH  13  19
ATOM     19  C   UNL A   1      32.202  22.276  24.251  1.00  0.00    -0.016 A 
ATOM     20  C   UNL A   1      32.979  19.580  24.153  1.00  0.00     0.067 A 
ATOM     21  C   UNL A   1      33.050  20.271  25.362  1.00  0.00     0.021 A 
ATOM     22  C   UNL A   1      32.495  20.205  23.002  1.00  0.00     0.021 A 
ATOM     23  C   UNL A   1      32.636  21.604  25.410  1.00  0.00     0.010 A 
ATOM     24  C   UNL A   1      32.104  21.547  23.055  1.00  0.00     0.010 A 
BRANCH  20  25
ATOM     25  S   UNL A   1      33.606  17.919  24.051  1.00  0.00     0.175 S 
ATOM     26  C   UNL A   1      32.680  17.058  25.292  1.00  0.00     0.163 C 
ATOM     27  O   UNL A   1      34.998  17.951  24.460  1.00  0.00    -0.224 OA
ATOM     28  O   UNL A   1      33.230  17.397  22.753  1.00  0.00    -0.224 OA
ENDBRANCH  20  25
ENDBRANCH  13  19
ENDBRANCH   7  12
ENDBRANCH   4   6
ENDBRANCH   3   4
ENDBRANCH   2   3
ENDBRANCH   1   2
BRANCH   1  29
ATOM     29  O   UNL A   1      40.790  20.516  27.503  1.00  0.00    -0.374 OA
BRANCH  29  30
ATOM     30  C   UNL A   1      40.956  19.631  26.395  1.00  0.00     0.202 C 
BRANCH  30  31
ATOM     31  C   UNL A   1      42.375  19.106  26.149  1.00  0.00     0.261 C 
BRANCH  31  32
ATOM     32  O   UNL A   1      42.836  19.394  24.815  1.00  0.00    -0.460 OA
BRANCH  32  33
ATOM     33  C   UNL A   1      44.178  19.519  24.697  1.00  0.00     0.338 C 
ATOM     34  O   UNL A   1      44.976  18.669  24.329  1.00  0.00    -0.246 OA
BRANCH  33  35
ATOM     35  C   UNL A   1      44.578  20.919  24.925  1.00  0.00     0.060 A 
ATOM     36  C   UNL A   1      45.286  21.206  26.098  1.00  0.00     0.016 A 
ATOM     37  C   UNL A   1      44.202  21.945  24.055  1.00  0.00     0.016 A 
ATOM     38  C   UNL A   1      45.580  22.526  26.434  1.00  0.00     0.010 A 
ATOM     39  C   UNL A   1      44.489  23.271  24.397  1.00  0.00     0.010 A 
ATOM     40  C   UNL A   1      45.148  23.569  25.604  1.00  0.00    -0.014 A 
BRANCH  40  41
ATOM     41  C   UNL A   1      45.264  24.972  26.071  1.00  0.00     0.031 A 
ATOM     42  C   UNL A   1      46.604  25.653  26.014  1.00  0.00     0.074 A 
ATOM     43  C   UNL A   1      44.184  25.642  26.512  1.00  0.00     0.049 A 
ATOM     44  N   UNL A   1      46.946  26.853  26.408  1.00  0.00    -0.248 NA
ATOM     45  C   UNL A   1      47.710  24.873  25.433  1.00  0.00     0.031 C 
ATOM     46  C   UNL A   1      42.827  25.107  26.576  1.00  0.00     0.029 A 
ATOM     47  N   UNL A   1      44.067  26.921  26.996  1.00  0.00    -0.354 N 
ATOM     48  C   UNL A   1      48.299  26.974  26.124  1.00  0.00     0.074 A 
ATOM     49  C   UNL A   1      48.727  25.714  25.554  1.00  0.00     0.031 C 
ATOM     50  C   UNL A   1      42.011  26.046  27.085  1.00  0.00     0.029 A 
ATOM     51  C   UNL A   1      42.796  27.237  27.411  1.00  0.00     0.049 A 
ATOM     52  H   UNL A   1      44.821  27.553  27.042  1.00  0.00     0.167 HD
ATOM     53  C   UNL A   1      49.110  28.042  26.311  1.00  0.00     0.037 A 
ATOM     54  C   UNL A   1      42.327  28.351  28.006  1.00  0.00     0.037 A 
ATOM     55  C   UNL A   1      48.683  29.296  26.876  1.00  0.00     0.049 A 
ATOM     56  C   UNL A   1      43.269  29.499  28.269  1.00  0.00     0.074 A 
ATOM     57  C   UNL A   1      49.429  30.440  27.101  1.00  0.00     0.029 A 
ATOM     58  N   UNL A   1      47.393  29.569  27.305  1.00  0.00    -0.354 N 
ATOM     59  N   UNL A   1      44.544  29.611  27.982  1.00  0.00    -0.248 NA
ATOM     60  C   UNL A   1      42.702  30.680  28.938  1.00  0.00     0.031 C 
ATOM     61  C   UNL A   1      48.602  31.389  27.707  1.00  0.00     0.029 A 
ATOM     62  C   UNL A   1      47.328  30.856  27.812  1.00  0.00     0.049 A 
ATOM     63  H   UNL A   1      46.636  28.941  27.255  1.00  0.00     0.167 HD
ATOM     64  C   UNL A   1      44.921  30.880  28.403  1.00  0.00     0.074 A 
ATOM     65  C   UNL A   1      43.739  31.507  28.954  1.00  0.00     0.031 C 
ATOM     66  C   UNL A   1      46.138  31.473  28.341  1.00  0.00     0.037 A 
BRANCH  53  67
ATOM     67  C   UNL A   1      50.549  27.903  25.913  1.00  0.00     0.064 A 
ATOM     68  C   UNL A   1      51.545  27.605  26.854  1.00  0.00     0.173 A 
ATOM     69  C   UNL A   1      50.928  28.012  24.566  1.00  0.00     0.173 A 
ATOM     70  F   UNL A   1      51.235  27.504  28.156  1.00  0.00    -0.203 F 
ATOM     71  C   UNL A   1      52.871  27.436  26.464  1.00  0.00     0.198 A 
ATOM     72  C   UNL A   1      52.250  27.816  24.177  1.00  0.00     0.198 A 
ATOM     73  F   UNL A   1      50.013  28.292  23.627  1.00  0.00    -0.203 F 
ATOM     74  F   UNL A   1      53.812  27.184  27.385  1.00  0.00    -0.200 F 
ATOM     75  C   UNL A   1      53.221  27.532  25.126  1.00  0.00     0.200 A 
ATOM     76  F   UNL A   1      52.585  27.897  22.882  1.00  0.00    -0.200 F 
ATOM     77  F   UNL A   1      54.495  27.354  24.750  1.00  0.00    -0.200 F 
ENDBRANCH  53  67
BRANCH  54  78
ATOM     78  C   UNL A   1      40.902  28.436  28.418  1.00  0.00     0.064 A 
ATOM     79  C   UNL A   1      39.936  29.004  27.575  1.00  0.00     0.173 A 
ATOM     80  C   UNL A   1      40.486  27.996  29.683  1.00  0.00     0.173 A 
ATOM     81  F   UNL A   1      40.290  29.466  26.367  1.00  0.00    -0.203 F 
ATOM     82  C   UNL A   1      38.615  29.153  27.992  1.00  0.00     0.198 A 
ATOM     83  C   UNL A   1      39.158  28.119  30.088  1.00  0.00     0.198 A 
ATOM     84  F   UNL A   1      41.371  27.451  30.530  1.00  0.00    -0.203 F 
ATOM     85  F   UNL A   1      37.725  29.754  27.191  1.00  0.00    -0.200 F 
ATOM     86  C   UNL A   1      38.227  28.706  29.247  1.00  0.00     0.200 A 
ATOM     87  F   UNL A   1      38.786  27.679  31.298  1.00  0.00    -0.200 F 
ATOM     88  F   UNL A   1      36.958  28.857  29.651  1.00  0.00    -0.200 F 
ENDBRANCH  54  78
BRANCH  66  89
ATOM     89  C   UNL A   1      46.246  32.886  28.836  1.00  0.00     0.064 A 
ATOM     90  C   UNL A   1      46.632  33.179  30.151  1.00  0.00     0.173 A 
ATOM     91  C   UNL A   1      45.999  33.961  27.968  1.00  0.00     0.173 A 
ATOM     92  F   UNL A   1      46.865  32.185  31.023  1.00  0.00    -0.203 F 
ATOM     93  C   UNL A   1      46.743  34.496  30.588  1.00  0.00     0.198 A 
ATOM     94  C   UNL A   1      46.140  35.277  28.400  1.00  0.00     0.198 A 
ATOM     95  F   UNL A   1      45.635  33.736  26.697  1.00  0.00    -0.203 F 
ATOM     96  F   UNL A   1      47.068  34.752  31.863  1.00  0.00    -0.200 F 
ATOM     97  C   UNL A   1      46.504  35.544  29.711  1.00  0.00     0.200 A 
ATOM     98  F   UNL A   1      45.923  36.288  27.546  1.00  0.00    -0.200 F 
ATOM     99  F   UNL A   1      46.618  36.811  30.132  1.00  0.00    -0.200 F 
ENDBRANCH  66  89
ENDBRANCH  40  41
ENDBRANCH  33  35
ENDBRANCH  32  33
ENDBRANCH  31  32
ENDBRANCH  30  31
ENDBRANCH  29  30
ENDBRANCH   1  29
TORSDOF 17
ENDMDL
