MODEL 1
REMARK VINA RESULT:     -12.0      0.000      0.000
REMARK SMILES [NH3+][C@]1(C(=O)OCCOCCOC(=O)c2ccc(-c3c4nc(c(-c5c(F)c(F)c(F)c(F)c5F)c5ccc([nH]5)c(-c5c(F)c(F)c(F)c(F)c5F)c5nc(c(-c6c(F)c(F)c(F)c(F)c6F)c6ccc3[nH]6)C=C5)C=C4)cc2)CCC[C@@H](Oc2ccc3c(c2)CCC3)C1
REMARK SMILES IDX 8 1 7 2 6 3 5 4 3 5 4 6 2 7 77 8 91 9 78 10 80 11 79 12 1 13
REMARK SMILES IDX 81 17 82 18 83 19 87 20 84 21 86 22 85 23 88 24 90 25 89 26
REMARK SMILES IDX 9 27 10 28 11 29 12 30 13 31 14 32 15 33 76 34 16 35 75 36
REMARK SMILES IDX 17 37 18 38 19 39 69 40 20 41 74 42 68 43 70 44 21 45 73 46
REMARK SMILES IDX 67 47 66 48 22 50 54 51 34 52 53 53 35 54 38 55 52 56 71 57
REMARK SMILES IDX 36 58 37 59 51 61 72 62 39 63 23 64 24 65 32 66 25 67 26 68
REMARK SMILES IDX 30 69 33 70 27 71 28 72 31 73 29 74 55 75 56 76 64 77 57 78
REMARK SMILES IDX 58 79 62 80 65 81 59 82 60 83 63 84 61 85 40 86 41 87 49 88
REMARK SMILES IDX 42 89 43 90 47 91 50 92 44 93 45 94 48 95 46 96
REMARK H PARENT 1 14 1 15 1 16 70 49 38 60
REMARK Flexibility Score: inf
ROOT
ATOM      1  O   UNL A   1      30.833  29.560  24.540  1.00  0.00    -0.374 OA
ENDROOT
BRANCH   1   2
ATOM      2  C   UNL A   1      31.171  28.871  23.318  1.00  0.00     0.202 C 
BRANCH   2   3
ATOM      3  C   UNL A   1      30.290  27.684  22.852  1.00  0.00     0.261 C 
BRANCH   3   4
ATOM      4  O   UNL A   1      30.125  26.746  23.947  1.00  0.00    -0.459 OA
BRANCH   4   5
ATOM      5  C   UNL A   1      30.737  25.512  23.949  1.00  0.00     0.368 C 
ATOM      6  O   UNL A   1      31.032  24.896  22.934  1.00  0.00    -0.245 OA
BRANCH   5   7
ATOM      7  C   UNL A   1      31.095  25.068  25.475  1.00  0.00     0.196 C 
ATOM      8  C   UNL A   1      30.740  23.573  25.832  1.00  0.00     0.081 C 
ATOM      9  C   UNL A   1      32.582  25.420  25.800  1.00  0.00     0.126 C 
ATOM     10  C   UNL A   1      31.766  22.672  26.571  1.00  0.00     0.011 C 
ATOM     11  C   UNL A   1      33.588  24.255  25.975  1.00  0.00     0.180 C 
ATOM     12  C   UNL A   1      33.054  23.323  27.035  1.00  0.00     0.046 C 
BRANCH   7  13
ATOM     13  N   UNL A   1      30.165  25.875  26.311  1.00  0.00    -0.343 N 
ATOM     14  H   UNL A   1      30.194  25.539  27.274  1.00  0.00     0.345 HD
ATOM     15  H   UNL A   1      29.216  25.784  25.948  1.00  0.00     0.345 HD
ATOM     16  H   UNL A   1      30.446  26.855  26.284  1.00  0.00     0.345 HD
ENDBRANCH   7  13
BRANCH  11  17
ATOM     17  O   UNL A   1      34.242  23.543  24.898  1.00  0.00    -0.490 OA
BRANCH  17  18
ATOM     18  C   UNL A   1      35.548  23.134  24.874  1.00  0.00     0.120 A 
ATOM     19  C   UNL A   1      35.873  21.819  24.534  1.00  0.00     0.047 A 
ATOM     20  C   UNL A   1      36.538  23.871  25.486  1.00  0.00     0.050 A 
ATOM     21  C   UNL A   1      37.145  21.280  24.853  1.00  0.00     0.008 A 
ATOM     22  C   UNL A   1      37.789  23.389  25.783  1.00  0.00    -0.041 A 
ATOM     23  C   UNL A   1      38.078  22.068  25.519  1.00  0.00    -0.045 A 
ATOM     24  C   UNL A   1      38.904  24.087  26.493  1.00  0.00     0.036 C 
ATOM     25  C   UNL A   1      39.408  21.730  26.127  1.00  0.00     0.036 C 
ATOM     26  C   UNL A   1      39.573  22.881  27.146  1.00  0.00     0.010 C 
ENDBRANCH  17  18
ENDBRANCH  11  17
ENDBRANCH   5   7
ENDBRANCH   4   5
ENDBRANCH   3   4
ENDBRANCH   2   3
ENDBRANCH   1   2
BRANCH   1  27
ATOM     27  C   UNL A   1      31.886  29.672  25.502  1.00  0.00     0.202 C 
BRANCH  27  28
ATOM     28  C   UNL A   1      31.923  30.845  26.501  1.00  0.00     0.261 C 
BRANCH  28  29
ATOM     29  O   UNL A   1      32.967  30.682  27.448  1.00  0.00    -0.460 OA
BRANCH  29  30
ATOM     30  C   UNL A   1      33.653  31.834  27.624  1.00  0.00     0.338 C 
ATOM     31  O   UNL A   1      33.220  32.958  27.737  1.00  0.00    -0.246 OA
BRANCH  30  32
ATOM     32  C   UNL A   1      35.017  31.447  27.992  1.00  0.00     0.060 A 
ATOM     33  C   UNL A   1      35.245  30.072  28.107  1.00  0.00     0.016 A 
ATOM     34  C   UNL A   1      36.046  32.382  28.136  1.00  0.00     0.016 A 
ATOM     35  C   UNL A   1      36.500  29.624  28.464  1.00  0.00     0.010 A 
ATOM     36  C   UNL A   1      37.309  31.932  28.501  1.00  0.00     0.010 A 
ATOM     37  C   UNL A   1      37.509  30.560  28.725  1.00  0.00    -0.014 A 
BRANCH  37  38
ATOM     38  C   UNL A   1      38.665  30.092  29.500  1.00  0.00     0.031 A 
ATOM     39  C   UNL A   1      38.775  30.565  30.920  1.00  0.00     0.074 A 
ATOM     40  C   UNL A   1      39.501  29.182  28.981  1.00  0.00     0.049 A 
ATOM     41  N   UNL A   1      39.664  30.267  31.827  1.00  0.00    -0.248 NA
ATOM     42  C   UNL A   1      37.730  31.496  31.385  1.00  0.00     0.031 C 
ATOM     43  C   UNL A   1      39.403  28.621  27.634  1.00  0.00     0.029 A 
ATOM     44  N   UNL A   1      40.585  28.560  29.533  1.00  0.00    -0.354 N 
ATOM     45  C   UNL A   1      39.287  30.973  32.962  1.00  0.00     0.074 A 
ATOM     46  C   UNL A   1      38.111  31.739  32.628  1.00  0.00     0.031 C 
ATOM     47  C   UNL A   1      40.397  27.734  27.462  1.00  0.00     0.029 A 
ATOM     48  C   UNL A   1      41.214  27.700  28.672  1.00  0.00     0.049 A 
ATOM     49  H   UNL A   1      40.882  28.714  30.458  1.00  0.00     0.167 HD
ATOM     50  C   UNL A   1      39.878  30.969  34.177  1.00  0.00     0.037 A 
ATOM     51  C   UNL A   1      42.345  26.993  28.849  1.00  0.00     0.037 A 
ATOM     52  C   UNL A   1      41.050  30.193  34.477  1.00  0.00     0.049 A 
ATOM     53  C   UNL A   1      43.034  27.077  30.186  1.00  0.00     0.074 A 
ATOM     54  C   UNL A   1      41.740  30.099  35.669  1.00  0.00     0.029 A 
ATOM     55  N   UNL A   1      41.707  29.383  33.561  1.00  0.00    -0.354 N 
ATOM     56  N   UNL A   1      42.675  27.738  31.262  1.00  0.00    -0.248 NA
ATOM     57  C   UNL A   1      44.282  26.322  30.334  1.00  0.00     0.031 C 
ATOM     58  C   UNL A   1      42.858  29.286  35.454  1.00  0.00     0.029 A 
ATOM     59  C   UNL A   1      42.823  28.816  34.149  1.00  0.00     0.049 A 
ATOM     60  H   UNL A   1      41.422  29.233  32.631  1.00  0.00     0.167 HD
ATOM     61  C   UNL A   1      43.641  27.464  32.221  1.00  0.00     0.074 A 
ATOM     62  C   UNL A   1      44.587  26.556  31.602  1.00  0.00     0.031 C 
ATOM     63  C   UNL A   1      43.745  27.921  33.495  1.00  0.00     0.037 A 
BRANCH  50  64
ATOM     64  C   UNL A   1      39.300  31.860  35.237  1.00  0.00     0.064 A 
ATOM     65  C   UNL A   1      38.457  31.373  36.247  1.00  0.00     0.173 A 
ATOM     66  C   UNL A   1      39.614  33.228  35.251  1.00  0.00     0.173 A 
ATOM     67  F   UNL A   1      38.103  30.078  36.267  1.00  0.00    -0.203 F 
ATOM     68  C   UNL A   1      37.935  32.224  37.218  1.00  0.00     0.198 A 
ATOM     69  C   UNL A   1      39.116  34.069  36.241  1.00  0.00     0.198 A 
ATOM     70  F   UNL A   1      40.409  33.748  34.304  1.00  0.00    -0.203 F 
ATOM     71  F   UNL A   1      37.092  31.746  38.145  1.00  0.00    -0.200 F 
ATOM     72  C   UNL A   1      38.272  33.569  37.220  1.00  0.00     0.200 A 
ATOM     73  F   UNL A   1      39.452  35.367  36.245  1.00  0.00    -0.200 F 
ATOM     74  F   UNL A   1      37.778  34.386  38.161  1.00  0.00    -0.200 F 
ENDBRANCH  50  64
BRANCH  51  75
ATOM     75  C   UNL A   1      42.899  26.189  27.731  1.00  0.00     0.064 A 
ATOM     76  C   UNL A   1      42.643  24.816  27.618  1.00  0.00     0.173 A 
ATOM     77  C   UNL A   1      43.705  26.783  26.746  1.00  0.00     0.173 A 
ATOM     78  F   UNL A   1      41.894  24.196  28.542  1.00  0.00    -0.203 F 
ATOM     79  C   UNL A   1      43.188  24.065  26.577  1.00  0.00     0.198 A 
ATOM     80  C   UNL A   1      44.222  26.039  25.689  1.00  0.00     0.198 A 
ATOM     81  F   UNL A   1      43.981  28.094  26.805  1.00  0.00    -0.203 F 
ATOM     82  F   UNL A   1      42.967  22.745  26.521  1.00  0.00    -0.200 F 
ATOM     83  C   UNL A   1      43.970  24.678  25.609  1.00  0.00     0.200 A 
ATOM     84  F   UNL A   1      44.963  26.641  24.748  1.00  0.00    -0.200 F 
ATOM     85  F   UNL A   1      44.489  23.956  24.608  1.00  0.00    -0.200 F 
ENDBRANCH  51  75
BRANCH  63  86
ATOM     86  C   UNL A   1      44.913  27.429  34.299  1.00  0.00     0.064 A 
ATOM     87  C   UNL A   1      44.846  26.239  35.038  1.00  0.00     0.173 A 
ATOM     88  C   UNL A   1      46.126  28.134  34.292  1.00  0.00     0.173 A 
ATOM     89  F   UNL A   1      43.704  25.536  35.086  1.00  0.00    -0.203 F 
ATOM     90  C   UNL A   1      45.941  25.792  35.770  1.00  0.00     0.198 A 
ATOM     91  C   UNL A   1      47.230  27.664  34.993  1.00  0.00     0.198 A 
ATOM     92  F   UNL A   1      46.244  29.271  33.590  1.00  0.00    -0.203 F 
ATOM     93  F   UNL A   1      45.838  24.684  36.516  1.00  0.00    -0.200 F 
ATOM     94  C   UNL A   1      47.135  26.499  35.739  1.00  0.00     0.200 A 
ATOM     95  F   UNL A   1      48.388  28.336  34.946  1.00  0.00    -0.200 F 
ATOM     96  F   UNL A   1      48.192  26.060  36.437  1.00  0.00    -0.200 F 
ENDBRANCH  63  86
ENDBRANCH  37  38
ENDBRANCH  30  32
ENDBRANCH  29  30
ENDBRANCH  28  29
ENDBRANCH  27  28
ENDBRANCH   1  27
TORSDOF 17
ENDMDL
MODEL 2
REMARK VINA RESULT:     -11.9      1.572      3.719
REMARK SMILES [NH3+][C@]1(C(=O)OCCOCCOC(=O)c2ccc(-c3c4nc(c(-c5c(F)c(F)c(F)c(F)c5F)c5ccc([nH]5)c(-c5c(F)c(F)c(F)c(F)c5F)c5nc(c(-c6c(F)c(F)c(F)c(F)c6F)c6ccc3[nH]6)C=C5)C=C4)cc2)CCC[C@@H](Oc2ccc3c(c2)CCC3)C1
REMARK SMILES IDX 8 1 7 2 6 3 5 4 3 5 4 6 2 7 77 8 91 9 78 10 80 11 79 12 1 13
REMARK SMILES IDX 81 17 82 18 83 19 87 20 84 21 86 22 85 23 88 24 90 25 89 26
REMARK SMILES IDX 9 27 10 28 11 29 12 30 13 31 14 32 15 33 76 34 16 35 75 36
REMARK SMILES IDX 17 37 18 38 19 39 69 40 20 41 74 42 68 43 70 44 21 45 73 46
REMARK SMILES IDX 67 47 66 48 22 50 54 51 34 52 53 53 35 54 38 55 52 56 71 57
REMARK SMILES IDX 36 58 37 59 51 61 72 62 39 63 23 64 24 65 32 66 25 67 26 68
REMARK SMILES IDX 30 69 33 70 27 71 28 72 31 73 29 74 55 75 56 76 64 77 57 78
REMARK SMILES IDX 58 79 62 80 65 81 59 82 60 83 63 84 61 85 40 86 41 87 49 88
REMARK SMILES IDX 42 89 43 90 47 91 50 92 44 93 45 94 48 95 46 96
REMARK H PARENT 1 14 1 15 1 16 70 49 38 60
REMARK Flexibility Score: inf
ROOT
ATOM      1  O   UNL A   1      32.763  29.445  25.960  1.00  0.00    -0.374 OA
ENDROOT
BRANCH   1   2
ATOM      2  C   UNL A   1      32.238  28.182  25.499  1.00  0.00     0.202 C 
BRANCH   2   3
ATOM      3  C   UNL A   1      31.562  27.230  26.518  1.00  0.00     0.261 C 
BRANCH   3   4
ATOM      4  O   UNL A   1      32.342  26.012  26.632  1.00  0.00    -0.459 OA
BRANCH   4   5
ATOM      5  C   UNL A   1      31.795  24.771  26.395  1.00  0.00     0.368 C 
ATOM      6  O   UNL A   1      30.683  24.432  26.774  1.00  0.00    -0.245 OA
BRANCH   5   7
ATOM      7  C   UNL A   1      32.796  23.888  25.459  1.00  0.00     0.196 C 
ATOM      8  C   UNL A   1      32.163  22.569  24.869  1.00  0.00     0.081 C 
ATOM      9  C   UNL A   1      33.428  24.792  24.352  1.00  0.00     0.126 C 
ATOM     10  C   UNL A   1      32.339  22.211  23.368  1.00  0.00     0.011 C 
ATOM     11  C   UNL A   1      32.994  24.560  22.883  1.00  0.00     0.180 C 
ATOM     12  C   UNL A   1      33.236  23.110  22.541  1.00  0.00     0.046 C 
BRANCH   7  13
ATOM     13  N   UNL A   1      33.838  23.403  26.405  1.00  0.00    -0.343 N 
ATOM     14  H   UNL A   1      33.569  23.645  27.359  1.00  0.00     0.345 HD
ATOM     15  H   UNL A   1      34.731  23.843  26.182  1.00  0.00     0.345 HD
ATOM     16  H   UNL A   1      33.928  22.391  26.323  1.00  0.00     0.345 HD
ENDBRANCH   7  13
BRANCH  11  17
ATOM     17  O   UNL A   1      31.785  25.072  22.274  1.00  0.00    -0.490 OA
BRANCH  17  18
ATOM     18  C   UNL A   1      30.965  26.037  22.793  1.00  0.00     0.120 A 
ATOM     19  C   UNL A   1      29.862  25.685  23.573  1.00  0.00     0.047 A 
ATOM     20  C   UNL A   1      30.990  27.328  22.313  1.00  0.00     0.050 A 
ATOM     21  C   UNL A   1      28.813  26.611  23.805  1.00  0.00     0.008 A 
ATOM     22  C   UNL A   1      30.005  28.257  22.543  1.00  0.00    -0.041 A 
ATOM     23  C   UNL A   1      28.880  27.882  23.245  1.00  0.00    -0.045 A 
ATOM     24  C   UNL A   1      29.913  29.655  22.020  1.00  0.00     0.036 C 
ATOM     25  C   UNL A   1      27.871  28.989  23.173  1.00  0.00     0.036 C 
ATOM     26  C   UNL A   1      28.395  29.796  21.963  1.00  0.00     0.010 C 
ENDBRANCH  17  18
ENDBRANCH  11  17
ENDBRANCH   5   7
ENDBRANCH   4   5
ENDBRANCH   3   4
ENDBRANCH   2   3
ENDBRANCH   1   2
BRANCH   1  27
ATOM     27  C   UNL A   1      31.880  30.565  25.841  1.00  0.00     0.202 C 
BRANCH  27  28
ATOM     28  C   UNL A   1      31.940  31.730  26.849  1.00  0.00     0.261 C 
BRANCH  28  29
ATOM     29  O   UNL A   1      32.997  31.551  27.780  1.00  0.00    -0.460 OA
BRANCH  29  30
ATOM     30  C   UNL A   1      33.801  32.638  27.824  1.00  0.00     0.338 C 
ATOM     31  O   UNL A   1      33.485  33.806  27.858  1.00  0.00    -0.246 OA
BRANCH  30  32
ATOM     32  C   UNL A   1      35.138  32.146  28.162  1.00  0.00     0.060 A 
ATOM     33  C   UNL A   1      35.281  30.755  28.193  1.00  0.00     0.016 A 
ATOM     34  C   UNL A   1      36.223  33.005  28.359  1.00  0.00     0.016 A 
ATOM     35  C   UNL A   1      36.506  30.209  28.517  1.00  0.00     0.010 A 
ATOM     36  C   UNL A   1      37.456  32.456  28.692  1.00  0.00     0.010 A 
ATOM     37  C   UNL A   1      37.570  31.064  28.831  1.00  0.00    -0.014 A 
BRANCH  37  38
ATOM     38  C   UNL A   1      38.696  30.480  29.572  1.00  0.00     0.031 A 
ATOM     39  C   UNL A   1      38.854  30.883  31.008  1.00  0.00     0.074 A 
ATOM     40  C   UNL A   1      39.456  29.532  29.005  1.00  0.00     0.049 A 
ATOM     41  N   UNL A   1      39.726  30.482  31.891  1.00  0.00    -0.248 NA
ATOM     42  C   UNL A   1      37.885  31.869  31.524  1.00  0.00     0.031 C 
ATOM     43  C   UNL A   1      39.304  29.038  27.637  1.00  0.00     0.029 A 
ATOM     44  N   UNL A   1      40.496  28.809  29.518  1.00  0.00    -0.354 N 
ATOM     45  C   UNL A   1      39.414  31.166  33.058  1.00  0.00     0.074 A 
ATOM     46  C   UNL A   1      38.294  32.030  32.771  1.00  0.00     0.031 C 
ATOM     47  C   UNL A   1      40.228  28.087  27.416  1.00  0.00     0.029 A 
ATOM     48  C   UNL A   1      41.051  27.942  28.614  1.00  0.00     0.049 A 
ATOM     49  H   UNL A   1      40.812  28.901  30.445  1.00  0.00     0.167 HD
ATOM     50  C   UNL A   1      40.013  31.066  34.266  1.00  0.00     0.037 A 
ATOM     51  C   UNL A   1      42.127  27.146  28.748  1.00  0.00     0.037 A 
ATOM     52  C   UNL A   1      41.127  30.194  34.519  1.00  0.00     0.049 A 
ATOM     53  C   UNL A   1      42.833  27.123  30.078  1.00  0.00     0.074 A 
ATOM     54  C   UNL A   1      41.819  29.999  35.697  1.00  0.00     0.029 A 
ATOM     55  N   UNL A   1      41.714  29.376  33.562  1.00  0.00    -0.354 N 
ATOM     56  N   UNL A   1      42.535  27.762  31.185  1.00  0.00    -0.248 NA
ATOM     57  C   UNL A   1      44.023  26.271  30.180  1.00  0.00     0.031 C 
ATOM     58  C   UNL A   1      42.871  29.114  35.435  1.00  0.00     0.029 A 
ATOM     59  C   UNL A   1      42.789  28.704  34.113  1.00  0.00     0.049 A 
ATOM     60  H   UNL A   1      41.409  29.287  32.630  1.00  0.00     0.167 HD
ATOM     61  C   UNL A   1      43.486  27.378  32.120  1.00  0.00     0.074 A 
ATOM     62  C   UNL A   1      44.356  26.429  31.453  1.00  0.00     0.031 C 
ATOM     63  C   UNL A   1      43.636  27.771  33.411  1.00  0.00     0.037 A 
BRANCH  50  64
ATOM     64  C   UNL A   1      39.514  31.952  35.368  1.00  0.00     0.064 A 
ATOM     65  C   UNL A   1      38.554  31.523  36.297  1.00  0.00     0.173 A 
ATOM     66  C   UNL A   1      40.022  33.254  35.507  1.00  0.00     0.173 A 
ATOM     67  F   UNL A   1      38.016  30.298  36.196  1.00  0.00    -0.203 F 
ATOM     68  C   UNL A   1      38.108  32.368  37.311  1.00  0.00     0.198 A 
ATOM     69  C   UNL A   1      39.598  34.084  36.540  1.00  0.00     0.198 A 
ATOM     70  F   UNL A   1      40.934  33.718  34.641  1.00  0.00    -0.203 F 
ATOM     71  F   UNL A   1      37.156  31.954  38.158  1.00  0.00    -0.200 F 
ATOM     72  C   UNL A   1      38.637  33.644  37.437  1.00  0.00     0.200 A 
ATOM     73  F   UNL A   1      40.117  35.313  36.665  1.00  0.00    -0.200 F 
ATOM     74  F   UNL A   1      38.216  34.453  38.419  1.00  0.00    -0.200 F 
ENDBRANCH  50  64
BRANCH  51  75
ATOM     75  C   UNL A   1      42.610  26.350  27.591  1.00  0.00     0.064 A 
ATOM     76  C   UNL A   1      43.625  26.823  26.749  1.00  0.00     0.173 A 
ATOM     77  C   UNL A   1      42.059  25.091  27.302  1.00  0.00     0.173 A 
ATOM     78  F   UNL A   1      44.173  28.027  26.971  1.00  0.00    -0.203 F 
ATOM     79  C   UNL A   1      44.054  26.079  25.651  1.00  0.00     0.198 A 
ATOM     80  C   UNL A   1      42.512  24.334  26.225  1.00  0.00     0.198 A 
ATOM     81  F   UNL A   1      41.086  24.589  28.077  1.00  0.00    -0.203 F 
ATOM     82  F   UNL A   1      44.993  26.577  24.834  1.00  0.00    -0.200 F 
ATOM     83  C   UNL A   1      43.504  24.832  25.394  1.00  0.00     0.200 A 
ATOM     84  F   UNL A   1      41.987  23.123  25.992  1.00  0.00    -0.200 F 
ATOM     85  F   UNL A   1      43.921  24.116  24.342  1.00  0.00    -0.200 F 
ENDBRANCH  51  75
BRANCH  63  86
ATOM     86  C   UNL A   1      44.771  27.160  34.179  1.00  0.00     0.064 A 
ATOM     87  C   UNL A   1      44.617  25.959  34.886  1.00  0.00     0.173 A 
ATOM     88  C   UNL A   1      46.038  27.762  34.170  1.00  0.00     0.173 A 
ATOM     89  F   UNL A   1      43.420  25.353  34.935  1.00  0.00    -0.203 F 
ATOM     90  C   UNL A   1      45.682  25.401  35.585  1.00  0.00     0.198 A 
ATOM     91  C   UNL A   1      47.111  27.181  34.837  1.00  0.00     0.198 A 
ATOM     92  F   UNL A   1      46.240  28.906  33.498  1.00  0.00    -0.203 F 
ATOM     93  F   UNL A   1      45.498  24.284  36.302  1.00  0.00    -0.200 F 
ATOM     94  C   UNL A   1      46.930  26.007  35.552  1.00  0.00     0.200 A 
ATOM     95  F   UNL A   1      48.320  27.757  34.788  1.00  0.00    -0.200 F 
ATOM     96  F   UNL A   1      47.957  25.462  36.218  1.00  0.00    -0.200 F 
ENDBRANCH  63  86
ENDBRANCH  37  38
ENDBRANCH  30  32
ENDBRANCH  29  30
ENDBRANCH  28  29
ENDBRANCH  27  28
ENDBRANCH   1  27
TORSDOF 17
ENDMDL
MODEL 3
REMARK VINA RESULT:     -11.9      3.928      9.726
REMARK SMILES [NH3+][C@]1(C(=O)OCCOCCOC(=O)c2ccc(-c3c4nc(c(-c5c(F)c(F)c(F)c(F)c5F)c5ccc([nH]5)c(-c5c(F)c(F)c(F)c(F)c5F)c5nc(c(-c6c(F)c(F)c(F)c(F)c6F)c6ccc3[nH]6)C=C5)C=C4)cc2)CCC[C@@H](Oc2ccc3c(c2)CCC3)C1
REMARK SMILES IDX 8 1 7 2 6 3 5 4 3 5 4 6 2 7 77 8 91 9 78 10 80 11 79 12 1 13
REMARK SMILES IDX 81 17 82 18 83 19 87 20 84 21 86 22 85 23 88 24 90 25 89 26
REMARK SMILES IDX 9 27 10 28 11 29 12 30 13 31 14 32 15 33 76 34 16 35 75 36
REMARK SMILES IDX 17 37 18 38 19 39 69 40 20 41 74 42 68 43 70 44 21 45 73 46
REMARK SMILES IDX 67 47 66 48 22 50 54 51 34 52 53 53 35 54 38 55 52 56 71 57
REMARK SMILES IDX 36 58 37 59 51 61 72 62 39 63 23 64 24 65 32 66 25 67 26 68
REMARK SMILES IDX 30 69 33 70 27 71 28 72 31 73 29 74 55 75 56 76 64 77 57 78
REMARK SMILES IDX 58 79 62 80 65 81 59 82 60 83 63 84 61 85 40 86 41 87 49 88
REMARK SMILES IDX 42 89 43 90 47 91 50 92 44 93 45 94 48 95 46 96
REMARK H PARENT 1 14 1 15 1 16 70 49 38 60
REMARK Flexibility Score: inf
ROOT
ATOM      1  O   UNL A   1      35.426  21.164  25.851  1.00  0.00    -0.374 OA
ENDROOT
BRANCH   1   2
ATOM      2  C   UNL A   1      34.054  20.814  25.573  1.00  0.00     0.202 C 
BRANCH   2   3
ATOM      3  C   UNL A   1      33.384  21.356  24.285  1.00  0.00     0.261 C 
BRANCH   3   4
ATOM      4  O   UNL A   1      33.444  22.805  24.282  1.00  0.00    -0.459 OA
BRANCH   4   5
ATOM      5  C   UNL A   1      33.890  23.514  23.189  1.00  0.00     0.368 C 
ATOM      6  O   UNL A   1      34.986  23.351  22.672  1.00  0.00    -0.245 OA
BRANCH   5   7
ATOM      7  C   UNL A   1      32.713  24.501  22.645  1.00  0.00     0.196 C 
ATOM      8  C   UNL A   1      31.258  24.129  23.127  1.00  0.00     0.081 C 
ATOM      9  C   UNL A   1      33.079  25.989  22.948  1.00  0.00     0.126 C 
ATOM     10  C   UNL A   1      30.306  25.223  23.684  1.00  0.00     0.011 C 
ATOM     11  C   UNL A   1      32.245  26.744  24.014  1.00  0.00     0.180 C 
ATOM     12  C   UNL A   1      30.790  26.659  23.625  1.00  0.00     0.046 C 
BRANCH   7  13
ATOM     13  N   UNL A   1      32.686  24.252  21.177  1.00  0.00    -0.343 N 
ATOM     14  H   UNL A   1      33.633  24.068  20.846  1.00  0.00     0.345 HD
ATOM     15  H   UNL A   1      32.312  25.072  20.700  1.00  0.00     0.345 HD
ATOM     16  H   UNL A   1      32.095  23.446  20.979  1.00  0.00     0.345 HD
ENDBRANCH   7  13
BRANCH  11  17
ATOM     17  O   UNL A   1      32.436  26.654  25.446  1.00  0.00    -0.490 OA
BRANCH  17  18
ATOM     18  C   UNL A   1      32.663  27.700  26.300  1.00  0.00     0.120 A 
ATOM     19  C   UNL A   1      31.697  28.692  26.478  1.00  0.00     0.047 A 
ATOM     20  C   UNL A   1      33.932  27.993  26.747  1.00  0.00     0.050 A 
ATOM     21  C   UNL A   1      32.040  29.944  27.048  1.00  0.00     0.008 A 
ATOM     22  C   UNL A   1      34.291  29.183  27.329  1.00  0.00    -0.041 A 
ATOM     23  C   UNL A   1      33.355  30.189  27.429  1.00  0.00    -0.045 A 
ATOM     24  C   UNL A   1      35.646  29.616  27.791  1.00  0.00     0.036 C 
ATOM     25  C   UNL A   1      34.037  31.444  27.890  1.00  0.00     0.036 C 
ATOM     26  C   UNL A   1      35.513  31.119  27.568  1.00  0.00     0.010 C 
ENDBRANCH  17  18
ENDBRANCH  11  17
ENDBRANCH   5   7
ENDBRANCH   4   5
ENDBRANCH   3   4
ENDBRANCH   2   3
ENDBRANCH   1   2
BRANCH   1  27
ATOM     27  C   UNL A   1      36.353  20.943  24.784  1.00  0.00     0.202 C 
BRANCH  27  28
ATOM     28  C   UNL A   1      37.824  20.591  25.075  1.00  0.00     0.261 C 
BRANCH  28  29
ATOM     29  O   UNL A   1      38.553  21.733  25.498  1.00  0.00    -0.460 OA
BRANCH  29  30
ATOM     30  C   UNL A   1      39.614  21.383  26.262  1.00  0.00     0.338 C 
ATOM     31  O   UNL A   1      40.266  20.364  26.222  1.00  0.00    -0.246 OA
BRANCH  30  32
ATOM     32  C   UNL A   1      40.054  22.605  26.939  1.00  0.00     0.060 A 
ATOM     33  C   UNL A   1      39.314  23.755  26.649  1.00  0.00     0.016 A 
ATOM     34  C   UNL A   1      41.090  22.608  27.877  1.00  0.00     0.016 A 
ATOM     35  C   UNL A   1      39.672  24.953  27.234  1.00  0.00     0.010 A 
ATOM     36  C   UNL A   1      41.455  23.815  28.462  1.00  0.00     0.010 A 
ATOM     37  C   UNL A   1      40.783  24.989  28.086  1.00  0.00    -0.014 A 
BRANCH  37  38
ATOM     38  C   UNL A   1      41.386  26.305  28.338  1.00  0.00     0.031 A 
ATOM     39  C   UNL A   1      42.752  26.552  27.771  1.00  0.00     0.074 A 
ATOM     40  C   UNL A   1      40.672  27.268  28.938  1.00  0.00     0.049 A 
ATOM     41  N   UNL A   1      43.482  27.632  27.807  1.00  0.00    -0.248 NA
ATOM     42  C   UNL A   1      43.379  25.426  27.053  1.00  0.00     0.031 C 
ATOM     43  C   UNL A   1      39.308  27.116  29.442  1.00  0.00     0.029 A 
ATOM     44  N   UNL A   1      40.996  28.567  29.210  1.00  0.00    -0.354 N 
ATOM     45  C   UNL A   1      44.648  27.316  27.123  1.00  0.00     0.074 A 
ATOM     46  C   UNL A   1      44.550  25.937  26.708  1.00  0.00     0.031 C 
ATOM     47  C   UNL A   1      38.910  28.285  29.970  1.00  0.00     0.029 A 
ATOM     48  C   UNL A   1      40.005  29.246  29.871  1.00  0.00     0.049 A 
ATOM     49  H   UNL A   1      41.854  28.975  28.954  1.00  0.00     0.167 HD
ATOM     50  C   UNL A   1      45.704  28.119  26.864  1.00  0.00     0.037 A 
ATOM     51  C   UNL A   1      40.013  30.498  30.362  1.00  0.00     0.037 A 
ATOM     52  C   UNL A   1      45.771  29.489  27.292  1.00  0.00     0.049 A 
ATOM     53  C   UNL A   1      41.240  31.343  30.138  1.00  0.00     0.074 A 
ATOM     54  C   UNL A   1      46.781  30.408  27.089  1.00  0.00     0.029 A 
ATOM     55  N   UNL A   1      44.779  30.130  28.023  1.00  0.00    -0.354 N 
ATOM     56  N   UNL A   1      42.340  31.048  29.485  1.00  0.00    -0.248 NA
ATOM     57  C   UNL A   1      41.228  32.691  30.716  1.00  0.00     0.031 C 
ATOM     58  C   UNL A   1      46.431  31.586  27.758  1.00  0.00     0.029 A 
ATOM     59  C   UNL A   1      45.171  31.423  28.316  1.00  0.00     0.049 A 
ATOM     60  H   UNL A   1      43.923  29.725  28.291  1.00  0.00     0.167 HD
ATOM     61  C   UNL A   1      43.144  32.177  29.558  1.00  0.00     0.074 A 
ATOM     62  C   UNL A   1      42.391  33.170  30.297  1.00  0.00     0.031 C 
ATOM     63  C   UNL A   1      44.392  32.380  29.064  1.00  0.00     0.037 A 
BRANCH  50  64
ATOM     64  C   UNL A   1      46.873  27.523  26.138  1.00  0.00     0.064 A 
ATOM     65  C   UNL A   1      47.016  27.613  24.746  1.00  0.00     0.173 A 
ATOM     66  C   UNL A   1      47.882  26.861  26.857  1.00  0.00     0.173 A 
ATOM     67  F   UNL A   1      46.070  28.212  24.006  1.00  0.00    -0.203 F 
ATOM     68  C   UNL A   1      48.114  27.049  24.099  1.00  0.00     0.198 A 
ATOM     69  C   UNL A   1      48.992  26.327  26.211  1.00  0.00     0.198 A 
ATOM     70  F   UNL A   1      47.791  26.738  28.190  1.00  0.00    -0.203 F 
ATOM     71  F   UNL A   1      48.205  27.106  22.762  1.00  0.00    -0.200 F 
ATOM     72  C   UNL A   1      49.104  26.414  24.833  1.00  0.00     0.200 A 
ATOM     73  F   UNL A   1      49.953  25.722  26.925  1.00  0.00    -0.200 F 
ATOM     74  F   UNL A   1      50.166  25.881  24.211  1.00  0.00    -0.200 F 
ENDBRANCH  50  64
BRANCH  51  75
ATOM     75  C   UNL A   1      38.847  30.999  31.135  1.00  0.00     0.064 A 
ATOM     76  C   UNL A   1      38.724  30.763  32.510  1.00  0.00     0.173 A 
ATOM     77  C   UNL A   1      37.825  31.727  30.505  1.00  0.00     0.173 A 
ATOM     78  F   UNL A   1      39.665  30.058  33.156  1.00  0.00    -0.203 F 
ATOM     79  C   UNL A   1      37.614  31.217  33.221  1.00  0.00     0.198 A 
ATOM     80  C   UNL A   1      36.734  32.209  31.222  1.00  0.00     0.198 A 
ATOM     81  F   UNL A   1      37.894  31.983  29.190  1.00  0.00    -0.203 F 
ATOM     82  F   UNL A   1      37.498  30.936  34.526  1.00  0.00    -0.200 F 
ATOM     83  C   UNL A   1      36.624  31.946  32.579  1.00  0.00     0.200 A 
ATOM     84  F   UNL A   1      35.789  32.926  30.599  1.00  0.00    -0.200 F 
ATOM     85  F   UNL A   1      35.560  32.385  33.265  1.00  0.00    -0.200 F 
ENDBRANCH  51  75
BRANCH  63  86
ATOM     86  C   UNL A   1      45.004  33.730  29.299  1.00  0.00     0.064 A 
ATOM     87  C   UNL A   1      45.864  33.967  30.382  1.00  0.00     0.173 A 
ATOM     88  C   UNL A   1      44.760  34.784  28.407  1.00  0.00     0.173 A 
ATOM     89  F   UNL A   1      46.117  32.994  31.270  1.00  0.00    -0.203 F 
ATOM     90  C   UNL A   1      46.430  35.222  30.580  1.00  0.00     0.198 A 
ATOM     91  C   UNL A   1      45.359  36.026  28.586  1.00  0.00     0.198 A 
ATOM     92  F   UNL A   1      43.955  34.604  27.349  1.00  0.00    -0.203 F 
ATOM     93  F   UNL A   1      47.202  35.444  31.653  1.00  0.00    -0.200 F 
ATOM     94  C   UNL A   1      46.186  36.247  29.677  1.00  0.00     0.200 A 
ATOM     95  F   UNL A   1      45.138  37.009  27.703  1.00  0.00    -0.200 F 
ATOM     96  F   UNL A   1      46.741  37.452  29.865  1.00  0.00    -0.200 F 
ENDBRANCH  63  86
ENDBRANCH  37  38
ENDBRANCH  30  32
ENDBRANCH  29  30
ENDBRANCH  28  29
ENDBRANCH  27  28
ENDBRANCH   1  27
TORSDOF 17
ENDMDL
