MODEL 1
REMARK VINA RESULT:     -12.1      0.000      0.000
REMARK SMILES O=C(OCCOCCOC(=O)[C@@H]([C@H](O)c1ccccc1)n1nnc2ccccc21)c1ccc(-c2c3nc(c(-c4c(F)c(F)c(F)c(F)c4F)c4ccc([nH]4)c(-c4c(F)c(F)c(F)c(F)c4F)c4nc(c(-c5c(F)c(F)c(F)c(F)c5F)c5ccc2[nH]5)C=C4)C=C3)cc1
REMARK SMILES IDX 6 1 5 2 4 3 3 4 2 5 1 6 30 7 31 8 92 9 32 10 91 11 33 12
REMARK SMILES IDX 34 13 35 14 85 15 36 16 90 17 84 18 86 19 37 20 89 21 83 22
REMARK SMILES IDX 82 23 38 25 70 26 50 27 69 28 51 29 54 30 68 31 87 32 52 33
REMARK SMILES IDX 53 34 67 36 88 37 55 38 39 39 40 40 48 41 41 42 42 43 46 44
REMARK SMILES IDX 49 45 43 46 44 47 47 48 45 49 71 50 72 51 80 52 73 53 74 54
REMARK SMILES IDX 78 55 81 56 75 57 76 58 79 59 77 60 56 61 57 62 65 63 58 64
REMARK SMILES IDX 59 65 63 66 66 67 60 68 61 69 64 70 62 71 7 72 8 73 9 74
REMARK SMILES IDX 10 75 11 76 12 77 21 78 22 79 29 80 23 81 24 82 28 83 25 84
REMARK SMILES IDX 27 85 26 86 13 87 15 88 16 89 20 90 17 91 19 92 18 93 14 94
REMARK H PARENT 86 24 54 35 14 95
REMARK Flexibility Score: inf
ROOT
ATOM      1  O   UNL A   1      40.504  21.637  26.325  1.00  0.00    -0.374 OA
ENDROOT
BRANCH   1   2
ATOM      2  C   UNL A   1      40.723  20.242  26.163  1.00  0.00     0.202 C 
BRANCH   2   3
ATOM      3  C   UNL A   1      42.163  19.761  26.356  1.00  0.00     0.261 C 
BRANCH   3   4
ATOM      4  O   UNL A   1      42.955  19.841  25.159  1.00  0.00    -0.460 OA
BRANCH   4   5
ATOM      5  C   UNL A   1      43.928  20.704  24.814  1.00  0.00     0.338 C 
ATOM      6  O   UNL A   1      44.724  20.384  23.933  1.00  0.00    -0.246 OA
BRANCH   5   7
ATOM      7  C   UNL A   1      44.085  22.071  25.346  1.00  0.00     0.060 A 
ATOM      8  C   UNL A   1      44.906  22.444  26.401  1.00  0.00     0.016 A 
ATOM      9  C   UNL A   1      43.220  23.031  24.774  1.00  0.00     0.016 A 
ATOM     10  C   UNL A   1      44.716  23.665  27.014  1.00  0.00     0.010 A 
ATOM     11  C   UNL A   1      43.061  24.271  25.349  1.00  0.00     0.010 A 
ATOM     12  C   UNL A   1      43.751  24.538  26.520  1.00  0.00    -0.014 A 
BRANCH  12  13
ATOM     13  C   UNL A   1      43.573  25.782  27.238  1.00  0.00     0.031 A 
ATOM     14  C   UNL A   1      44.601  26.806  26.934  1.00  0.00     0.074 A 
ATOM     15  C   UNL A   1      42.523  25.983  28.051  1.00  0.00     0.049 A 
ATOM     16  N   UNL A   1      45.400  27.406  27.754  1.00  0.00    -0.248 NA
ATOM     17  C   UNL A   1      44.861  27.099  25.515  1.00  0.00     0.031 C 
ATOM     18  C   UNL A   1      41.334  25.140  28.207  1.00  0.00     0.029 A 
ATOM     19  N   UNL A   1      42.242  27.065  28.824  1.00  0.00    -0.354 N 
ATOM     20  C   UNL A   1      46.145  28.286  26.974  1.00  0.00     0.074 A 
ATOM     21  C   UNL A   1      45.886  27.943  25.603  1.00  0.00     0.031 C 
ATOM     22  C   UNL A   1      40.368  25.858  28.820  1.00  0.00     0.029 A 
ATOM     23  C   UNL A   1      40.911  27.153  29.194  1.00  0.00     0.049 A 
ATOM     24  H   UNL A   1      42.921  27.724  29.094  1.00  0.00     0.167 HD
ATOM     25  C   UNL A   1      46.701  29.399  27.525  1.00  0.00     0.037 A 
ATOM     26  C   UNL A   1      40.286  28.255  29.670  1.00  0.00     0.037 A 
ATOM     27  C   UNL A   1      46.921  29.221  28.940  1.00  0.00     0.049 A 
ATOM     28  C   UNL A   1      41.330  29.191  30.161  1.00  0.00     0.074 A 
ATOM     29  C   UNL A   1      47.636  28.319  29.705  1.00  0.00     0.029 A 
ATOM     30  N   UNL A   1      46.085  29.862  29.821  1.00  0.00    -0.354 N 
ATOM     31  N   UNL A   1      42.063  28.984  31.221  1.00  0.00    -0.248 NA
ATOM     32  C   UNL A   1      41.856  30.179  29.229  1.00  0.00     0.031 C 
ATOM     33  C   UNL A   1      46.863  28.136  30.890  1.00  0.00     0.029 A 
ATOM     34  C   UNL A   1      45.745  28.962  30.795  1.00  0.00     0.049 A 
ATOM     35  H   UNL A   1      45.785  30.798  29.763  1.00  0.00     0.167 HD
ATOM     36  C   UNL A   1      43.316  29.471  30.884  1.00  0.00     0.074 A 
ATOM     37  C   UNL A   1      43.100  30.294  29.700  1.00  0.00     0.031 C 
ATOM     38  C   UNL A   1      44.448  28.930  31.424  1.00  0.00     0.037 A 
BRANCH  25  39
ATOM     39  C   UNL A   1      46.598  30.769  26.879  1.00  0.00     0.064 A 
ATOM     40  C   UNL A   1      47.751  31.580  26.850  1.00  0.00     0.173 A 
ATOM     41  C   UNL A   1      45.382  31.443  26.625  1.00  0.00     0.173 A 
ATOM     42  F   UNL A   1      48.966  31.047  27.046  1.00  0.00    -0.203 F 
ATOM     43  C   UNL A   1      47.673  32.971  26.743  1.00  0.00     0.198 A 
ATOM     44  C   UNL A   1      45.314  32.826  26.471  1.00  0.00     0.198 A 
ATOM     45  F   UNL A   1      44.197  30.826  26.611  1.00  0.00    -0.203 F 
ATOM     46  F   UNL A   1      48.780  33.709  26.892  1.00  0.00    -0.200 F 
ATOM     47  C   UNL A   1      46.451  33.595  26.579  1.00  0.00     0.200 A 
ATOM     48  F   UNL A   1      44.118  33.410  26.311  1.00  0.00    -0.200 F 
ATOM     49  F   UNL A   1      46.362  34.930  26.571  1.00  0.00    -0.200 F 
ENDBRANCH  25  39
BRANCH  26  50
ATOM     50  C   UNL A   1      38.882  28.665  29.439  1.00  0.00     0.064 A 
ATOM     51  C   UNL A   1      38.002  28.857  30.515  1.00  0.00     0.173 A 
ATOM     52  C   UNL A   1      38.436  29.115  28.179  1.00  0.00     0.173 A 
ATOM     53  F   UNL A   1      38.367  28.507  31.755  1.00  0.00    -0.203 F 
ATOM     54  C   UNL A   1      36.759  29.475  30.343  1.00  0.00     0.198 A 
ATOM     55  C   UNL A   1      37.189  29.715  28.006  1.00  0.00     0.198 A 
ATOM     56  F   UNL A   1      39.235  29.071  27.105  1.00  0.00    -0.203 F 
ATOM     57  F   UNL A   1      35.972  29.699  31.404  1.00  0.00    -0.200 F 
ATOM     58  C   UNL A   1      36.356  29.907  29.090  1.00  0.00     0.200 A 
ATOM     59  F   UNL A   1      36.829  30.158  26.793  1.00  0.00    -0.200 F 
ATOM     60  F   UNL A   1      35.188  30.544  28.933  1.00  0.00    -0.200 F 
ENDBRANCH  26  50
BRANCH  38  61
ATOM     61  C   UNL A   1      44.288  28.027  32.611  1.00  0.00     0.064 A 
ATOM     62  C   UNL A   1      44.051  26.646  32.520  1.00  0.00     0.173 A 
ATOM     63  C   UNL A   1      44.501  28.564  33.888  1.00  0.00     0.173 A 
ATOM     64  F   UNL A   1      43.953  26.041  31.329  1.00  0.00    -0.203 F 
ATOM     65  C   UNL A   1      43.969  25.851  33.661  1.00  0.00     0.198 A 
ATOM     66  C   UNL A   1      44.456  27.762  35.024  1.00  0.00     0.198 A 
ATOM     67  F   UNL A   1      44.793  29.867  34.031  1.00  0.00    -0.203 F 
ATOM     68  F   UNL A   1      43.720  24.538  33.549  1.00  0.00    -0.200 F 
ATOM     69  C   UNL A   1      44.176  26.409  34.912  1.00  0.00     0.200 A 
ATOM     70  F   UNL A   1      44.710  28.295  36.227  1.00  0.00    -0.200 F 
ATOM     71  F   UNL A   1      44.132  25.639  36.007  1.00  0.00    -0.200 F 
ENDBRANCH  38  61
ENDBRANCH  12  13
ENDBRANCH   5   7
ENDBRANCH   4   5
ENDBRANCH   3   4
ENDBRANCH   2   3
ENDBRANCH   1   2
BRANCH   1  72
ATOM     72  C   UNL A   1      39.154  22.108  26.434  1.00  0.00     0.202 C 
BRANCH  72  73
ATOM     73  C   UNL A   1      38.184  21.748  25.301  1.00  0.00     0.261 C 
BRANCH  73  74
ATOM     74  O   UNL A   1      36.851  21.587  25.847  1.00  0.00    -0.462 OA
BRANCH  74  75
ATOM     75  C   UNL A   1      35.929  22.541  25.555  1.00  0.00     0.334 C 
ATOM     76  O   UNL A   1      36.036  23.701  25.897  1.00  0.00    -0.250 OA
BRANCH  75  77
ATOM     77  C   UNL A   1      34.811  22.049  24.653  1.00  0.00     0.252 C 
BRANCH  77  78
ATOM     78  N   UNL A   1      34.184  23.089  23.865  1.00  0.00    -0.227 N 
ATOM     79  N   UNL A   1      34.630  23.250  22.599  1.00  0.00    -0.065 NA
ATOM     80  C   UNL A   1      33.076  23.864  24.105  1.00  0.00     0.090 A 
ATOM     81  N   UNL A   1      33.763  24.014  21.957  1.00  0.00    -0.130 NA
ATOM     82  C   UNL A   1      32.790  24.380  22.842  1.00  0.00     0.113 A 
ATOM     83  C   UNL A   1      32.264  24.132  25.214  1.00  0.00     0.030 A 
ATOM     84  C   UNL A   1      31.631  25.140  22.638  1.00  0.00     0.032 A 
ATOM     85  C   UNL A   1      31.102  24.885  24.992  1.00  0.00     0.002 A 
ATOM     86  C   UNL A   1      30.784  25.375  23.724  1.00  0.00     0.002 A 
ENDBRANCH  77  78
BRANCH  77  87
ATOM     87  C   UNL A   1      33.853  20.976  25.232  1.00  0.00     0.180 C 
BRANCH  87  88
ATOM     88  C   UNL A   1      33.715  19.655  24.497  1.00  0.00    -0.017 A 
ATOM     89  C   UNL A   1      32.612  19.413  23.670  1.00  0.00     0.006 A 
ATOM     90  C   UNL A   1      34.644  18.615  24.640  1.00  0.00     0.006 A 
ATOM     91  C   UNL A   1      32.446  18.208  22.985  1.00  0.00     0.000 A 
ATOM     92  C   UNL A   1      34.478  17.398  23.966  1.00  0.00     0.000 A 
ATOM     93  C   UNL A   1      33.383  17.198  23.131  1.00  0.00     0.000 A 
ENDBRANCH  87  88
BRANCH  87  94
ATOM     94  O   UNL A   1      34.165  20.701  26.616  1.00  0.00    -0.386 OA
ATOM     95  H   UNL A   1      35.022  20.250  26.670  1.00  0.00     0.211 HD
ENDBRANCH  87  94
ENDBRANCH  77  87
ENDBRANCH  75  77
ENDBRANCH  74  75
ENDBRANCH  73  74
ENDBRANCH  72  73
ENDBRANCH   1  72
TORSDOF 18
ENDMDL
MODEL 2
REMARK VINA RESULT:     -12.1      1.961      6.483
REMARK SMILES O=C(OCCOCCOC(=O)[C@@H]([C@H](O)c1ccccc1)n1nnc2ccccc21)c1ccc(-c2c3nc(c(-c4c(F)c(F)c(F)c(F)c4F)c4ccc([nH]4)c(-c4c(F)c(F)c(F)c(F)c4F)c4nc(c(-c5c(F)c(F)c(F)c(F)c5F)c5ccc2[nH]5)C=C4)C=C3)cc1
REMARK SMILES IDX 6 1 5 2 4 3 3 4 2 5 1 6 30 7 31 8 92 9 32 10 91 11 33 12
REMARK SMILES IDX 34 13 35 14 85 15 36 16 90 17 84 18 86 19 37 20 89 21 83 22
REMARK SMILES IDX 82 23 38 25 70 26 50 27 69 28 51 29 54 30 68 31 87 32 52 33
REMARK SMILES IDX 53 34 67 36 88 37 55 38 39 39 40 40 48 41 41 42 42 43 46 44
REMARK SMILES IDX 49 45 43 46 44 47 47 48 45 49 71 50 72 51 80 52 73 53 74 54
REMARK SMILES IDX 78 55 81 56 75 57 76 58 79 59 77 60 56 61 57 62 65 63 58 64
REMARK SMILES IDX 59 65 63 66 66 67 60 68 61 69 64 70 62 71 7 72 8 73 9 74
REMARK SMILES IDX 10 75 11 76 12 77 21 78 22 79 29 80 23 81 24 82 28 83 25 84
REMARK SMILES IDX 27 85 26 86 13 87 15 88 16 89 20 90 17 91 19 92 18 93 14 94
REMARK H PARENT 86 24 54 35 14 95
REMARK Flexibility Score: inf
ROOT
ATOM      1  O   UNL A   1      38.267  21.852  25.785  1.00  0.00    -0.374 OA
ENDROOT
BRANCH   1   2
ATOM      2  C   UNL A   1      37.901  20.691  25.049  1.00  0.00     0.202 C 
BRANCH   2   3
ATOM      3  C   UNL A   1      38.595  19.390  25.459  1.00  0.00     0.261 C 
BRANCH   3   4
ATOM      4  O   UNL A   1      39.972  19.328  25.053  1.00  0.00    -0.460 OA
BRANCH   4   5
ATOM      5  C   UNL A   1      41.099  19.320  25.789  1.00  0.00     0.338 C 
ATOM      6  O   UNL A   1      41.858  18.356  25.708  1.00  0.00    -0.246 OA
BRANCH   5   7
ATOM      7  C   UNL A   1      41.566  20.426  26.645  1.00  0.00     0.060 A 
ATOM      8  C   UNL A   1      41.200  20.644  27.966  1.00  0.00     0.016 A 
ATOM      9  C   UNL A   1      42.367  21.386  25.986  1.00  0.00     0.016 A 
ATOM     10  C   UNL A   1      41.432  21.874  28.544  1.00  0.00     0.010 A 
ATOM     11  C   UNL A   1      42.647  22.599  26.574  1.00  0.00     0.010 A 
ATOM     12  C   UNL A   1      42.097  22.860  27.818  1.00  0.00    -0.014 A 
BRANCH  12  13
ATOM     13  C   UNL A   1      42.266  24.141  28.469  1.00  0.00     0.031 A 
ATOM     14  C   UNL A   1      41.178  25.108  28.190  1.00  0.00     0.074 A 
ATOM     15  C   UNL A   1      43.294  24.380  29.299  1.00  0.00     0.049 A 
ATOM     16  N   UNL A   1      41.270  26.289  27.673  1.00  0.00    -0.248 NA
ATOM     17  C   UNL A   1      39.796  24.642  28.389  1.00  0.00     0.031 C 
ATOM     18  C   UNL A   1      44.259  23.415  29.835  1.00  0.00     0.029 A 
ATOM     19  N   UNL A   1      43.616  25.532  29.943  1.00  0.00    -0.354 N 
ATOM     20  C   UNL A   1      39.970  26.788  27.646  1.00  0.00     0.074 A 
ATOM     21  C   UNL A   1      39.099  25.686  27.945  1.00  0.00     0.031 C 
ATOM     22  C   UNL A   1      44.885  23.967  30.896  1.00  0.00     0.029 A 
ATOM     23  C   UNL A   1      44.448  25.346  31.034  1.00  0.00     0.049 A 
ATOM     24  H   UNL A   1      43.287  26.416  29.661  1.00  0.00     0.167 HD
ATOM     25  C   UNL A   1      39.744  28.130  27.646  1.00  0.00     0.037 A 
ATOM     26  C   UNL A   1      44.665  26.233  32.033  1.00  0.00     0.037 A 
ATOM     27  C   UNL A   1      40.873  28.845  27.105  1.00  0.00     0.049 A 
ATOM     28  C   UNL A   1      44.253  27.575  31.545  1.00  0.00     0.074 A 
ATOM     29  C   UNL A   1      41.551  28.822  25.899  1.00  0.00     0.029 A 
ATOM     30  N   UNL A   1      41.693  29.531  27.968  1.00  0.00    -0.354 N 
ATOM     31  N   UNL A   1      44.887  28.249  30.626  1.00  0.00    -0.248 NA
ATOM     32  C   UNL A   1      42.880  27.997  31.785  1.00  0.00     0.031 C 
ATOM     33  C   UNL A   1      42.916  29.068  26.230  1.00  0.00     0.029 A 
ATOM     34  C   UNL A   1      42.986  29.262  27.609  1.00  0.00     0.049 A 
ATOM     35  H   UNL A   1      41.403  30.109  28.709  1.00  0.00     0.167 HD
ATOM     36  C   UNL A   1      43.888  28.866  29.888  1.00  0.00     0.074 A 
ATOM     37  C   UNL A   1      42.690  28.770  30.713  1.00  0.00     0.031 C 
ATOM     38  C   UNL A   1      44.062  29.137  28.561  1.00  0.00     0.037 A 
BRANCH  25  39
ATOM     39  C   UNL A   1      38.720  28.785  28.556  1.00  0.00     0.064 A 
ATOM     40  C   UNL A   1      37.938  29.834  28.031  1.00  0.00     0.173 A 
ATOM     41  C   UNL A   1      38.722  28.683  29.966  1.00  0.00     0.173 A 
ATOM     42  F   UNL A   1      37.833  30.012  26.706  1.00  0.00    -0.203 F 
ATOM     43  C   UNL A   1      37.349  30.798  28.853  1.00  0.00     0.198 A 
ATOM     44  C   UNL A   1      38.093  29.620  30.782  1.00  0.00     0.198 A 
ATOM     45  F   UNL A   1      39.407  27.745  30.626  1.00  0.00    -0.203 F 
ATOM     46  F   UNL A   1      36.762  31.868  28.303  1.00  0.00    -0.200 F 
ATOM     47  C   UNL A   1      37.449  30.704  30.228  1.00  0.00     0.200 A 
ATOM     48  F   UNL A   1      38.201  29.508  32.114  1.00  0.00    -0.200 F 
ATOM     49  F   UNL A   1      36.968  31.673  31.016  1.00  0.00    -0.200 F 
ENDBRANCH  25  39
BRANCH  26  50
ATOM     50  C   UNL A   1      44.911  25.938  33.463  1.00  0.00     0.064 A 
ATOM     51  C   UNL A   1      45.950  26.572  34.161  1.00  0.00     0.173 A 
ATOM     52  C   UNL A   1      43.986  25.214  34.243  1.00  0.00     0.173 A 
ATOM     53  F   UNL A   1      46.843  27.324  33.504  1.00  0.00    -0.203 F 
ATOM     54  C   UNL A   1      46.048  26.499  35.554  1.00  0.00     0.198 A 
ATOM     55  C   UNL A   1      44.094  25.127  35.630  1.00  0.00     0.198 A 
ATOM     56  F   UNL A   1      42.901  24.654  33.689  1.00  0.00    -0.203 F 
ATOM     57  F   UNL A   1      47.017  27.170  36.192  1.00  0.00    -0.200 F 
ATOM     58  C   UNL A   1      45.118  25.780  36.287  1.00  0.00     0.200 A 
ATOM     59  F   UNL A   1      43.166  24.456  36.327  1.00  0.00    -0.200 F 
ATOM     60  F   UNL A   1      45.182  25.752  37.625  1.00  0.00    -0.200 F 
ENDBRANCH  26  50
BRANCH  38  61
ATOM     61  C   UNL A   1      45.454  29.045  28.009  1.00  0.00     0.064 A 
ATOM     62  C   UNL A   1      46.043  27.850  27.564  1.00  0.00     0.173 A 
ATOM     63  C   UNL A   1      46.173  30.233  27.816  1.00  0.00     0.173 A 
ATOM     64  F   UNL A   1      45.373  26.692  27.609  1.00  0.00    -0.203 F 
ATOM     65  C   UNL A   1      47.321  27.840  27.008  1.00  0.00     0.198 A 
ATOM     66  C   UNL A   1      47.432  30.225  27.225  1.00  0.00     0.198 A 
ATOM     67  F   UNL A   1      45.632  31.411  28.165  1.00  0.00    -0.203 F 
ATOM     68  F   UNL A   1      47.871  26.684  26.611  1.00  0.00    -0.200 F 
ATOM     69  C   UNL A   1      48.012  29.028  26.836  1.00  0.00     0.200 A 
ATOM     70  F   UNL A   1      48.075  31.381  27.011  1.00  0.00    -0.200 F 
ATOM     71  F   UNL A   1      49.226  29.023  26.268  1.00  0.00    -0.200 F 
ENDBRANCH  38  61
ENDBRANCH  12  13
ENDBRANCH   5   7
ENDBRANCH   4   5
ENDBRANCH   3   4
ENDBRANCH   2   3
ENDBRANCH   1   2
BRANCH   1  72
ATOM     72  C   UNL A   1      37.409  22.999  25.721  1.00  0.00     0.202 C 
BRANCH  72  73
ATOM     73  C   UNL A   1      36.486  23.126  24.502  1.00  0.00     0.261 C 
BRANCH  73  74
ATOM     74  O   UNL A   1      35.107  23.153  24.949  1.00  0.00    -0.462 OA
BRANCH  74  75
ATOM     75  C   UNL A   1      34.150  22.746  24.074  1.00  0.00     0.334 C 
ATOM     76  O   UNL A   1      34.249  22.872  22.870  1.00  0.00    -0.250 OA
BRANCH  75  77
ATOM     77  C   UNL A   1      32.999  22.006  24.732  1.00  0.00     0.252 C 
BRANCH  77  78
ATOM     78  N   UNL A   1      32.062  22.865  25.424  1.00  0.00    -0.227 N 
ATOM     79  N   UNL A   1      32.104  22.851  26.776  1.00  0.00    -0.065 NA
ATOM     80  C   UNL A   1      31.220  23.845  24.962  1.00  0.00     0.090 A 
ATOM     81  N   UNL A   1      31.409  23.887  27.215  1.00  0.00    -0.130 NA
ATOM     82  C   UNL A   1      30.882  24.527  26.130  1.00  0.00     0.113 A 
ATOM     83  C   UNL A   1      30.763  24.260  23.706  1.00  0.00     0.030 A 
ATOM     84  C   UNL A   1      30.116  25.698  26.064  1.00  0.00     0.032 A 
ATOM     85  C   UNL A   1      30.006  25.440  23.655  1.00  0.00     0.002 A 
ATOM     86  C   UNL A   1      29.694  26.154  24.813  1.00  0.00     0.002 A 
ENDBRANCH  77  78
BRANCH  77  87
ATOM     87  C   UNL A   1      33.329  20.665  25.437  1.00  0.00     0.180 C 
BRANCH  87  88
ATOM     88  C   UNL A   1      33.451  19.411  24.589  1.00  0.00    -0.017 A 
ATOM     89  C   UNL A   1      34.546  18.554  24.742  1.00  0.00     0.006 A 
ATOM     90  C   UNL A   1      32.514  19.078  23.602  1.00  0.00     0.006 A 
ATOM     91  C   UNL A   1      34.697  17.397  23.974  1.00  0.00     0.000 A 
ATOM     92  C   UNL A   1      32.664  17.926  22.820  1.00  0.00     0.000 A 
ATOM     93  C   UNL A   1      33.752  17.080  23.012  1.00  0.00     0.000 A 
ENDBRANCH  87  88
BRANCH  87  94
ATOM     94  O   UNL A   1      34.519  20.789  26.247  1.00  0.00    -0.386 OA
ATOM     95  H   UNL A   1      34.421  21.542  26.851  1.00  0.00     0.211 HD
ENDBRANCH  87  94
ENDBRANCH  77  87
ENDBRANCH  75  77
ENDBRANCH  74  75
ENDBRANCH  73  74
ENDBRANCH  72  73
ENDBRANCH   1  72
TORSDOF 18
ENDMDL
MODEL 3
REMARK VINA RESULT:     -11.8      1.987      2.882
REMARK SMILES O=C(OCCOCCOC(=O)[C@@H]([C@H](O)c1ccccc1)n1nnc2ccccc21)c1ccc(-c2c3nc(c(-c4c(F)c(F)c(F)c(F)c4F)c4ccc([nH]4)c(-c4c(F)c(F)c(F)c(F)c4F)c4nc(c(-c5c(F)c(F)c(F)c(F)c5F)c5ccc2[nH]5)C=C4)C=C3)cc1
REMARK SMILES IDX 6 1 5 2 4 3 3 4 2 5 1 6 30 7 31 8 92 9 32 10 91 11 33 12
REMARK SMILES IDX 34 13 35 14 85 15 36 16 90 17 84 18 86 19 37 20 89 21 83 22
REMARK SMILES IDX 82 23 38 25 70 26 50 27 69 28 51 29 54 30 68 31 87 32 52 33
REMARK SMILES IDX 53 34 67 36 88 37 55 38 39 39 40 40 48 41 41 42 42 43 46 44
REMARK SMILES IDX 49 45 43 46 44 47 47 48 45 49 71 50 72 51 80 52 73 53 74 54
REMARK SMILES IDX 78 55 81 56 75 57 76 58 79 59 77 60 56 61 57 62 65 63 58 64
REMARK SMILES IDX 59 65 63 66 66 67 60 68 61 69 64 70 62 71 7 72 8 73 9 74
REMARK SMILES IDX 10 75 11 76 12 77 21 78 22 79 29 80 23 81 24 82 28 83 25 84
REMARK SMILES IDX 27 85 26 86 13 87 15 88 16 89 20 90 17 91 19 92 18 93 14 94
REMARK H PARENT 86 24 54 35 14 95
REMARK Flexibility Score: inf
ROOT
ATOM      1  O   UNL A   1      38.041  21.016  25.784  1.00  0.00    -0.374 OA
ENDROOT
BRANCH   1   2
ATOM      2  C   UNL A   1      39.222  21.733  26.120  1.00  0.00     0.202 C 
BRANCH   2   3
ATOM      3  C   UNL A   1      40.452  20.884  26.449  1.00  0.00     0.261 C 
BRANCH   3   4
ATOM      4  O   UNL A   1      41.633  21.293  25.740  1.00  0.00    -0.460 OA
BRANCH   4   5
ATOM      5  C   UNL A   1      42.204  22.506  25.624  1.00  0.00     0.338 C 
ATOM      6  O   UNL A   1      43.079  22.675  24.777  1.00  0.00    -0.246 OA
BRANCH   5   7
ATOM      7  C   UNL A   1      41.813  23.710  26.382  1.00  0.00     0.060 A 
ATOM      8  C   UNL A   1      41.147  24.814  25.868  1.00  0.00     0.016 A 
ATOM      9  C   UNL A   1      42.277  23.744  27.716  1.00  0.00     0.016 A 
ATOM     10  C   UNL A   1      41.137  25.995  26.580  1.00  0.00     0.010 A 
ATOM     11  C   UNL A   1      42.226  24.906  28.453  1.00  0.00     0.010 A 
ATOM     12  C   UNL A   1      41.734  26.045  27.837  1.00  0.00    -0.014 A 
BRANCH  12  13
ATOM     13  C   UNL A   1      41.727  27.327  28.508  1.00  0.00     0.031 A 
ATOM     14  C   UNL A   1      42.902  28.176  28.198  1.00  0.00     0.074 A 
ATOM     15  C   UNL A   1      40.700  27.713  29.283  1.00  0.00     0.049 A 
ATOM     16  N   UNL A   1      43.763  28.681  29.020  1.00  0.00    -0.248 NA
ATOM     17  C   UNL A   1      43.236  28.373  26.779  1.00  0.00     0.031 C 
ATOM     18  C   UNL A   1      39.395  27.062  29.434  1.00  0.00     0.029 A 
ATOM     19  N   UNL A   1      40.566  28.852  30.010  1.00  0.00    -0.354 N 
ATOM     20  C   UNL A   1      44.649  29.411  28.232  1.00  0.00     0.074 A 
ATOM     21  C   UNL A   1      44.374  29.059  26.867  1.00  0.00     0.031 C 
ATOM     22  C   UNL A   1      38.533  27.937  29.994  1.00  0.00     0.029 A 
ATOM     23  C   UNL A   1      39.255  29.150  30.340  1.00  0.00     0.049 A 
ATOM     24  H   UNL A   1      41.329  29.413  30.277  1.00  0.00     0.167 HD
ATOM     25  C   UNL A   1      45.352  30.449  28.761  1.00  0.00     0.037 A 
ATOM     26  C   UNL A   1      38.790  30.351  30.760  1.00  0.00     0.037 A 
ATOM     27  C   UNL A   1      45.510  30.294  30.186  1.00  0.00     0.049 A 
ATOM     28  C   UNL A   1      39.950  31.139  31.249  1.00  0.00     0.074 A 
ATOM     29  C   UNL A   1      46.064  29.325  31.002  1.00  0.00     0.029 A 
ATOM     30  N   UNL A   1      44.759  31.085  31.021  1.00  0.00    -0.354 N 
ATOM     31  N   UNL A   1      40.619  30.865  32.335  1.00  0.00    -0.248 NA
ATOM     32  C   UNL A   1      40.639  32.002  30.299  1.00  0.00     0.031 C 
ATOM     33  C   UNL A   1      45.246  29.303  32.170  1.00  0.00     0.029 A 
ATOM     34  C   UNL A   1      44.266  30.282  32.015  1.00  0.00     0.049 A 
ATOM     35  H   UNL A   1      44.604  32.051  30.923  1.00  0.00     0.167 HD
ATOM     36  C   UNL A   1      41.939  31.148  32.018  1.00  0.00     0.074 A 
ATOM     37  C   UNL A   1      41.876  31.949  30.801  1.00  0.00     0.031 C 
ATOM     38  C   UNL A   1      42.964  30.466  32.608  1.00  0.00     0.037 A 
BRANCH  25  39
ATOM     39  C   UNL A   1      45.469  31.794  28.066  1.00  0.00     0.064 A 
ATOM     40  C   UNL A   1      44.290  32.405  27.595  1.00  0.00     0.173 A 
ATOM     41  C   UNL A   1      46.672  32.318  27.538  1.00  0.00     0.173 A 
ATOM     42  F   UNL A   1      43.090  32.014  28.048  1.00  0.00    -0.203 F 
ATOM     43  C   UNL A   1      44.308  33.343  26.559  1.00  0.00     0.198 A 
ATOM     44  C   UNL A   1      46.686  33.288  26.539  1.00  0.00     0.198 A 
ATOM     45  F   UNL A   1      47.878  31.857  27.879  1.00  0.00    -0.203 F 
ATOM     46  F   UNL A   1      43.153  33.766  26.031  1.00  0.00    -0.200 F 
ATOM     47  C   UNL A   1      45.505  33.764  26.014  1.00  0.00     0.200 A 
ATOM     48  F   UNL A   1      47.860  33.684  26.026  1.00  0.00    -0.200 F 
ATOM     49  F   UNL A   1      45.523  34.589  24.961  1.00  0.00    -0.200 F 
ENDBRANCH  25  39
BRANCH  26  50
ATOM     50  C   UNL A   1      37.468  30.955  30.476  1.00  0.00     0.064 A 
ATOM     51  C   UNL A   1      36.613  31.338  31.520  1.00  0.00     0.173 A 
ATOM     52  C   UNL A   1      37.115  31.396  29.184  1.00  0.00     0.173 A 
ATOM     53  F   UNL A   1      36.902  31.006  32.785  1.00  0.00    -0.203 F 
ATOM     54  C   UNL A   1      35.481  32.127  31.287  1.00  0.00     0.198 A 
ATOM     55  C   UNL A   1      35.976  32.167  28.950  1.00  0.00     0.198 A 
ATOM     56  F   UNL A   1      37.914  31.171  28.132  1.00  0.00    -0.203 F 
ATOM     57  F   UNL A   1      34.723  32.527  32.316  1.00  0.00    -0.200 F 
ATOM     58  C   UNL A   1      35.167  32.544  30.004  1.00  0.00     0.200 A 
ATOM     59  F   UNL A   1      35.706  32.591  27.707  1.00  0.00    -0.200 F 
ATOM     60  F   UNL A   1      34.112  33.341  29.787  1.00  0.00    -0.200 F 
ENDBRANCH  26  50
BRANCH  38  61
ATOM     61  C   UNL A   1      42.645  29.643  33.820  1.00  0.00     0.064 A 
ATOM     62  C   UNL A   1      42.093  28.352  33.767  1.00  0.00     0.173 A 
ATOM     63  C   UNL A   1      43.021  30.135  35.077  1.00  0.00     0.173 A 
ATOM     64  F   UNL A   1      41.815  27.768  32.595  1.00  0.00    -0.203 F 
ATOM     65  C   UNL A   1      41.872  27.614  34.929  1.00  0.00     0.198 A 
ATOM     66  C   UNL A   1      42.835  29.381  36.232  1.00  0.00     0.198 A 
ATOM     67  F   UNL A   1      43.610  31.337  35.180  1.00  0.00    -0.203 F 
ATOM     68  F   UNL A   1      41.323  26.393  34.855  1.00  0.00    -0.200 F 
ATOM     69  C   UNL A   1      42.246  28.129  36.160  1.00  0.00     0.200 A 
ATOM     70  F   UNL A   1      43.247  29.860  37.413  1.00  0.00    -0.200 F 
ATOM     71  F   UNL A   1      42.067  27.406  37.273  1.00  0.00    -0.200 F 
ENDBRANCH  38  61
ENDBRANCH  12  13
ENDBRANCH   5   7
ENDBRANCH   4   5
ENDBRANCH   3   4
ENDBRANCH   2   3
ENDBRANCH   1   2
BRANCH   1  72
ATOM     72  C   UNL A   1      37.210  21.524  24.731  1.00  0.00     0.202 C 
BRANCH  72  73
ATOM     73  C   UNL A   1      36.226  22.647  25.084  1.00  0.00     0.261 C 
BRANCH  73  74
ATOM     74  O   UNL A   1      34.920  22.073  25.343  1.00  0.00    -0.462 OA
BRANCH  74  75
ATOM     75  C   UNL A   1      33.954  22.253  24.405  1.00  0.00     0.334 C 
ATOM     76  O   UNL A   1      34.167  22.729  23.308  1.00  0.00    -0.250 OA
BRANCH  75  77
ATOM     77  C   UNL A   1      32.603  21.690  24.809  1.00  0.00     0.252 C 
BRANCH  77  78
ATOM     78  N   UNL A   1      31.735  22.645  25.465  1.00  0.00    -0.227 N 
ATOM     79  N   UNL A   1      31.674  22.589  26.814  1.00  0.00    -0.065 NA
ATOM     80  C   UNL A   1      31.062  23.739  24.980  1.00  0.00     0.090 A 
ATOM     81  N   UNL A   1      31.088  23.695  27.240  1.00  0.00    -0.130 NA
ATOM     82  C   UNL A   1      30.729  24.428  26.146  1.00  0.00     0.113 A 
ATOM     83  C   UNL A   1      30.756  24.243  23.710  1.00  0.00     0.030 A 
ATOM     84  C   UNL A   1      30.126  25.690  26.068  1.00  0.00     0.032 A 
ATOM     85  C   UNL A   1      30.163  25.512  23.650  1.00  0.00     0.002 A 
ATOM     86  C   UNL A   1      29.860  26.230  24.808  1.00  0.00     0.002 A 
ENDBRANCH  77  78
BRANCH  77  87
ATOM     87  C   UNL A   1      32.579  20.252  25.389  1.00  0.00     0.180 C 
BRANCH  87  88
ATOM     88  C   UNL A   1      32.955  19.096  24.478  1.00  0.00    -0.017 A 
ATOM     89  C   UNL A   1      33.921  18.164  24.875  1.00  0.00     0.006 A 
ATOM     90  C   UNL A   1      32.398  18.933  23.203  1.00  0.00     0.006 A 
ATOM     91  C   UNL A   1      34.300  17.095  24.060  1.00  0.00     0.000 A 
ATOM     92  C   UNL A   1      32.782  17.870  22.376  1.00  0.00     0.000 A 
ATOM     93  C   UNL A   1      33.727  16.944  22.808  1.00  0.00     0.000 A 
ENDBRANCH  87  88
BRANCH  87  94
ATOM     94  O   UNL A   1      33.377  20.169  26.590  1.00  0.00    -0.386 OA
ATOM     95  H   UNL A   1      34.181  19.656  26.410  1.00  0.00     0.211 HD
ENDBRANCH  87  94
ENDBRANCH  77  87
ENDBRANCH  75  77
ENDBRANCH  74  75
ENDBRANCH  73  74
ENDBRANCH  72  73
ENDBRANCH   1  72
TORSDOF 18
ENDMDL
