MODEL 1
REMARK VINA RESULT:     -13.4      0.000      0.000
REMARK SMILES NS(=O)(=O)c1ccc(-c2cc(Cl)cc3c2O[C@@H](C(F)(F)F)C(C(=O)OCCOCCOC(=O)c2ccc(-c4c5nc(c(-c6c(F)c(F)c(F)c(F)c6F)c6ccc([nH]6)c(-c6c(F)c(F)c(F)c(F)c6F)c6nc(c(-c7c(F)c(F)c(F)c(F)c7F)c7ccc4[nH]7)C=C6)C=C5)cc2)=C3)cc1
REMARK SMILES IDX 27 1 26 2 25 3 23 4 24 5 22 6 9 7 10 8 15 9 11 10 14 11
REMARK SMILES IDX 16 12 12 13 13 14 97 15 17 16 8 17 5 18 6 19 99 20 7 21
REMARK SMILES IDX 98 22 2 23 3 24 4 25 1 26 18 29 19 30 20 31 21 32 28 33
REMARK SMILES IDX 29 34 30 35 31 36 32 37 33 38 34 39 35 40 96 41 36 42 95 43
REMARK SMILES IDX 37 44 38 45 39 46 89 47 40 48 94 49 88 50 90 51 41 52 93 53
REMARK SMILES IDX 87 54 86 55 42 57 74 58 54 59 73 60 55 61 58 62 72 63 91 64
REMARK SMILES IDX 56 65 57 66 71 68 92 69 59 70 43 71 44 72 52 73 45 74 46 75
REMARK SMILES IDX 50 76 53 77 47 78 48 79 51 80 49 81 75 82 76 83 84 84 77 85
REMARK SMILES IDX 78 86 82 87 85 88 79 89 80 90 83 91 81 92 60 93 61 94 69 95
REMARK SMILES IDX 62 96 63 97 67 98 70 99 64 100 65 101 68 102 66 103
REMARK H PARENT 1 27 1 28 90 56 58 67
REMARK Flexibility Score: inf
ROOT
ATOM      1  C   UNL A   1      32.049  30.689  26.149  1.00  0.00     0.202 C 
ENDROOT
BRANCH   1   2
ATOM      2  C   UNL A   1      32.301  29.626  25.067  1.00  0.00     0.261 C 
BRANCH   2   3
ATOM      3  O   UNL A   1      32.990  28.474  25.568  1.00  0.00    -0.460 OA
BRANCH   3   4
ATOM      4  C   UNL A   1      32.425  27.283  25.290  1.00  0.00     0.338 C 
ATOM      5  O   UNL A   1      31.226  27.040  25.321  1.00  0.00    -0.246 OA
BRANCH   4   6
ATOM      6  C   UNL A   1      33.416  26.322  24.753  1.00  0.00     0.087 C 
ATOM      7  C   UNL A   1      32.121  22.405  24.249  1.00  0.00     0.026 A 
ATOM      8  C   UNL A   1      31.023  22.270  25.126  1.00  0.00     0.033 A 
ATOM      9  C   UNL A   1      32.797  23.639  24.330  1.00  0.00     0.135 A 
ATOM     10  C   UNL A   1      30.893  23.100  26.239  1.00  0.00     0.042 A 
ATOM     11  C   UNL A   1      32.835  24.313  25.560  1.00  0.00     0.019 A 
ATOM     12  O   UNL A   1      32.989  24.399  23.166  1.00  0.00    -0.475 OA
ATOM     13  Cl  UNL A   1      29.588  22.863  27.329  1.00  0.00    -0.084 Cl
ATOM     14  C   UNL A   1      31.864  24.052  26.518  1.00  0.00     0.032 A 
ATOM     15  C   UNL A   1      33.767  25.450  25.713  1.00  0.00     0.027 C 
ATOM     16  C   UNL A   1      33.484  25.792  23.334  1.00  0.00     0.316 C 
BRANCH   7  17
ATOM     17  C   UNL A   1      32.813  21.087  23.973  1.00  0.00    -0.015 A 
ATOM     18  C   UNL A   1      33.569  18.339  24.124  1.00  0.00     0.082 A 
ATOM     19  C   UNL A   1      32.567  18.749  23.243  1.00  0.00     0.022 A 
ATOM     20  C   UNL A   1      34.251  19.290  24.879  1.00  0.00     0.022 A 
ATOM     21  C   UNL A   1      32.210  20.107  23.156  1.00  0.00     0.010 A 
ATOM     22  C   UNL A   1      33.878  20.649  24.796  1.00  0.00     0.010 A 
BRANCH  18  23
ATOM     23  S   UNL A   1      33.865  16.597  24.293  1.00  0.00     0.238 S 
ATOM     24  O   UNL A   1      34.240  16.072  23.005  1.00  0.00    -0.207 OA
ATOM     25  O   UNL A   1      32.795  16.030  25.086  1.00  0.00    -0.207 OA
BRANCH  23  26
ATOM     26  N   UNL A   1      35.237  16.452  25.258  1.00  0.00    -0.225 NA
ATOM     27  H   UNL A   1      36.064  16.377  24.665  1.00  0.00     0.137 HD
ATOM     28  H   UNL A   1      35.158  15.617  25.837  1.00  0.00     0.137 HD
ENDBRANCH  23  26
ENDBRANCH  18  23
ENDBRANCH   7  17
BRANCH  16  29
ATOM     29  C   UNL A   1      33.056  26.793  22.237  1.00  0.00     0.430 C 
ATOM     30  F   UNL A   1      33.825  27.913  22.324  1.00  0.00    -0.167 F 
ATOM     31  F   UNL A   1      33.254  26.292  20.996  1.00  0.00    -0.167 F 
ATOM     32  F   UNL A   1      31.774  27.199  22.299  1.00  0.00    -0.167 F 
ENDBRANCH  16  29
ENDBRANCH   4   6
ENDBRANCH   3   4
ENDBRANCH   2   3
ENDBRANCH   1   2
BRANCH   1  33
ATOM     33  O   UNL A   1      32.858  30.665  27.317  1.00  0.00    -0.374 OA
BRANCH  33  34
ATOM     34  C   UNL A   1      33.492  31.880  27.719  1.00  0.00     0.202 C 
BRANCH  34  35
ATOM     35  C   UNL A   1      32.814  33.200  27.342  1.00  0.00     0.261 C 
BRANCH  35  36
ATOM     36  O   UNL A   1      32.281  33.906  28.474  1.00  0.00    -0.460 OA
BRANCH  36  37
ATOM     37  C   UNL A   1      33.014  34.973  28.877  1.00  0.00     0.338 C 
ATOM     38  O   UNL A   1      32.731  36.155  28.786  1.00  0.00    -0.246 OA
BRANCH  37  39
ATOM     39  C   UNL A   1      34.198  34.500  29.609  1.00  0.00     0.060 A 
ATOM     40  C   UNL A   1      35.454  34.641  29.004  1.00  0.00     0.016 A 
ATOM     41  C   UNL A   1      34.064  33.857  30.840  1.00  0.00     0.016 A 
ATOM     42  C   UNL A   1      36.587  34.133  29.634  1.00  0.00     0.010 A 
ATOM     43  C   UNL A   1      35.201  33.339  31.464  1.00  0.00     0.010 A 
ATOM     44  C   UNL A   1      36.465  33.463  30.858  1.00  0.00    -0.014 A 
BRANCH  44  45
ATOM     45  C   UNL A   1      37.648  32.835  31.487  1.00  0.00     0.031 A 
ATOM     46  C   UNL A   1      38.297  31.653  30.832  1.00  0.00     0.074 A 
ATOM     47  C   UNL A   1      38.109  33.302  32.660  1.00  0.00     0.049 A 
ATOM     48  N   UNL A   1      39.268  30.892  31.267  1.00  0.00    -0.248 NA
ATOM     49  C   UNL A   1      37.775  31.273  29.511  1.00  0.00     0.031 C 
ATOM     50  C   UNL A   1      37.569  34.457  33.373  1.00  0.00     0.029 A 
ATOM     51  N   UNL A   1      39.118  32.845  33.468  1.00  0.00    -0.354 N 
ATOM     52  C   UNL A   1      39.464  29.933  30.283  1.00  0.00     0.074 A 
ATOM     53  C   UNL A   1      38.498  30.196  29.237  1.00  0.00     0.031 C 
ATOM     54  C   UNL A   1      38.232  34.600  34.532  1.00  0.00     0.029 A 
ATOM     55  C   UNL A   1      39.211  33.523  34.657  1.00  0.00     0.049 A 
ATOM     56  H   UNL A   1      39.717  32.102  33.220  1.00  0.00     0.167 HD
ATOM     57  C   UNL A   1      40.370  28.924  30.261  1.00  0.00     0.037 A 
ATOM     58  C   UNL A   1      39.971  33.275  35.742  1.00  0.00     0.037 A 
ATOM     59  C   UNL A   1      41.323  28.674  31.310  1.00  0.00     0.049 A 
ATOM     60  C   UNL A   1      40.924  32.111  35.723  1.00  0.00     0.074 A 
ATOM     61  C   UNL A   1      42.325  27.721  31.356  1.00  0.00     0.029 A 
ATOM     62  N   UNL A   1      41.378  29.368  32.511  1.00  0.00    -0.354 N 
ATOM     63  N   UNL A   1      41.145  31.239  34.768  1.00  0.00    -0.248 NA
ATOM     64  C   UNL A   1      41.730  31.893  36.932  1.00  0.00     0.031 C 
ATOM     65  C   UNL A   1      42.939  27.793  32.612  1.00  0.00     0.029 A 
ATOM     66  C   UNL A   1      42.361  28.831  33.326  1.00  0.00     0.049 A 
ATOM     67  H   UNL A   1      40.801  30.131  32.749  1.00  0.00     0.167 HD
ATOM     68  C   UNL A   1      42.119  30.376  35.255  1.00  0.00     0.074 A 
ATOM     69  C   UNL A   1      42.462  30.844  36.582  1.00  0.00     0.031 C 
ATOM     70  C   UNL A   1      42.676  29.294  34.656  1.00  0.00     0.037 A 
BRANCH  57  71
ATOM     71  C   UNL A   1      40.339  27.991  29.084  1.00  0.00     0.064 A 
ATOM     72  C   UNL A   1      41.068  28.243  27.913  1.00  0.00     0.173 A 
ATOM     73  C   UNL A   1      39.577  26.813  29.141  1.00  0.00     0.173 A 
ATOM     74  F   UNL A   1      41.804  29.359  27.802  1.00  0.00    -0.203 F 
ATOM     75  C   UNL A   1      41.008  27.369  26.829  1.00  0.00     0.198 A 
ATOM     76  C   UNL A   1      39.544  25.926  28.068  1.00  0.00     0.198 A 
ATOM     77  F   UNL A   1      38.864  26.519  30.239  1.00  0.00    -0.203 F 
ATOM     78  F   UNL A   1      41.669  27.659  25.700  1.00  0.00    -0.200 F 
ATOM     79  C   UNL A   1      40.251  26.209  26.909  1.00  0.00     0.200 A 
ATOM     80  F   UNL A   1      38.824  24.800  28.153  1.00  0.00    -0.200 F 
ATOM     81  F   UNL A   1      40.196  25.370  25.866  1.00  0.00    -0.200 F 
ENDBRANCH  57  71
BRANCH  58  82
ATOM     82  C   UNL A   1      39.821  34.132  36.946  1.00  0.00     0.064 A 
ATOM     83  C   UNL A   1      38.995  33.751  38.011  1.00  0.00     0.173 A 
ATOM     84  C   UNL A   1      40.527  35.339  37.066  1.00  0.00     0.173 A 
ATOM     85  F   UNL A   1      38.281  32.619  37.932  1.00  0.00    -0.203 F 
ATOM     86  C   UNL A   1      38.878  34.547  39.149  1.00  0.00     0.198 A 
ATOM     87  C   UNL A   1      40.431  36.119  38.216  1.00  0.00     0.198 A 
ATOM     88  F   UNL A   1      41.331  35.749  36.073  1.00  0.00    -0.203 F 
ATOM     89  F   UNL A   1      38.057  34.175  40.141  1.00  0.00    -0.200 F 
ATOM     90  C   UNL A   1      39.603  35.724  39.256  1.00  0.00     0.200 A 
ATOM     91  F   UNL A   1      41.145  37.248  38.319  1.00  0.00    -0.200 F 
ATOM     92  F   UNL A   1      39.501  36.480  40.357  1.00  0.00    -0.200 F 
ENDBRANCH  58  82
BRANCH  70  93
ATOM     93  C   UNL A   1      43.711  28.535  35.434  1.00  0.00     0.064 A 
ATOM     94  C   UNL A   1      45.079  28.818  35.306  1.00  0.00     0.173 A 
ATOM     95  C   UNL A   1      43.331  27.546  36.355  1.00  0.00     0.173 A 
ATOM     96  F   UNL A   1      45.496  29.742  34.427  1.00  0.00    -0.203 F 
ATOM     97  C   UNL A   1      46.028  28.127  36.055  1.00  0.00     0.198 A 
ATOM     98  C   UNL A   1      44.280  26.880  37.126  1.00  0.00     0.198 A 
ATOM     99  F   UNL A   1      42.035  27.239  36.522  1.00  0.00    -0.203 F 
ATOM    100  F   UNL A   1      47.332  28.385  35.883  1.00  0.00    -0.200 F 
ATOM    101  C   UNL A   1      45.627  27.167  36.971  1.00  0.00     0.200 A 
ATOM    102  F   UNL A   1      43.889  25.963  38.022  1.00  0.00    -0.200 F 
ATOM    103  F   UNL A   1      46.541  26.512  37.700  1.00  0.00    -0.200 F 
ENDBRANCH  70  93
ENDBRANCH  44  45
ENDBRANCH  37  39
ENDBRANCH  36  37
ENDBRANCH  35  36
ENDBRANCH  34  35
ENDBRANCH  33  34
ENDBRANCH   1  33
TORSDOF 18
ENDMDL
MODEL 2
REMARK VINA RESULT:     -13.0      5.934     11.285
REMARK SMILES NS(=O)(=O)c1ccc(-c2cc(Cl)cc3c2O[C@@H](C(F)(F)F)C(C(=O)OCCOCCOC(=O)c2ccc(-c4c5nc(c(-c6c(F)c(F)c(F)c(F)c6F)c6ccc([nH]6)c(-c6c(F)c(F)c(F)c(F)c6F)c6nc(c(-c7c(F)c(F)c(F)c(F)c7F)c7ccc4[nH]7)C=C6)C=C5)cc2)=C3)cc1
REMARK SMILES IDX 27 1 26 2 25 3 23 4 24 5 22 6 9 7 10 8 15 9 11 10 14 11
REMARK SMILES IDX 16 12 12 13 13 14 97 15 17 16 8 17 5 18 6 19 99 20 7 21
REMARK SMILES IDX 98 22 2 23 3 24 4 25 1 26 18 29 19 30 20 31 21 32 28 33
REMARK SMILES IDX 29 34 30 35 31 36 32 37 33 38 34 39 35 40 96 41 36 42 95 43
REMARK SMILES IDX 37 44 38 45 39 46 89 47 40 48 94 49 88 50 90 51 41 52 93 53
REMARK SMILES IDX 87 54 86 55 42 57 74 58 54 59 73 60 55 61 58 62 72 63 91 64
REMARK SMILES IDX 56 65 57 66 71 68 92 69 59 70 43 71 44 72 52 73 45 74 46 75
REMARK SMILES IDX 50 76 53 77 47 78 48 79 51 80 49 81 75 82 76 83 84 84 77 85
REMARK SMILES IDX 78 86 82 87 85 88 79 89 80 90 83 91 81 92 60 93 61 94 69 95
REMARK SMILES IDX 62 96 63 97 67 98 70 99 64 100 65 101 68 102 66 103
REMARK H PARENT 1 27 1 28 90 56 58 67
REMARK Flexibility Score: inf
ROOT
ATOM      1  C   UNL A   1      36.505  22.553  25.182  1.00  0.00     0.202 C 
ENDROOT
BRANCH   1   2
ATOM      2  C   UNL A   1      35.335  22.174  26.105  1.00  0.00     0.261 C 
BRANCH   2   3
ATOM      3  O   UNL A   1      34.223  23.070  25.992  1.00  0.00    -0.460 OA
BRANCH   3   4
ATOM      4  C   UNL A   1      33.084  22.675  26.593  1.00  0.00     0.338 C 
ATOM      5  O   UNL A   1      32.999  22.217  27.724  1.00  0.00    -0.246 OA
BRANCH   4   6
ATOM      6  C   UNL A   1      31.893  23.031  25.789  1.00  0.00     0.087 C 
ATOM      7  C   UNL A   1      32.031  26.665  23.775  1.00  0.00     0.026 A 
ATOM      8  C   UNL A   1      32.988  27.431  24.475  1.00  0.00     0.033 A 
ATOM      9  C   UNL A   1      31.736  25.413  24.352  1.00  0.00     0.135 A 
ATOM     10  C   UNL A   1      33.284  27.157  25.810  1.00  0.00     0.042 A 
ATOM     11  C   UNL A   1      31.820  25.271  25.746  1.00  0.00     0.019 A 
ATOM     12  O   UNL A   1      31.842  24.251  23.573  1.00  0.00    -0.475 OA
ATOM     13  Cl  UNL A   1      34.396  28.153  26.656  1.00  0.00    -0.084 Cl
ATOM     14  C   UNL A   1      32.614  26.143  26.479  1.00  0.00     0.032 A 
ATOM     15  C   UNL A   1      31.248  24.058  26.367  1.00  0.00     0.027 C 
ATOM     16  C   UNL A   1      31.760  22.945  24.281  1.00  0.00     0.316 C 
BRANCH   7  17
ATOM     17  C   UNL A   1      31.006  27.521  23.061  1.00  0.00    -0.015 A 
ATOM     18  C   UNL A   1      29.178  29.631  22.467  1.00  0.00     0.082 A 
ATOM     19  C   UNL A   1      30.504  29.703  22.037  1.00  0.00     0.022 A 
ATOM     20  C   UNL A   1      28.731  28.489  23.127  1.00  0.00     0.022 A 
ATOM     21  C   UNL A   1      31.398  28.652  22.315  1.00  0.00     0.010 A 
ATOM     22  C   UNL A   1      29.637  27.445  23.413  1.00  0.00     0.010 A 
BRANCH  18  23
ATOM     23  S   UNL A   1      28.146  31.052  22.217  1.00  0.00     0.238 S 
ATOM     24  O   UNL A   1      27.274  31.187  23.356  1.00  0.00    -0.207 OA
ATOM     25  O   UNL A   1      27.653  31.023  20.856  1.00  0.00    -0.207 OA
BRANCH  23  26
ATOM     26  N   UNL A   1      29.172  32.386  22.272  1.00  0.00    -0.225 NA
ATOM     27  H   UNL A   1      29.183  32.768  23.218  1.00  0.00     0.137 HD
ATOM     28  H   UNL A   1      28.838  33.098  21.623  1.00  0.00     0.137 HD
ENDBRANCH  23  26
ENDBRANCH  18  23
ENDBRANCH   7  17
BRANCH  16  29
ATOM     29  C   UNL A   1      32.524  21.775  23.620  1.00  0.00     0.430 C 
ATOM     30  F   UNL A   1      33.760  22.201  23.239  1.00  0.00    -0.167 F 
ATOM     31  F   UNL A   1      32.724  20.754  24.485  1.00  0.00    -0.167 F 
ATOM     32  F   UNL A   1      31.941  21.255  22.524  1.00  0.00    -0.167 F 
ENDBRANCH  16  29
ENDBRANCH   4   6
ENDBRANCH   3   4
ENDBRANCH   2   3
ENDBRANCH   1   2
BRANCH   1  33
ATOM     33  O   UNL A   1      37.398  21.527  24.771  1.00  0.00    -0.374 OA
BRANCH  33  34
ATOM     34  C   UNL A   1      38.530  21.253  25.596  1.00  0.00     0.202 C 
BRANCH  34  35
ATOM     35  C   UNL A   1      39.220  19.895  25.438  1.00  0.00     0.261 C 
BRANCH  35  36
ATOM     36  O   UNL A   1      40.141  19.601  26.500  1.00  0.00    -0.460 OA
BRANCH  36  37
ATOM     37  C   UNL A   1      41.444  19.551  26.127  1.00  0.00     0.338 C 
ATOM     38  O   UNL A   1      42.019  18.658  25.530  1.00  0.00    -0.246 OA
BRANCH  37  39
ATOM     39  C   UNL A   1      42.083  20.841  26.421  1.00  0.00     0.060 A 
ATOM     40  C   UNL A   1      42.290  21.192  27.761  1.00  0.00     0.016 A 
ATOM     41  C   UNL A   1      42.405  21.728  25.392  1.00  0.00     0.016 A 
ATOM     42  C   UNL A   1      42.820  22.439  28.079  1.00  0.00     0.010 A 
ATOM     43  C   UNL A   1      42.926  22.983  25.714  1.00  0.00     0.010 A 
ATOM     44  C   UNL A   1      43.124  23.349  27.057  1.00  0.00    -0.014 A 
BRANCH  44  45
ATOM     45  C   UNL A   1      43.596  24.712  27.387  1.00  0.00     0.031 A 
ATOM     46  C   UNL A   1      42.626  25.725  27.918  1.00  0.00     0.074 A 
ATOM     47  C   UNL A   1      44.880  25.045  27.174  1.00  0.00     0.049 A 
ATOM     48  N   UNL A   1      42.806  26.997  28.165  1.00  0.00    -0.248 NA
ATOM     49  C   UNL A   1      41.267  25.240  28.200  1.00  0.00     0.031 C 
ATOM     50  C   UNL A   1      45.912  24.136  26.683  1.00  0.00     0.029 A 
ATOM     51  N   UNL A   1      45.526  26.247  27.316  1.00  0.00    -0.354 N 
ATOM     52  C   UNL A   1      41.581  27.469  28.616  1.00  0.00     0.074 A 
ATOM     53  C   UNL A   1      40.661  26.352  28.590  1.00  0.00     0.031 C 
ATOM     54  C   UNL A   1      47.058  24.820  26.533  1.00  0.00     0.029 A 
ATOM     55  C   UNL A   1      46.826  26.220  26.878  1.00  0.00     0.049 A 
ATOM     56  H   UNL A   1      45.099  27.050  27.696  1.00  0.00     0.167 HD
ATOM     57  C   UNL A   1      41.260  28.725  29.014  1.00  0.00     0.037 A 
ATOM     58  C   UNL A   1      47.714  27.222  26.731  1.00  0.00     0.037 A 
ATOM     59  C   UNL A   1      42.187  29.827  29.033  1.00  0.00     0.049 A 
ATOM     60  C   UNL A   1      47.317  28.621  27.117  1.00  0.00     0.074 A 
ATOM     61  C   UNL A   1      41.981  31.120  29.479  1.00  0.00     0.029 A 
ATOM     62  N   UNL A   1      43.492  29.770  28.564  1.00  0.00    -0.354 N 
ATOM     63  N   UNL A   1      46.175  29.054  27.595  1.00  0.00    -0.248 NA
ATOM     64  C   UNL A   1      48.328  29.671  26.940  1.00  0.00     0.031 C 
ATOM     65  C   UNL A   1      43.136  31.863  29.214  1.00  0.00     0.029 A 
ATOM     66  C   UNL A   1      44.086  31.018  28.660  1.00  0.00     0.049 A 
ATOM     67  H   UNL A   1      43.931  28.961  28.213  1.00  0.00     0.167 HD
ATOM     68  C   UNL A   1      46.331  30.421  27.784  1.00  0.00     0.074 A 
ATOM     69  C   UNL A   1      47.687  30.742  27.389  1.00  0.00     0.031 C 
ATOM     70  C   UNL A   1      45.431  31.327  28.242  1.00  0.00     0.037 A 
BRANCH  57  71
ATOM     71  C   UNL A   1      39.836  28.981  29.417  1.00  0.00     0.064 A 
ATOM     72  C   UNL A   1      39.397  28.831  30.741  1.00  0.00     0.173 A 
ATOM     73  C   UNL A   1      38.899  29.401  28.459  1.00  0.00     0.173 A 
ATOM     74  F   UNL A   1      40.249  28.422  31.693  1.00  0.00    -0.203 F 
ATOM     75  C   UNL A   1      38.066  29.058  31.084  1.00  0.00     0.198 A 
ATOM     76  C   UNL A   1      37.576  29.658  28.813  1.00  0.00     0.198 A 
ATOM     77  F   UNL A   1      39.265  29.566  27.180  1.00  0.00    -0.203 F 
ATOM     78  F   UNL A   1      37.657  28.855  32.345  1.00  0.00    -0.200 F 
ATOM     79  C   UNL A   1      37.158  29.476  30.122  1.00  0.00     0.200 A 
ATOM     80  F   UNL A   1      36.705  30.074  27.884  1.00  0.00    -0.200 F 
ATOM     81  F   UNL A   1      35.879  29.695  30.455  1.00  0.00    -0.200 F 
ENDBRANCH  57  71
BRANCH  58  82
ATOM     82  C   UNL A   1      49.052  26.930  26.154  1.00  0.00     0.064 A 
ATOM     83  C   UNL A   1      50.113  26.503  26.962  1.00  0.00     0.173 A 
ATOM     84  C   UNL A   1      49.286  27.045  24.775  1.00  0.00     0.173 A 
ATOM     85  F   UNL A   1      49.946  26.402  28.288  1.00  0.00    -0.203 F 
ATOM     86  C   UNL A   1      51.360  26.205  26.413  1.00  0.00     0.198 A 
ATOM     87  C   UNL A   1      50.523  26.720  24.224  1.00  0.00     0.198 A 
ATOM     88  F   UNL A   1      48.301  27.452  23.959  1.00  0.00    -0.203 F 
ATOM     89  F   UNL A   1      52.367  25.829  27.212  1.00  0.00    -0.200 F 
ATOM     90  C   UNL A   1      51.561  26.304  25.044  1.00  0.00     0.200 A 
ATOM     91  F   UNL A   1      50.707  26.805  22.900  1.00  0.00    -0.200 F 
ATOM     92  F   UNL A   1      52.754  26.004  24.516  1.00  0.00    -0.200 F 
ENDBRANCH  58  82
BRANCH  70  93
ATOM     93  C   UNL A   1      45.882  32.756  28.334  1.00  0.00     0.064 A 
ATOM     94  C   UNL A   1      45.686  33.656  27.275  1.00  0.00     0.173 A 
ATOM     95  C   UNL A   1      46.470  33.247  29.510  1.00  0.00     0.173 A 
ATOM     96  F   UNL A   1      45.144  33.234  26.123  1.00  0.00    -0.203 F 
ATOM     97  C   UNL A   1      46.082  34.987  27.384  1.00  0.00     0.198 A 
ATOM     98  C   UNL A   1      46.834  34.585  29.626  1.00  0.00     0.198 A 
ATOM     99  F   UNL A   1      46.675  32.430  30.555  1.00  0.00    -0.203 F 
ATOM    100  F   UNL A   1      45.925  35.818  26.342  1.00  0.00    -0.200 F 
ATOM    101  C   UNL A   1      46.646  35.453  28.561  1.00  0.00     0.200 A 
ATOM    102  F   UNL A   1      47.366  35.037  30.771  1.00  0.00    -0.200 F 
ATOM    103  F   UNL A   1      47.014  36.736  28.668  1.00  0.00    -0.200 F 
ENDBRANCH  70  93
ENDBRANCH  44  45
ENDBRANCH  37  39
ENDBRANCH  36  37
ENDBRANCH  35  36
ENDBRANCH  34  35
ENDBRANCH  33  34
ENDBRANCH   1  33
TORSDOF 18
ENDMDL
MODEL 3
REMARK VINA RESULT:     -12.8      2.059      7.413
REMARK SMILES NS(=O)(=O)c1ccc(-c2cc(Cl)cc3c2O[C@@H](C(F)(F)F)C(C(=O)OCCOCCOC(=O)c2ccc(-c4c5nc(c(-c6c(F)c(F)c(F)c(F)c6F)c6ccc([nH]6)c(-c6c(F)c(F)c(F)c(F)c6F)c6nc(c(-c7c(F)c(F)c(F)c(F)c7F)c7ccc4[nH]7)C=C6)C=C5)cc2)=C3)cc1
REMARK SMILES IDX 27 1 26 2 25 3 23 4 24 5 22 6 9 7 10 8 15 9 11 10 14 11
REMARK SMILES IDX 16 12 12 13 13 14 97 15 17 16 8 17 5 18 6 19 99 20 7 21
REMARK SMILES IDX 98 22 2 23 3 24 4 25 1 26 18 29 19 30 20 31 21 32 28 33
REMARK SMILES IDX 29 34 30 35 31 36 32 37 33 38 34 39 35 40 96 41 36 42 95 43
REMARK SMILES IDX 37 44 38 45 39 46 89 47 40 48 94 49 88 50 90 51 41 52 93 53
REMARK SMILES IDX 87 54 86 55 42 57 74 58 54 59 73 60 55 61 58 62 72 63 91 64
REMARK SMILES IDX 56 65 57 66 71 68 92 69 59 70 43 71 44 72 52 73 45 74 46 75
REMARK SMILES IDX 50 76 53 77 47 78 48 79 51 80 49 81 75 82 76 83 84 84 77 85
REMARK SMILES IDX 78 86 82 87 85 88 79 89 80 90 83 91 81 92 60 93 61 94 69 95
REMARK SMILES IDX 62 96 63 97 67 98 70 99 64 100 65 101 68 102 66 103
REMARK H PARENT 1 27 1 28 90 56 58 67
REMARK Flexibility Score: inf
ROOT
ATOM      1  C   UNL A   1      32.763  29.501  26.901  1.00  0.00     0.202 C 
ENDROOT
BRANCH   1   2
ATOM      2  C   UNL A   1      34.016  28.729  26.456  1.00  0.00     0.261 C 
BRANCH   2   3
ATOM      3  O   UNL A   1      33.707  27.471  25.844  1.00  0.00    -0.460 OA
BRANCH   3   4
ATOM      4  C   UNL A   1      33.477  27.501  24.517  1.00  0.00     0.338 C 
ATOM      5  O   UNL A   1      33.912  28.339  23.739  1.00  0.00    -0.246 OA
BRANCH   4   6
ATOM      6  C   UNL A   1      32.777  26.279  24.058  1.00  0.00     0.087 C 
ATOM      7  C   UNL A   1      33.892  22.708  25.868  1.00  0.00     0.026 A 
ATOM      8  C   UNL A   1      35.190  22.946  26.371  1.00  0.00     0.033 A 
ATOM      9  C   UNL A   1      33.347  23.763  25.110  1.00  0.00     0.135 A 
ATOM     10  C   UNL A   1      35.999  23.938  25.816  1.00  0.00     0.042 A 
ATOM     11  C   UNL A   1      34.211  24.586  24.371  1.00  0.00     0.019 A 
ATOM     12  O   UNL A   1      32.091  24.284  25.454  1.00  0.00    -0.475 OA
ATOM     13  Cl  UNL A   1      37.599  24.152  26.397  1.00  0.00    -0.084 Cl
ATOM     14  C   UNL A   1      35.547  24.685  24.738  1.00  0.00     0.032 A 
ATOM     15  C   UNL A   1      33.628  25.502  23.369  1.00  0.00     0.027 C 
ATOM     16  C   UNL A   1      31.668  25.545  24.786  1.00  0.00     0.316 C 
BRANCH   7  17
ATOM     17  C   UNL A   1      33.640  21.245  25.571  1.00  0.00    -0.015 A 
ATOM     18  C   UNL A   1      33.278  18.788  24.165  1.00  0.00     0.082 A 
ATOM     19  C   UNL A   1      34.539  19.150  24.641  1.00  0.00     0.022 A 
ATOM     20  C   UNL A   1      32.179  19.598  24.443  1.00  0.00     0.022 A 
ATOM     21  C   UNL A   1      34.710  20.353  25.351  1.00  0.00     0.010 A 
ATOM     22  C   UNL A   1      32.362  20.809  25.144  1.00  0.00     0.010 A 
BRANCH  18  23
ATOM     23  S   UNL A   1      33.159  17.337  23.150  1.00  0.00     0.238 S 
ATOM     24  O   UNL A   1      34.492  16.905  22.815  1.00  0.00    -0.207 OA
ATOM     25  O   UNL A   1      32.138  17.566  22.148  1.00  0.00    -0.207 OA
BRANCH  23  26
ATOM     26  N   UNL A   1      32.527  16.130  24.138  1.00  0.00    -0.225 NA
ATOM     27  H   UNL A   1      32.668  15.221  23.698  1.00  0.00     0.137 HD
ATOM     28  H   UNL A   1      31.529  16.290  24.274  1.00  0.00     0.137 HD
ENDBRANCH  23  26
ENDBRANCH  18  23
ENDBRANCH   7  17
BRANCH  16  29
ATOM     29  C   UNL A   1      30.706  26.444  25.597  1.00  0.00     0.430 C 
ATOM     30  F   UNL A   1      31.179  26.580  26.866  1.00  0.00    -0.167 F 
ATOM     31  F   UNL A   1      30.633  27.693  25.081  1.00  0.00    -0.167 F 
ATOM     32  F   UNL A   1      29.445  25.986  25.702  1.00  0.00    -0.167 F 
ENDBRANCH  16  29
ENDBRANCH   4   6
ENDBRANCH   3   4
ENDBRANCH   2   3
ENDBRANCH   1   2
BRANCH   1  33
ATOM     33  O   UNL A   1      32.357  30.625  26.133  1.00  0.00    -0.374 OA
BRANCH  33  34
ATOM     34  C   UNL A   1      31.579  31.633  26.778  1.00  0.00     0.202 C 
BRANCH  34  35
ATOM     35  C   UNL A   1      32.143  33.056  26.822  1.00  0.00     0.261 C 
BRANCH  35  36
ATOM     36  O   UNL A   1      32.919  33.321  28.001  1.00  0.00    -0.460 OA
BRANCH  36  37
ATOM     37  C   UNL A   1      34.117  33.914  27.774  1.00  0.00     0.338 C 
ATOM     38  O   UNL A   1      34.330  35.012  27.289  1.00  0.00    -0.246 OA
BRANCH  37  39
ATOM     39  C   UNL A   1      35.187  33.084  28.346  1.00  0.00     0.060 A 
ATOM     40  C   UNL A   1      34.841  31.854  28.918  1.00  0.00     0.016 A 
ATOM     41  C   UNL A   1      36.503  33.547  28.387  1.00  0.00     0.016 A 
ATOM     42  C   UNL A   1      35.816  31.078  29.540  1.00  0.00     0.010 A 
ATOM     43  C   UNL A   1      37.477  32.773  29.021  1.00  0.00     0.010 A 
ATOM     44  C   UNL A   1      37.136  31.542  29.610  1.00  0.00    -0.014 A 
BRANCH  44  45
ATOM     45  C   UNL A   1      38.160  30.772  30.352  1.00  0.00     0.031 A 
ATOM     46  C   UNL A   1      38.426  31.089  31.793  1.00  0.00     0.074 A 
ATOM     47  C   UNL A   1      38.870  29.822  29.721  1.00  0.00     0.049 A 
ATOM     48  N   UNL A   1      39.348  30.615  32.591  1.00  0.00    -0.248 NA
ATOM     49  C   UNL A   1      37.538  32.082  32.417  1.00  0.00     0.031 C 
ATOM     50  C   UNL A   1      38.680  29.418  28.330  1.00  0.00     0.029 A 
ATOM     51  N   UNL A   1      39.913  29.047  30.161  1.00  0.00    -0.354 N 
ATOM     52  C   UNL A   1      39.163  31.261  33.806  1.00  0.00     0.074 A 
ATOM     53  C   UNL A   1      38.053  32.175  33.634  1.00  0.00     0.031 C 
ATOM     54  C   UNL A   1      39.599  28.489  28.019  1.00  0.00     0.029 A 
ATOM     55  C   UNL A   1      40.464  28.268  29.176  1.00  0.00     0.049 A 
ATOM     56  H   UNL A   1      40.234  29.049  31.093  1.00  0.00     0.167 HD
ATOM     57  C   UNL A   1      39.861  31.101  34.957  1.00  0.00     0.037 A 
ATOM     58  C   UNL A   1      41.568  27.497  29.193  1.00  0.00     0.037 A 
ATOM     59  C   UNL A   1      40.964  30.188  35.111  1.00  0.00     0.049 A 
ATOM     60  C   UNL A   1      42.368  27.384  30.463  1.00  0.00     0.074 A 
ATOM     61  C   UNL A   1      41.694  29.903  36.251  1.00  0.00     0.029 A 
ATOM     62  N   UNL A   1      41.509  29.428  34.087  1.00  0.00    -0.354 N 
ATOM     63  N   UNL A   1      42.157  27.954  31.626  1.00  0.00    -0.248 NA
ATOM     64  C   UNL A   1      43.559  26.526  30.424  1.00  0.00     0.031 C 
ATOM     65  C   UNL A   1      42.726  29.026  35.900  1.00  0.00     0.029 A 
ATOM     66  C   UNL A   1      42.601  28.714  34.555  1.00  0.00     0.049 A 
ATOM     67  H   UNL A   1      41.171  29.401  33.162  1.00  0.00     0.167 HD
ATOM     68  C   UNL A   1      43.181  27.519  32.457  1.00  0.00     0.074 A 
ATOM     69  C   UNL A   1      43.999  26.618  31.671  1.00  0.00     0.031 C 
ATOM     70  C   UNL A   1      43.420  27.838  33.754  1.00  0.00     0.037 A 
BRANCH  57  71
ATOM     71  C   UNL A   1      39.479  31.967  36.124  1.00  0.00     0.064 A 
ATOM     72  C   UNL A   1      40.125  33.182  36.393  1.00  0.00     0.173 A 
ATOM     73  C   UNL A   1      38.434  31.577  36.977  1.00  0.00     0.173 A 
ATOM     74  F   UNL A   1      41.137  33.597  35.615  1.00  0.00    -0.203 F 
ATOM     75  C   UNL A   1      39.763  33.958  37.492  1.00  0.00     0.198 A 
ATOM     76  C   UNL A   1      38.054  32.371  38.057  1.00  0.00     0.198 A 
ATOM     77  F   UNL A   1      37.778  30.427  36.763  1.00  0.00    -0.203 F 
ATOM     78  F   UNL A   1      40.431  35.088  37.762  1.00  0.00    -0.200 F 
ATOM     79  C   UNL A   1      38.725  33.555  38.320  1.00  0.00     0.200 A 
ATOM     80  F   UNL A   1      37.043  31.985  38.846  1.00  0.00    -0.200 F 
ATOM     81  F   UNL A   1      38.379  34.303  39.376  1.00  0.00    -0.200 F 
ENDBRANCH  57  71
BRANCH  58  82
ATOM     82  C   UNL A   1      41.995  26.808  27.947  1.00  0.00     0.064 A 
ATOM     83  C   UNL A   1      42.891  27.409  27.055  1.00  0.00     0.173 A 
ATOM     84  C   UNL A   1      41.533  25.518  27.641  1.00  0.00     0.173 A 
ATOM     85  F   UNL A   1      43.339  28.650  27.291  1.00  0.00    -0.203 F 
ATOM     86  C   UNL A   1      43.307  26.748  25.901  1.00  0.00     0.198 A 
ATOM     87  C   UNL A   1      41.972  24.848  26.503  1.00  0.00     0.198 A 
ATOM     88  F   UNL A   1      40.672  24.900  28.464  1.00  0.00    -0.203 F 
ATOM     89  F   UNL A   1      44.140  27.358  25.047  1.00  0.00    -0.200 F 
ATOM     90  C   UNL A   1      42.856  25.465  25.630  1.00  0.00     0.200 A 
ATOM     91  F   UNL A   1      41.543  23.603  26.254  1.00  0.00    -0.200 F 
ATOM     92  F   UNL A   1      43.269  24.825  24.528  1.00  0.00    -0.200 F 
ENDBRANCH  58  82
BRANCH  70  93
ATOM     93  C   UNL A   1      44.622  27.215  34.404  1.00  0.00     0.064 A 
ATOM     94  C   UNL A   1      44.554  25.951  35.009  1.00  0.00     0.173 A 
ATOM     95  C   UNL A   1      45.866  27.864  34.380  1.00  0.00     0.173 A 
ATOM     96  F   UNL A   1      43.385  25.295  35.074  1.00  0.00    -0.203 F 
ATOM     97  C   UNL A   1      45.683  25.370  35.583  1.00  0.00     0.198 A 
ATOM     98  C   UNL A   1      46.998  27.266  34.925  1.00  0.00     0.198 A 
ATOM     99  F   UNL A   1      45.987  29.072  33.808  1.00  0.00    -0.203 F 
ATOM    100  F   UNL A   1      45.584  24.181  36.195  1.00  0.00    -0.200 F 
ATOM    101  C   UNL A   1      46.905  26.023  35.532  1.00  0.00     0.200 A 
ATOM    102  F   UNL A   1      48.182  27.892  34.862  1.00  0.00    -0.200 F 
ATOM    103  F   UNL A   1      47.991  25.457  36.074  1.00  0.00    -0.200 F 
ENDBRANCH  70  93
ENDBRANCH  44  45
ENDBRANCH  37  39
ENDBRANCH  36  37
ENDBRANCH  35  36
ENDBRANCH  34  35
ENDBRANCH  33  34
ENDBRANCH   1  33
TORSDOF 18
ENDMDL
