MODEL 1
REMARK VINA RESULT:     -10.9      0.000      0.000
REMARK SMILES Cc1nc(CSCC(=O)N2CCCC[C@@H]2C(=O)OCCOCCOC(=O)c2ccc(-c3c4nc(c(-c5c(F)c(F)c(F)c(F)c5F)c5ccc([nH]5)c(-c5c(F)c(F)c(F)c(F)c5F)c5nc(c(-c6c(F)c(F)c(F)c(F)c6F)c6ccc3[nH]6)C=C5)C=C4)cc2)cs1
REMARK SMILES IDX 19 1 18 2 16 3 17 4 15 5 10 6 11 7 12 8 14 9 13 10 8 11 9 12
REMARK SMILES IDX 7 13 6 14 5 15 4 16 1 17 2 18 3 19 91 20 90 21 20 22 21 23
REMARK SMILES IDX 22 24 23 25 24 26 25 27 26 28 27 29 28 30 89 31 29 32 88 33
REMARK SMILES IDX 30 34 31 35 32 36 82 37 33 38 87 39 81 40 83 41 34 42 86 43
REMARK SMILES IDX 80 44 79 45 35 47 67 48 47 49 66 50 48 51 51 52 65 53 84 54
REMARK SMILES IDX 49 55 50 56 64 58 85 59 52 60 36 61 37 62 45 63 38 64 39 65
REMARK SMILES IDX 43 66 46 67 40 68 41 69 44 70 42 71 68 72 69 73 77 74 70 75
REMARK SMILES IDX 71 76 75 77 78 78 72 79 73 80 76 81 74 82 53 83 54 84 62 85
REMARK SMILES IDX 55 86 56 87 60 88 63 89 57 90 58 91 61 92 59 93
REMARK H PARENT 83 46 51 57
REMARK Flexibility Score: inf
ROOT
ATOM      1  C   UNL A   1      35.725  23.612  24.330  1.00  0.00     0.261 C 
ENDROOT
BRANCH   1   2
ATOM      2  O   UNL A   1      35.080  23.790  23.071  1.00  0.00    -0.462 OA
BRANCH   2   3
ATOM      3  C   UNL A   1      34.029  24.648  23.012  1.00  0.00     0.328 C 
ATOM      4  O   UNL A   1      33.671  25.250  22.007  1.00  0.00    -0.250 OA
BRANCH   3   5
ATOM      5  C   UNL A   1      33.392  24.843  24.402  1.00  0.00     0.195 C 
ATOM      6  N   UNL A   1      32.286  23.902  24.664  1.00  0.00    -0.328 N 
ATOM      7  C   UNL A   1      31.563  24.071  25.919  1.00  0.00     0.120 C 
ATOM      8  C   UNL A   1      31.205  25.532  26.207  1.00  0.00     0.022 C 
ATOM      9  C   UNL A   1      33.039  26.302  24.717  1.00  0.00     0.037 C 
ATOM     10  C   UNL A   1      32.437  26.425  26.110  1.00  0.00     0.005 C 
BRANCH   6  11
ATOM     11  C   UNL A   1      31.560  23.387  23.587  1.00  0.00     0.233 C 
ATOM     12  O   UNL A   1      30.587  23.973  23.128  1.00  0.00    -0.274 OA
BRANCH  11  13
ATOM     13  C   UNL A   1      32.150  22.066  23.080  1.00  0.00     0.170 C 
BRANCH  13  14
ATOM     14  S   UNL A   1      32.703  20.917  24.385  1.00  0.00    -0.146 SA
BRANCH  14  15
ATOM     15  C   UNL A   1      32.511  19.347  23.499  1.00  0.00     0.127 C 
BRANCH  15  16
ATOM     16  C   UNL A   1      33.151  18.179  24.175  1.00  0.00     0.061 A 
ATOM     17  C   UNL A   1      32.470  15.033  25.883  1.00  0.00     0.079 C 
ATOM     18  C   UNL A   1      33.058  16.212  25.196  1.00  0.00     0.090 A 
ATOM     19  N   UNL A   1      32.335  17.179  24.682  1.00  0.00    -0.246 NA
ATOM     20  S   UNL A   1      34.755  16.395  25.032  1.00  0.00    -0.127 S 
ATOM     21  C   UNL A   1      34.505  17.899  24.245  1.00  0.00     0.091 A 
ENDBRANCH  15  16
ENDBRANCH  14  15
ENDBRANCH  13  14
ENDBRANCH  11  13
ENDBRANCH   6  11
ENDBRANCH   3   5
ENDBRANCH   2   3
ENDBRANCH   1   2
BRANCH   1  22
ATOM     22  C   UNL A   1      37.067  22.869  24.345  1.00  0.00     0.202 C 
BRANCH  22  23
ATOM     23  O   UNL A   1      37.142  21.496  24.008  1.00  0.00    -0.374 OA
BRANCH  23  24
ATOM     24  C   UNL A   1      37.187  20.499  25.017  1.00  0.00     0.202 C 
BRANCH  24  25
ATOM     25  C   UNL A   1      38.512  19.796  25.320  1.00  0.00     0.261 C 
BRANCH  25  26
ATOM     26  O   UNL A   1      39.635  20.690  25.383  1.00  0.00    -0.460 OA
BRANCH  26  27
ATOM     27  C   UNL A   1      40.351  20.612  26.531  1.00  0.00     0.338 C 
ATOM     28  O   UNL A   1      40.904  19.630  26.993  1.00  0.00    -0.246 OA
BRANCH  27  29
ATOM     29  C   UNL A   1      40.513  21.947  27.133  1.00  0.00     0.060 A 
ATOM     30  C   UNL A   1      39.773  22.999  26.579  1.00  0.00     0.016 A 
ATOM     31  C   UNL A   1      41.461  22.188  28.129  1.00  0.00     0.016 A 
ATOM     32  C   UNL A   1      40.023  24.310  26.975  1.00  0.00     0.010 A 
ATOM     33  C   UNL A   1      41.722  23.506  28.515  1.00  0.00     0.010 A 
ATOM     34  C   UNL A   1      41.039  24.574  27.903  1.00  0.00    -0.014 A 
BRANCH  34  35
ATOM     35  C   UNL A   1      41.528  25.964  28.065  1.00  0.00     0.031 A 
ATOM     36  C   UNL A   1      42.892  26.310  27.531  1.00  0.00     0.074 A 
ATOM     37  C   UNL A   1      40.766  26.909  28.638  1.00  0.00     0.049 A 
ATOM     38  N   UNL A   1      43.545  27.443  27.581  1.00  0.00    -0.248 NA
ATOM     39  C   UNL A   1      43.616  25.227  26.848  1.00  0.00     0.031 C 
ATOM     40  C   UNL A   1      39.411  26.710  29.145  1.00  0.00     0.029 A 
ATOM     41  N   UNL A   1      41.034  28.231  28.893  1.00  0.00    -0.354 N 
ATOM     42  C   UNL A   1      44.755  27.207  26.940  1.00  0.00     0.074 A 
ATOM     43  C   UNL A   1      44.761  25.817  26.540  1.00  0.00     0.031 C 
ATOM     44  C   UNL A   1      38.967  27.870  29.662  1.00  0.00     0.029 A 
ATOM     45  C   UNL A   1      40.018  28.879  29.549  1.00  0.00     0.049 A 
ATOM     46  H   UNL A   1      41.874  28.671  28.629  1.00  0.00     0.167 HD
ATOM     47  C   UNL A   1      45.768  28.074  26.700  1.00  0.00     0.037 A 
ATOM     48  C   UNL A   1      39.959  30.140  30.020  1.00  0.00     0.037 A 
ATOM     49  C   UNL A   1      45.764  29.454  27.108  1.00  0.00     0.049 A 
ATOM     50  C   UNL A   1      41.135  31.062  29.822  1.00  0.00     0.074 A 
ATOM     51  C   UNL A   1      46.736  30.418  26.905  1.00  0.00     0.029 A 
ATOM     52  N   UNL A   1      44.736  30.063  27.812  1.00  0.00    -0.354 N 
ATOM     53  N   UNL A   1      42.269  30.840  29.201  1.00  0.00    -0.248 NA
ATOM     54  C   UNL A   1      41.019  32.412  30.391  1.00  0.00     0.031 C 
ATOM     55  C   UNL A   1      46.319  31.596  27.534  1.00  0.00     0.029 A 
ATOM     56  C   UNL A   1      45.063  31.383  28.079  1.00  0.00     0.049 A 
ATOM     57  H   UNL A   1      43.898  29.623  28.083  1.00  0.00     0.167 HD
ATOM     58  C   UNL A   1      42.987  32.027  29.278  1.00  0.00     0.074 A 
ATOM     59  C   UNL A   1      42.157  32.970  29.999  1.00  0.00     0.031 C 
ATOM     60  C   UNL A   1      44.221  32.311  28.793  1.00  0.00     0.037 A 
BRANCH  47  61
ATOM     61  C   UNL A   1      46.979  27.536  25.995  1.00  0.00     0.064 A 
ATOM     62  C   UNL A   1      47.116  27.608  24.600  1.00  0.00     0.173 A 
ATOM     63  C   UNL A   1      48.020  26.941  26.726  1.00  0.00     0.173 A 
ATOM     64  F   UNL A   1      46.143  28.152  23.853  1.00  0.00    -0.203 F 
ATOM     65  C   UNL A   1      48.232  27.073  23.961  1.00  0.00     0.198 A 
ATOM     66  C   UNL A   1      49.148  26.435  26.086  1.00  0.00     0.198 A 
ATOM     67  F   UNL A   1      47.941  26.849  28.062  1.00  0.00    -0.203 F 
ATOM     68  F   UNL A   1      48.313  27.100  22.624  1.00  0.00    -0.200 F 
ATOM     69  C   UNL A   1      49.248  26.491  24.704  1.00  0.00     0.200 A 
ATOM     70  F   UNL A   1      50.133  25.883  26.807  1.00  0.00    -0.200 F 
ATOM     71  F   UNL A   1      50.320  25.975  24.087  1.00  0.00    -0.200 F 
ENDBRANCH  47  61
BRANCH  48  72
ATOM     72  C   UNL A   1      38.740  30.604  30.733  1.00  0.00     0.064 A 
ATOM     73  C   UNL A   1      37.647  31.124  30.026  1.00  0.00     0.173 A 
ATOM     74  C   UNL A   1      38.647  30.543  32.130  1.00  0.00     0.173 A 
ATOM     75  F   UNL A   1      37.701  31.228  28.691  1.00  0.00    -0.203 F 
ATOM     76  C   UNL A   1      36.509  31.573  30.692  1.00  0.00     0.198 A 
ATOM     77  C   UNL A   1      37.499  30.970  32.793  1.00  0.00     0.198 A 
ATOM     78  F   UNL A   1      39.670  30.062  32.852  1.00  0.00    -0.203 F 
ATOM     79  F   UNL A   1      35.494  32.103  29.997  1.00  0.00    -0.200 F 
ATOM     80  C   UNL A   1      36.433  31.489  32.075  1.00  0.00     0.200 A 
ATOM     81  F   UNL A   1      37.425  30.881  34.129  1.00  0.00    -0.200 F 
ATOM     82  F   UNL A   1      35.336  31.919  32.714  1.00  0.00    -0.200 F 
ENDBRANCH  48  72
BRANCH  60  83
ATOM     83  C   UNL A   1      44.738  33.708  28.991  1.00  0.00     0.064 A 
ATOM     84  C   UNL A   1      45.510  34.059  30.108  1.00  0.00     0.173 A 
ATOM     85  C   UNL A   1      44.496  34.696  28.024  1.00  0.00     0.173 A 
ATOM     86  F   UNL A   1      45.760  33.155  31.067  1.00  0.00    -0.203 F 
ATOM     87  C   UNL A   1      45.999  35.354  30.261  1.00  0.00     0.198 A 
ATOM     88  C   UNL A   1      45.012  35.981  28.166  1.00  0.00     0.198 A 
ATOM     89  F   UNL A   1      43.770  34.411  26.932  1.00  0.00    -0.203 F 
ATOM     90  F   UNL A   1      46.697  35.679  31.359  1.00  0.00    -0.200 F 
ATOM     91  C   UNL A   1      45.757  36.311  29.288  1.00  0.00     0.200 A 
ATOM     92  F   UNL A   1      44.789  36.900  27.216  1.00  0.00    -0.200 F 
ATOM     93  F   UNL A   1      46.236  37.555  29.433  1.00  0.00    -0.200 F 
ENDBRANCH  60  83
ENDBRANCH  34  35
ENDBRANCH  27  29
ENDBRANCH  26  27
ENDBRANCH  25  26
ENDBRANCH  24  25
ENDBRANCH  23  24
ENDBRANCH  22  23
ENDBRANCH   1  22
TORSDOF 19
ENDMDL
MODEL 2
REMARK VINA RESULT:     -10.6      5.050      8.688
REMARK SMILES Cc1nc(CSCC(=O)N2CCCC[C@@H]2C(=O)OCCOCCOC(=O)c2ccc(-c3c4nc(c(-c5c(F)c(F)c(F)c(F)c5F)c5ccc([nH]5)c(-c5c(F)c(F)c(F)c(F)c5F)c5nc(c(-c6c(F)c(F)c(F)c(F)c6F)c6ccc3[nH]6)C=C5)C=C4)cc2)cs1
REMARK SMILES IDX 19 1 18 2 16 3 17 4 15 5 10 6 11 7 12 8 14 9 13 10 8 11 9 12
REMARK SMILES IDX 7 13 6 14 5 15 4 16 1 17 2 18 3 19 91 20 90 21 20 22 21 23
REMARK SMILES IDX 22 24 23 25 24 26 25 27 26 28 27 29 28 30 89 31 29 32 88 33
REMARK SMILES IDX 30 34 31 35 32 36 82 37 33 38 87 39 81 40 83 41 34 42 86 43
REMARK SMILES IDX 80 44 79 45 35 47 67 48 47 49 66 50 48 51 51 52 65 53 84 54
REMARK SMILES IDX 49 55 50 56 64 58 85 59 52 60 36 61 37 62 45 63 38 64 39 65
REMARK SMILES IDX 43 66 46 67 40 68 41 69 44 70 42 71 68 72 69 73 77 74 70 75
REMARK SMILES IDX 71 76 75 77 78 78 72 79 73 80 76 81 74 82 53 83 54 84 62 85
REMARK SMILES IDX 55 86 56 87 60 88 63 89 57 90 58 91 61 92 59 93
REMARK H PARENT 83 46 51 57
REMARK Flexibility Score: inf
ROOT
ATOM      1  C   UNL A   1      33.725  28.545  26.148  1.00  0.00     0.261 C 
ENDROOT
BRANCH   1   2
ATOM      2  O   UNL A   1      33.855  27.142  25.932  1.00  0.00    -0.462 OA
BRANCH   2   3
ATOM      3  C   UNL A   1      33.421  26.639  24.748  1.00  0.00     0.328 C 
ATOM      4  O   UNL A   1      33.317  27.280  23.709  1.00  0.00    -0.250 OA
BRANCH   3   5
ATOM      5  C   UNL A   1      32.984  25.168  24.896  1.00  0.00     0.195 C 
ATOM      6  N   UNL A   1      31.524  24.988  24.786  1.00  0.00    -0.328 N 
ATOM      7  C   UNL A   1      31.010  23.641  25.004  1.00  0.00     0.120 C 
ATOM      8  C   UNL A   1      31.619  22.965  26.236  1.00  0.00     0.022 C 
ATOM      9  C   UNL A   1      33.594  24.468  26.117  1.00  0.00     0.037 C 
ATOM     10  C   UNL A   1      33.141  23.015  26.190  1.00  0.00     0.005 C 
BRANCH   6  11
ATOM     11  C   UNL A   1      30.679  26.045  25.132  1.00  0.00     0.233 C 
ATOM     12  O   UNL A   1      30.780  26.625  26.207  1.00  0.00    -0.274 OA
BRANCH  11  13
ATOM     13  C   UNL A   1      29.679  26.367  24.015  1.00  0.00     0.170 C 
BRANCH  13  14
ATOM     14  S   UNL A   1      30.274  27.562  22.769  1.00  0.00    -0.146 SA
BRANCH  14  15
ATOM     15  C   UNL A   1      30.299  29.063  23.785  1.00  0.00     0.127 C 
BRANCH  15  16
ATOM     16  C   UNL A   1      29.563  30.218  23.191  1.00  0.00     0.061 A 
ATOM     17  C   UNL A   1      28.028  31.469  20.132  1.00  0.00     0.079 C 
ATOM     18  C   UNL A   1      28.508  31.218  21.515  1.00  0.00     0.090 A 
ATOM     19  N   UNL A   1      29.183  30.147  21.859  1.00  0.00    -0.246 NA
ATOM     20  S   UNL A   1      28.212  32.338  22.780  1.00  0.00    -0.127 S 
ATOM     21  C   UNL A   1      29.083  31.330  23.860  1.00  0.00     0.091 A 
ENDBRANCH  15  16
ENDBRANCH  14  15
ENDBRANCH  13  14
ENDBRANCH  11  13
ENDBRANCH   6  11
ENDBRANCH   3   5
ENDBRANCH   2   3
ENDBRANCH   1   2
BRANCH   1  22
ATOM     22  C   UNL A   1      32.887  29.007  27.347  1.00  0.00     0.202 C 
BRANCH  22  23
ATOM     23  O   UNL A   1      31.761  29.848  27.167  1.00  0.00    -0.374 OA
BRANCH  23  24
ATOM     24  C   UNL A   1      31.848  31.022  26.374  1.00  0.00     0.202 C 
BRANCH  24  25
ATOM     25  C   UNL A   1      31.693  32.391  27.039  1.00  0.00     0.261 C 
BRANCH  25  26
ATOM     26  O   UNL A   1      32.842  33.240  26.882  1.00  0.00    -0.460 OA
BRANCH  26  27
ATOM     27  C   UNL A   1      33.357  33.707  28.045  1.00  0.00     0.338 C 
ATOM     28  O   UNL A   1      32.854  34.515  28.806  1.00  0.00    -0.246 OA
BRANCH  27  29
ATOM     29  C   UNL A   1      34.603  32.997  28.383  1.00  0.00     0.060 A 
ATOM     30  C   UNL A   1      34.488  31.700  28.900  1.00  0.00     0.016 A 
ATOM     31  C   UNL A   1      35.845  33.631  28.316  1.00  0.00     0.016 A 
ATOM     32  C   UNL A   1      35.608  31.053  29.413  1.00  0.00     0.010 A 
ATOM     33  C   UNL A   1      36.967  32.986  28.846  1.00  0.00     0.010 A 
ATOM     34  C   UNL A   1      36.841  31.717  29.440  1.00  0.00    -0.014 A 
BRANCH  34  35
ATOM     35  C   UNL A   1      37.936  31.174  30.280  1.00  0.00     0.031 A 
ATOM     36  C   UNL A   1      38.866  30.157  29.676  1.00  0.00     0.074 A 
ATOM     37  C   UNL A   1      38.125  31.600  31.540  1.00  0.00     0.049 A 
ATOM     38  N   UNL A   1      39.872  29.519  30.218  1.00  0.00    -0.248 NA
ATOM     39  C   UNL A   1      38.626  29.815  28.265  1.00  0.00     0.031 C 
ATOM     40  C   UNL A   1      37.326  32.617  32.216  1.00  0.00     0.029 A 
ATOM     41  N   UNL A   1      39.056  31.220  32.475  1.00  0.00    -0.354 N 
ATOM     42  C   UNL A   1      40.381  28.700  29.218  1.00  0.00     0.074 A 
ATOM     43  C   UNL A   1      39.553  28.896  28.047  1.00  0.00     0.031 C 
ATOM     44  C   UNL A   1      37.794  32.774  33.468  1.00  0.00     0.029 A 
ATOM     45  C   UNL A   1      38.904  31.847  33.685  1.00  0.00     0.049 A 
ATOM     46  H   UNL A   1      39.764  30.560  32.292  1.00  0.00     0.167 HD
ATOM     47  C   UNL A   1      41.446  27.865  29.269  1.00  0.00     0.037 A 
ATOM     48  C   UNL A   1      39.575  31.672  34.839  1.00  0.00     0.037 A 
ATOM     49  C   UNL A   1      42.260  27.664  30.438  1.00  0.00     0.049 A 
ATOM     50  C   UNL A   1      40.700  30.671  34.900  1.00  0.00     0.074 A 
ATOM     51  C   UNL A   1      43.368  26.849  30.591  1.00  0.00     0.029 A 
ATOM     52  N   UNL A   1      42.047  28.283  31.661  1.00  0.00    -0.354 N 
ATOM     53  N   UNL A   1      41.188  29.912  33.948  1.00  0.00    -0.248 NA
ATOM     54  C   UNL A   1      41.368  30.504  36.199  1.00  0.00     0.031 C 
ATOM     55  C   UNL A   1      43.791  26.933  31.921  1.00  0.00     0.029 A 
ATOM     56  C   UNL A   1      42.984  27.845  32.583  1.00  0.00     0.049 A 
ATOM     57  H   UNL A   1      41.335  28.938  31.847  1.00  0.00     0.167 HD
ATOM     58  C   UNL A   1      42.235  29.202  34.522  1.00  0.00     0.074 A 
ATOM     59  C   UNL A   1      42.318  29.627  35.904  1.00  0.00     0.031 C 
ATOM     60  C   UNL A   1      43.056  28.283  33.955  1.00  0.00     0.037 A 
BRANCH  47  61
ATOM     61  C   UNL A   1      41.761  27.078  28.030  1.00  0.00     0.064 A 
ATOM     62  C   UNL A   1      41.201  25.814  27.794  1.00  0.00     0.173 A 
ATOM     63  C   UNL A   1      42.637  27.598  27.063  1.00  0.00     0.173 A 
ATOM     64  F   UNL A   1      40.370  25.264  28.693  1.00  0.00    -0.203 F 
ATOM     65  C   UNL A   1      41.532  25.085  26.653  1.00  0.00     0.198 A 
ATOM     66  C   UNL A   1      42.941  26.879  25.910  1.00  0.00     0.198 A 
ATOM     67  F   UNL A   1      43.198  28.803  27.238  1.00  0.00    -0.203 F 
ATOM     68  F   UNL A   1      41.030  23.854  26.478  1.00  0.00    -0.200 F 
ATOM     69  C   UNL A   1      42.397  25.619  25.711  1.00  0.00     0.200 A 
ATOM     70  F   UNL A   1      43.770  27.403  24.997  1.00  0.00    -0.200 F 
ATOM     71  F   UNL A   1      42.717  24.915  24.616  1.00  0.00    -0.200 F 
ENDBRANCH  47  61
BRANCH  48  72
ATOM     72  C   UNL A   1      39.196  32.464  36.039  1.00  0.00     0.064 A 
ATOM     73  C   UNL A   1      39.729  33.742  36.256  1.00  0.00     0.173 A 
ATOM     74  C   UNL A   1      38.303  31.957  36.994  1.00  0.00     0.173 A 
ATOM     75  F   UNL A   1      40.608  34.258  35.385  1.00  0.00    -0.203 F 
ATOM     76  C   UNL A   1      39.387  34.480  37.387  1.00  0.00     0.198 A 
ATOM     77  C   UNL A   1      37.943  32.706  38.111  1.00  0.00     0.198 A 
ATOM     78  F   UNL A   1      37.774  30.735  36.836  1.00  0.00    -0.203 F 
ATOM     79  F   UNL A   1      39.940  35.683  37.590  1.00  0.00    -0.200 F 
ATOM     80  C   UNL A   1      38.489  33.965  38.310  1.00  0.00     0.200 A 
ATOM     81  F   UNL A   1      37.070  32.208  38.998  1.00  0.00    -0.200 F 
ATOM     82  F   UNL A   1      38.159  34.678  39.396  1.00  0.00    -0.200 F 
ENDBRANCH  48  72
BRANCH  60  83
ATOM     83  C   UNL A   1      44.141  27.700  34.815  1.00  0.00     0.064 A 
ATOM     84  C   UNL A   1      45.380  28.336  34.975  1.00  0.00     0.173 A 
ATOM     85  C   UNL A   1      43.918  26.509  35.525  1.00  0.00     0.173 A 
ATOM     86  F   UNL A   1      45.648  29.470  34.309  1.00  0.00    -0.203 F 
ATOM     87  C   UNL A   1      46.364  27.791  35.795  1.00  0.00     0.198 A 
ATOM     88  C   UNL A   1      44.893  25.983  36.367  1.00  0.00     0.198 A 
ATOM     89  F   UNL A   1      42.747  25.864  35.413  1.00  0.00    -0.203 F 
ATOM     90  F   UNL A   1      47.558  28.393  35.898  1.00  0.00    -0.200 F 
ATOM     91  C   UNL A   1      46.118  26.620  36.496  1.00  0.00     0.200 A 
ATOM     92  F   UNL A   1      44.648  24.859  37.055  1.00  0.00    -0.200 F 
ATOM     93  F   UNL A   1      47.064  26.101  37.292  1.00  0.00    -0.200 F 
ENDBRANCH  60  83
ENDBRANCH  34  35
ENDBRANCH  27  29
ENDBRANCH  26  27
ENDBRANCH  25  26
ENDBRANCH  24  25
ENDBRANCH  23  24
ENDBRANCH  22  23
ENDBRANCH   1  22
TORSDOF 19
ENDMDL
MODEL 3
REMARK VINA RESULT:     -10.6      2.145      8.095
REMARK SMILES Cc1nc(CSCC(=O)N2CCCC[C@@H]2C(=O)OCCOCCOC(=O)c2ccc(-c3c4nc(c(-c5c(F)c(F)c(F)c(F)c5F)c5ccc([nH]5)c(-c5c(F)c(F)c(F)c(F)c5F)c5nc(c(-c6c(F)c(F)c(F)c(F)c6F)c6ccc3[nH]6)C=C5)C=C4)cc2)cs1
REMARK SMILES IDX 19 1 18 2 16 3 17 4 15 5 10 6 11 7 12 8 14 9 13 10 8 11 9 12
REMARK SMILES IDX 7 13 6 14 5 15 4 16 1 17 2 18 3 19 91 20 90 21 20 22 21 23
REMARK SMILES IDX 22 24 23 25 24 26 25 27 26 28 27 29 28 30 89 31 29 32 88 33
REMARK SMILES IDX 30 34 31 35 32 36 82 37 33 38 87 39 81 40 83 41 34 42 86 43
REMARK SMILES IDX 80 44 79 45 35 47 67 48 47 49 66 50 48 51 51 52 65 53 84 54
REMARK SMILES IDX 49 55 50 56 64 58 85 59 52 60 36 61 37 62 45 63 38 64 39 65
REMARK SMILES IDX 43 66 46 67 40 68 41 69 44 70 42 71 68 72 69 73 77 74 70 75
REMARK SMILES IDX 71 76 75 77 78 78 72 79 73 80 76 81 74 82 53 83 54 84 62 85
REMARK SMILES IDX 55 86 56 87 60 88 63 89 57 90 58 91 61 92 59 93
REMARK H PARENT 83 46 51 57
REMARK Flexibility Score: inf
ROOT
ATOM      1  C   UNL A   1      34.340  25.307  24.902  1.00  0.00     0.261 C 
ENDROOT
BRANCH   1   2
ATOM      2  O   UNL A   1      34.222  26.639  25.393  1.00  0.00    -0.462 OA
BRANCH   2   3
ATOM      3  C   UNL A   1      33.135  26.943  26.148  1.00  0.00     0.328 C 
ATOM      4  O   UNL A   1      32.089  26.306  26.161  1.00  0.00    -0.250 OA
BRANCH   3   5
ATOM      5  C   UNL A   1      33.350  28.256  26.926  1.00  0.00     0.195 C 
ATOM      6  N   UNL A   1      32.634  29.402  26.330  1.00  0.00    -0.328 N 
ATOM      7  C   UNL A   1      32.852  30.705  26.947  1.00  0.00     0.120 C 
ATOM      8  C   UNL A   1      34.330  30.988  27.233  1.00  0.00     0.022 C 
ATOM      9  C   UNL A   1      34.823  28.553  27.235  1.00  0.00     0.037 C 
ATOM     10  C   UNL A   1      34.961  29.848  28.024  1.00  0.00     0.005 C 
BRANCH   6  11
ATOM     11  C   UNL A   1      32.358  29.394  24.961  1.00  0.00     0.233 C 
ATOM     12  O   UNL A   1      33.252  29.409  24.124  1.00  0.00    -0.274 OA
BRANCH  11  13
ATOM     13  C   UNL A   1      30.851  29.342  24.682  1.00  0.00     0.170 C 
BRANCH  13  14
ATOM     14  S   UNL A   1      30.396  28.795  23.001  1.00  0.00    -0.146 SA
BRANCH  14  15
ATOM     15  C   UNL A   1      29.967  27.070  23.357  1.00  0.00     0.127 C 
BRANCH  15  16
ATOM     16  C   UNL A   1      30.978  26.077  22.885  1.00  0.00     0.061 A 
ATOM     17  C   UNL A   1      32.053  22.607  23.177  1.00  0.00     0.079 C 
ATOM     18  C   UNL A   1      31.830  24.031  22.813  1.00  0.00     0.090 A 
ATOM     19  N   UNL A   1      30.903  24.778  23.363  1.00  0.00    -0.246 NA
ATOM     20  S   UNL A   1      32.795  24.810  21.628  1.00  0.00    -0.127 S 
ATOM     21  C   UNL A   1      31.930  26.266  21.898  1.00  0.00     0.091 A 
ENDBRANCH  15  16
ENDBRANCH  14  15
ENDBRANCH  13  14
ENDBRANCH  11  13
ENDBRANCH   6  11
ENDBRANCH   3   5
ENDBRANCH   2   3
ENDBRANCH   1   2
BRANCH   1  22
ATOM     22  C   UNL A   1      35.515  24.461  25.411  1.00  0.00     0.202 C 
BRANCH  22  23
ATOM     23  O   UNL A   1      35.330  23.106  25.780  1.00  0.00    -0.374 OA
BRANCH  23  24
ATOM     24  C   UNL A   1      35.727  22.054  24.913  1.00  0.00     0.202 C 
BRANCH  24  25
ATOM     25  C   UNL A   1      36.877  21.134  25.326  1.00  0.00     0.261 C 
BRANCH  25  26
ATOM     26  O   UNL A   1      38.177  21.677  25.043  1.00  0.00    -0.460 OA
BRANCH  26  27
ATOM     27  C   UNL A   1      39.125  21.372  25.963  1.00  0.00     0.338 C 
ATOM     28  O   UNL A   1      39.645  20.288  26.159  1.00  0.00    -0.246 OA
BRANCH  27  29
ATOM     29  C   UNL A   1      39.586  22.589  26.656  1.00  0.00     0.060 A 
ATOM     30  C   UNL A   1      39.037  23.811  26.247  1.00  0.00     0.016 A 
ATOM     31  C   UNL A   1      40.620  22.547  27.592  1.00  0.00     0.016 A 
ATOM     32  C   UNL A   1      39.566  25.006  26.727  1.00  0.00     0.010 A 
ATOM     33  C   UNL A   1      41.161  23.749  28.060  1.00  0.00     0.010 A 
ATOM     34  C   UNL A   1      40.668  24.980  27.591  1.00  0.00    -0.014 A 
BRANCH  34  35
ATOM     35  C   UNL A   1      41.433  26.229  27.825  1.00  0.00     0.031 A 
ATOM     36  C   UNL A   1      40.765  27.347  28.579  1.00  0.00     0.074 A 
ATOM     37  C   UNL A   1      42.704  26.356  27.412  1.00  0.00     0.049 A 
ATOM     38  N   UNL A   1      41.217  28.539  28.878  1.00  0.00    -0.248 NA
ATOM     39  C   UNL A   1      39.400  27.082  29.060  1.00  0.00     0.031 C 
ATOM     40  C   UNL A   1      43.474  25.326  26.720  1.00  0.00     0.029 A 
ATOM     41  N   UNL A   1      43.569  27.417  27.514  1.00  0.00    -0.354 N 
ATOM     42  C   UNL A   1      40.192  29.164  29.577  1.00  0.00     0.074 A 
ATOM     43  C   UNL A   1      39.084  28.234  29.630  1.00  0.00     0.031 C 
ATOM     44  C   UNL A   1      44.700  25.811  26.449  1.00  0.00     0.029 A 
ATOM     45  C   UNL A   1      44.785  27.192  26.921  1.00  0.00     0.049 A 
ATOM     46  H   UNL A   1      43.337  28.259  27.970  1.00  0.00     0.167 HD
ATOM     47  C   UNL A   1      40.178  30.399  30.133  1.00  0.00     0.037 A 
ATOM     48  C   UNL A   1      45.836  28.020  26.762  1.00  0.00     0.037 A 
ATOM     49  C   UNL A   1      41.278  31.325  30.070  1.00  0.00     0.049 A 
ATOM     50  C   UNL A   1      45.765  29.423  27.309  1.00  0.00     0.074 A 
ATOM     51  C   UNL A   1      41.368  32.597  30.609  1.00  0.00     0.029 A 
ATOM     52  N   UNL A   1      42.477  31.079  29.420  1.00  0.00    -0.354 N 
ATOM     53  N   UNL A   1      44.802  30.003  27.985  1.00  0.00    -0.248 NA
ATOM     54  C   UNL A   1      46.932  30.285  27.071  1.00  0.00     0.031 C 
ATOM     55  C   UNL A   1      42.603  33.141  30.237  1.00  0.00     0.029 A 
ATOM     56  C   UNL A   1      43.304  32.187  29.517  1.00  0.00     0.049 A 
ATOM     57  H   UNL A   1      42.708  30.241  28.957  1.00  0.00     0.167 HD
ATOM     58  C   UNL A   1      45.256  31.283  28.277  1.00  0.00     0.074 A 
ATOM     59  C   UNL A   1      46.585  31.392  27.713  1.00  0.00     0.031 C 
ATOM     60  C   UNL A   1      44.629  32.277  28.954  1.00  0.00     0.037 A 
BRANCH  47  61
ATOM     61  C   UNL A   1      38.916  30.828  30.822  1.00  0.00     0.064 A 
ATOM     62  C   UNL A   1      38.736  30.666  32.205  1.00  0.00     0.173 A 
ATOM     63  C   UNL A   1      37.869  31.410  30.089  1.00  0.00     0.173 A 
ATOM     64  F   UNL A   1      39.698  30.101  32.949  1.00  0.00    -0.203 F 
ATOM     65  C   UNL A   1      37.544  31.040  32.821  1.00  0.00     0.198 A 
ATOM     66  C   UNL A   1      36.691  31.810  30.714  1.00  0.00     0.198 A 
ATOM     67  F   UNL A   1      37.990  31.590  28.765  1.00  0.00    -0.203 F 
ATOM     68  F   UNL A   1      37.373  30.821  34.132  1.00  0.00    -0.200 F 
ATOM     69  C   UNL A   1      36.525  31.614  32.077  1.00  0.00     0.200 A 
ATOM     70  F   UNL A   1      35.712  32.375  29.994  1.00  0.00    -0.200 F 
ATOM     71  F   UNL A   1      35.377  31.971  32.671  1.00  0.00    -0.200 F 
ENDBRANCH  47  61
BRANCH  48  72
ATOM     72  C   UNL A   1      47.048  27.543  26.047  1.00  0.00     0.064 A 
ATOM     73  C   UNL A   1      48.126  26.986  26.748  1.00  0.00     0.173 A 
ATOM     74  C   UNL A   1      47.156  27.639  24.652  1.00  0.00     0.173 A 
ATOM     75  F   UNL A   1      48.081  26.899  28.086  1.00  0.00    -0.203 F 
ATOM     76  C   UNL A   1      49.270  26.552  26.082  1.00  0.00     0.198 A 
ATOM     77  C   UNL A   1      48.289  27.182  23.985  1.00  0.00     0.198 A 
ATOM     78  F   UNL A   1      46.154  28.172  23.936  1.00  0.00    -0.203 F 
ATOM     79  F   UNL A   1      50.302  26.061  26.780  1.00  0.00    -0.200 F 
ATOM     80  C   UNL A   1      49.347  26.643  24.700  1.00  0.00     0.200 A 
ATOM     81  F   UNL A   1      48.358  27.265  22.649  1.00  0.00    -0.200 F 
ATOM     82  F   UNL A   1      50.447  26.221  24.060  1.00  0.00    -0.200 F 
ENDBRANCH  48  72
BRANCH  60  83
ATOM     83  C   UNL A   1      45.385  33.559  29.158  1.00  0.00     0.064 A 
ATOM     84  C   UNL A   1      45.281  34.630  28.258  1.00  0.00     0.173 A 
ATOM     85  C   UNL A   1      46.190  33.734  30.295  1.00  0.00     0.173 A 
ATOM     86  F   UNL A   1      44.535  34.509  27.150  1.00  0.00    -0.203 F 
ATOM     87  C   UNL A   1      45.971  35.819  28.478  1.00  0.00     0.198 A 
ATOM     88  C   UNL A   1      46.855  34.935  30.526  1.00  0.00     0.198 A 
ATOM     89  F   UNL A   1      46.318  32.744  31.192  1.00  0.00    -0.203 F 
ATOM     90  F   UNL A   1      45.892  36.813  27.581  1.00  0.00    -0.200 F 
ATOM     91  C   UNL A   1      46.752  35.974  29.614  1.00  0.00     0.200 A 
ATOM     92  F   UNL A   1      47.595  35.087  31.633  1.00  0.00    -0.200 F 
ATOM     93  F   UNL A   1      47.408  37.122  29.827  1.00  0.00    -0.200 F 
ENDBRANCH  60  83
ENDBRANCH  34  35
ENDBRANCH  27  29
ENDBRANCH  26  27
ENDBRANCH  25  26
ENDBRANCH  24  25
ENDBRANCH  23  24
ENDBRANCH  22  23
ENDBRANCH   1  22
TORSDOF 19
ENDMDL
