MODEL 1
REMARK VINA RESULT:     -10.6      0.000      0.000
REMARK SMILES C[C@@H](C(=O)OCCOCCOC(=O)c1ccc(-c2c3nc(c(-c4c(F)c(F)c(F)c(F)c4F)c4ccc([nH]4)c(-c4c(F)c(F)c(F)c(F)c4F)c4nc(c(-c5c(F)c(F)c(F)c(F)c5F)c5ccc2[nH]5)C=C4)C=C3)cc1)c1cccn(C(F)F)c1=O
REMARK SMILES IDX 8 1 7 2 6 3 5 4 3 5 4 6 2 7 1 8 77 9 78 10 85 11 79 12 81 13
REMARK SMILES IDX 86 14 80 15 82 16 83 17 84 18 9 19 10 20 11 21 12 22 13 23
REMARK SMILES IDX 14 24 15 25 76 26 16 27 75 28 17 29 18 30 19 31 69 32 20 33
REMARK SMILES IDX 74 34 68 35 70 36 21 37 73 38 67 39 66 40 22 42 54 43 34 44
REMARK SMILES IDX 53 45 35 46 38 47 52 48 71 49 36 50 37 51 51 53 72 54 39 55
REMARK SMILES IDX 23 56 24 57 32 58 25 59 26 60 30 61 33 62 27 63 28 64 31 65
REMARK SMILES IDX 29 66 55 67 56 68 64 69 57 70 58 71 62 72 65 73 59 74 60 75
REMARK SMILES IDX 63 76 61 77 40 78 41 79 49 80 42 81 43 82 47 83 50 84 44 85
REMARK SMILES IDX 45 86 48 87 46 88
REMARK H PARENT 70 41 38 52
REMARK Flexibility Score: inf
ROOT
ATOM      1  O   UNL A   1      37.548  21.391  24.633  1.00  0.00    -0.374 OA
ENDROOT
BRANCH   1   2
ATOM      2  C   UNL A   1      36.233  21.899  24.431  1.00  0.00     0.202 C 
BRANCH   2   3
ATOM      3  C   UNL A   1      36.074  23.099  23.489  1.00  0.00     0.261 C 
BRANCH   3   4
ATOM      4  O   UNL A   1      34.959  22.976  22.589  1.00  0.00    -0.463 OA
BRANCH   4   5
ATOM      5  C   UNL A   1      33.979  23.906  22.786  1.00  0.00     0.313 C 
ATOM      6  O   UNL A   1      34.207  25.108  22.835  1.00  0.00    -0.252 OA
BRANCH   5   7
ATOM      7  C   UNL A   1      32.578  23.258  22.906  1.00  0.00     0.132 C 
ATOM      8  C   UNL A   1      31.470  24.321  22.995  1.00  0.00     0.025 C 
BRANCH   7   9
ATOM      9  C   UNL A   1      32.605  22.314  24.101  1.00  0.00     0.032 A 
ATOM     10  C   UNL A   1      32.782  22.638  25.397  1.00  0.00     0.012 A 
ATOM     11  C   UNL A   1      32.529  20.846  23.760  1.00  0.00     0.259 A 
ATOM     12  C   UNL A   1      33.036  21.625  26.393  1.00  0.00     0.019 A 
ATOM     13  N   UNL A   1      33.100  19.998  24.688  1.00  0.00    -0.258 N 
ATOM     14  O   UNL A   1      32.035  20.481  22.696  1.00  0.00    -0.269 OA
ATOM     15  C   UNL A   1      33.270  20.365  26.007  1.00  0.00     0.095 A 
BRANCH  13  16
ATOM     16  C   UNL A   1      33.421  18.669  24.244  1.00  0.00     0.451 C 
ATOM     17  F   UNL A   1      34.763  18.461  24.340  1.00  0.00    -0.185 F 
ATOM     18  F   UNL A   1      32.838  17.756  25.061  1.00  0.00    -0.185 F 
ENDBRANCH  13  16
ENDBRANCH   7   9
ENDBRANCH   5   7
ENDBRANCH   4   5
ENDBRANCH   3   4
ENDBRANCH   2   3
ENDBRANCH   1   2
BRANCH   1  19
ATOM     19  C   UNL A   1      37.699  19.974  24.719  1.00  0.00     0.202 C 
BRANCH  19  20
ATOM     20  C   UNL A   1      38.987  19.473  25.381  1.00  0.00     0.261 C 
BRANCH  20  21
ATOM     21  O   UNL A   1      39.339  20.287  26.515  1.00  0.00    -0.460 OA
BRANCH  21  22
ATOM     22  C   UNL A   1      40.662  20.530  26.648  1.00  0.00     0.338 C 
ATOM     23  O   UNL A   1      41.588  19.824  26.267  1.00  0.00    -0.246 OA
BRANCH  22  24
ATOM     24  C   UNL A   1      40.881  21.891  27.171  1.00  0.00     0.060 A 
ATOM     25  C   UNL A   1      40.205  22.938  26.530  1.00  0.00     0.016 A 
ATOM     26  C   UNL A   1      41.774  22.153  28.211  1.00  0.00     0.016 A 
ATOM     27  C   UNL A   1      40.471  24.259  26.881  1.00  0.00     0.010 A 
ATOM     28  C   UNL A   1      42.048  23.482  28.556  1.00  0.00     0.010 A 
ATOM     29  C   UNL A   1      41.430  24.539  27.864  1.00  0.00    -0.014 A 
BRANCH  29  30
ATOM     30  C   UNL A   1      41.900  25.934  28.037  1.00  0.00     0.031 A 
ATOM     31  C   UNL A   1      43.247  26.319  27.488  1.00  0.00     0.074 A 
ATOM     32  C   UNL A   1      41.124  26.858  28.631  1.00  0.00     0.049 A 
ATOM     33  N   UNL A   1      43.869  27.470  27.537  1.00  0.00    -0.248 NA
ATOM     34  C   UNL A   1      43.992  25.261  26.786  1.00  0.00     0.031 C 
ATOM     35  C   UNL A   1      39.785  26.617  29.162  1.00  0.00     0.029 A 
ATOM     36  N   UNL A   1      41.358  28.185  28.887  1.00  0.00    -0.354 N 
ATOM     37  C   UNL A   1      45.075  27.274  26.876  1.00  0.00     0.074 A 
ATOM     38  C   UNL A   1      45.114  25.889  26.464  1.00  0.00     0.031 C 
ATOM     39  C   UNL A   1      39.318  27.760  29.695  1.00  0.00     0.029 A 
ATOM     40  C   UNL A   1      40.337  28.801  29.566  1.00  0.00     0.049 A 
ATOM     41  H   UNL A   1      42.179  28.652  28.609  1.00  0.00     0.167 HD
ATOM     42  C   UNL A   1      46.056  28.175  26.627  1.00  0.00     0.037 A 
ATOM     43  C   UNL A   1      40.246  30.056  30.047  1.00  0.00     0.037 A 
ATOM     44  C   UNL A   1      46.015  29.553  27.037  1.00  0.00     0.049 A 
ATOM     45  C   UNL A   1      41.382  31.019  29.817  1.00  0.00     0.074 A 
ATOM     46  C   UNL A   1      46.956  30.545  26.823  1.00  0.00     0.029 A 
ATOM     47  N   UNL A   1      44.977  30.132  27.752  1.00  0.00    -0.354 N 
ATOM     48  N   UNL A   1      42.511  30.833  29.178  1.00  0.00    -0.248 NA
ATOM     49  C   UNL A   1      41.228  32.372  30.375  1.00  0.00     0.031 C 
ATOM     50  C   UNL A   1      46.508  31.714  27.450  1.00  0.00     0.029 A 
ATOM     51  C   UNL A   1      45.265  31.463  28.008  1.00  0.00     0.049 A 
ATOM     52  H   UNL A   1      44.158  29.666  28.034  1.00  0.00     0.167 HD
ATOM     53  C   UNL A   1      43.187  32.045  29.231  1.00  0.00     0.074 A 
ATOM     54  C   UNL A   1      42.336  32.965  29.955  1.00  0.00     0.031 C 
ATOM     55  C   UNL A   1      44.404  32.368  28.725  1.00  0.00     0.037 A 
BRANCH  42  56
ATOM     56  C   UNL A   1      47.270  27.687  25.892  1.00  0.00     0.064 A 
ATOM     57  C   UNL A   1      48.388  27.181  26.572  1.00  0.00     0.173 A 
ATOM     58  C   UNL A   1      47.302  27.694  24.490  1.00  0.00     0.173 A 
ATOM     59  F   UNL A   1      48.414  27.167  27.914  1.00  0.00    -0.203 F 
ATOM     60  C   UNL A   1      49.504  26.723  25.874  1.00  0.00     0.198 A 
ATOM     61  C   UNL A   1      48.407  27.210  23.796  1.00  0.00     0.198 A 
ATOM     62  F   UNL A   1      46.257  28.164  23.792  1.00  0.00    -0.203 F 
ATOM     63  F   UNL A   1      50.578  26.286  26.546  1.00  0.00    -0.200 F 
ATOM     64  C   UNL A   1      49.509  26.731  24.488  1.00  0.00     0.200 A 
ATOM     65  F   UNL A   1      48.407  27.209  22.456  1.00  0.00    -0.200 F 
ATOM     66  F   UNL A   1      50.580  26.285  23.818  1.00  0.00    -0.200 F 
ENDBRANCH  42  56
BRANCH  43  67
ATOM     67  C   UNL A   1      39.041  30.473  30.810  1.00  0.00     0.064 A 
ATOM     68  C   UNL A   1      38.988  30.353  32.205  1.00  0.00     0.173 A 
ATOM     69  C   UNL A   1      37.911  30.985  30.155  1.00  0.00     0.173 A 
ATOM     70  F   UNL A   1      40.032  29.844  32.874  1.00  0.00    -0.203 F 
ATOM     71  C   UNL A   1      37.842  30.712  32.914  1.00  0.00     0.198 A 
ATOM     72  C   UNL A   1      36.778  31.371  30.867  1.00  0.00     0.198 A 
ATOM     73  F   UNL A   1      37.911  31.119  28.820  1.00  0.00    -0.203 F 
ATOM     74  F   UNL A   1      37.800  30.543  34.243  1.00  0.00    -0.200 F 
ATOM     75  C   UNL A   1      36.742  31.227  32.246  1.00  0.00     0.200 A 
ATOM     76  F   UNL A   1      35.721  31.877  30.218  1.00  0.00    -0.200 F 
ATOM     77  F   UNL A   1      35.643  31.574  32.928  1.00  0.00    -0.200 F 
ENDBRANCH  43  67
BRANCH  55  78
ATOM     78  C   UNL A   1      44.874  33.781  28.906  1.00  0.00     0.064 A 
ATOM     79  C   UNL A   1      44.547  34.789  27.986  1.00  0.00     0.173 A 
ATOM     80  C   UNL A   1      45.623  34.142  30.036  1.00  0.00     0.173 A 
ATOM     81  F   UNL A   1      43.843  34.493  26.882  1.00  0.00    -0.203 F 
ATOM     82  C   UNL A   1      44.972  36.100  28.180  1.00  0.00     0.198 A 
ATOM     83  C   UNL A   1      46.023  35.459  30.241  1.00  0.00     0.198 A 
ATOM     84  F   UNL A   1      45.956  33.217  30.949  1.00  0.00    -0.203 F 
ATOM     85  F   UNL A   1      44.685  37.038  27.265  1.00  0.00    -0.200 F 
ATOM     86  C   UNL A   1      45.704  36.436  29.310  1.00  0.00     0.200 A 
ATOM     87  F   UNL A   1      46.717  35.785  31.340  1.00  0.00    -0.200 F 
ATOM     88  F   UNL A   1      46.105  37.700  29.498  1.00  0.00    -0.200 F 
ENDBRANCH  55  78
ENDBRANCH  29  30
ENDBRANCH  22  24
ENDBRANCH  21  22
ENDBRANCH  20  21
ENDBRANCH  19  20
ENDBRANCH   1  19
TORSDOF 16
ENDMDL
MODEL 2
REMARK VINA RESULT:     -10.5      2.241      7.998
REMARK SMILES C[C@@H](C(=O)OCCOCCOC(=O)c1ccc(-c2c3nc(c(-c4c(F)c(F)c(F)c(F)c4F)c4ccc([nH]4)c(-c4c(F)c(F)c(F)c(F)c4F)c4nc(c(-c5c(F)c(F)c(F)c(F)c5F)c5ccc2[nH]5)C=C4)C=C3)cc1)c1cccn(C(F)F)c1=O
REMARK SMILES IDX 8 1 7 2 6 3 5 4 3 5 4 6 2 7 1 8 77 9 78 10 85 11 79 12 81 13
REMARK SMILES IDX 86 14 80 15 82 16 83 17 84 18 9 19 10 20 11 21 12 22 13 23
REMARK SMILES IDX 14 24 15 25 76 26 16 27 75 28 17 29 18 30 19 31 69 32 20 33
REMARK SMILES IDX 74 34 68 35 70 36 21 37 73 38 67 39 66 40 22 42 54 43 34 44
REMARK SMILES IDX 53 45 35 46 38 47 52 48 71 49 36 50 37 51 51 53 72 54 39 55
REMARK SMILES IDX 23 56 24 57 32 58 25 59 26 60 30 61 33 62 27 63 28 64 31 65
REMARK SMILES IDX 29 66 55 67 56 68 64 69 57 70 58 71 62 72 65 73 59 74 60 75
REMARK SMILES IDX 63 76 61 77 40 78 41 79 49 80 42 81 43 82 47 83 50 84 44 85
REMARK SMILES IDX 45 86 48 87 46 88
REMARK H PARENT 70 41 38 52
REMARK Flexibility Score: inf
ROOT
ATOM      1  O   UNL A   1      35.146  21.524  26.484  1.00  0.00    -0.374 OA
ENDROOT
BRANCH   1   2
ATOM      2  C   UNL A   1      34.806  22.893  26.684  1.00  0.00     0.202 C 
BRANCH   2   3
ATOM      3  C   UNL A   1      34.754  23.798  25.447  1.00  0.00     0.261 C 
BRANCH   3   4
ATOM      4  O   UNL A   1      33.641  24.709  25.451  1.00  0.00    -0.463 OA
BRANCH   4   5
ATOM      5  C   UNL A   1      32.985  24.791  24.257  1.00  0.00     0.313 C 
ATOM      6  O   UNL A   1      33.555  24.677  23.179  1.00  0.00    -0.252 OA
BRANCH   5   7
ATOM      7  C   UNL A   1      31.464  25.011  24.442  1.00  0.00     0.132 C 
ATOM      8  C   UNL A   1      30.652  24.296  23.349  1.00  0.00     0.025 C 
BRANCH   7   9
ATOM      9  C   UNL A   1      31.216  26.513  24.490  1.00  0.00     0.032 A 
ATOM     10  C   UNL A   1      31.137  27.365  23.449  1.00  0.00     0.012 A 
ATOM     11  C   UNL A   1      31.162  27.110  25.876  1.00  0.00     0.259 A 
ATOM     12  C   UNL A   1      31.149  28.795  23.648  1.00  0.00     0.019 A 
ATOM     13  N   UNL A   1      31.504  28.446  25.953  1.00  0.00    -0.258 N 
ATOM     14  O   UNL A   1      30.882  26.406  26.843  1.00  0.00    -0.269 OA
ATOM     15  C   UNL A   1      31.415  29.288  24.864  1.00  0.00     0.095 A 
BRANCH  13  16
ATOM     16  C   UNL A   1      31.864  28.951  27.249  1.00  0.00     0.451 C 
ATOM     17  F   UNL A   1      32.988  28.325  27.694  1.00  0.00    -0.185 F 
ATOM     18  F   UNL A   1      32.175  30.269  27.161  1.00  0.00    -0.185 F 
ENDBRANCH  13  16
ENDBRANCH   7   9
ENDBRANCH   5   7
ENDBRANCH   4   5
ENDBRANCH   3   4
ENDBRANCH   2   3
ENDBRANCH   1   2
BRANCH   1  19
ATOM     19  C   UNL A   1      35.511  21.123  25.164  1.00  0.00     0.202 C 
BRANCH  19  20
ATOM     20  C   UNL A   1      36.905  20.507  25.008  1.00  0.00     0.261 C 
BRANCH  20  21
ATOM     21  O   UNL A   1      37.930  21.515  25.076  1.00  0.00    -0.460 OA
BRANCH  21  22
ATOM     22  C   UNL A   1      38.969  21.212  25.886  1.00  0.00     0.338 C 
ATOM     23  O   UNL A   1      39.524  20.127  26.006  1.00  0.00    -0.246 OA
BRANCH  22  24
ATOM     24  C   UNL A   1      39.502  22.436  26.511  1.00  0.00     0.060 A 
ATOM     25  C   UNL A   1      38.931  23.655  26.119  1.00  0.00     0.016 A 
ATOM     26  C   UNL A   1      40.577  22.409  27.401  1.00  0.00     0.016 A 
ATOM     27  C   UNL A   1      39.478  24.856  26.563  1.00  0.00     0.010 A 
ATOM     28  C   UNL A   1      41.132  23.618  27.838  1.00  0.00     0.010 A 
ATOM     29  C   UNL A   1      40.610  24.844  27.388  1.00  0.00    -0.014 A 
BRANCH  29  30
ATOM     30  C   UNL A   1      41.341  26.111  27.630  1.00  0.00     0.031 A 
ATOM     31  C   UNL A   1      40.647  27.218  28.375  1.00  0.00     0.074 A 
ATOM     32  C   UNL A   1      42.618  26.260  27.235  1.00  0.00     0.049 A 
ATOM     33  N   UNL A   1      41.081  28.414  28.685  1.00  0.00    -0.248 NA
ATOM     34  C   UNL A   1      39.278  26.937  28.835  1.00  0.00     0.031 C 
ATOM     35  C   UNL A   1      43.410  25.244  26.545  1.00  0.00     0.029 A 
ATOM     36  N   UNL A   1      43.469  27.328  27.358  1.00  0.00    -0.354 N 
ATOM     37  C   UNL A   1      40.041  29.025  29.373  1.00  0.00     0.074 A 
ATOM     38  C   UNL A   1      38.943  28.085  29.407  1.00  0.00     0.031 C 
ATOM     39  C   UNL A   1      44.632  25.745  26.293  1.00  0.00     0.029 A 
ATOM     40  C   UNL A   1      44.696  27.123  26.779  1.00  0.00     0.049 A 
ATOM     41  H   UNL A   1      43.224  28.164  27.819  1.00  0.00     0.167 HD
ATOM     42  C   UNL A   1      40.010  30.257  29.934  1.00  0.00     0.037 A 
ATOM     43  C   UNL A   1      45.742  27.960  26.640  1.00  0.00     0.037 A 
ATOM     44  C   UNL A   1      41.103  31.192  29.899  1.00  0.00     0.049 A 
ATOM     45  C   UNL A   1      45.657  29.351  27.213  1.00  0.00     0.074 A 
ATOM     46  C   UNL A   1      41.172  32.461  30.447  1.00  0.00     0.029 A 
ATOM     47  N   UNL A   1      42.320  30.959  29.275  1.00  0.00    -0.354 N 
ATOM     48  N   UNL A   1      44.678  29.916  27.876  1.00  0.00    -0.248 NA
ATOM     49  C   UNL A   1      46.828  30.221  27.019  1.00  0.00     0.031 C 
ATOM     50  C   UNL A   1      42.413  33.014  30.115  1.00  0.00     0.029 A 
ATOM     51  C   UNL A   1      43.137  32.070  29.404  1.00  0.00     0.049 A 
ATOM     52  H   UNL A   1      42.565  30.127  28.810  1.00  0.00     0.167 HD
ATOM     53  C   UNL A   1      45.121  31.191  28.202  1.00  0.00     0.074 A 
ATOM     54  C   UNL A   1      46.463  31.314  27.674  1.00  0.00     0.031 C 
ATOM     55  C   UNL A   1      44.474  32.174  28.879  1.00  0.00     0.037 A 
BRANCH  42  56
ATOM     56  C   UNL A   1      38.741  30.673  30.617  1.00  0.00     0.064 A 
ATOM     57  C   UNL A   1      38.587  30.574  32.009  1.00  0.00     0.173 A 
ATOM     58  C   UNL A   1      37.677  31.208  29.876  1.00  0.00     0.173 A 
ATOM     59  F   UNL A   1      39.568  30.054  32.762  1.00  0.00    -0.203 F 
ATOM     60  C   UNL A   1      37.404  30.973  32.629  1.00  0.00     0.198 A 
ATOM     61  C   UNL A   1      36.508  31.632  30.502  1.00  0.00     0.198 A 
ATOM     62  F   UNL A   1      37.774  31.327  28.543  1.00  0.00    -0.203 F 
ATOM     63  F   UNL A   1      37.263  30.827  33.954  1.00  0.00    -0.200 F 
ATOM     64  C   UNL A   1      36.370  31.507  31.876  1.00  0.00     0.200 A 
ATOM     65  F   UNL A   1      35.514  32.158  29.775  1.00  0.00    -0.200 F 
ATOM     66  F   UNL A   1      35.236  31.897  32.474  1.00  0.00    -0.200 F 
ENDBRANCH  42  56
BRANCH  43  67
ATOM     67  C   UNL A   1      46.958  27.513  25.911  1.00  0.00     0.064 A 
ATOM     68  C   UNL A   1      48.043  26.944  26.590  1.00  0.00     0.173 A 
ATOM     69  C   UNL A   1      47.063  27.661  24.519  1.00  0.00     0.173 A 
ATOM     70  F   UNL A   1      48.001  26.805  27.923  1.00  0.00    -0.203 F 
ATOM     71  C   UNL A   1      49.196  26.558  25.907  1.00  0.00     0.198 A 
ATOM     72  C   UNL A   1      48.204  27.249  23.835  1.00  0.00     0.198 A 
ATOM     73  F   UNL A   1      46.052  28.202  23.823  1.00  0.00    -0.203 F 
ATOM     74  F   UNL A   1      50.239  26.060  26.587  1.00  0.00    -0.200 F 
ATOM     75  C   UNL A   1      49.273  26.705  24.531  1.00  0.00     0.200 A 
ATOM     76  F   UNL A   1      48.269  27.383  22.504  1.00  0.00    -0.200 F 
ATOM     77  F   UNL A   1      50.380  26.331  23.876  1.00  0.00    -0.200 F 
ENDBRANCH  43  67
BRANCH  55  78
ATOM     78  C   UNL A   1      45.220  33.454  29.118  1.00  0.00     0.064 A 
ATOM     79  C   UNL A   1      45.131  34.535  28.229  1.00  0.00     0.173 A 
ATOM     80  C   UNL A   1      45.999  33.616  30.274  1.00  0.00     0.173 A 
ATOM     81  F   UNL A   1      44.410  34.425  27.102  1.00  0.00    -0.203 F 
ATOM     82  C   UNL A   1      45.812  35.724  28.477  1.00  0.00     0.198 A 
ATOM     83  C   UNL A   1      46.656  34.816  30.533  1.00  0.00     0.198 A 
ATOM     84  F   UNL A   1      46.111  32.615  31.159  1.00  0.00    -0.203 F 
ATOM     85  F   UNL A   1      45.748  36.728  27.591  1.00  0.00    -0.200 F 
ATOM     86  C   UNL A   1      46.568  35.866  29.632  1.00  0.00     0.200 A 
ATOM     87  F   UNL A   1      47.374  34.957  31.656  1.00  0.00    -0.200 F 
ATOM     88  F   UNL A   1      47.217  37.014  29.872  1.00  0.00    -0.200 F 
ENDBRANCH  55  78
ENDBRANCH  29  30
ENDBRANCH  22  24
ENDBRANCH  21  22
ENDBRANCH  20  21
ENDBRANCH  19  20
ENDBRANCH   1  19
TORSDOF 16
ENDMDL
MODEL 3
REMARK VINA RESULT:     -10.5      4.409      9.795
REMARK SMILES C[C@@H](C(=O)OCCOCCOC(=O)c1ccc(-c2c3nc(c(-c4c(F)c(F)c(F)c(F)c4F)c4ccc([nH]4)c(-c4c(F)c(F)c(F)c(F)c4F)c4nc(c(-c5c(F)c(F)c(F)c(F)c5F)c5ccc2[nH]5)C=C4)C=C3)cc1)c1cccn(C(F)F)c1=O
REMARK SMILES IDX 8 1 7 2 6 3 5 4 3 5 4 6 2 7 1 8 77 9 78 10 85 11 79 12 81 13
REMARK SMILES IDX 86 14 80 15 82 16 83 17 84 18 9 19 10 20 11 21 12 22 13 23
REMARK SMILES IDX 14 24 15 25 76 26 16 27 75 28 17 29 18 30 19 31 69 32 20 33
REMARK SMILES IDX 74 34 68 35 70 36 21 37 73 38 67 39 66 40 22 42 54 43 34 44
REMARK SMILES IDX 53 45 35 46 38 47 52 48 71 49 36 50 37 51 51 53 72 54 39 55
REMARK SMILES IDX 23 56 24 57 32 58 25 59 26 60 30 61 33 62 27 63 28 64 31 65
REMARK SMILES IDX 29 66 55 67 56 68 64 69 57 70 58 71 62 72 65 73 59 74 60 75
REMARK SMILES IDX 63 76 61 77 40 78 41 79 49 80 42 81 43 82 47 83 50 84 44 85
REMARK SMILES IDX 45 86 48 87 46 88
REMARK H PARENT 70 41 38 52
REMARK Flexibility Score: inf
ROOT
ATOM      1  O   UNL A   1      32.603  29.632  24.842  1.00  0.00    -0.374 OA
ENDROOT
BRANCH   1   2
ATOM      2  C   UNL A   1      32.435  28.508  23.982  1.00  0.00     0.202 C 
BRANCH   2   3
ATOM      3  C   UNL A   1      33.698  27.763  23.534  1.00  0.00     0.261 C 
BRANCH   3   4
ATOM      4  O   UNL A   1      34.041  26.655  24.384  1.00  0.00    -0.463 OA
BRANCH   4   5
ATOM      5  C   UNL A   1      33.674  25.437  23.888  1.00  0.00     0.313 C 
ATOM      6  O   UNL A   1      33.965  25.069  22.757  1.00  0.00    -0.252 OA
BRANCH   5   7
ATOM      7  C   UNL A   1      32.890  24.598  24.925  1.00  0.00     0.132 C 
ATOM      8  C   UNL A   1      32.389  25.465  26.092  1.00  0.00     0.025 C 
BRANCH   7   9
ATOM      9  C   UNL A   1      33.791  23.453  25.370  1.00  0.00     0.032 A 
ATOM     10  C   UNL A   1      35.111  23.506  25.640  1.00  0.00     0.012 A 
ATOM     11  C   UNL A   1      33.134  22.095  25.402  1.00  0.00     0.259 A 
ATOM     12  C   UNL A   1      35.889  22.302  25.806  1.00  0.00     0.019 A 
ATOM     13  N   UNL A   1      33.990  21.024  25.238  1.00  0.00    -0.258 N 
ATOM     14  O   UNL A   1      31.914  21.999  25.511  1.00  0.00    -0.269 OA
ATOM     15  C   UNL A   1      35.338  21.116  25.520  1.00  0.00     0.095 A 
BRANCH  13  16
ATOM     16  C   UNL A   1      33.400  19.771  24.855  1.00  0.00     0.451 C 
ATOM     17  F   UNL A   1      34.330  18.992  24.236  1.00  0.00    -0.185 F 
ATOM     18  F   UNL A   1      33.011  19.087  25.961  1.00  0.00    -0.185 F 
ENDBRANCH  13  16
ENDBRANCH   7   9
ENDBRANCH   5   7
ENDBRANCH   4   5
ENDBRANCH   3   4
ENDBRANCH   2   3
ENDBRANCH   1   2
BRANCH   1  19
ATOM     19  C   UNL A   1      31.424  30.233  25.377  1.00  0.00     0.202 C 
BRANCH  19  20
ATOM     20  C   UNL A   1      31.640  31.259  26.495  1.00  0.00     0.261 C 
BRANCH  20  21
ATOM     21  O   UNL A   1      32.783  30.917  27.300  1.00  0.00    -0.460 OA
BRANCH  21  22
ATOM     22  C   UNL A   1      33.589  31.958  27.609  1.00  0.00     0.338 C 
ATOM     23  O   UNL A   1      33.269  33.134  27.728  1.00  0.00    -0.246 OA
BRANCH  22  24
ATOM     24  C   UNL A   1      34.931  31.472  27.978  1.00  0.00     0.060 A 
ATOM     25  C   UNL A   1      35.062  30.104  28.253  1.00  0.00     0.016 A 
ATOM     26  C   UNL A   1      36.020  32.333  28.122  1.00  0.00     0.016 A 
ATOM     27  C   UNL A   1      36.266  29.602  28.741  1.00  0.00     0.010 A 
ATOM     28  C   UNL A   1      37.226  31.829  28.622  1.00  0.00     0.010 A 
ATOM     29  C   UNL A   1      37.340  30.471  28.973  1.00  0.00    -0.014 A 
BRANCH  29  30
ATOM     30  C   UNL A   1      38.511  29.983  29.739  1.00  0.00     0.031 A 
ATOM     31  C   UNL A   1      38.713  30.475  31.146  1.00  0.00     0.074 A 
ATOM     32  C   UNL A   1      39.357  29.081  29.211  1.00  0.00     0.049 A 
ATOM     33  N   UNL A   1      39.671  30.201  31.995  1.00  0.00    -0.248 NA
ATOM     34  C   UNL A   1      37.695  31.401  31.667  1.00  0.00     0.031 C 
ATOM     35  C   UNL A   1      39.241  28.498  27.877  1.00  0.00     0.029 A 
ATOM     36  N   UNL A   1      40.483  28.502  29.738  1.00  0.00    -0.354 N 
ATOM     37  C   UNL A   1      39.372  30.919  33.146  1.00  0.00     0.074 A 
ATOM     38  C   UNL A   1      38.164  31.667  32.878  1.00  0.00     0.031 C 
ATOM     39  C   UNL A   1      40.267  27.650  27.683  1.00  0.00     0.029 A 
ATOM     40  C   UNL A   1      41.123  27.654  28.869  1.00  0.00     0.049 A 
ATOM     41  H   UNL A   1      40.803  28.677  30.654  1.00  0.00     0.167 HD
ATOM     42  C   UNL A   1      40.040  30.942  34.324  1.00  0.00     0.037 A 
ATOM     43  C   UNL A   1      42.279  26.977  29.008  1.00  0.00     0.037 A 
ATOM     44  C   UNL A   1      41.242  30.197  34.590  1.00  0.00     0.049 A 
ATOM     45  C   UNL A   1      43.041  27.075  30.305  1.00  0.00     0.074 A 
ATOM     46  C   UNL A   1      41.987  30.148  35.755  1.00  0.00     0.029 A 
ATOM     47  N   UNL A   1      41.877  29.373  33.672  1.00  0.00    -0.354 N 
ATOM     48  N   UNL A   1      42.744  27.742  31.393  1.00  0.00    -0.248 NA
ATOM     49  C   UNL A   1      44.301  26.320  30.392  1.00  0.00     0.031 C 
ATOM     50  C   UNL A   1      43.099  29.330  35.527  1.00  0.00     0.029 A 
ATOM     51  C   UNL A   1      43.019  28.829  34.237  1.00  0.00     0.049 A 
ATOM     52  H   UNL A   1      41.562  29.201  32.756  1.00  0.00     0.167 HD
ATOM     53  C   UNL A   1      43.759  27.468  32.301  1.00  0.00     0.074 A 
ATOM     54  C   UNL A   1      44.675  26.563  31.640  1.00  0.00     0.031 C 
ATOM     55  C   UNL A   1      43.918  27.924  33.568  1.00  0.00     0.037 A 
BRANCH  42  56
ATOM     56  C   UNL A   1      39.494  31.823  35.409  1.00  0.00     0.064 A 
ATOM     57  C   UNL A   1      38.591  31.337  36.367  1.00  0.00     0.173 A 
ATOM     58  C   UNL A   1      39.905  33.160  35.514  1.00  0.00     0.173 A 
ATOM     59  F   UNL A   1      38.154  30.069  36.302  1.00  0.00    -0.203 F 
ATOM     60  C   UNL A   1      38.101  32.165  37.374  1.00  0.00     0.198 A 
ATOM     61  C   UNL A   1      39.435  33.976  36.539  1.00  0.00     0.198 A 
ATOM     62  F   UNL A   1      40.770  33.672  34.626  1.00  0.00    -0.203 F 
ATOM     63  F   UNL A   1      37.204  31.692  38.251  1.00  0.00    -0.200 F 
ATOM     64  C   UNL A   1      38.528  33.480  37.463  1.00  0.00     0.200 A 
ATOM     65  F   UNL A   1      39.858  35.244  36.629  1.00  0.00    -0.200 F 
ATOM     66  F   UNL A   1      38.061  34.275  38.436  1.00  0.00    -0.200 F 
ENDBRANCH  42  56
BRANCH  43  67
ATOM     67  C   UNL A   1      42.799  26.158  27.883  1.00  0.00     0.064 A 
ATOM     68  C   UNL A   1      42.492  24.795  27.774  1.00  0.00     0.173 A 
ATOM     69  C   UNL A   1      43.628  26.721  26.901  1.00  0.00     0.173 A 
ATOM     70  F   UNL A   1      41.725  24.206  28.703  1.00  0.00    -0.203 F 
ATOM     71  C   UNL A   1      43.010  24.022  26.736  1.00  0.00     0.198 A 
ATOM     72  C   UNL A   1      44.122  25.954  25.848  1.00  0.00     0.198 A 
ATOM     73  F   UNL A   1      43.953  28.021  26.960  1.00  0.00    -0.203 F 
ATOM     74  F   UNL A   1      42.740  22.710  26.682  1.00  0.00    -0.200 F 
ATOM     75  C   UNL A   1      43.819  24.603  25.771  1.00  0.00     0.200 A 
ATOM     76  F   UNL A   1      44.895  26.522  24.913  1.00  0.00    -0.200 F 
ATOM     77  F   UNL A   1      44.314  23.859  24.773  1.00  0.00    -0.200 F 
ENDBRANCH  43  67
BRANCH  55  78
ATOM     78  C   UNL A   1      45.107  27.427  34.337  1.00  0.00     0.064 A 
ATOM     79  C   UNL A   1      46.317  28.136  34.361  1.00  0.00     0.173 A 
ATOM     80  C   UNL A   1      45.020  26.250  35.096  1.00  0.00     0.173 A 
ATOM     81  F   UNL A   1      46.455  29.261  33.642  1.00  0.00    -0.203 F 
ATOM     82  C   UNL A   1      47.404  27.672  35.098  1.00  0.00     0.198 A 
ATOM     83  C   UNL A   1      46.099  25.804  35.853  1.00  0.00     0.198 A 
ATOM     84  F   UNL A   1      43.883  25.539  35.112  1.00  0.00    -0.203 F 
ATOM     85  F   UNL A   1      48.565  28.343  35.070  1.00  0.00    -0.200 F 
ATOM     86  C   UNL A   1      47.293  26.511  35.848  1.00  0.00     0.200 A 
ATOM     87  F   UNL A   1      45.986  24.690  36.589  1.00  0.00    -0.200 F 
ATOM     88  F   UNL A   1      48.337  26.071  36.562  1.00  0.00    -0.200 F 
ENDBRANCH  55  78
ENDBRANCH  29  30
ENDBRANCH  22  24
ENDBRANCH  21  22
ENDBRANCH  20  21
ENDBRANCH  19  20
ENDBRANCH   1  19
TORSDOF 16
ENDMDL
