MODEL 1
REMARK VINA RESULT:     -12.4      0.000      0.000
REMARK SMILES Cc1c2c([nH]c(=O)c1C(=O)OCCOCCOC(=O)c1ccc(-c3c4nc(c(-c5c(F)c(F)c(F)c(F)c5F)c5ccc([nH]5)c(-c5c(F)c(F)c(F)c(F)c5F)c5nc(c(-c6c(F)c(F)c(F)c(F)c6F)c6ccc3[nH]6)C=C5)C=C4)cc1)CC(C)(C)CC2=O
REMARK SMILES IDX 15 1 14 2 13 3 12 4 11 5 9 6 10 7 8 8 1 9 2 10 3 11 4 12
REMARK SMILES IDX 88 13 6 14 5 15 83 16 87 17 89 18 7 19 84 21 85 22 86 23
REMARK SMILES IDX 16 24 17 25 18 26 19 27 20 28 21 29 82 30 22 31 81 32 23 33
REMARK SMILES IDX 24 34 25 35 75 36 26 37 80 38 74 39 76 40 27 41 79 42 73 43
REMARK SMILES IDX 72 44 28 46 60 47 40 48 59 49 41 50 44 51 58 52 77 53 42 54
REMARK SMILES IDX 43 55 57 57 78 58 45 59 29 60 30 61 38 62 31 63 32 64 36 65
REMARK SMILES IDX 39 66 33 67 34 68 37 69 35 70 61 71 62 72 70 73 63 74 64 75
REMARK SMILES IDX 68 76 71 77 65 78 66 79 69 80 67 81 46 82 47 83 55 84 48 85
REMARK SMILES IDX 49 86 53 87 56 88 50 89 51 90 54 91 52 92
REMARK H PARENT 5 20 76 45 44 56
REMARK Flexibility Score: inf
ROOT
ATOM      1  C   UNL A   1      32.322  29.451  25.380  1.00  0.00     0.202 C 
ENDROOT
BRANCH   1   2
ATOM      2  O   UNL A   1      31.285  28.470  25.377  1.00  0.00    -0.374 OA
BRANCH   2   3
ATOM      3  C   UNL A   1      30.722  28.101  24.116  1.00  0.00     0.202 C 
BRANCH   3   4
ATOM      4  C   UNL A   1      31.500  28.582  22.894  1.00  0.00     0.261 C 
BRANCH   4   5
ATOM      5  O   UNL A   1      31.825  27.438  22.091  1.00  0.00    -0.459 OA
BRANCH   5   6
ATOM      6  C   UNL A   1      33.125  27.073  22.089  1.00  0.00     0.344 C 
ATOM      7  O   UNL A   1      34.071  27.808  21.848  1.00  0.00    -0.246 OA
BRANCH   6   8
ATOM      8  C   UNL A   1      33.278  25.657  22.497  1.00  0.00     0.128 A 
ATOM      9  C   UNL A   1      33.954  26.158  24.882  1.00  0.00     0.046 C 
ATOM     10  C   UNL A   1      33.536  25.237  23.761  1.00  0.00    -0.018 A 
ATOM     11  C   UNL A   1      33.371  23.802  24.093  1.00  0.00     0.041 A 
ATOM     12  C   UNL A   1      33.128  22.905  23.114  1.00  0.00     0.030 A 
ATOM     13  C   UNL A   1      33.311  23.287  25.512  1.00  0.00     0.165 C 
ATOM     14  C   UNL A   1      33.107  24.643  21.417  1.00  0.00     0.263 A 
ATOM     15  N   UNL A   1      33.042  23.335  21.811  1.00  0.00    -0.325 N 
ATOM     16  C   UNL A   1      32.879  21.427  23.303  1.00  0.00     0.061 C 
ATOM     17  C   UNL A   1      32.730  21.908  25.748  1.00  0.00     0.088 C 
ATOM     18  O   UNL A   1      33.648  23.972  26.475  1.00  0.00    -0.294 OA
ATOM     19  O   UNL A   1      33.087  24.931  20.224  1.00  0.00    -0.269 OA
ATOM     20  H   UNL A   1      32.926  22.652  21.112  1.00  0.00     0.169 HD
ATOM     21  C   UNL A   1      33.223  20.898  24.707  1.00  0.00    -0.023 C 
ATOM     22  C   UNL A   1      34.742  20.673  24.846  1.00  0.00     0.012 C 
ATOM     23  C   UNL A   1      32.513  19.553  24.933  1.00  0.00     0.012 C 
ENDBRANCH   6   8
ENDBRANCH   5   6
ENDBRANCH   4   5
ENDBRANCH   3   4
ENDBRANCH   2   3
ENDBRANCH   1   2
BRANCH   1  24
ATOM     24  C   UNL A   1      31.963  30.798  26.018  1.00  0.00     0.261 C 
BRANCH  24  25
ATOM     25  O   UNL A   1      32.536  30.954  27.330  1.00  0.00    -0.460 OA
BRANCH  25  26
ATOM     26  C   UNL A   1      33.371  32.010  27.463  1.00  0.00     0.338 C 
ATOM     27  O   UNL A   1      33.099  33.197  27.338  1.00  0.00    -0.246 OA
BRANCH  26  28
ATOM     28  C   UNL A   1      34.680  31.558  27.960  1.00  0.00     0.060 A 
ATOM     29  C   UNL A   1      34.798  30.221  28.360  1.00  0.00     0.016 A 
ATOM     30  C   UNL A   1      35.748  32.444  28.120  1.00  0.00     0.016 A 
ATOM     31  C   UNL A   1      35.971  29.773  28.960  1.00  0.00     0.010 A 
ATOM     32  C   UNL A   1      36.921  31.996  28.736  1.00  0.00     0.010 A 
ATOM     33  C   UNL A   1      37.025  30.668  29.187  1.00  0.00    -0.014 A 
BRANCH  33  34
ATOM     34  C   UNL A   1      38.167  30.244  30.033  1.00  0.00     0.031 A 
ATOM     35  C   UNL A   1      39.184  29.297  29.462  1.00  0.00     0.074 A 
ATOM     36  C   UNL A   1      38.324  30.736  31.274  1.00  0.00     0.049 A 
ATOM     37  N   UNL A   1      40.253  28.788  30.021  1.00  0.00    -0.248 NA
ATOM     38  C   UNL A   1      38.971  28.868  28.070  1.00  0.00     0.031 C 
ATOM     39  C   UNL A   1      37.434  31.702  31.915  1.00  0.00     0.029 A 
ATOM     40  N   UNL A   1      39.293  30.491  32.215  1.00  0.00    -0.354 N 
ATOM     41  C   UNL A   1      40.840  27.988  29.051  1.00  0.00     0.074 A 
ATOM     42  C   UNL A   1      39.994  28.048  27.878  1.00  0.00     0.031 C 
ATOM     43  C   UNL A   1      37.901  31.969  33.147  1.00  0.00     0.029 A 
ATOM     44  C   UNL A   1      39.101  31.171  33.391  1.00  0.00     0.049 A 
ATOM     45  H   UNL A   1      40.052  29.885  32.060  1.00  0.00     0.167 HD
ATOM     46  C   UNL A   1      41.992  27.280  29.127  1.00  0.00     0.037 A 
ATOM     47  C   UNL A   1      39.808  31.140  34.538  1.00  0.00     0.037 A 
ATOM     48  C   UNL A   1      42.831  27.218  30.294  1.00  0.00     0.049 A 
ATOM     49  C   UNL A   1      41.031  30.266  34.630  1.00  0.00     0.074 A 
ATOM     50  C   UNL A   1      44.017  26.527  30.467  1.00  0.00     0.029 A 
ATOM     51  N   UNL A   1      42.568  27.870  31.490  1.00  0.00    -0.354 N 
ATOM     52  N   UNL A   1      41.585  29.517  33.707  1.00  0.00    -0.248 NA
ATOM     53  C   UNL A   1      41.728  30.231  35.925  1.00  0.00     0.031 C 
ATOM     54  C   UNL A   1      44.448  26.721  31.783  1.00  0.00     0.029 A 
ATOM     55  C   UNL A   1      43.557  27.575  32.414  1.00  0.00     0.049 A 
ATOM     56  H   UNL A   1      41.794  28.455  31.657  1.00  0.00     0.167 HD
ATOM     57  C   UNL A   1      42.703  28.942  34.299  1.00  0.00     0.074 A 
ATOM     58  C   UNL A   1      42.757  29.439  35.658  1.00  0.00     0.031 C 
ATOM     59  C   UNL A   1      43.601  28.079  33.764  1.00  0.00     0.037 A 
BRANCH  46  60
ATOM     60  C   UNL A   1      42.411  26.500  27.916  1.00  0.00     0.064 A 
ATOM     61  C   UNL A   1      41.928  25.206  27.675  1.00  0.00     0.173 A 
ATOM     62  C   UNL A   1      43.257  27.075  26.956  1.00  0.00     0.173 A 
ATOM     63  F   UNL A   1      41.126  24.607  28.569  1.00  0.00    -0.203 F 
ATOM     64  C   UNL A   1      42.288  24.510  26.524  1.00  0.00     0.198 A 
ATOM     65  C   UNL A   1      43.594  26.387  25.794  1.00  0.00     0.198 A 
ATOM     66  F   UNL A   1      43.743  28.312  27.138  1.00  0.00    -0.203 F 
ATOM     67  F   UNL A   1      41.841  23.261  26.330  1.00  0.00    -0.200 F 
ATOM     68  C   UNL A   1      43.113  25.105  25.581  1.00  0.00     0.200 A 
ATOM     69  F   UNL A   1      44.381  26.968  24.878  1.00  0.00    -0.200 F 
ATOM     70  F   UNL A   1      43.447  24.440  24.466  1.00  0.00    -0.200 F 
ENDBRANCH  46  60
BRANCH  47  71
ATOM     71  C   UNL A   1      39.373  31.966  35.694  1.00  0.00     0.064 A 
ATOM     72  C   UNL A   1      38.426  31.484  36.608  1.00  0.00     0.173 A 
ATOM     73  C   UNL A   1      39.897  33.248  35.912  1.00  0.00     0.173 A 
ATOM     74  F   UNL A   1      37.876  30.274  36.426  1.00  0.00    -0.203 F 
ATOM     75  C   UNL A   1      38.016  32.255  37.693  1.00  0.00     0.198 A 
ATOM     76  C   UNL A   1      39.506  34.009  37.012  1.00  0.00     0.198 A 
ATOM     77  F   UNL A   1      40.801  33.758  35.063  1.00  0.00    -0.203 F 
ATOM     78  F   UNL A   1      37.084  31.785  38.533  1.00  0.00    -0.200 F 
ATOM     79  C   UNL A   1      38.562  33.514  37.899  1.00  0.00     0.200 A 
ATOM     80  F   UNL A   1      40.043  35.220  37.212  1.00  0.00    -0.200 F 
ATOM     81  F   UNL A   1      38.174  34.251  38.948  1.00  0.00    -0.200 F 
ENDBRANCH  47  71
BRANCH  59  82
ATOM     82  C   UNL A   1      44.735  27.623  34.634  1.00  0.00     0.064 A 
ATOM     83  C   UNL A   1      45.920  28.364  34.741  1.00  0.00     0.173 A 
ATOM     84  C   UNL A   1      44.602  26.474  35.431  1.00  0.00     0.173 A 
ATOM     85  F   UNL A   1      46.099  29.461  33.991  1.00  0.00    -0.203 F 
ATOM     86  C   UNL A   1      46.938  27.965  35.605  1.00  0.00     0.198 A 
ATOM     87  C   UNL A   1      45.610  26.095  36.315  1.00  0.00     0.198 A 
ATOM     88  F   UNL A   1      43.484  25.735  35.374  1.00  0.00    -0.203 F 
ATOM     89  F   UNL A   1      48.075  28.671  35.668  1.00  0.00    -0.200 F 
ATOM     90  C   UNL A   1      46.777  26.839  36.398  1.00  0.00     0.200 A 
ATOM     91  F   UNL A   1      45.446  25.015  37.092  1.00  0.00    -0.200 F 
ATOM     92  F   UNL A   1      47.750  26.467  37.242  1.00  0.00    -0.200 F 
ENDBRANCH  59  82
ENDBRANCH  33  34
ENDBRANCH  26  28
ENDBRANCH  25  26
ENDBRANCH  24  25
ENDBRANCH   1  24
TORSDOF 14
ENDMDL
MODEL 2
REMARK VINA RESULT:     -12.4      4.207      7.416
REMARK SMILES Cc1c2c([nH]c(=O)c1C(=O)OCCOCCOC(=O)c1ccc(-c3c4nc(c(-c5c(F)c(F)c(F)c(F)c5F)c5ccc([nH]5)c(-c5c(F)c(F)c(F)c(F)c5F)c5nc(c(-c6c(F)c(F)c(F)c(F)c6F)c6ccc3[nH]6)C=C5)C=C4)cc1)CC(C)(C)CC2=O
REMARK SMILES IDX 15 1 14 2 13 3 12 4 11 5 9 6 10 7 8 8 1 9 2 10 3 11 4 12
REMARK SMILES IDX 88 13 6 14 5 15 83 16 87 17 89 18 7 19 84 21 85 22 86 23
REMARK SMILES IDX 16 24 17 25 18 26 19 27 20 28 21 29 82 30 22 31 81 32 23 33
REMARK SMILES IDX 24 34 25 35 75 36 26 37 80 38 74 39 76 40 27 41 79 42 73 43
REMARK SMILES IDX 72 44 28 46 60 47 40 48 59 49 41 50 44 51 58 52 77 53 42 54
REMARK SMILES IDX 43 55 57 57 78 58 45 59 29 60 30 61 38 62 31 63 32 64 36 65
REMARK SMILES IDX 39 66 33 67 34 68 37 69 35 70 61 71 62 72 70 73 63 74 64 75
REMARK SMILES IDX 68 76 71 77 65 78 66 79 69 80 67 81 46 82 47 83 55 84 48 85
REMARK SMILES IDX 49 86 53 87 56 88 50 89 51 90 54 91 52 92
REMARK H PARENT 5 20 76 45 44 56
REMARK Flexibility Score: inf
ROOT
ATOM      1  C   UNL A   1      36.617  19.812  25.004  1.00  0.00     0.202 C 
ENDROOT
BRANCH   1   2
ATOM      2  O   UNL A   1      35.946  20.951  25.546  1.00  0.00    -0.374 OA
BRANCH   2   3
ATOM      3  C   UNL A   1      34.597  21.183  25.138  1.00  0.00     0.202 C 
BRANCH   3   4
ATOM      4  C   UNL A   1      33.531  20.703  26.119  1.00  0.00     0.261 C 
BRANCH   4   5
ATOM      5  O   UNL A   1      32.427  21.618  26.065  1.00  0.00    -0.459 OA
BRANCH   5   6
ATOM      6  C   UNL A   1      32.445  22.612  26.979  1.00  0.00     0.344 C 
ATOM      7  O   UNL A   1      32.887  22.528  28.115  1.00  0.00    -0.246 OA
BRANCH   6   8
ATOM      8  C   UNL A   1      31.918  23.871  26.402  1.00  0.00     0.128 A 
ATOM      9  C   UNL A   1      34.170  24.785  25.704  1.00  0.00     0.046 C 
ATOM     10  C   UNL A   1      32.661  24.789  25.735  1.00  0.00    -0.018 A 
ATOM     11  C   UNL A   1      31.974  25.847  24.957  1.00  0.00     0.041 A 
ATOM     12  C   UNL A   1      30.634  25.989  25.045  1.00  0.00     0.030 A 
ATOM     13  C   UNL A   1      32.679  26.703  23.931  1.00  0.00     0.165 C 
ATOM     14  C   UNL A   1      30.454  24.103  26.565  1.00  0.00     0.263 A 
ATOM     15  N   UNL A   1      29.920  25.151  25.867  1.00  0.00    -0.325 N 
ATOM     16  C   UNL A   1      29.792  26.976  24.271  1.00  0.00     0.061 C 
ATOM     17  C   UNL A   1      31.833  27.440  22.912  1.00  0.00     0.088 C 
ATOM     18  O   UNL A   1      33.903  26.763  23.853  1.00  0.00    -0.294 OA
ATOM     19  O   UNL A   1      29.752  23.446  27.328  1.00  0.00    -0.269 OA
ATOM     20  H   UNL A   1      28.954  25.317  25.960  1.00  0.00     0.169 HD
ATOM     21  C   UNL A   1      30.596  28.075  23.554  1.00  0.00    -0.023 C 
ATOM     22  C   UNL A   1      31.006  29.183  24.544  1.00  0.00     0.012 C 
ATOM     23  C   UNL A   1      29.726  28.707  22.454  1.00  0.00     0.012 C 
ENDBRANCH   6   8
ENDBRANCH   5   6
ENDBRANCH   4   5
ENDBRANCH   3   4
ENDBRANCH   2   3
ENDBRANCH   1   2
BRANCH   1  24
ATOM     24  C   UNL A   1      38.148  19.889  24.981  1.00  0.00     0.261 C 
BRANCH  24  25
ATOM     25  O   UNL A   1      38.644  21.103  25.576  1.00  0.00    -0.460 OA
BRANCH  25  26
ATOM     26  C   UNL A   1      39.750  20.950  26.341  1.00  0.00     0.338 C 
ATOM     27  O   UNL A   1      40.452  19.952  26.445  1.00  0.00    -0.246 OA
BRANCH  26  28
ATOM     28  C   UNL A   1      40.130  22.237  26.943  1.00  0.00     0.060 A 
ATOM     29  C   UNL A   1      39.472  23.387  26.488  1.00  0.00     0.016 A 
ATOM     30  C   UNL A   1      41.172  22.334  27.868  1.00  0.00     0.016 A 
ATOM     31  C   UNL A   1      39.881  24.644  26.925  1.00  0.00     0.010 A 
ATOM     32  C   UNL A   1      41.591  23.599  28.295  1.00  0.00     0.010 A 
ATOM     33  C   UNL A   1      40.969  24.759  27.801  1.00  0.00    -0.014 A 
BRANCH  33  34
ATOM     34  C   UNL A   1      41.543  26.098  28.072  1.00  0.00     0.031 A 
ATOM     35  C   UNL A   1      42.925  26.413  27.573  1.00  0.00     0.074 A 
ATOM     36  C   UNL A   1      40.824  27.039  28.708  1.00  0.00     0.049 A 
ATOM     37  N   UNL A   1      43.625  27.512  27.702  1.00  0.00    -0.248 NA
ATOM     38  C   UNL A   1      43.609  25.348  26.822  1.00  0.00     0.031 C 
ATOM     39  C   UNL A   1      39.454  26.869  29.190  1.00  0.00     0.029 A 
ATOM     40  N   UNL A   1      41.147  28.328  29.054  1.00  0.00    -0.354 N 
ATOM     41  C   UNL A   1      44.824  27.272  27.045  1.00  0.00     0.074 A 
ATOM     42  C   UNL A   1      44.776  25.914  26.548  1.00  0.00     0.031 C 
ATOM     43  C   UNL A   1      39.054  28.014  29.769  1.00  0.00     0.029 A 
ATOM     44  C   UNL A   1      40.147  28.984  29.727  1.00  0.00     0.049 A 
ATOM     45  H   UNL A   1      42.015  28.740  28.840  1.00  0.00     0.167 HD
ATOM     46  C   UNL A   1      45.867  28.117  26.861  1.00  0.00     0.037 A 
ATOM     47  C   UNL A   1      40.125  30.221  30.260  1.00  0.00     0.037 A 
ATOM     48  C   UNL A   1      45.917  29.466  27.358  1.00  0.00     0.049 A 
ATOM     49  C   UNL A   1      41.336  31.106  30.126  1.00  0.00     0.074 A 
ATOM     50  C   UNL A   1      46.930  30.398  27.222  1.00  0.00     0.029 A 
ATOM     51  N   UNL A   1      44.909  30.073  28.093  1.00  0.00    -0.354 N 
ATOM     52  N   UNL A   1      42.465  30.876  29.499  1.00  0.00    -0.248 NA
ATOM     53  C   UNL A   1      41.273  32.424  30.777  1.00  0.00     0.031 C 
ATOM     54  C   UNL A   1      46.557  31.553  27.915  1.00  0.00     0.029 A 
ATOM     55  C   UNL A   1      45.289  31.359  28.439  1.00  0.00     0.049 A 
ATOM     56  H   UNL A   1      44.052  29.653  28.332  1.00  0.00     0.167 HD
ATOM     57  C   UNL A   1      43.233  32.023  29.659  1.00  0.00     0.074 A 
ATOM     58  C   UNL A   1      42.438  32.954  30.431  1.00  0.00     0.031 C 
ATOM     59  C   UNL A   1      44.485  32.278  29.207  1.00  0.00     0.037 A 
BRANCH  46  60
ATOM     60  C   UNL A   1      47.051  27.604  26.096  1.00  0.00     0.064 A 
ATOM     61  C   UNL A   1      47.109  27.682  24.697  1.00  0.00     0.173 A 
ATOM     62  C   UNL A   1      48.165  27.083  26.772  1.00  0.00     0.173 A 
ATOM     63  F   UNL A   1      46.065  28.160  24.003  1.00  0.00    -0.203 F 
ATOM     64  C   UNL A   1      48.233  27.245  24.002  1.00  0.00     0.198 A 
ATOM     65  C   UNL A   1      49.297  26.671  26.076  1.00  0.00     0.198 A 
ATOM     66  F   UNL A   1      48.160  26.990  28.111  1.00  0.00    -0.203 F 
ATOM     67  F   UNL A   1      48.255  27.298  22.663  1.00  0.00    -0.200 F 
ATOM     68  C   UNL A   1      49.329  26.748  24.692  1.00  0.00     0.200 A 
ATOM     69  F   UNL A   1      50.360  26.204  26.746  1.00  0.00    -0.200 F 
ATOM     70  F   UNL A   1      50.417  26.342  24.023  1.00  0.00    -0.200 F 
ENDBRANCH  46  60
BRANCH  47  71
ATOM     71  C   UNL A   1      38.909  30.696  30.969  1.00  0.00     0.064 A 
ATOM     72  C   UNL A   1      38.770  30.523  32.354  1.00  0.00     0.173 A 
ATOM     73  C   UNL A   1      37.867  31.335  30.283  1.00  0.00     0.173 A 
ATOM     74  F   UNL A   1      39.728  29.893  33.049  1.00  0.00    -0.203 F 
ATOM     75  C   UNL A   1      37.632  30.967  33.023  1.00  0.00     0.198 A 
ATOM     76  C   UNL A   1      36.740  31.802  30.957  1.00  0.00     0.198 A 
ATOM     77  F   UNL A   1      37.948  31.519  28.958  1.00  0.00    -0.203 F 
ATOM     78  F   UNL A   1      37.508  30.759  34.341  1.00  0.00    -0.200 F 
ATOM     79  C   UNL A   1      36.621  31.613  32.327  1.00  0.00     0.200 A 
ATOM     80  F   UNL A   1      35.771  32.434  30.282  1.00  0.00    -0.200 F 
ATOM     81  F   UNL A   1      35.531  32.048  32.973  1.00  0.00    -0.200 F 
ENDBRANCH  47  71
BRANCH  59  82
ATOM     82  C   UNL A   1      45.078  33.622  29.515  1.00  0.00     0.064 A 
ATOM     83  C   UNL A   1      44.877  34.722  28.669  1.00  0.00     0.173 A 
ATOM     84  C   UNL A   1      45.786  33.830  30.709  1.00  0.00     0.173 A 
ATOM     85  F   UNL A   1      44.219  34.571  27.511  1.00  0.00    -0.203 F 
ATOM     86  C   UNL A   1      45.376  35.980  29.001  1.00  0.00     0.198 A 
ATOM     87  C   UNL A   1      46.257  35.095  31.051  1.00  0.00     0.198 A 
ATOM     88  F   UNL A   1      45.997  32.813  31.558  1.00  0.00    -0.203 F 
ATOM     89  F   UNL A   1      45.200  37.010  28.162  1.00  0.00    -0.200 F 
ATOM     90  C   UNL A   1      46.054  36.167  30.196  1.00  0.00     0.200 A 
ATOM     91  F   UNL A   1      46.899  35.278  32.214  1.00  0.00    -0.200 F 
ATOM     92  F   UNL A   1      46.517  37.383  30.521  1.00  0.00    -0.200 F 
ENDBRANCH  59  82
ENDBRANCH  33  34
ENDBRANCH  26  28
ENDBRANCH  25  26
ENDBRANCH  24  25
ENDBRANCH   1  24
TORSDOF 14
ENDMDL
MODEL 3
REMARK VINA RESULT:     -12.4      4.302      9.931
REMARK SMILES Cc1c2c([nH]c(=O)c1C(=O)OCCOCCOC(=O)c1ccc(-c3c4nc(c(-c5c(F)c(F)c(F)c(F)c5F)c5ccc([nH]5)c(-c5c(F)c(F)c(F)c(F)c5F)c5nc(c(-c6c(F)c(F)c(F)c(F)c6F)c6ccc3[nH]6)C=C5)C=C4)cc1)CC(C)(C)CC2=O
REMARK SMILES IDX 15 1 14 2 13 3 12 4 11 5 9 6 10 7 8 8 1 9 2 10 3 11 4 12
REMARK SMILES IDX 88 13 6 14 5 15 83 16 87 17 89 18 7 19 84 21 85 22 86 23
REMARK SMILES IDX 16 24 17 25 18 26 19 27 20 28 21 29 82 30 22 31 81 32 23 33
REMARK SMILES IDX 24 34 25 35 75 36 26 37 80 38 74 39 76 40 27 41 79 42 73 43
REMARK SMILES IDX 72 44 28 46 60 47 40 48 59 49 41 50 44 51 58 52 77 53 42 54
REMARK SMILES IDX 43 55 57 57 78 58 45 59 29 60 30 61 38 62 31 63 32 64 36 65
REMARK SMILES IDX 39 66 33 67 34 68 37 69 35 70 61 71 62 72 70 73 63 74 64 75
REMARK SMILES IDX 68 76 71 77 65 78 66 79 69 80 67 81 46 82 47 83 55 84 48 85
REMARK SMILES IDX 49 86 53 87 56 88 50 89 51 90 54 91 52 92
REMARK H PARENT 5 20 76 45 44 56
REMARK Flexibility Score: inf
ROOT
ATOM      1  C   UNL A   1      36.349  19.951  25.010  1.00  0.00     0.202 C 
ENDROOT
BRANCH   1   2
ATOM      2  O   UNL A   1      35.752  21.082  25.647  1.00  0.00    -0.374 OA
BRANCH   2   3
ATOM      3  C   UNL A   1      34.444  21.469  25.222  1.00  0.00     0.202 C 
BRANCH   3   4
ATOM      4  C   UNL A   1      33.295  20.814  25.985  1.00  0.00     0.261 C 
BRANCH   4   5
ATOM      5  O   UNL A   1      32.189  21.729  25.999  1.00  0.00    -0.459 OA
BRANCH   5   6
ATOM      6  C   UNL A   1      32.261  22.720  26.914  1.00  0.00     0.344 C 
ATOM      7  O   UNL A   1      32.719  22.618  28.041  1.00  0.00    -0.246 OA
BRANCH   6   8
ATOM      8  C   UNL A   1      31.773  23.999  26.347  1.00  0.00     0.128 A 
ATOM      9  C   UNL A   1      34.054  24.856  25.669  1.00  0.00     0.046 C 
ATOM     10  C   UNL A   1      32.545  24.903  25.692  1.00  0.00    -0.018 A 
ATOM     11  C   UNL A   1      31.891  25.987  24.921  1.00  0.00     0.041 A 
ATOM     12  C   UNL A   1      30.556  26.166  25.004  1.00  0.00     0.030 A 
ATOM     13  C   UNL A   1      32.626  26.833  23.907  1.00  0.00     0.165 C 
ATOM     14  C   UNL A   1      30.315  24.271  26.505  1.00  0.00     0.263 A 
ATOM     15  N   UNL A   1      29.814  25.341  25.815  1.00  0.00    -0.325 N 
ATOM     16  C   UNL A   1      29.746  27.184  24.236  1.00  0.00     0.061 C 
ATOM     17  C   UNL A   1      31.806  27.603  22.892  1.00  0.00     0.088 C 
ATOM     18  O   UNL A   1      33.852  26.859  23.836  1.00  0.00    -0.294 OA
ATOM     19  O   UNL A   1      29.591  23.627  27.258  1.00  0.00    -0.269 OA
ATOM     20  H   UNL A   1      28.853  25.533  25.904  1.00  0.00     0.169 HD
ATOM     21  C   UNL A   1      30.584  28.267  23.534  1.00  0.00    -0.023 C 
ATOM     22  C   UNL A   1      31.020  29.352  24.537  1.00  0.00     0.012 C 
ATOM     23  C   UNL A   1      29.738  28.934  22.436  1.00  0.00     0.012 C 
ENDBRANCH   6   8
ENDBRANCH   5   6
ENDBRANCH   4   5
ENDBRANCH   3   4
ENDBRANCH   2   3
ENDBRANCH   1   2
BRANCH   1  24
ATOM     24  C   UNL A   1      37.875  20.000  24.863  1.00  0.00     0.261 C 
BRANCH  24  25
ATOM     25  O   UNL A   1      38.442  21.199  25.424  1.00  0.00    -0.460 OA
BRANCH  25  26
ATOM     26  C   UNL A   1      39.515  20.999  26.224  1.00  0.00     0.338 C 
ATOM     27  O   UNL A   1      40.126  19.953  26.405  1.00  0.00    -0.246 OA
BRANCH  26  28
ATOM     28  C   UNL A   1      39.992  22.283  26.760  1.00  0.00     0.060 A 
ATOM     29  C   UNL A   1      39.456  23.455  26.211  1.00  0.00     0.016 A 
ATOM     30  C   UNL A   1      41.009  22.346  27.715  1.00  0.00     0.016 A 
ATOM     31  C   UNL A   1      39.964  24.696  26.586  1.00  0.00     0.010 A 
ATOM     32  C   UNL A   1      41.528  23.593  28.079  1.00  0.00     0.010 A 
ATOM     33  C   UNL A   1      41.030  24.770  27.492  1.00  0.00    -0.014 A 
BRANCH  33  34
ATOM     34  C   UNL A   1      41.715  26.068  27.701  1.00  0.00     0.031 A 
ATOM     35  C   UNL A   1      41.016  27.142  28.484  1.00  0.00     0.074 A 
ATOM     36  C   UNL A   1      42.964  26.268  27.244  1.00  0.00     0.049 A 
ATOM     37  N   UNL A   1      41.421  28.352  28.781  1.00  0.00    -0.248 NA
ATOM     38  C   UNL A   1      39.682  26.809  29.009  1.00  0.00     0.031 C 
ATOM     39  C   UNL A   1      43.763  25.282  26.520  1.00  0.00     0.029 A 
ATOM     40  N   UNL A   1      43.778  27.370  27.328  1.00  0.00    -0.354 N 
ATOM     41  C   UNL A   1      40.397  28.917  29.530  1.00  0.00     0.074 A 
ATOM     42  C   UNL A   1      39.337  27.936  29.614  1.00  0.00     0.031 C 
ATOM     43  C   UNL A   1      44.957  25.824  26.227  1.00  0.00     0.029 A 
ATOM     44  C   UNL A   1      44.993  27.203  26.713  1.00  0.00     0.049 A 
ATOM     45  H   UNL A   1      43.514  28.201  27.786  1.00  0.00     0.167 HD
ATOM     46  C   UNL A   1      40.354  30.141  30.108  1.00  0.00     0.037 A 
ATOM     47  C   UNL A   1      46.011  28.071  26.550  1.00  0.00     0.037 A 
ATOM     48  C   UNL A   1      41.407  31.118  30.021  1.00  0.00     0.049 A 
ATOM     49  C   UNL A   1      45.897  29.461  27.118  1.00  0.00     0.074 A 
ATOM     50  C   UNL A   1      41.454  32.386  30.573  1.00  0.00     0.029 A 
ATOM     51  N   UNL A   1      42.597  30.935  29.332  1.00  0.00    -0.354 N 
ATOM     52  N   UNL A   1      44.929  29.987  27.830  1.00  0.00    -0.248 NA
ATOM     53  C   UNL A   1      47.016  30.380  26.859  1.00  0.00     0.031 C 
ATOM     54  C   UNL A   1      42.652  32.989  30.179  1.00  0.00     0.029 A 
ATOM     55  C   UNL A   1      43.374  32.078  29.424  1.00  0.00     0.049 A 
ATOM     56  H   UNL A   1      42.851  30.116  28.850  1.00  0.00     0.167 HD
ATOM     57  C   UNL A   1      45.331  31.285  28.122  1.00  0.00     0.074 A 
ATOM     58  C   UNL A   1      46.636  31.464  27.522  1.00  0.00     0.031 C 
ATOM     59  C   UNL A   1      44.674  32.242  28.824  1.00  0.00     0.037 A 
BRANCH  46  60
ATOM     60  C   UNL A   1      39.120  30.503  30.880  1.00  0.00     0.064 A 
ATOM     61  C   UNL A   1      39.018  30.254  32.256  1.00  0.00     0.173 A 
ATOM     62  C   UNL A   1      38.051  31.158  30.249  1.00  0.00     0.173 A 
ATOM     63  F   UNL A   1      40.007  29.619  32.903  1.00  0.00    -0.203 F 
ATOM     64  C   UNL A   1      37.886  30.636  32.971  1.00  0.00     0.198 A 
ATOM     65  C   UNL A   1      36.932  31.562  30.972  1.00  0.00     0.198 A 
ATOM     66  F   UNL A   1      38.101  31.421  28.935  1.00  0.00    -0.203 F 
ATOM     67  F   UNL A   1      37.795  30.360  34.279  1.00  0.00    -0.200 F 
ATOM     68  C   UNL A   1      36.849  31.297  32.330  1.00  0.00     0.200 A 
ATOM     69  F   UNL A   1      35.937  32.212  30.353  1.00  0.00    -0.200 F 
ATOM     70  F   UNL A   1      35.766  31.679  33.022  1.00  0.00    -0.200 F 
ENDBRANCH  46  60
BRANCH  47  71
ATOM     71  C   UNL A   1      47.230  27.647  25.814  1.00  0.00     0.064 A 
ATOM     72  C   UNL A   1      47.276  27.687  24.413  1.00  0.00     0.173 A 
ATOM     73  C   UNL A   1      48.372  27.198  26.492  1.00  0.00     0.173 A 
ATOM     74  F   UNL A   1      46.199  28.084  23.719  1.00  0.00    -0.203 F 
ATOM     75  C   UNL A   1      48.417  27.291  23.720  1.00  0.00     0.198 A 
ATOM     76  C   UNL A   1      49.522  26.826  25.798  1.00  0.00     0.198 A 
ATOM     77  F   UNL A   1      48.377  27.134  27.831  1.00  0.00    -0.203 F 
ATOM     78  F   UNL A   1      48.424  27.308  22.380  1.00  0.00    -0.200 F 
ATOM     79  C   UNL A   1      49.542  26.868  24.412  1.00  0.00     0.200 A 
ATOM     80  F   UNL A   1      50.609  26.428  26.472  1.00  0.00    -0.200 F 
ATOM     81  F   UNL A   1      50.642  26.495  23.744  1.00  0.00    -0.200 F 
ENDBRANCH  47  71
BRANCH  59  82
ATOM     82  C   UNL A   1      45.355  33.567  29.002  1.00  0.00     0.064 A 
ATOM     83  C   UNL A   1      46.247  33.796  30.059  1.00  0.00     0.173 A 
ATOM     84  C   UNL A   1      45.174  34.593  28.060  1.00  0.00     0.173 A 
ATOM     85  F   UNL A   1      46.444  32.852  30.991  1.00  0.00    -0.203 F 
ATOM     86  C   UNL A   1      46.924  35.008  30.174  1.00  0.00     0.198 A 
ATOM     87  C   UNL A   1      45.875  35.791  28.162  1.00  0.00     0.198 A 
ATOM     88  F   UNL A   1      44.339  34.421  27.024  1.00  0.00    -0.203 F 
ATOM     89  F   UNL A   1      47.748  35.216  31.210  1.00  0.00    -0.200 F 
ATOM     90  C   UNL A   1      46.746  35.999  29.221  1.00  0.00     0.200 A 
ATOM     91  F   UNL A   1      45.714  36.742  27.231  1.00  0.00    -0.200 F 
ATOM     92  F   UNL A   1      47.413  37.157  29.324  1.00  0.00    -0.200 F 
ENDBRANCH  59  82
ENDBRANCH  33  34
ENDBRANCH  26  28
ENDBRANCH  25  26
ENDBRANCH  24  25
ENDBRANCH   1  24
TORSDOF 14
ENDMDL
