MODEL 1
REMARK VINA RESULT:     -10.7      0.000      0.000
REMARK SMILES CC(C)C[C@@H](CNC(=O)[C@@H]1CCOC1)C(=O)OCCOCCOC(=O)c1ccc(-c2c3nc(c(-c4c(F)c(F)c(F)c(F)c4F)c4ccc([nH]4)c(-c4c(F)c(F)c(F)c(F)c4F)c4nc(c(-c5c(F)c(F)c(F)c(F)c5F)c5ccc2[nH]5)C=C4)C=C3)cc1
REMARK SMILES IDX 19 1 18 2 17 3 15 4 16 5 5 6 4 7 2 8 1 9 3 10 6 11 7 12 8 13
REMARK SMILES IDX 9 15 10 16 11 17 14 18 12 19 13 20 20 21 21 22 22 23 23 24
REMARK SMILES IDX 24 25 25 26 26 27 27 28 88 29 28 30 87 31 29 32 30 33 31 34
REMARK SMILES IDX 81 35 32 36 86 37 80 38 82 39 33 40 85 41 79 42 78 43 34 45
REMARK SMILES IDX 66 46 46 47 65 48 47 49 50 50 64 51 83 52 48 53 49 54 63 56
REMARK SMILES IDX 84 57 51 58 35 59 36 60 44 61 37 62 38 63 42 64 45 65 39 66
REMARK SMILES IDX 40 67 43 68 41 69 67 70 68 71 76 72 69 73 70 74 74 75 77 76
REMARK SMILES IDX 71 77 72 78 75 79 73 80 52 81 53 82 61 83 54 84 55 85 59 86
REMARK SMILES IDX 62 87 56 88 57 89 60 90 58 91
REMARK H PARENT 7 14 82 44 50 55
REMARK Flexibility Score: inf
ROOT
ATOM      1  C   UNL A   1      33.537  21.378  26.687  1.00  0.00     0.202 C 
ENDROOT
BRANCH   1   2
ATOM      2  C   UNL A   1      33.802  22.611  27.551  1.00  0.00     0.261 C 
BRANCH   2   3
ATOM      3  O   UNL A   1      33.182  23.805  27.035  1.00  0.00    -0.463 OA
BRANCH   3   4
ATOM      4  C   UNL A   1      31.847  23.718  26.792  1.00  0.00     0.310 C 
ATOM      5  O   UNL A   1      31.027  23.235  27.565  1.00  0.00    -0.252 OA
BRANCH   4   6
ATOM      6  C   UNL A   1      31.440  24.221  25.416  1.00  0.00     0.118 C 
BRANCH   6   7
ATOM      7  C   UNL A   1      31.051  23.134  24.391  1.00  0.00     0.020 C 
BRANCH   7   8
ATOM      8  C   UNL A   1      32.061  22.941  23.234  1.00  0.00    -0.017 C 
ATOM      9  C   UNL A   1      33.440  23.529  23.554  1.00  0.00     0.007 C 
ATOM     10  C   UNL A   1      32.214  21.453  22.908  1.00  0.00     0.007 C 
ENDBRANCH   7   8
ENDBRANCH   6   7
BRANCH   6  11
ATOM     11  C   UNL A   1      30.375  25.309  25.600  1.00  0.00     0.131 C 
BRANCH  11  12
ATOM     12  N   UNL A   1      30.650  26.183  26.732  1.00  0.00    -0.355 N 
ATOM     13  C   UNL A   1      31.324  27.367  26.792  1.00  0.00     0.225 C 
ATOM     14  H   UNL A   1      30.291  25.868  27.593  1.00  0.00     0.163 HD
ATOM     15  O   UNL A   1      31.573  27.824  27.907  1.00  0.00    -0.275 OA
BRANCH  13  16
ATOM     16  C   UNL A   1      31.730  28.088  25.513  1.00  0.00     0.106 C 
ATOM     17  C   UNL A   1      33.129  27.709  25.075  1.00  0.00     0.044 C 
ATOM     18  C   UNL A   1      31.835  29.583  25.771  1.00  0.00     0.173 C 
ATOM     19  C   UNL A   1      34.000  28.748  25.739  1.00  0.00     0.161 C 
ATOM     20  O   UNL A   1      33.226  29.948  25.761  1.00  0.00    -0.381 OA
ENDBRANCH  13  16
ENDBRANCH  11  12
ENDBRANCH   6  11
ENDBRANCH   4   6
ENDBRANCH   3   4
ENDBRANCH   2   3
ENDBRANCH   1   2
BRANCH   1  21
ATOM     21  O   UNL A   1      34.547  21.028  25.745  1.00  0.00    -0.374 OA
BRANCH  21  22
ATOM     22  C   UNL A   1      35.875  21.472  26.011  1.00  0.00     0.202 C 
BRANCH  22  23
ATOM     23  C   UNL A   1      36.979  20.942  25.087  1.00  0.00     0.261 C 
BRANCH  23  24
ATOM     24  O   UNL A   1      38.128  21.809  25.021  1.00  0.00    -0.460 OA
BRANCH  24  25
ATOM     25  C   UNL A   1      39.113  21.499  25.898  1.00  0.00     0.338 C 
ATOM     26  O   UNL A   1      39.745  20.453  25.957  1.00  0.00    -0.246 OA
BRANCH  25  27
ATOM     27  C   UNL A   1      39.474  22.654  26.740  1.00  0.00     0.060 A 
ATOM     28  C   UNL A   1      38.793  23.856  26.502  1.00  0.00     0.016 A 
ATOM     29  C   UNL A   1      40.558  22.618  27.620  1.00  0.00     0.016 A 
ATOM     30  C   UNL A   1      39.245  25.041  27.076  1.00  0.00     0.010 A 
ATOM     31  C   UNL A   1      41.014  23.814  28.193  1.00  0.00     0.010 A 
ATOM     32  C   UNL A   1      40.394  25.037  27.878  1.00  0.00    -0.014 A 
BRANCH  32  33
ATOM     33  C   UNL A   1      41.041  26.335  28.198  1.00  0.00     0.031 A 
ATOM     34  C   UNL A   1      42.451  26.580  27.727  1.00  0.00     0.074 A 
ATOM     35  C   UNL A   1      40.365  27.315  28.824  1.00  0.00     0.049 A 
ATOM     36  N   UNL A   1      43.188  27.658  27.826  1.00  0.00    -0.248 NA
ATOM     37  C   UNL A   1      43.119  25.457  27.049  1.00  0.00     0.031 C 
ATOM     38  C   UNL A   1      38.988  27.220  29.299  1.00  0.00     0.029 A 
ATOM     39  N   UNL A   1      40.750  28.590  29.154  1.00  0.00    -0.354 N 
ATOM     40  C   UNL A   1      44.402  27.343  27.227  1.00  0.00     0.074 A 
ATOM     41  C   UNL A   1      44.316  25.965  26.795  1.00  0.00     0.031 C 
ATOM     42  C   UNL A   1      38.637  28.392  29.854  1.00  0.00     0.029 A 
ATOM     43  C   UNL A   1      39.771  29.313  29.787  1.00  0.00     0.049 A 
ATOM     44  H   UNL A   1      41.644  28.952  28.955  1.00  0.00     0.167 HD
ATOM     45  C   UNL A   1      45.486  28.133  27.040  1.00  0.00     0.037 A 
ATOM     46  C   UNL A   1      39.791  30.575  30.259  1.00  0.00     0.037 A 
ATOM     47  C   UNL A   1      45.574  29.508  27.455  1.00  0.00     0.049 A 
ATOM     48  C   UNL A   1      41.027  31.418  30.084  1.00  0.00     0.074 A 
ATOM     49  C   UNL A   1      46.619  30.397  27.284  1.00  0.00     0.029 A 
ATOM     50  N   UNL A   1      44.574  30.191  28.132  1.00  0.00    -0.354 N 
ATOM     51  N   UNL A   1      42.154  31.124  29.481  1.00  0.00    -0.248 NA
ATOM     52  C   UNL A   1      40.990  32.775  30.651  1.00  0.00     0.031 C 
ATOM     53  C   UNL A   1      46.270  31.607  27.893  1.00  0.00     0.029 A 
ATOM     54  C   UNL A   1      44.989  31.484  28.406  1.00  0.00     0.049 A 
ATOM     55  H   UNL A   1      43.700  29.813  28.380  1.00  0.00     0.167 HD
ATOM     56  C   UNL A   1      42.943  32.263  29.568  1.00  0.00     0.074 A 
ATOM     57  C   UNL A   1      42.165  33.259  30.274  1.00  0.00     0.031 C 
ATOM     58  C   UNL A   1      44.199  32.468  29.100  1.00  0.00     0.037 A 
BRANCH  45  59
ATOM     59  C   UNL A   1      46.681  27.517  26.374  1.00  0.00     0.064 A 
ATOM     60  C   UNL A   1      46.875  27.600  24.987  1.00  0.00     0.173 A 
ATOM     61  C   UNL A   1      47.655  26.857  27.137  1.00  0.00     0.173 A 
ATOM     62  F   UNL A   1      45.964  28.209  24.213  1.00  0.00    -0.203 F 
ATOM     63  C   UNL A   1      47.990  27.022  24.386  1.00  0.00     0.198 A 
ATOM     64  C   UNL A   1      48.781  26.303  26.536  1.00  0.00     0.198 A 
ATOM     65  F   UNL A   1      47.517  26.754  28.468  1.00  0.00    -0.203 F 
ATOM     66  F   UNL A   1      48.135  27.075  23.054  1.00  0.00    -0.200 F 
ATOM     67  C   UNL A   1      48.945  26.378  25.161  1.00  0.00     0.200 A 
ATOM     68  F   UNL A   1      49.707  25.689  27.286  1.00  0.00    -0.200 F 
ATOM     69  F   UNL A   1      50.018  25.825  24.580  1.00  0.00    -0.200 F 
ENDBRANCH  45  59
BRANCH  46  70
ATOM     70  C   UNL A   1      38.590  31.134  30.933  1.00  0.00     0.064 A 
ATOM     71  C   UNL A   1      38.451  31.076  32.326  1.00  0.00     0.173 A 
ATOM     72  C   UNL A   1      37.548  31.714  30.195  1.00  0.00     0.173 A 
ATOM     73  F   UNL A   1      39.409  30.503  33.070  1.00  0.00    -0.203 F 
ATOM     74  C   UNL A   1      37.308  31.564  32.955  1.00  0.00     0.198 A 
ATOM     75  C   UNL A   1      36.416  32.223  30.827  1.00  0.00     0.198 A 
ATOM     76  F   UNL A   1      37.631  31.784  28.858  1.00  0.00    -0.203 F 
ATOM     77  F   UNL A   1      37.181  31.456  34.285  1.00  0.00    -0.200 F 
ATOM     78  C   UNL A   1      36.295  32.142  32.206  1.00  0.00     0.200 A 
ATOM     79  F   UNL A   1      35.441  32.784  30.100  1.00  0.00    -0.200 F 
ATOM     80  F   UNL A   1      35.194  32.609  32.812  1.00  0.00    -0.200 F 
ENDBRANCH  46  70
BRANCH  58  81
ATOM     81  C   UNL A   1      44.797  33.830  29.301  1.00  0.00     0.064 A 
ATOM     82  C   UNL A   1      44.611  34.861  28.368  1.00  0.00     0.173 A 
ATOM     83  C   UNL A   1      45.534  34.117  30.459  1.00  0.00     0.173 A 
ATOM     84  F   UNL A   1      43.924  34.633  27.238  1.00  0.00    -0.203 F 
ATOM     85  C   UNL A   1      45.166  36.122  28.574  1.00  0.00     0.198 A 
ATOM     86  C   UNL A   1      46.066  35.386  30.675  1.00  0.00     0.198 A 
ATOM     87  F   UNL A   1      45.734  33.168  31.386  1.00  0.00    -0.203 F 
ATOM     88  F   UNL A   1      45.013  37.078  27.648  1.00  0.00    -0.200 F 
ATOM     89  C   UNL A   1      45.887  36.385  29.729  1.00  0.00     0.200 A 
ATOM     90  F   UNL A   1      46.752  35.642  31.797  1.00  0.00    -0.200 F 
ATOM     91  F   UNL A   1      46.416  37.600  29.929  1.00  0.00    -0.200 F 
ENDBRANCH  58  81
ENDBRANCH  32  33
ENDBRANCH  25  27
ENDBRANCH  24  25
ENDBRANCH  23  24
ENDBRANCH  22  23
ENDBRANCH  21  22
ENDBRANCH   1  21
TORSDOF 19
ENDMDL
MODEL 2
REMARK VINA RESULT:     -10.6      0.816      7.475
REMARK SMILES CC(C)C[C@@H](CNC(=O)[C@@H]1CCOC1)C(=O)OCCOCCOC(=O)c1ccc(-c2c3nc(c(-c4c(F)c(F)c(F)c(F)c4F)c4ccc([nH]4)c(-c4c(F)c(F)c(F)c(F)c4F)c4nc(c(-c5c(F)c(F)c(F)c(F)c5F)c5ccc2[nH]5)C=C4)C=C3)cc1
REMARK SMILES IDX 19 1 18 2 17 3 15 4 16 5 5 6 4 7 2 8 1 9 3 10 6 11 7 12 8 13
REMARK SMILES IDX 9 15 10 16 11 17 14 18 12 19 13 20 20 21 21 22 22 23 23 24
REMARK SMILES IDX 24 25 25 26 26 27 27 28 88 29 28 30 87 31 29 32 30 33 31 34
REMARK SMILES IDX 81 35 32 36 86 37 80 38 82 39 33 40 85 41 79 42 78 43 34 45
REMARK SMILES IDX 66 46 46 47 65 48 47 49 50 50 64 51 83 52 48 53 49 54 63 56
REMARK SMILES IDX 84 57 51 58 35 59 36 60 44 61 37 62 38 63 42 64 45 65 39 66
REMARK SMILES IDX 40 67 43 68 41 69 67 70 68 71 76 72 69 73 70 74 74 75 77 76
REMARK SMILES IDX 71 77 72 78 75 79 73 80 52 81 53 82 61 83 54 84 55 85 59 86
REMARK SMILES IDX 62 87 56 88 57 89 60 90 58 91
REMARK H PARENT 7 14 82 44 50 55
REMARK Flexibility Score: inf
ROOT
ATOM      1  C   UNL A   1      34.144  21.094  26.179  1.00  0.00     0.202 C 
ENDROOT
BRANCH   1   2
ATOM      2  C   UNL A   1      33.629  21.811  27.428  1.00  0.00     0.261 C 
BRANCH   2   3
ATOM      3  O   UNL A   1      33.765  23.243  27.353  1.00  0.00    -0.463 OA
BRANCH   3   4
ATOM      4  C   UNL A   1      32.670  23.916  26.908  1.00  0.00     0.310 C 
ATOM      5  O   UNL A   1      31.520  23.700  27.275  1.00  0.00    -0.252 OA
BRANCH   4   6
ATOM      6  C   UNL A   1      32.979  24.948  25.835  1.00  0.00     0.118 C 
BRANCH   6   7
ATOM      7  C   UNL A   1      33.706  24.417  24.581  1.00  0.00     0.020 C 
BRANCH   7   8
ATOM      8  C   UNL A   1      32.950  24.642  23.248  1.00  0.00    -0.017 C 
ATOM      9  C   UNL A   1      33.556  25.775  22.413  1.00  0.00     0.007 C 
ATOM     10  C   UNL A   1      32.944  23.356  22.420  1.00  0.00     0.007 C 
ENDBRANCH   7   8
ENDBRANCH   6   7
BRANCH   6  11
ATOM     11  C   UNL A   1      31.688  25.716  25.524  1.00  0.00     0.131 C 
BRANCH  11  12
ATOM     12  N   UNL A   1      31.232  26.531  26.642  1.00  0.00    -0.355 N 
ATOM     13  C   UNL A   1      31.620  27.775  27.045  1.00  0.00     0.225 C 
ATOM     14  H   UNL A   1      30.531  26.117  27.195  1.00  0.00     0.163 HD
ATOM     15  O   UNL A   1      31.206  28.175  28.133  1.00  0.00    -0.275 OA
BRANCH  13  16
ATOM     16  C   UNL A   1      32.520  28.626  26.160  1.00  0.00     0.106 C 
ATOM     17  C   UNL A   1      33.986  28.360  26.428  1.00  0.00     0.044 C 
ATOM     18  C   UNL A   1      32.358  30.096  26.516  1.00  0.00     0.173 C 
ATOM     19  C   UNL A   1      34.341  29.380  27.483  1.00  0.00     0.161 C 
ATOM     20  O   UNL A   1      33.548  30.531  27.195  1.00  0.00    -0.381 OA
ENDBRANCH  13  16
ENDBRANCH  11  12
ENDBRANCH   6  11
ENDBRANCH   4   6
ENDBRANCH   3   4
ENDBRANCH   2   3
ENDBRANCH   1   2
BRANCH   1  21
ATOM     21  O   UNL A   1      35.549  21.133  25.954  1.00  0.00    -0.374 OA
BRANCH  21  22
ATOM     22  C   UNL A   1      36.081  20.255  24.965  1.00  0.00     0.202 C 
BRANCH  22  23
ATOM     23  C   UNL A   1      37.608  20.115  24.914  1.00  0.00     0.261 C 
BRANCH  23  24
ATOM     24  O   UNL A   1      38.301  21.328  25.266  1.00  0.00    -0.460 OA
BRANCH  24  25
ATOM     25  C   UNL A   1      39.356  21.149  26.097  1.00  0.00     0.338 C 
ATOM     26  O   UNL A   1      40.026  20.134  26.229  1.00  0.00    -0.246 OA
BRANCH  25  27
ATOM     27  C   UNL A   1      39.736  22.404  26.770  1.00  0.00     0.060 A 
ATOM     28  C   UNL A   1      39.121  23.581  26.323  1.00  0.00     0.016 A 
ATOM     29  C   UNL A   1      40.783  22.461  27.693  1.00  0.00     0.016 A 
ATOM     30  C   UNL A   1      39.603  24.822  26.732  1.00  0.00     0.010 A 
ATOM     31  C   UNL A   1      41.271  23.712  28.099  1.00  0.00     0.010 A 
ATOM     32  C   UNL A   1      40.720  24.895  27.576  1.00  0.00    -0.014 A 
BRANCH  32  33
ATOM     33  C   UNL A   1      41.412  26.201  27.725  1.00  0.00     0.031 A 
ATOM     34  C   UNL A   1      40.709  27.317  28.451  1.00  0.00     0.074 A 
ATOM     35  C   UNL A   1      42.676  26.371  27.299  1.00  0.00     0.049 A 
ATOM     36  N   UNL A   1      41.143  28.513  28.763  1.00  0.00    -0.248 NA
ATOM     37  C   UNL A   1      39.329  27.048  28.887  1.00  0.00     0.031 C 
ATOM     38  C   UNL A   1      43.480  25.362  26.615  1.00  0.00     0.029 A 
ATOM     39  N   UNL A   1      43.507  27.460  27.393  1.00  0.00    -0.354 N 
ATOM     40  C   UNL A   1      40.093  29.136  29.427  1.00  0.00     0.074 A 
ATOM     41  C   UNL A   1      38.990  28.200  29.447  1.00  0.00     0.031 C 
ATOM     42  C   UNL A   1      44.695  25.876  26.357  1.00  0.00     0.029 A 
ATOM     43  C   UNL A   1      44.747  27.254  26.843  1.00  0.00     0.049 A 
ATOM     44  H   UNL A   1      43.238  28.308  27.815  1.00  0.00     0.167 HD
ATOM     45  C   UNL A   1      40.054  30.370  29.984  1.00  0.00     0.037 A 
ATOM     46  C   UNL A   1      45.802  28.086  26.744  1.00  0.00     0.037 A 
ATOM     47  C   UNL A   1      41.151  31.300  29.981  1.00  0.00     0.049 A 
ATOM     48  C   UNL A   1      45.717  29.472  27.327  1.00  0.00     0.074 A 
ATOM     49  C   UNL A   1      41.216  32.562  30.544  1.00  0.00     0.029 A 
ATOM     50  N   UNL A   1      42.378  31.069  29.376  1.00  0.00    -0.354 N 
ATOM     51  N   UNL A   1      44.735  30.036  27.987  1.00  0.00    -0.248 NA
ATOM     52  C   UNL A   1      46.895  30.337  27.156  1.00  0.00     0.031 C 
ATOM     53  C   UNL A   1      42.467  33.112  30.245  1.00  0.00     0.029 A 
ATOM     54  C   UNL A   1      43.198  32.175  29.532  1.00  0.00     0.049 A 
ATOM     55  H   UNL A   1      42.628  30.242  28.905  1.00  0.00     0.167 HD
ATOM     56  C   UNL A   1      45.185  31.303  28.337  1.00  0.00     0.074 A 
ATOM     57  C   UNL A   1      46.533  31.424  27.823  1.00  0.00     0.031 C 
ATOM     58  C   UNL A   1      44.541  32.277  29.025  1.00  0.00     0.037 A 
BRANCH  45  59
ATOM     59  C   UNL A   1      38.767  30.795  30.627  1.00  0.00     0.064 A 
ATOM     60  C   UNL A   1      37.702  31.309  29.872  1.00  0.00     0.173 A 
ATOM     61  C   UNL A   1      38.589  30.663  32.011  1.00  0.00     0.173 A 
ATOM     62  F   UNL A   1      37.828  31.467  28.546  1.00  0.00    -0.203 F 
ATOM     63  C   UNL A   1      36.514  31.698  30.485  1.00  0.00     0.198 A 
ATOM     64  C   UNL A   1      37.391  31.029  32.618  1.00  0.00     0.198 A 
ATOM     65  F   UNL A   1      39.577  30.173  32.777  1.00  0.00    -0.203 F 
ATOM     66  F   UNL A   1      35.524  32.227  29.752  1.00  0.00    -0.200 F 
ATOM     67  C   UNL A   1      36.357  31.554  31.857  1.00  0.00     0.200 A 
ATOM     68  F   UNL A   1      37.238  30.881  33.941  1.00  0.00    -0.200 F 
ATOM     69  F   UNL A   1      35.212  31.927  32.444  1.00  0.00    -0.200 F 
ENDBRANCH  45  59
BRANCH  46  70
ATOM     70  C   UNL A   1      47.048  27.626  26.078  1.00  0.00     0.064 A 
ATOM     71  C   UNL A   1      47.197  27.711  24.687  1.00  0.00     0.173 A 
ATOM     72  C   UNL A   1      48.104  27.072  26.816  1.00  0.00     0.173 A 
ATOM     73  F   UNL A   1      46.202  28.206  23.937  1.00  0.00    -0.203 F 
ATOM     74  C   UNL A   1      48.350  27.245  24.058  1.00  0.00     0.198 A 
ATOM     75  C   UNL A   1      49.265  26.628  26.189  1.00  0.00     0.198 A 
ATOM     76  F   UNL A   1      48.005  26.961  28.149  1.00  0.00    -0.203 F 
ATOM     77  F   UNL A   1      48.447  27.297  22.722  1.00  0.00    -0.200 F 
ATOM     78  C   UNL A   1      49.384  26.709  24.809  1.00  0.00     0.200 A 
ATOM     79  F   UNL A   1      50.264  26.113  26.918  1.00  0.00    -0.200 F 
ATOM     80  F   UNL A   1      50.491  26.257  24.202  1.00  0.00    -0.200 F 
ENDBRANCH  46  70
BRANCH  58  81
ATOM     81  C   UNL A   1      45.298  33.544  29.298  1.00  0.00     0.064 A 
ATOM     82  C   UNL A   1      46.102  33.691  30.438  1.00  0.00     0.173 A 
ATOM     83  C   UNL A   1      45.245  34.611  28.389  1.00  0.00     0.173 A 
ATOM     84  F   UNL A   1      46.175  32.704  31.344  1.00  0.00    -0.203 F 
ATOM     85  C   UNL A   1      46.804  34.872  30.671  1.00  0.00     0.198 A 
ATOM     86  C   UNL A   1      45.968  35.779  28.612  1.00  0.00     0.198 A 
ATOM     87  F   UNL A   1      44.496  34.518  27.279  1.00  0.00    -0.203 F 
ATOM     88  F   UNL A   1      47.530  35.007  31.789  1.00  0.00    -0.200 F 
ATOM     89  C   UNL A   1      46.741  35.911  29.756  1.00  0.00     0.200 A 
ATOM     90  F   UNL A   1      45.916  36.779  27.720  1.00  0.00    -0.200 F 
ATOM     91  F   UNL A   1      47.421  37.045  29.979  1.00  0.00    -0.200 F 
ENDBRANCH  58  81
ENDBRANCH  32  33
ENDBRANCH  25  27
ENDBRANCH  24  25
ENDBRANCH  23  24
ENDBRANCH  22  23
ENDBRANCH  21  22
ENDBRANCH   1  21
TORSDOF 19
ENDMDL
MODEL 3
REMARK VINA RESULT:     -10.4      4.362      9.861
REMARK SMILES CC(C)C[C@@H](CNC(=O)[C@@H]1CCOC1)C(=O)OCCOCCOC(=O)c1ccc(-c2c3nc(c(-c4c(F)c(F)c(F)c(F)c4F)c4ccc([nH]4)c(-c4c(F)c(F)c(F)c(F)c4F)c4nc(c(-c5c(F)c(F)c(F)c(F)c5F)c5ccc2[nH]5)C=C4)C=C3)cc1
REMARK SMILES IDX 19 1 18 2 17 3 15 4 16 5 5 6 4 7 2 8 1 9 3 10 6 11 7 12 8 13
REMARK SMILES IDX 9 15 10 16 11 17 14 18 12 19 13 20 20 21 21 22 22 23 23 24
REMARK SMILES IDX 24 25 25 26 26 27 27 28 88 29 28 30 87 31 29 32 30 33 31 34
REMARK SMILES IDX 81 35 32 36 86 37 80 38 82 39 33 40 85 41 79 42 78 43 34 45
REMARK SMILES IDX 66 46 46 47 65 48 47 49 50 50 64 51 83 52 48 53 49 54 63 56
REMARK SMILES IDX 84 57 51 58 35 59 36 60 44 61 37 62 38 63 42 64 45 65 39 66
REMARK SMILES IDX 40 67 43 68 41 69 67 70 68 71 76 72 69 73 70 74 74 75 77 76
REMARK SMILES IDX 71 77 72 78 75 79 73 80 52 81 53 82 61 83 54 84 55 85 59 86
REMARK SMILES IDX 62 87 56 88 57 89 60 90 58 91
REMARK H PARENT 7 14 82 44 50 55
REMARK Flexibility Score: inf
ROOT
ATOM      1  C   UNL A   1      31.813  29.497  26.356  1.00  0.00     0.202 C 
ENDROOT
BRANCH   1   2
ATOM      2  C   UNL A   1      32.147  28.214  27.118  1.00  0.00     0.261 C 
BRANCH   2   3
ATOM      3  O   UNL A   1      31.043  27.290  27.181  1.00  0.00    -0.463 OA
BRANCH   3   4
ATOM      4  C   UNL A   1      31.193  26.145  26.464  1.00  0.00     0.310 C 
ATOM      5  O   UNL A   1      30.429  25.186  26.512  1.00  0.00    -0.252 OA
BRANCH   4   6
ATOM      6  C   UNL A   1      32.455  26.111  25.618  1.00  0.00     0.118 C 
BRANCH   6   7
ATOM      7  C   UNL A   1      33.157  24.740  25.512  1.00  0.00     0.020 C 
BRANCH   7   8
ATOM      8  C   UNL A   1      34.498  24.756  24.738  1.00  0.00    -0.017 C 
ATOM      9  C   UNL A   1      35.651  24.156  25.549  1.00  0.00     0.007 C 
ATOM     10  C   UNL A   1      34.357  23.987  23.421  1.00  0.00     0.007 C 
ENDBRANCH   7   8
ENDBRANCH   6   7
BRANCH   6  11
ATOM     11  C   UNL A   1      32.139  26.752  24.260  1.00  0.00     0.131 C 
BRANCH  11  12
ATOM     12  N   UNL A   1      30.732  26.645  23.899  1.00  0.00    -0.355 N 
ATOM     13  C   UNL A   1      29.818  27.614  23.608  1.00  0.00     0.225 C 
ATOM     14  H   UNL A   1      30.386  25.724  23.860  1.00  0.00     0.163 HD
ATOM     15  O   UNL A   1      28.639  27.271  23.507  1.00  0.00    -0.275 OA
BRANCH  13  16
ATOM     16  C   UNL A   1      30.261  29.056  23.404  1.00  0.00     0.106 C 
ATOM     17  C   UNL A   1      29.099  30.020  23.501  1.00  0.00     0.044 C 
ATOM     18  C   UNL A   1      30.760  29.249  21.979  1.00  0.00     0.173 C 
ATOM     19  C   UNL A   1      28.621  30.142  22.074  1.00  0.00     0.161 C 
ATOM     20  O   UNL A   1      29.790  30.029  21.262  1.00  0.00    -0.381 OA
ENDBRANCH  13  16
ENDBRANCH  11  12
ENDBRANCH   6  11
ENDBRANCH   4   6
ENDBRANCH   3   4
ENDBRANCH   2   3
ENDBRANCH   1   2
BRANCH   1  21
ATOM     21  O   UNL A   1      32.086  30.725  27.023  1.00  0.00    -0.374 OA
BRANCH  21  22
ATOM     22  C   UNL A   1      31.451  31.899  26.524  1.00  0.00     0.202 C 
BRANCH  22  23
ATOM     23  C   UNL A   1      32.070  33.244  26.925  1.00  0.00     0.261 C 
BRANCH  23  24
ATOM     24  O   UNL A   1      32.663  33.226  28.238  1.00  0.00    -0.460 OA
BRANCH  24  25
ATOM     25  C   UNL A   1      33.759  34.012  28.368  1.00  0.00     0.338 C 
ATOM     26  O   UNL A   1      33.783  35.228  28.494  1.00  0.00    -0.246 OA
BRANCH  25  27
ATOM     27  C   UNL A   1      34.991  33.210  28.489  1.00  0.00     0.060 A 
ATOM     28  C   UNL A   1      34.849  31.881  28.909  1.00  0.00     0.016 A 
ATOM     29  C   UNL A   1      36.259  33.780  28.361  1.00  0.00     0.016 A 
ATOM     30  C   UNL A   1      35.969  31.143  29.284  1.00  0.00     0.010 A 
ATOM     31  C   UNL A   1      37.386  33.036  28.744  1.00  0.00     0.010 A 
ATOM     32  C   UNL A   1      37.238  31.736  29.260  1.00  0.00    -0.014 A 
BRANCH  32  33
ATOM     33  C   UNL A   1      38.353  31.057  29.970  1.00  0.00     0.031 A 
ATOM     34  C   UNL A   1      38.572  31.353  31.430  1.00  0.00     0.074 A 
ATOM     35  C   UNL A   1      39.109  30.131  29.354  1.00  0.00     0.049 A 
ATOM     36  N   UNL A   1      39.431  30.828  32.268  1.00  0.00    -0.248 NA
ATOM     37  C   UNL A   1      37.701  32.377  32.029  1.00  0.00     0.031 C 
ATOM     38  C   UNL A   1      38.978  29.727  27.957  1.00  0.00     0.029 A 
ATOM     39  N   UNL A   1      40.132  29.353  29.837  1.00  0.00    -0.354 N 
ATOM     40  C   UNL A   1      39.205  31.458  33.486  1.00  0.00     0.074 A 
ATOM     41  C   UNL A   1      38.151  32.425  33.273  1.00  0.00     0.031 C 
ATOM     42  C   UNL A   1      39.882  28.768  27.695  1.00  0.00     0.029 A 
ATOM     43  C   UNL A   1      40.665  28.504  28.901  1.00  0.00     0.049 A 
ATOM     44  H   UNL A   1      40.452  29.401  30.767  1.00  0.00     0.167 HD
ATOM     45  C   UNL A   1      39.811  31.241  34.678  1.00  0.00     0.037 A 
ATOM     46  C   UNL A   1      41.672  27.614  29.009  1.00  0.00     0.037 A 
ATOM     47  C   UNL A   1      40.850  30.271  34.900  1.00  0.00     0.049 A 
ATOM     48  C   UNL A   1      42.364  27.427  30.334  1.00  0.00     0.074 A 
ATOM     49  C   UNL A   1      41.503  29.959  36.079  1.00  0.00     0.029 A 
ATOM     50  N   UNL A   1      41.392  29.459  33.915  1.00  0.00    -0.354 N 
ATOM     51  N   UNL A   1      42.116  27.999  31.487  1.00  0.00    -0.248 NA
ATOM     52  C   UNL A   1      43.474  26.463  30.371  1.00  0.00     0.031 C 
ATOM     53  C   UNL A   1      42.470  28.987  35.800  1.00  0.00     0.029 A 
ATOM     54  C   UNL A   1      42.389  28.662  34.455  1.00  0.00     0.049 A 
ATOM     55  H   UNL A   1      41.110  29.450  32.972  1.00  0.00     0.167 HD
ATOM     56  C   UNL A   1      43.013  27.443  32.391  1.00  0.00     0.074 A 
ATOM     57  C   UNL A   1      43.807  26.482  31.654  1.00  0.00     0.031 C 
ATOM     58  C   UNL A   1      43.162  27.702  33.713  1.00  0.00     0.037 A 
BRANCH  45  59
ATOM     59  C   UNL A   1      39.376  32.091  35.836  1.00  0.00     0.064 A 
ATOM     60  C   UNL A   1      38.390  31.661  36.736  1.00  0.00     0.173 A 
ATOM     61  C   UNL A   1      39.972  33.340  36.060  1.00  0.00     0.173 A 
ATOM     62  F   UNL A   1      37.780  30.479  36.556  1.00  0.00    -0.203 F 
ATOM     63  C   UNL A   1      38.000  32.463  37.805  1.00  0.00     0.198 A 
ATOM     64  C   UNL A   1      39.597  34.128  37.144  1.00  0.00     0.198 A 
ATOM     65  F   UNL A   1      40.923  33.795  35.229  1.00  0.00    -0.203 F 
ATOM     66  F   UNL A   1      37.025  32.052  38.628  1.00  0.00    -0.200 F 
ATOM     67  C   UNL A   1      38.607  33.694  38.011  1.00  0.00     0.200 A 
ATOM     68  F   UNL A   1      40.191  35.313  37.347  1.00  0.00    -0.200 F 
ATOM     69  F   UNL A   1      38.231  34.463  39.042  1.00  0.00    -0.200 F 
ENDBRANCH  45  59
BRANCH  46  70
ATOM     70  C   UNL A   1      42.081  26.812  27.828  1.00  0.00     0.064 A 
ATOM     71  C   UNL A   1      43.064  27.278  26.943  1.00  0.00     0.173 A 
ATOM     72  C   UNL A   1      41.482  25.576  27.547  1.00  0.00     0.173 A 
ATOM     73  F   UNL A   1      43.643  28.469  27.155  1.00  0.00    -0.203 F 
ATOM     74  C   UNL A   1      43.421  26.544  25.814  1.00  0.00     0.198 A 
ATOM     75  C   UNL A   1      41.857  24.832  26.430  1.00  0.00     0.198 A 
ATOM     76  F   UNL A   1      40.531  25.092  28.358  1.00  0.00    -0.203 F 
ATOM     77  F   UNL A   1      44.331  27.034  24.961  1.00  0.00    -0.200 F 
ATOM     78  C   UNL A   1      42.821  25.320  25.562  1.00  0.00     0.200 A 
ATOM     79  F   UNL A   1      41.277  23.648  26.191  1.00  0.00    -0.200 F 
ATOM     80  F   UNL A   1      43.163  24.616  24.473  1.00  0.00    -0.200 F 
ENDBRANCH  46  70
BRANCH  58  81
ATOM     81  C   UNL A   1      44.196  26.910  34.459  1.00  0.00     0.064 A 
ATOM     82  C   UNL A   1      45.500  27.391  34.645  1.00  0.00     0.173 A 
ATOM     83  C   UNL A   1      43.866  25.669  35.024  1.00  0.00     0.173 A 
ATOM     84  F   UNL A   1      45.868  28.567  34.113  1.00  0.00    -0.203 F 
ATOM     85  C   UNL A   1      46.444  26.647  35.348  1.00  0.00     0.198 A 
ATOM     86  C   UNL A   1      44.805  24.939  35.748  1.00  0.00     0.198 A 
ATOM     87  F   UNL A   1      42.630  25.167  34.880  1.00  0.00    -0.203 F 
ATOM     88  F   UNL A   1      47.696  27.106  35.476  1.00  0.00    -0.200 F 
ATOM     89  C   UNL A   1      46.095  25.425  35.903  1.00  0.00     0.200 A 
ATOM     90  F   UNL A   1      44.462  23.764  36.294  1.00  0.00    -0.200 F 
ATOM     91  F   UNL A   1      47.003  24.711  36.583  1.00  0.00    -0.200 F 
ENDBRANCH  58  81
ENDBRANCH  32  33
ENDBRANCH  25  27
ENDBRANCH  24  25
ENDBRANCH  23  24
ENDBRANCH  22  23
ENDBRANCH  21  22
ENDBRANCH   1  21
TORSDOF 19
ENDMDL
