MODEL 1
REMARK VINA RESULT:     -12.6      0.000      0.000
REMARK SMILES Cc1ccc(C(=O)OCCOCCOC(=O)c2ccc(-c3c4nc(c(-c5c(F)c(F)c(F)c(F)c5F)c5ccc([nH]5)c(-c5c(F)c(F)c(F)c(F)c5F)c5nc(c(-c6c(F)c(F)c(F)c(F)c6F)c6ccc3[nH]6)C=C5)C=C4)cc2)c2c1N[C@H](c1ccccc1F)[C@H]1CC=C[C@@H]21
REMARK SMILES IDX 12 1 11 2 10 3 9 4 8 5 6 6 7 7 5 8 1 9 2 10 3 11 81 12 4 13
REMARK SMILES IDX 80 14 82 15 95 16 83 17 91 19 94 20 92 21 93 22 84 23 85 24
REMARK SMILES IDX 89 25 86 26 88 27 90 28 87 29 13 30 14 31 15 32 16 33 17 34
REMARK SMILES IDX 18 35 79 36 19 37 78 38 20 39 21 40 22 41 72 42 23 43 77 44
REMARK SMILES IDX 71 45 73 46 24 47 76 48 70 49 69 50 25 52 57 53 37 54 56 55
REMARK SMILES IDX 38 56 41 57 55 58 74 59 39 60 40 61 54 63 75 64 42 65 26 66
REMARK SMILES IDX 27 67 35 68 28 69 29 70 33 71 36 72 30 73 31 74 34 75 32 76
REMARK SMILES IDX 58 77 59 78 67 79 60 80 61 81 65 82 68 83 62 84 63 85 66 86
REMARK SMILES IDX 64 87 43 88 44 89 52 90 45 91 46 92 50 93 53 94 47 95 48 96
REMARK SMILES IDX 51 97 49 98
REMARK H PARENT 82 18 73 51 41 62
REMARK Flexibility Score: inf
ROOT
ATOM      1  C   UNL A   1      31.395  31.326  26.307  1.00  0.00     0.202 C 
ENDROOT
BRANCH   1   2
ATOM      2  O   UNL A   1      32.020  30.147  26.824  1.00  0.00    -0.374 OA
BRANCH   2   3
ATOM      3  C   UNL A   1      33.063  29.554  26.057  1.00  0.00     0.202 C 
BRANCH   3   4
ATOM      4  C   UNL A   1      33.883  28.446  26.723  1.00  0.00     0.261 C 
BRANCH   4   5
ATOM      5  O   UNL A   1      33.970  27.275  25.904  1.00  0.00    -0.460 OA
BRANCH   5   6
ATOM      6  C   UNL A   1      32.849  26.512  25.890  1.00  0.00     0.338 C 
ATOM      7  O   UNL A   1      31.973  26.487  26.741  1.00  0.00    -0.246 OA
BRANCH   6   8
ATOM      8  C   UNL A   1      32.820  25.697  24.657  1.00  0.00     0.065 A 
ATOM      9  C   UNL A   1      33.017  23.613  20.900  1.00  0.00     0.046 C 
ATOM     10  C   UNL A   1      32.894  24.301  22.235  1.00  0.00    -0.028 A 
ATOM     11  C   UNL A   1      32.719  25.693  22.248  1.00  0.00     0.006 A 
ATOM     12  C   UNL A   1      33.002  23.585  23.453  1.00  0.00     0.042 A 
ATOM     13  C   UNL A   1      32.683  26.389  23.449  1.00  0.00     0.016 A 
ATOM     14  C   UNL A   1      32.946  24.286  24.682  1.00  0.00    -0.003 A 
ATOM     15  N   UNL A   1      33.109  22.196  23.437  1.00  0.00    -0.377 N 
ATOM     16  C   UNL A   1      32.892  23.514  25.987  1.00  0.00     0.050 C 
ATOM     17  C   UNL A   1      33.560  21.502  24.635  1.00  0.00     0.117 C 
ATOM     18  H   UNL A   1      32.881  21.690  22.624  1.00  0.00     0.161 HD
ATOM     19  C   UNL A   1      32.709  21.982  25.828  1.00  0.00     0.031 C 
ATOM     20  C   UNL A   1      34.105  23.560  26.879  1.00  0.00    -0.023 C 
ATOM     21  C   UNL A   1      33.205  21.422  27.174  1.00  0.00     0.034 C 
ATOM     22  C   UNL A   1      34.248  22.418  27.564  1.00  0.00    -0.030 C 
BRANCH  17  23
ATOM     23  C   UNL A   1      33.632  20.009  24.352  1.00  0.00     0.010 A 
ATOM     24  C   UNL A   1      32.525  19.398  23.725  1.00  0.00     0.009 A 
ATOM     25  C   UNL A   1      34.740  19.204  24.629  1.00  0.00     0.128 A 
ATOM     26  C   UNL A   1      32.554  18.052  23.353  1.00  0.00     0.001 A 
ATOM     27  C   UNL A   1      34.779  17.861  24.249  1.00  0.00     0.039 A 
ATOM     28  F   UNL A   1      35.823  19.706  25.238  1.00  0.00    -0.207 F 
ATOM     29  C   UNL A   1      33.689  17.285  23.603  1.00  0.00     0.003 A 
ENDBRANCH  17  23
ENDBRANCH   6   8
ENDBRANCH   5   6
ENDBRANCH   4   5
ENDBRANCH   3   4
ENDBRANCH   2   3
ENDBRANCH   1   2
BRANCH   1  30
ATOM     30  C   UNL A   1      31.899  32.682  26.813  1.00  0.00     0.261 C 
BRANCH  30  31
ATOM     31  O   UNL A   1      32.770  32.546  27.950  1.00  0.00    -0.460 OA
BRANCH  31  32
ATOM     32  C   UNL A   1      33.806  33.415  27.987  1.00  0.00     0.338 C 
ATOM     33  O   UNL A   1      33.766  34.635  27.937  1.00  0.00    -0.246 OA
BRANCH  32  34
ATOM     34  C   UNL A   1      35.044  32.681  28.284  1.00  0.00     0.060 A 
ATOM     35  C   UNL A   1      34.946  31.320  28.602  1.00  0.00     0.016 A 
ATOM     36  C   UNL A   1      36.266  33.349  28.359  1.00  0.00     0.016 A 
ATOM     37  C   UNL A   1      36.073  30.625  29.029  1.00  0.00     0.010 A 
ATOM     38  C   UNL A   1      37.391  32.657  28.810  1.00  0.00     0.010 A 
ATOM     39  C   UNL A   1      37.288  31.304  29.180  1.00  0.00    -0.014 A 
BRANCH  39  40
ATOM     40  C   UNL A   1      38.390  30.644  29.912  1.00  0.00     0.031 A 
ATOM     41  C   UNL A   1      38.613  31.013  31.351  1.00  0.00     0.074 A 
ATOM     42  C   UNL A   1      39.146  29.706  29.319  1.00  0.00     0.049 A 
ATOM     43  N   UNL A   1      39.510  30.569  32.193  1.00  0.00    -0.248 NA
ATOM     44  C   UNL A   1      37.693  32.011  31.922  1.00  0.00     0.031 C 
ATOM     45  C   UNL A   1      38.981  29.234  27.947  1.00  0.00     0.029 A 
ATOM     46  N   UNL A   1      40.204  28.980  29.803  1.00  0.00    -0.354 N 
ATOM     47  C   UNL A   1      39.255  31.222  33.390  1.00  0.00     0.074 A 
ATOM     48  C   UNL A   1      38.145  32.120  33.162  1.00  0.00     0.031 C 
ATOM     49  C   UNL A   1      39.913  28.298  27.695  1.00  0.00     0.029 A 
ATOM     50  C   UNL A   1      40.753  28.127  28.879  1.00  0.00     0.049 A 
ATOM     51  H   UNL A   1      40.539  29.064  30.725  1.00  0.00     0.167 HD
ATOM     52  C   UNL A   1      39.883  31.071  34.579  1.00  0.00     0.037 A 
ATOM     53  C   UNL A   1      41.822  27.314  28.981  1.00  0.00     0.037 A 
ATOM     54  C   UNL A   1      40.995  30.187  34.795  1.00  0.00     0.049 A 
ATOM     55  C   UNL A   1      42.575  27.248  30.285  1.00  0.00     0.074 A 
ATOM     56  C   UNL A   1      41.701  29.960  35.963  1.00  0.00     0.029 A 
ATOM     57  N   UNL A   1      41.569  29.390  33.816  1.00  0.00    -0.354 N 
ATOM     58  N   UNL A   1      42.317  27.851  31.421  1.00  0.00    -0.248 NA
ATOM     59  C   UNL A   1      43.770  26.392  30.321  1.00  0.00     0.031 C 
ATOM     60  C   UNL A   1      42.735  29.064  35.677  1.00  0.00     0.029 A 
ATOM     61  C   UNL A   1      42.642  28.693  34.345  1.00  0.00     0.049 A 
ATOM     62  H   UNL A   1      41.259  29.328  32.884  1.00  0.00     0.167 HD
ATOM     63  C   UNL A   1      43.298  27.432  32.309  1.00  0.00     0.074 A 
ATOM     64  C   UNL A   1      44.151  26.513  31.586  1.00  0.00     0.031 C 
ATOM     65  C   UNL A   1      43.478  27.779  33.608  1.00  0.00     0.037 A 
BRANCH  52  66
ATOM     66  C   UNL A   1      39.391  31.889  35.735  1.00  0.00     0.064 A 
ATOM     67  C   UNL A   1      39.817  33.211  35.929  1.00  0.00     0.173 A 
ATOM     68  C   UNL A   1      38.444  31.366  36.627  1.00  0.00     0.173 A 
ATOM     69  F   UNL A   1      40.734  33.751  35.111  1.00  0.00    -0.203 F 
ATOM     70  C   UNL A   1      39.322  33.976  36.981  1.00  0.00     0.198 A 
ATOM     71  C   UNL A   1      37.931  32.142  37.663  1.00  0.00     0.198 A 
ATOM     72  F   UNL A   1      38.003  30.107  36.485  1.00  0.00    -0.203 F 
ATOM     73  F   UNL A   1      39.767  35.227  37.167  1.00  0.00    -0.200 F 
ATOM     74  C   UNL A   1      38.373  33.445  37.841  1.00  0.00     0.200 A 
ATOM     75  F   UNL A   1      37.005  31.631  38.486  1.00  0.00    -0.200 F 
ATOM     76  F   UNL A   1      37.885  34.187  38.845  1.00  0.00    -0.200 F 
ENDBRANCH  52  66
BRANCH  53  77
ATOM     77  C   UNL A   1      42.243  26.497  27.813  1.00  0.00     0.064 A 
ATOM     78  C   UNL A   1      43.245  26.947  26.944  1.00  0.00     0.173 A 
ATOM     79  C   UNL A   1      41.658  25.250  27.547  1.00  0.00     0.173 A 
ATOM     80  F   UNL A   1      43.816  28.143  27.142  1.00  0.00    -0.203 F 
ATOM     81  C   UNL A   1      43.641  26.183  25.846  1.00  0.00     0.198 A 
ATOM     82  C   UNL A   1      42.072  24.476  26.464  1.00  0.00     0.198 A 
ATOM     83  F   UNL A   1      40.692  24.776  28.346  1.00  0.00    -0.203 F 
ATOM     84  F   UNL A   1      44.577  26.653  25.010  1.00  0.00    -0.200 F 
ATOM     85  C   UNL A   1      43.060  24.946  25.611  1.00  0.00     0.200 A 
ATOM     86  F   UNL A   1      41.516  23.277  26.248  1.00  0.00    -0.200 F 
ATOM     87  F   UNL A   1      43.446  24.210  24.562  1.00  0.00    -0.200 F 
ENDBRANCH  53  77
BRANCH  65  88
ATOM     88  C   UNL A   1      44.631  27.163  34.344  1.00  0.00     0.064 A 
ATOM     89  C   UNL A   1      45.878  27.800  34.412  1.00  0.00     0.173 A 
ATOM     90  C   UNL A   1      44.460  25.971  35.065  1.00  0.00     0.173 A 
ATOM     91  F   UNL A   1      46.094  28.934  33.729  1.00  0.00    -0.203 F 
ATOM     92  C   UNL A   1      46.914  27.263  35.172  1.00  0.00     0.198 A 
ATOM     93  C   UNL A   1      45.489  25.453  35.847  1.00  0.00     0.198 A 
ATOM     94  F   UNL A   1      43.282  25.329  35.041  1.00  0.00    -0.203 F 
ATOM     95  F   UNL A   1      48.106  27.875  35.202  1.00  0.00    -0.200 F 
ATOM     96  C   UNL A   1      46.715  26.098  35.897  1.00  0.00     0.200 A 
ATOM     97  F   UNL A   1      45.289  24.337  36.561  1.00  0.00    -0.200 F 
ATOM     98  F   UNL A   1      47.706  25.596  36.646  1.00  0.00    -0.200 F 
ENDBRANCH  65  88
ENDBRANCH  39  40
ENDBRANCH  32  34
ENDBRANCH  31  32
ENDBRANCH  30  31
ENDBRANCH   1  30
TORSDOF 15
ENDMDL
MODEL 2
REMARK VINA RESULT:     -12.5      1.202      7.307
REMARK SMILES Cc1ccc(C(=O)OCCOCCOC(=O)c2ccc(-c3c4nc(c(-c5c(F)c(F)c(F)c(F)c5F)c5ccc([nH]5)c(-c5c(F)c(F)c(F)c(F)c5F)c5nc(c(-c6c(F)c(F)c(F)c(F)c6F)c6ccc3[nH]6)C=C5)C=C4)cc2)c2c1N[C@H](c1ccccc1F)[C@H]1CC=C[C@@H]21
REMARK SMILES IDX 12 1 11 2 10 3 9 4 8 5 6 6 7 7 5 8 1 9 2 10 3 11 81 12 4 13
REMARK SMILES IDX 80 14 82 15 95 16 83 17 91 19 94 20 92 21 93 22 84 23 85 24
REMARK SMILES IDX 89 25 86 26 88 27 90 28 87 29 13 30 14 31 15 32 16 33 17 34
REMARK SMILES IDX 18 35 79 36 19 37 78 38 20 39 21 40 22 41 72 42 23 43 77 44
REMARK SMILES IDX 71 45 73 46 24 47 76 48 70 49 69 50 25 52 57 53 37 54 56 55
REMARK SMILES IDX 38 56 41 57 55 58 74 59 39 60 40 61 54 63 75 64 42 65 26 66
REMARK SMILES IDX 27 67 35 68 28 69 29 70 33 71 36 72 30 73 31 74 34 75 32 76
REMARK SMILES IDX 58 77 59 78 67 79 60 80 61 81 65 82 68 83 62 84 63 85 66 86
REMARK SMILES IDX 64 87 43 88 44 89 52 90 45 91 46 92 50 93 53 94 47 95 48 96
REMARK SMILES IDX 51 97 49 98
REMARK H PARENT 82 18 73 51 41 62
REMARK Flexibility Score: inf
ROOT
ATOM      1  C   UNL A   1      31.393  29.837  25.459  1.00  0.00     0.202 C 
ENDROOT
BRANCH   1   2
ATOM      2  O   UNL A   1      30.669  29.794  24.226  1.00  0.00    -0.374 OA
BRANCH   2   3
ATOM      3  C   UNL A   1      31.134  28.910  23.211  1.00  0.00     0.202 C 
BRANCH   3   4
ATOM      4  C   UNL A   1      32.592  28.447  23.295  1.00  0.00     0.261 C 
BRANCH   4   5
ATOM      5  O   UNL A   1      32.696  27.060  23.636  1.00  0.00    -0.460 OA
BRANCH   5   6
ATOM      6  C   UNL A   1      33.035  26.820  24.926  1.00  0.00     0.338 C 
ATOM      7  O   UNL A   1      33.916  27.377  25.564  1.00  0.00    -0.246 OA
BRANCH   6   8
ATOM      8  C   UNL A   1      32.157  25.769  25.483  1.00  0.00     0.065 A 
ATOM      9  C   UNL A   1      29.266  22.942  26.946  1.00  0.00     0.046 C 
ATOM     10  C   UNL A   1      30.329  23.897  26.469  1.00  0.00    -0.028 A 
ATOM     11  C   UNL A   1      30.135  25.269  26.695  1.00  0.00     0.006 A 
ATOM     12  C   UNL A   1      31.473  23.446  25.766  1.00  0.00     0.042 A 
ATOM     13  C   UNL A   1      31.040  26.200  26.205  1.00  0.00     0.016 A 
ATOM     14  C   UNL A   1      32.411  24.390  25.280  1.00  0.00    -0.003 A 
ATOM     15  N   UNL A   1      31.695  22.081  25.602  1.00  0.00    -0.377 N 
ATOM     16  C   UNL A   1      33.717  23.909  24.676  1.00  0.00     0.050 C 
ATOM     17  C   UNL A   1      32.658  21.630  24.605  1.00  0.00     0.117 C 
ATOM     18  H   UNL A   1      31.208  21.429  26.154  1.00  0.00     0.161 HD
ATOM     19  C   UNL A   1      33.982  22.389  24.827  1.00  0.00     0.031 C 
ATOM     20  C   UNL A   1      33.907  24.081  23.192  1.00  0.00    -0.023 C 
ATOM     21  C   UNL A   1      35.022  22.098  23.729  1.00  0.00     0.034 C 
ATOM     22  C   UNL A   1      34.664  23.101  22.682  1.00  0.00    -0.030 C 
BRANCH  17  23
ATOM     23  C   UNL A   1      32.689  20.110  24.591  1.00  0.00     0.010 A 
ATOM     24  C   UNL A   1      32.917  19.439  25.811  1.00  0.00     0.009 A 
ATOM     25  C   UNL A   1      32.461  19.325  23.457  1.00  0.00     0.128 A 
ATOM     26  C   UNL A   1      32.870  18.045  25.892  1.00  0.00     0.001 A 
ATOM     27  C   UNL A   1      32.402  17.932  23.535  1.00  0.00     0.039 A 
ATOM     28  F   UNL A   1      32.254  19.886  22.259  1.00  0.00    -0.207 F 
ATOM     29  C   UNL A   1      32.598  17.290  24.754  1.00  0.00     0.003 A 
ENDBRANCH  17  23
ENDBRANCH   6   8
ENDBRANCH   5   6
ENDBRANCH   4   5
ENDBRANCH   3   4
ENDBRANCH   2   3
ENDBRANCH   1   2
BRANCH   1  30
ATOM     30  C   UNL A   1      31.612  31.207  26.111  1.00  0.00     0.261 C 
BRANCH  30  31
ATOM     31  O   UNL A   1      32.491  31.130  27.248  1.00  0.00    -0.460 OA
BRANCH  31  32
ATOM     32  C   UNL A   1      33.311  32.193  27.413  1.00  0.00     0.338 C 
ATOM     33  O   UNL A   1      33.025  33.379  27.359  1.00  0.00    -0.246 OA
BRANCH  32  34
ATOM     34  C   UNL A   1      34.630  31.722  27.860  1.00  0.00     0.060 A 
ATOM     35  C   UNL A   1      34.780  30.361  28.160  1.00  0.00     0.016 A 
ATOM     36  C   UNL A   1      35.667  32.625  28.088  1.00  0.00     0.016 A 
ATOM     37  C   UNL A   1      35.967  29.902  28.721  1.00  0.00     0.010 A 
ATOM     38  C   UNL A   1      36.849  32.168  28.675  1.00  0.00     0.010 A 
ATOM     39  C   UNL A   1      36.986  30.813  29.024  1.00  0.00    -0.014 A 
BRANCH  39  40
ATOM     40  C   UNL A   1      38.105  30.374  29.886  1.00  0.00     0.031 A 
ATOM     41  C   UNL A   1      39.113  29.419  29.316  1.00  0.00     0.074 A 
ATOM     42  C   UNL A   1      38.241  30.853  31.134  1.00  0.00     0.049 A 
ATOM     43  N   UNL A   1      40.175  28.900  29.877  1.00  0.00    -0.248 NA
ATOM     44  C   UNL A   1      38.903  28.999  27.921  1.00  0.00     0.031 C 
ATOM     45  C   UNL A   1      37.352  31.825  31.765  1.00  0.00     0.029 A 
ATOM     46  N   UNL A   1      39.186  30.585  32.090  1.00  0.00    -0.354 N 
ATOM     47  C   UNL A   1      40.762  28.105  28.903  1.00  0.00     0.074 A 
ATOM     48  C   UNL A   1      39.924  28.178  27.727  1.00  0.00     0.031 C 
ATOM     49  C   UNL A   1      37.792  32.068  33.012  1.00  0.00     0.029 A 
ATOM     50  C   UNL A   1      38.975  31.250  33.272  1.00  0.00     0.049 A 
ATOM     51  H   UNL A   1      39.944  29.973  31.944  1.00  0.00     0.167 HD
ATOM     52  C   UNL A   1      41.909  27.391  28.980  1.00  0.00     0.037 A 
ATOM     53  C   UNL A   1      39.656  31.189  34.432  1.00  0.00     0.037 A 
ATOM     54  C   UNL A   1      42.729  27.312  30.157  1.00  0.00     0.049 A 
ATOM     55  C   UNL A   1      40.868  30.297  34.528  1.00  0.00     0.074 A 
ATOM     56  C   UNL A   1      43.911  26.617  30.338  1.00  0.00     0.029 A 
ATOM     57  N   UNL A   1      42.445  27.943  31.359  1.00  0.00    -0.354 N 
ATOM     58  N   UNL A   1      41.432  29.565  33.597  1.00  0.00    -0.248 NA
ATOM     59  C   UNL A   1      41.537  30.220  35.835  1.00  0.00     0.031 C 
ATOM     60  C   UNL A   1      44.315  26.786  31.666  1.00  0.00     0.029 A 
ATOM     61  C   UNL A   1      43.414  27.628  32.297  1.00  0.00     0.049 A 
ATOM     62  H   UNL A   1      41.671  28.529  31.521  1.00  0.00     0.167 HD
ATOM     63  C   UNL A   1      42.529  28.961  34.197  1.00  0.00     0.074 A 
ATOM     64  C   UNL A   1      42.561  29.421  35.569  1.00  0.00     0.031 C 
ATOM     65  C   UNL A   1      43.429  28.100  33.659  1.00  0.00     0.037 A 
BRANCH  52  66
ATOM     66  C   UNL A   1      42.338  26.629  27.763  1.00  0.00     0.064 A 
ATOM     67  C   UNL A   1      43.265  27.162  26.855  1.00  0.00     0.173 A 
ATOM     68  C   UNL A   1      41.860  25.332  27.529  1.00  0.00     0.173 A 
ATOM     69  F   UNL A   1      43.740  28.406  27.027  1.00  0.00    -0.203 F 
ATOM     70  C   UNL A   1      43.688  26.429  25.750  1.00  0.00     0.198 A 
ATOM     71  C   UNL A   1      42.305  24.590  26.437  1.00  0.00     0.198 A 
ATOM     72  F   UNL A   1      40.973  24.776  28.367  1.00  0.00    -0.203 F 
ATOM     73  F   UNL A   1      44.550  26.970  24.878  1.00  0.00    -0.200 F 
ATOM     74  C   UNL A   1      43.216  25.141  25.548  1.00  0.00     0.200 A 
ATOM     75  F   UNL A   1      41.856  23.342  26.249  1.00  0.00    -0.200 F 
ATOM     76  F   UNL A   1      43.636  24.430  24.492  1.00  0.00    -0.200 F 
ENDBRANCH  52  66
BRANCH  53  77
ATOM     77  C   UNL A   1      39.208  31.995  35.597  1.00  0.00     0.064 A 
ATOM     78  C   UNL A   1      39.628  33.322  35.758  1.00  0.00     0.173 A 
ATOM     79  C   UNL A   1      38.348  31.461  36.567  1.00  0.00     0.173 A 
ATOM     80  F   UNL A   1      40.472  33.870  34.871  1.00  0.00    -0.203 F 
ATOM     81  C   UNL A   1      39.212  34.081  36.851  1.00  0.00     0.198 A 
ATOM     82  C   UNL A   1      37.910  32.228  37.645  1.00  0.00     0.198 A 
ATOM     83  F   UNL A   1      37.919  30.195  36.461  1.00  0.00    -0.203 F 
ATOM     84  F   UNL A   1      39.657  35.336  36.999  1.00  0.00    -0.200 F 
ATOM     85  C   UNL A   1      38.347  33.537  37.788  1.00  0.00     0.200 A 
ATOM     86  F   UNL A   1      37.067  31.701  38.543  1.00  0.00    -0.200 F 
ATOM     87  F   UNL A   1      37.940  34.269  38.833  1.00  0.00    -0.200 F 
ENDBRANCH  53  77
BRANCH  65  88
ATOM     88  C   UNL A   1      44.534  27.601  34.543  1.00  0.00     0.064 A 
ATOM     89  C   UNL A   1      44.416  26.395  35.248  1.00  0.00     0.173 A 
ATOM     90  C   UNL A   1      45.756  28.286  34.610  1.00  0.00     0.173 A 
ATOM     91  F   UNL A   1      43.262  25.710  35.225  1.00  0.00    -0.203 F 
ATOM     92  C   UNL A   1      45.480  25.896  35.994  1.00  0.00     0.198 A 
ATOM     93  C   UNL A   1      46.828  27.770  35.333  1.00  0.00     0.198 A 
ATOM     94  F   UNL A   1      45.923  29.439  33.944  1.00  0.00    -0.203 F 
ATOM     95  F   UNL A   1      45.337  24.755  36.681  1.00  0.00    -0.200 F 
ATOM     96  C   UNL A   1      46.689  26.577  36.026  1.00  0.00     0.200 A 
ATOM     97  F   UNL A   1      48.000  28.420  35.348  1.00  0.00    -0.200 F 
ATOM     98  F   UNL A   1      47.719  26.083  36.726  1.00  0.00    -0.200 F 
ENDBRANCH  65  88
ENDBRANCH  39  40
ENDBRANCH  32  34
ENDBRANCH  31  32
ENDBRANCH  30  31
ENDBRANCH   1  30
TORSDOF 15
ENDMDL
MODEL 3
REMARK VINA RESULT:     -12.4      1.223      1.781
REMARK SMILES Cc1ccc(C(=O)OCCOCCOC(=O)c2ccc(-c3c4nc(c(-c5c(F)c(F)c(F)c(F)c5F)c5ccc([nH]5)c(-c5c(F)c(F)c(F)c(F)c5F)c5nc(c(-c6c(F)c(F)c(F)c(F)c6F)c6ccc3[nH]6)C=C5)C=C4)cc2)c2c1N[C@H](c1ccccc1F)[C@H]1CC=C[C@@H]21
REMARK SMILES IDX 12 1 11 2 10 3 9 4 8 5 6 6 7 7 5 8 1 9 2 10 3 11 81 12 4 13
REMARK SMILES IDX 80 14 82 15 95 16 83 17 91 19 94 20 92 21 93 22 84 23 85 24
REMARK SMILES IDX 89 25 86 26 88 27 90 28 87 29 13 30 14 31 15 32 16 33 17 34
REMARK SMILES IDX 18 35 79 36 19 37 78 38 20 39 21 40 22 41 72 42 23 43 77 44
REMARK SMILES IDX 71 45 73 46 24 47 76 48 70 49 69 50 25 52 57 53 37 54 56 55
REMARK SMILES IDX 38 56 41 57 55 58 74 59 39 60 40 61 54 63 75 64 42 65 26 66
REMARK SMILES IDX 27 67 35 68 28 69 29 70 33 71 36 72 30 73 31 74 34 75 32 76
REMARK SMILES IDX 58 77 59 78 67 79 60 80 61 81 65 82 68 83 62 84 63 85 66 86
REMARK SMILES IDX 64 87 43 88 44 89 52 90 45 91 46 92 50 93 53 94 47 95 48 96
REMARK SMILES IDX 51 97 49 98
REMARK H PARENT 82 18 73 51 41 62
REMARK Flexibility Score: inf
ROOT
ATOM      1  C   UNL A   1      31.726  30.062  25.856  1.00  0.00     0.202 C 
ENDROOT
BRANCH   1   2
ATOM      2  O   UNL A   1      30.964  29.999  24.647  1.00  0.00    -0.374 OA
BRANCH   2   3
ATOM      3  C   UNL A   1      31.221  28.921  23.753  1.00  0.00     0.202 C 
BRANCH   3   4
ATOM      4  C   UNL A   1      32.653  28.382  23.694  1.00  0.00     0.261 C 
BRANCH   4   5
ATOM      5  O   UNL A   1      32.708  26.973  23.947  1.00  0.00    -0.460 OA
BRANCH   5   6
ATOM      6  C   UNL A   1      33.028  26.641  25.222  1.00  0.00     0.338 C 
ATOM      7  O   UNL A   1      33.905  27.144  25.908  1.00  0.00    -0.246 OA
BRANCH   6   8
ATOM      8  C   UNL A   1      32.135  25.561  25.692  1.00  0.00     0.065 A 
ATOM      9  C   UNL A   1      29.205  22.656  26.904  1.00  0.00     0.046 C 
ATOM     10  C   UNL A   1      30.281  23.637  26.515  1.00  0.00    -0.028 A 
ATOM     11  C   UNL A   1      30.070  24.996  26.799  1.00  0.00     0.006 A 
ATOM     12  C   UNL A   1      31.454  23.225  25.837  1.00  0.00     0.042 A 
ATOM     13  C   UNL A   1      30.988  25.953  26.390  1.00  0.00     0.016 A 
ATOM     14  C   UNL A   1      32.404  24.194  25.434  1.00  0.00    -0.003 A 
ATOM     15  N   UNL A   1      31.690  21.870  25.616  1.00  0.00    -0.377 N 
ATOM     16  C   UNL A   1      33.736  23.748  24.859  1.00  0.00     0.050 C 
ATOM     17  C   UNL A   1      32.693  21.471  24.638  1.00  0.00     0.117 C 
ATOM     18  H   UNL A   1      31.185  21.190  26.118  1.00  0.00     0.161 HD
ATOM     19  C   UNL A   1      34.003  22.223  24.948  1.00  0.00     0.031 C 
ATOM     20  C   UNL A   1      33.983  23.991  23.394  1.00  0.00    -0.023 C 
ATOM     21  C   UNL A   1      35.087  21.989  23.879  1.00  0.00     0.034 C 
ATOM     22  C   UNL A   1      34.765  23.040  22.868  1.00  0.00    -0.030 C 
BRANCH  17  23
ATOM     23  C   UNL A   1      32.733  19.953  24.553  1.00  0.00     0.010 A 
ATOM     24  C   UNL A   1      32.945  19.226  25.743  1.00  0.00     0.009 A 
ATOM     25  C   UNL A   1      32.528  19.221  23.379  1.00  0.00     0.128 A 
ATOM     26  C   UNL A   1      32.905  17.830  25.757  1.00  0.00     0.001 A 
ATOM     27  C   UNL A   1      32.476  17.826  23.390  1.00  0.00     0.039 A 
ATOM     28  F   UNL A   1      32.337  19.838  22.206  1.00  0.00    -0.207 F 
ATOM     29  C   UNL A   1      32.656  17.129  24.581  1.00  0.00     0.003 A 
ENDBRANCH  17  23
ENDBRANCH   6   8
ENDBRANCH   5   6
ENDBRANCH   4   5
ENDBRANCH   3   4
ENDBRANCH   2   3
ENDBRANCH   1   2
BRANCH   1  30
ATOM     30  C   UNL A   1      31.919  31.434  26.510  1.00  0.00     0.261 C 
BRANCH  30  31
ATOM     31  O   UNL A   1      32.821  31.379  27.629  1.00  0.00    -0.460 OA
BRANCH  31  32
ATOM     32  C   UNL A   1      33.728  32.381  27.687  1.00  0.00     0.338 C 
ATOM     33  O   UNL A   1      33.522  33.584  27.641  1.00  0.00    -0.246 OA
BRANCH  32  34
ATOM     34  C   UNL A   1      35.049  31.821  28.001  1.00  0.00     0.060 A 
ATOM     35  C   UNL A   1      35.166  30.431  28.129  1.00  0.00     0.016 A 
ATOM     36  C   UNL A   1      36.130  32.660  28.276  1.00  0.00     0.016 A 
ATOM     37  C   UNL A   1      36.363  29.873  28.566  1.00  0.00     0.010 A 
ATOM     38  C   UNL A   1      37.323  32.101  28.738  1.00  0.00     0.010 A 
ATOM     39  C   UNL A   1      37.428  30.709  28.917  1.00  0.00    -0.014 A 
BRANCH  39  40
ATOM     40  C   UNL A   1      38.574  30.138  29.658  1.00  0.00     0.031 A 
ATOM     41  C   UNL A   1      38.816  30.601  31.066  1.00  0.00     0.074 A 
ATOM     42  C   UNL A   1      39.352  29.195  29.102  1.00  0.00     0.049 A 
ATOM     43  N   UNL A   1      39.750  30.243  31.908  1.00  0.00    -0.248 NA
ATOM     44  C   UNL A   1      37.871  31.596  31.601  1.00  0.00     0.031 C 
ATOM     45  C   UNL A   1      39.172  28.636  27.765  1.00  0.00     0.029 A 
ATOM     46  N   UNL A   1      40.450  28.542  29.600  1.00  0.00    -0.354 N 
ATOM     47  C   UNL A   1      39.498  30.957  33.071  1.00  0.00     0.074 A 
ATOM     48  C   UNL A   1      38.348  31.797  32.820  1.00  0.00     0.031 C 
ATOM     49  C   UNL A   1      40.135  27.723  27.545  1.00  0.00     0.029 A 
ATOM     50  C   UNL A   1      41.009  27.656  28.714  1.00  0.00     0.049 A 
ATOM     51  H   UNL A   1      40.803  28.693  30.506  1.00  0.00     0.167 HD
ATOM     52  C   UNL A   1      40.160  30.902  34.251  1.00  0.00     0.037 A 
ATOM     53  C   UNL A   1      42.112  26.892  28.835  1.00  0.00     0.037 A 
ATOM     54  C   UNL A   1      41.311  30.076  34.489  1.00  0.00     0.049 A 
ATOM     55  C   UNL A   1      42.898  26.934  30.120  1.00  0.00     0.074 A 
ATOM     56  C   UNL A   1      42.053  29.948  35.649  1.00  0.00     0.029 A 
ATOM     57  N   UNL A   1      41.892  29.244  33.544  1.00  0.00    -0.354 N 
ATOM     58  N   UNL A   1      42.643  27.594  31.225  1.00  0.00    -0.248 NA
ATOM     59  C   UNL A   1      44.127  26.128  30.176  1.00  0.00     0.031 C 
ATOM     60  C   UNL A   1      43.115  29.076  35.389  1.00  0.00     0.029 A 
ATOM     61  C   UNL A   1      43.005  28.622  34.085  1.00  0.00     0.049 A 
ATOM     62  H   UNL A   1      41.563  29.114  32.626  1.00  0.00     0.167 HD
ATOM     63  C   UNL A   1      43.662  27.267  32.111  1.00  0.00     0.074 A 
ATOM     64  C   UNL A   1      44.533  26.339  31.421  1.00  0.00     0.031 C 
ATOM     65  C   UNL A   1      43.859  27.699  33.381  1.00  0.00     0.037 A 
BRANCH  52  66
ATOM     66  C   UNL A   1      39.664  31.769  35.368  1.00  0.00     0.064 A 
ATOM     67  C   UNL A   1      40.147  33.073  35.552  1.00  0.00     0.173 A 
ATOM     68  C   UNL A   1      38.657  31.313  36.232  1.00  0.00     0.173 A 
ATOM     69  F   UNL A   1      41.121  33.550  34.761  1.00  0.00    -0.203 F 
ATOM     70  C   UNL A   1      39.649  33.885  36.567  1.00  0.00     0.198 A 
ATOM     71  C   UNL A   1      38.143  32.136  37.230  1.00  0.00     0.198 A 
ATOM     72  F   UNL A   1      38.161  30.074  36.098  1.00  0.00    -0.203 F 
ATOM     73  F   UNL A   1      40.148  35.116  36.745  1.00  0.00    -0.200 F 
ATOM     74  C   UNL A   1      38.641  33.419  37.399  1.00  0.00     0.200 A 
ATOM     75  F   UNL A   1      37.161  31.689  38.025  1.00  0.00    -0.200 F 
ATOM     76  F   UNL A   1      38.152  34.207  38.366  1.00  0.00    -0.200 F 
ENDBRANCH  52  66
BRANCH  53  77
ATOM     77  C   UNL A   1      42.537  26.022  27.708  1.00  0.00     0.064 A 
ATOM     78  C   UNL A   1      43.505  26.454  26.792  1.00  0.00     0.173 A 
ATOM     79  C   UNL A   1      41.990  24.744  27.526  1.00  0.00     0.173 A 
ATOM     80  F   UNL A   1      44.039  27.678  26.908  1.00  0.00    -0.203 F 
ATOM     81  C   UNL A   1      43.904  25.641  25.731  1.00  0.00     0.198 A 
ATOM     82  C   UNL A   1      42.408  23.922  26.481  1.00  0.00     0.198 A 
ATOM     83  F   UNL A   1      41.057  24.285  28.373  1.00  0.00    -0.203 F 
ATOM     84  F   UNL A   1      44.807  26.092  24.849  1.00  0.00    -0.200 F 
ATOM     85  C   UNL A   1      43.362  24.374  25.581  1.00  0.00     0.200 A 
ATOM     86  F   UNL A   1      41.888  22.695  26.346  1.00  0.00    -0.200 F 
ATOM     87  F   UNL A   1      43.752  23.591  24.567  1.00  0.00    -0.200 F 
ENDBRANCH  53  77
BRANCH  65  88
ATOM     88  C   UNL A   1      45.053  27.172  34.122  1.00  0.00     0.064 A 
ATOM     89  C   UNL A   1      46.265  27.876  34.147  1.00  0.00     0.173 A 
ATOM     90  C   UNL A   1      44.955  26.001  34.890  1.00  0.00     0.173 A 
ATOM     91  F   UNL A   1      46.411  28.993  33.418  1.00  0.00    -0.203 F 
ATOM     92  C   UNL A   1      47.338  27.424  34.910  1.00  0.00     0.198 A 
ATOM     93  C   UNL A   1      46.020  25.568  35.675  1.00  0.00     0.198 A 
ATOM     94  F   UNL A   1      43.813  25.298  34.908  1.00  0.00    -0.203 F 
ATOM     95  F   UNL A   1      48.496  28.099  34.898  1.00  0.00    -0.200 F 
ATOM     96  C   UNL A   1      47.211  26.278  35.682  1.00  0.00     0.200 A 
ATOM     97  F   UNL A   1      45.890  24.472  36.433  1.00  0.00    -0.200 F 
ATOM     98  F   UNL A   1      48.238  25.858  36.433  1.00  0.00    -0.200 F 
ENDBRANCH  65  88
ENDBRANCH  39  40
ENDBRANCH  32  34
ENDBRANCH  31  32
ENDBRANCH  30  31
ENDBRANCH   1  30
TORSDOF 15
ENDMDL
