MODEL 1
REMARK VINA RESULT:     -11.2      0.000      0.000
REMARK SMILES Cn1cc(/C=C/C(=O)N(CC(=O)OCCOCCOC(=O)c2ccc(-c3c4nc(c(-c5c(F)c(F)c(F)c(F)c5F)c5ccc([nH]5)c(-c5c(F)c(F)c(F)c(F)c5F)c5nc(c(-c6c(F)c(F)c(F)c(F)c6F)c6ccc3[nH]6)C=C5)C=C4)cc2)C(C)(C)C)cn1
REMARK SMILES IDX 15 1 14 2 13 3 11 4 12 5 10 6 9 7 7 8 8 9 6 10 5 11 4 12
REMARK SMILES IDX 1 13 2 14 3 15 90 16 89 17 85 18 86 19 87 20 88 21 16 22
REMARK SMILES IDX 17 23 18 24 19 25 20 26 21 27 22 28 23 29 84 30 24 31 83 32
REMARK SMILES IDX 25 33 26 34 27 35 77 36 28 37 82 38 76 39 78 40 29 41 81 42
REMARK SMILES IDX 75 43 74 44 30 46 62 47 42 48 61 49 43 50 46 51 60 52 79 53
REMARK SMILES IDX 44 54 45 55 59 57 80 58 47 59 31 60 32 61 40 62 33 63 34 64
REMARK SMILES IDX 38 65 41 66 35 67 36 68 39 69 37 70 63 71 64 72 72 73 65 74
REMARK SMILES IDX 66 75 70 76 73 77 67 78 68 79 71 80 69 81 48 82 49 83 57 84
REMARK SMILES IDX 50 85 51 86 55 87 58 88 52 89 53 90 56 91 54 92
REMARK H PARENT 78 45 46 56
REMARK Flexibility Score: inf
ROOT
ATOM      1  C   UNL A   1      31.097  27.527  25.671  1.00  0.00     0.202 C 
ENDROOT
BRANCH   1   2
ATOM      2  C   UNL A   1      30.856  26.012  25.727  1.00  0.00     0.261 C 
BRANCH   2   3
ATOM      3  O   UNL A   1      31.976  25.265  26.262  1.00  0.00    -0.462 OA
BRANCH   3   4
ATOM      4  C   UNL A   1      31.700  23.990  26.663  1.00  0.00     0.325 C 
ATOM      5  O   UNL A   1      30.675  23.659  27.251  1.00  0.00    -0.250 OA
BRANCH   4   6
ATOM      6  C   UNL A   1      32.798  22.964  26.338  1.00  0.00     0.243 C 
BRANCH   6   7
ATOM      7  N   UNL A   1      33.262  22.810  24.942  1.00  0.00    -0.323 N 
BRANCH   7   8
ATOM      8  C   UNL A   1      32.544  22.057  24.005  1.00  0.00     0.247 C 
ATOM      9  O   UNL A   1      31.751  22.539  23.197  1.00  0.00    -0.270 OA
BRANCH   8  10
ATOM     10  C   UNL A   1      32.570  20.574  24.066  1.00  0.00     0.072 C 
ATOM     11  C   UNL A   1      33.555  19.818  24.573  1.00  0.00     0.017 C 
BRANCH  11  12
ATOM     12  C   UNL A   1      33.537  18.397  24.589  1.00  0.00     0.013 A 
ATOM     13  C   UNL A   1      32.519  15.136  25.717  1.00  0.00     0.173 C 
ATOM     14  N   UNL A   1      33.060  16.326  25.105  1.00  0.00    -0.275 N 
ATOM     15  C   UNL A   1      32.770  17.622  25.426  1.00  0.00     0.116 A 
ATOM     16  N   UNL A   1      33.965  16.207  24.116  1.00  0.00    -0.181 NA
ATOM     17  C   UNL A   1      34.254  17.473  23.800  1.00  0.00     0.143 A 
ENDBRANCH  11  12
ENDBRANCH   8  10
ENDBRANCH   7   8
BRANCH   7  18
ATOM     18  C   UNL A   1      34.465  23.589  24.457  1.00  0.00     0.035 C 
ATOM     19  C   UNL A   1      34.030  24.835  23.654  1.00  0.00     0.034 C 
ATOM     20  C   UNL A   1      35.322  24.028  25.669  1.00  0.00     0.034 C 
ATOM     21  C   UNL A   1      35.432  22.782  23.557  1.00  0.00     0.034 C 
ENDBRANCH   7  18
ENDBRANCH   6   7
ENDBRANCH   4   6
ENDBRANCH   3   4
ENDBRANCH   2   3
ENDBRANCH   1   2
BRANCH   1  22
ATOM     22  O   UNL A   1      32.073  27.982  24.732  1.00  0.00    -0.374 OA
BRANCH  22  23
ATOM     23  C   UNL A   1      32.742  29.199  25.051  1.00  0.00     0.202 C 
BRANCH  23  24
ATOM     24  C   UNL A   1      31.978  30.164  25.967  1.00  0.00     0.261 C 
BRANCH  24  25
ATOM     25  O   UNL A   1      32.610  30.299  27.251  1.00  0.00    -0.460 OA
BRANCH  25  26
ATOM     26  C   UNL A   1      33.352  31.418  27.399  1.00  0.00     0.338 C 
ATOM     27  O   UNL A   1      32.957  32.576  27.392  1.00  0.00    -0.246 OA
BRANCH  26  28
ATOM     28  C   UNL A   1      34.741  31.074  27.749  1.00  0.00     0.060 A 
ATOM     29  C   UNL A   1      35.036  29.715  27.919  1.00  0.00     0.016 A 
ATOM     30  C   UNL A   1      35.710  32.049  28.006  1.00  0.00     0.016 A 
ATOM     31  C   UNL A   1      36.276  29.328  28.416  1.00  0.00     0.010 A 
ATOM     32  C   UNL A   1      36.955  31.656  28.514  1.00  0.00     0.010 A 
ATOM     33  C   UNL A   1      37.225  30.298  28.764  1.00  0.00    -0.014 A 
BRANCH  33  34
ATOM     34  C   UNL A   1      38.419  29.886  29.544  1.00  0.00     0.031 A 
ATOM     35  C   UNL A   1      38.594  30.419  30.940  1.00  0.00     0.074 A 
ATOM     36  C   UNL A   1      39.297  29.000  29.044  1.00  0.00     0.049 A 
ATOM     37  N   UNL A   1      39.537  30.171  31.813  1.00  0.00    -0.248 NA
ATOM     38  C   UNL A   1      37.564  31.354  31.418  1.00  0.00     0.031 C 
ATOM     39  C   UNL A   1      39.211  28.383  27.723  1.00  0.00     0.029 A 
ATOM     40  N   UNL A   1      40.434  28.463  29.595  1.00  0.00    -0.354 N 
ATOM     41  C   UNL A   1      39.213  30.915  32.940  1.00  0.00     0.074 A 
ATOM     42  C   UNL A   1      38.005  31.649  32.632  1.00  0.00     0.031 C 
ATOM     43  C   UNL A   1      40.257  27.553  27.561  1.00  0.00     0.029 A 
ATOM     44  C   UNL A   1      41.096  27.599  28.758  1.00  0.00     0.049 A 
ATOM     45  H   UNL A   1      40.745  28.677  30.504  1.00  0.00     0.167 HD
ATOM     46  C   UNL A   1      39.859  30.974  34.130  1.00  0.00     0.037 A 
ATOM     47  C   UNL A   1      42.254  26.933  28.936  1.00  0.00     0.037 A 
ATOM     48  C   UNL A   1      41.062  30.247  34.434  1.00  0.00     0.049 A 
ATOM     49  C   UNL A   1      42.990  27.066  30.244  1.00  0.00     0.074 A 
ATOM     50  C   UNL A   1      41.788  30.231  35.613  1.00  0.00     0.029 A 
ATOM     51  N   UNL A   1      41.720  29.407  33.547  1.00  0.00    -0.354 N 
ATOM     52  N   UNL A   1      42.659  27.749  31.313  1.00  0.00    -0.248 NA
ATOM     53  C   UNL A   1      44.256  26.331  30.371  1.00  0.00     0.031 C 
ATOM     54  C   UNL A   1      42.910  29.418  35.424  1.00  0.00     0.029 A 
ATOM     55  C   UNL A   1      42.857  28.887  34.145  1.00  0.00     0.049 A 
ATOM     56  H   UNL A   1      41.423  29.211  32.629  1.00  0.00     0.167 HD
ATOM     57  C   UNL A   1      43.657  27.503  32.248  1.00  0.00     0.074 A 
ATOM     58  C   UNL A   1      44.602  26.602  31.623  1.00  0.00     0.031 C 
ATOM     59  C   UNL A   1      43.777  27.978  33.512  1.00  0.00     0.037 A 
BRANCH  46  60
ATOM     60  C   UNL A   1      39.288  31.875  35.184  1.00  0.00     0.064 A 
ATOM     61  C   UNL A   1      38.478  31.378  36.216  1.00  0.00     0.173 A 
ATOM     62  C   UNL A   1      39.582  33.247  35.183  1.00  0.00     0.173 A 
ATOM     63  F   UNL A   1      38.158  30.076  36.254  1.00  0.00    -0.203 F 
ATOM     64  C   UNL A   1      37.964  32.226  37.194  1.00  0.00     0.198 A 
ATOM     65  C   UNL A   1      39.088  34.086  36.177  1.00  0.00     0.198 A 
ATOM     66  F   UNL A   1      40.356  33.771  34.220  1.00  0.00    -0.203 F 
ATOM     67  F   UNL A   1      37.160  31.737  38.148  1.00  0.00    -0.200 F 
ATOM     68  C   UNL A   1      38.275  33.577  37.177  1.00  0.00     0.200 A 
ATOM     69  F   UNL A   1      39.398  35.390  36.166  1.00  0.00    -0.200 F 
ATOM     70  F   UNL A   1      37.786  34.390  38.124  1.00  0.00    -0.200 F 
ENDBRANCH  46  60
BRANCH  47  71
ATOM     71  C   UNL A   1      42.791  26.079  27.845  1.00  0.00     0.064 A 
ATOM     72  C   UNL A   1      42.405  24.738  27.716  1.00  0.00     0.173 A 
ATOM     73  C   UNL A   1      43.709  26.586  26.914  1.00  0.00     0.173 A 
ATOM     74  F   UNL A   1      41.548  24.200  28.597  1.00  0.00    -0.203 F 
ATOM     75  C   UNL A   1      42.926  23.933  26.704  1.00  0.00     0.198 A 
ATOM     76  C   UNL A   1      44.210  25.788  25.887  1.00  0.00     0.198 A 
ATOM     77  F   UNL A   1      44.113  27.862  26.996  1.00  0.00    -0.203 F 
ATOM     78  F   UNL A   1      42.571  22.644  26.627  1.00  0.00    -0.200 F 
ATOM     79  C   UNL A   1      43.823  24.460  25.787  1.00  0.00     0.200 A 
ATOM     80  F   UNL A   1      45.068  26.304  24.998  1.00  0.00    -0.200 F 
ATOM     81  F   UNL A   1      44.320  23.687  24.812  1.00  0.00    -0.200 F 
ENDBRANCH  47  71
BRANCH  59  82
ATOM     82  C   UNL A   1      44.946  27.503  34.323  1.00  0.00     0.064 A 
ATOM     83  C   UNL A   1      46.151  28.219  34.367  1.00  0.00     0.173 A 
ATOM     84  C   UNL A   1      44.836  26.350  35.116  1.00  0.00     0.173 A 
ATOM     85  F   UNL A   1      46.309  29.320  33.617  1.00  0.00    -0.203 F 
ATOM     86  C   UNL A   1      47.209  27.788  35.163  1.00  0.00     0.198 A 
ATOM     87  C   UNL A   1      45.886  25.937  35.930  1.00  0.00     0.198 A 
ATOM     88  F   UNL A   1      43.700  25.635  35.114  1.00  0.00    -0.203 F 
ATOM     89  F   UNL A   1      48.364  28.468  35.163  1.00  0.00    -0.200 F 
ATOM     90  C   UNL A   1      47.072  26.654  35.949  1.00  0.00     0.200 A 
ATOM     91  F   UNL A   1      45.748  24.848  36.699  1.00  0.00    -0.200 F 
ATOM     92  F   UNL A   1      48.089  26.248  36.724  1.00  0.00    -0.200 F 
ENDBRANCH  59  82
ENDBRANCH  33  34
ENDBRANCH  26  28
ENDBRANCH  25  26
ENDBRANCH  24  25
ENDBRANCH  23  24
ENDBRANCH  22  23
ENDBRANCH   1  22
TORSDOF 19
ENDMDL
MODEL 2
REMARK VINA RESULT:     -11.2      0.486      7.367
REMARK SMILES Cn1cc(/C=C/C(=O)N(CC(=O)OCCOCCOC(=O)c2ccc(-c3c4nc(c(-c5c(F)c(F)c(F)c(F)c5F)c5ccc([nH]5)c(-c5c(F)c(F)c(F)c(F)c5F)c5nc(c(-c6c(F)c(F)c(F)c(F)c6F)c6ccc3[nH]6)C=C5)C=C4)cc2)C(C)(C)C)cn1
REMARK SMILES IDX 15 1 14 2 13 3 11 4 12 5 10 6 9 7 7 8 8 9 6 10 5 11 4 12
REMARK SMILES IDX 1 13 2 14 3 15 90 16 89 17 85 18 86 19 87 20 88 21 16 22
REMARK SMILES IDX 17 23 18 24 19 25 20 26 21 27 22 28 23 29 84 30 24 31 83 32
REMARK SMILES IDX 25 33 26 34 27 35 77 36 28 37 82 38 76 39 78 40 29 41 81 42
REMARK SMILES IDX 75 43 74 44 30 46 62 47 42 48 61 49 43 50 46 51 60 52 79 53
REMARK SMILES IDX 44 54 45 55 59 57 80 58 47 59 31 60 32 61 40 62 33 63 34 64
REMARK SMILES IDX 38 65 41 66 35 67 36 68 39 69 37 70 63 71 64 72 72 73 65 74
REMARK SMILES IDX 66 75 70 76 73 77 67 78 68 79 71 80 69 81 48 82 49 83 57 84
REMARK SMILES IDX 50 85 51 86 55 87 58 88 52 89 53 90 56 91 54 92
REMARK H PARENT 78 45 46 56
REMARK Flexibility Score: inf
ROOT
ATOM      1  C   UNL A   1      30.672  27.280  25.048  1.00  0.00     0.202 C 
ENDROOT
BRANCH   1   2
ATOM      2  C   UNL A   1      30.701  25.769  25.317  1.00  0.00     0.261 C 
BRANCH   2   3
ATOM      3  O   UNL A   1      31.416  25.408  26.525  1.00  0.00    -0.462 OA
BRANCH   3   4
ATOM      4  C   UNL A   1      31.368  24.089  26.869  1.00  0.00     0.325 C 
ATOM      5  O   UNL A   1      30.358  23.518  27.272  1.00  0.00    -0.250 OA
BRANCH   4   6
ATOM      6  C   UNL A   1      32.705  23.343  26.737  1.00  0.00     0.243 C 
BRANCH   6   7
ATOM      7  N   UNL A   1      33.205  22.974  25.394  1.00  0.00    -0.323 N 
BRANCH   7   8
ATOM      8  C   UNL A   1      32.466  22.159  24.529  1.00  0.00     0.247 C 
ATOM      9  O   UNL A   1      31.661  22.585  23.702  1.00  0.00    -0.270 OA
BRANCH   8  10
ATOM     10  C   UNL A   1      32.485  20.684  24.701  1.00  0.00     0.072 C 
ATOM     11  C   UNL A   1      33.225  19.813  24.000  1.00  0.00     0.017 C 
BRANCH  11  12
ATOM     12  C   UNL A   1      33.189  18.405  24.193  1.00  0.00     0.013 A 
ATOM     13  C   UNL A   1      32.398  15.344  25.908  1.00  0.00     0.173 C 
ATOM     14  N   UNL A   1      32.807  16.430  25.052  1.00  0.00    -0.275 N 
ATOM     15  C   UNL A   1      32.616  17.766  25.267  1.00  0.00     0.116 A 
ATOM     16  N   UNL A   1      33.467  16.159  23.911  1.00  0.00    -0.181 NA
ATOM     17  C   UNL A   1      33.698  17.367  23.386  1.00  0.00     0.143 A 
ENDBRANCH  11  12
ENDBRANCH   8  10
ENDBRANCH   7   8
BRANCH   7  18
ATOM     18  C   UNL A   1      34.482  23.596  24.869  1.00  0.00     0.035 C 
ATOM     19  C   UNL A   1      34.292  25.106  24.603  1.00  0.00     0.034 C 
ATOM     20  C   UNL A   1      35.620  23.391  25.898  1.00  0.00     0.034 C 
ATOM     21  C   UNL A   1      35.010  22.965  23.558  1.00  0.00     0.034 C 
ENDBRANCH   7  18
ENDBRANCH   6   7
ENDBRANCH   4   6
ENDBRANCH   3   4
ENDBRANCH   2   3
ENDBRANCH   1   2
BRANCH   1  22
ATOM     22  O   UNL A   1      31.816  27.833  24.397  1.00  0.00    -0.374 OA
BRANCH  22  23
ATOM     23  C   UNL A   1      32.670  28.647  25.195  1.00  0.00     0.202 C 
BRANCH  23  24
ATOM     24  C   UNL A   1      32.051  29.944  25.731  1.00  0.00     0.261 C 
BRANCH  24  25
ATOM     25  O   UNL A   1      32.454  30.212  27.085  1.00  0.00    -0.460 OA
BRANCH  25  26
ATOM     26  C   UNL A   1      33.167  31.348  27.246  1.00  0.00     0.338 C 
ATOM     27  O   UNL A   1      32.755  32.499  27.174  1.00  0.00    -0.246 OA
BRANCH  26  28
ATOM     28  C   UNL A   1      34.534  31.041  27.701  1.00  0.00     0.060 A 
ATOM     29  C   UNL A   1      34.826  29.698  27.973  1.00  0.00     0.016 A 
ATOM     30  C   UNL A   1      35.479  32.039  27.956  1.00  0.00     0.016 A 
ATOM     31  C   UNL A   1      36.035  29.355  28.569  1.00  0.00     0.010 A 
ATOM     32  C   UNL A   1      36.693  31.691  28.563  1.00  0.00     0.010 A 
ATOM     33  C   UNL A   1      36.955  30.354  28.913  1.00  0.00    -0.014 A 
BRANCH  33  34
ATOM     34  C   UNL A   1      38.101  30.003  29.789  1.00  0.00     0.031 A 
ATOM     35  C   UNL A   1      39.158  29.069  29.263  1.00  0.00     0.074 A 
ATOM     36  C   UNL A   1      38.234  30.557  31.006  1.00  0.00     0.049 A 
ATOM     37  N   UNL A   1      40.258  28.651  29.835  1.00  0.00    -0.248 NA
ATOM     38  C   UNL A   1      38.948  28.541  27.906  1.00  0.00     0.031 C 
ATOM     39  C   UNL A   1      37.299  31.505  31.606  1.00  0.00     0.029 A 
ATOM     40  N   UNL A   1      39.215  30.402  31.954  1.00  0.00    -0.354 N 
ATOM     41  C   UNL A   1      40.870  27.815  28.910  1.00  0.00     0.074 A 
ATOM     42  C   UNL A   1      40.006  27.758  27.751  1.00  0.00     0.031 C 
ATOM     43  C   UNL A   1      37.749  31.845  32.827  1.00  0.00     0.029 A 
ATOM     44  C   UNL A   1      38.990  31.121  33.101  1.00  0.00     0.049 A 
ATOM     45  H   UNL A   1      40.005  29.829  31.823  1.00  0.00     0.167 HD
ATOM     46  C   UNL A   1      42.051  27.160  29.013  1.00  0.00     0.037 A 
ATOM     47  C   UNL A   1      39.699  31.177  34.245  1.00  0.00     0.037 A 
ATOM     48  C   UNL A   1      42.909  27.214  30.167  1.00  0.00     0.049 A 
ATOM     49  C   UNL A   1      40.977  30.387  34.362  1.00  0.00     0.074 A 
ATOM     50  C   UNL A   1      44.130  26.595  30.366  1.00  0.00     0.029 A 
ATOM     51  N   UNL A   1      42.628  27.928  31.323  1.00  0.00    -0.354 N 
ATOM     52  N   UNL A   1      41.562  29.624  33.471  1.00  0.00    -0.248 NA
ATOM     53  C   UNL A   1      41.697  30.473  35.641  1.00  0.00     0.031 C 
ATOM     54  C   UNL A   1      44.567  26.898  31.660  1.00  0.00     0.029 A 
ATOM     55  C   UNL A   1      43.643  27.745  32.248  1.00  0.00     0.049 A 
ATOM     56  H   UNL A   1      41.826  28.482  31.465  1.00  0.00     0.167 HD
ATOM     57  C   UNL A   1      42.729  29.163  34.067  1.00  0.00     0.074 A 
ATOM     58  C   UNL A   1      42.774  29.739  35.395  1.00  0.00     0.031 C 
ATOM     59  C   UNL A   1      43.679  28.341  33.559  1.00  0.00     0.037 A 
BRANCH  46  60
ATOM     60  C   UNL A   1      42.475  26.310  27.853  1.00  0.00     0.064 A 
ATOM     61  C   UNL A   1      41.992  25.003  27.683  1.00  0.00     0.173 A 
ATOM     62  C   UNL A   1      43.348  26.819  26.880  1.00  0.00     0.173 A 
ATOM     63  F   UNL A   1      41.164  24.466  28.592  1.00  0.00    -0.203 F 
ATOM     64  C   UNL A   1      42.387  24.230  26.594  1.00  0.00     0.198 A 
ATOM     65  C   UNL A   1      43.720  26.052  25.780  1.00  0.00     0.198 A 
ATOM     66  F   UNL A   1      43.835  28.063  26.994  1.00  0.00    -0.203 F 
ATOM     67  F   UNL A   1      41.945  22.971  26.472  1.00  0.00    -0.200 F 
ATOM     68  C   UNL A   1      43.245  24.758  25.641  1.00  0.00     0.200 A 
ATOM     69  F   UNL A   1      44.541  26.567  24.853  1.00  0.00    -0.200 F 
ATOM     70  F   UNL A   1      43.618  24.015  24.589  1.00  0.00    -0.200 F 
ENDBRANCH  46  60
BRANCH  47  71
ATOM     71  C   UNL A   1      39.215  32.011  35.376  1.00  0.00     0.064 A 
ATOM     72  C   UNL A   1      39.530  33.374  35.458  1.00  0.00     0.173 A 
ATOM     73  C   UNL A   1      38.435  31.459  36.402  1.00  0.00     0.173 A 
ATOM     74  F   UNL A   1      40.294  33.944  34.515  1.00  0.00    -0.203 F 
ATOM     75  C   UNL A   1      39.093  34.150  36.531  1.00  0.00     0.198 A 
ATOM     76  C   UNL A   1      37.977  32.240  37.460  1.00  0.00     0.198 A 
ATOM     77  F   UNL A   1      38.110  30.157  36.371  1.00  0.00    -0.203 F 
ATOM     78  F   UNL A   1      39.440  35.441  36.606  1.00  0.00    -0.200 F 
ATOM     79  C   UNL A   1      38.311  33.584  37.528  1.00  0.00     0.200 A 
ATOM     80  F   UNL A   1      37.214  31.692  38.415  1.00  0.00    -0.200 F 
ATOM     81  F   UNL A   1      37.887  34.332  38.555  1.00  0.00    -0.200 F 
ENDBRANCH  47  71
BRANCH  59  82
ATOM     82  C   UNL A   1      44.871  28.044  34.420  1.00  0.00     0.064 A 
ATOM     83  C   UNL A   1      44.913  26.923  35.259  1.00  0.00     0.173 A 
ATOM     84  C   UNL A   1      46.011  28.860  34.354  1.00  0.00     0.173 A 
ATOM     85  F   UNL A   1      43.844  26.119  35.365  1.00  0.00    -0.203 F 
ATOM     86  C   UNL A   1      46.047  26.637  36.015  1.00  0.00     0.198 A 
ATOM     87  C   UNL A   1      47.153  28.558  35.091  1.00  0.00     0.198 A 
ATOM     88  F   UNL A   1      46.023  29.942  33.560  1.00  0.00    -0.203 F 
ATOM     89  F   UNL A   1      46.053  25.579  36.837  1.00  0.00    -0.200 F 
ATOM     90  C   UNL A   1      47.168  27.450  35.923  1.00  0.00     0.200 A 
ATOM     91  F   UNL A   1      48.239  29.337  34.992  1.00  0.00    -0.200 F 
ATOM     92  F   UNL A   1      48.263  27.166  36.643  1.00  0.00    -0.200 F 
ENDBRANCH  59  82
ENDBRANCH  33  34
ENDBRANCH  26  28
ENDBRANCH  25  26
ENDBRANCH  24  25
ENDBRANCH  23  24
ENDBRANCH  22  23
ENDBRANCH   1  22
TORSDOF 19
ENDMDL
MODEL 3
REMARK VINA RESULT:     -11.0      1.932      7.924
REMARK SMILES Cn1cc(/C=C/C(=O)N(CC(=O)OCCOCCOC(=O)c2ccc(-c3c4nc(c(-c5c(F)c(F)c(F)c(F)c5F)c5ccc([nH]5)c(-c5c(F)c(F)c(F)c(F)c5F)c5nc(c(-c6c(F)c(F)c(F)c(F)c6F)c6ccc3[nH]6)C=C5)C=C4)cc2)C(C)(C)C)cn1
REMARK SMILES IDX 15 1 14 2 13 3 11 4 12 5 10 6 9 7 7 8 8 9 6 10 5 11 4 12
REMARK SMILES IDX 1 13 2 14 3 15 90 16 89 17 85 18 86 19 87 20 88 21 16 22
REMARK SMILES IDX 17 23 18 24 19 25 20 26 21 27 22 28 23 29 84 30 24 31 83 32
REMARK SMILES IDX 25 33 26 34 27 35 77 36 28 37 82 38 76 39 78 40 29 41 81 42
REMARK SMILES IDX 75 43 74 44 30 46 62 47 42 48 61 49 43 50 46 51 60 52 79 53
REMARK SMILES IDX 44 54 45 55 59 57 80 58 47 59 31 60 32 61 40 62 33 63 34 64
REMARK SMILES IDX 38 65 41 66 35 67 36 68 39 69 37 70 63 71 64 72 72 73 65 74
REMARK SMILES IDX 66 75 70 76 73 77 67 78 68 79 71 80 69 81 48 82 49 83 57 84
REMARK SMILES IDX 50 85 51 86 55 87 58 88 52 89 53 90 56 91 54 92
REMARK H PARENT 78 45 46 56
REMARK Flexibility Score: inf
ROOT
ATOM      1  C   UNL A   1      31.143  28.630  23.196  1.00  0.00     0.202 C 
ENDROOT
BRANCH   1   2
ATOM      2  C   UNL A   1      31.450  27.334  22.434  1.00  0.00     0.261 C 
BRANCH   2   3
ATOM      3  O   UNL A   1      32.607  26.624  22.939  1.00  0.00    -0.462 OA
BRANCH   3   4
ATOM      4  C   UNL A   1      33.199  25.759  22.065  1.00  0.00     0.325 C 
ATOM      5  O   UNL A   1      33.280  25.950  20.854  1.00  0.00    -0.250 OA
BRANCH   4   6
ATOM      6  C   UNL A   1      33.759  24.480  22.708  1.00  0.00     0.243 C 
BRANCH   6   7
ATOM      7  N   UNL A   1      33.186  23.994  23.983  1.00  0.00    -0.323 N 
BRANCH   7   8
ATOM      8  C   UNL A   1      33.625  24.476  25.221  1.00  0.00     0.247 C 
ATOM      9  O   UNL A   1      33.055  25.363  25.855  1.00  0.00    -0.270 OA
BRANCH   8  10
ATOM     10  C   UNL A   1      34.942  24.052  25.758  1.00  0.00     0.072 C 
ATOM     11  C   UNL A   1      36.035  23.760  25.038  1.00  0.00     0.017 C 
BRANCH  11  12
ATOM     12  C   UNL A   1      37.270  23.340  25.605  1.00  0.00     0.013 A 
ATOM     13  C   UNL A   1      39.982  21.066  26.252  1.00  0.00     0.173 C 
ATOM     14  N   UNL A   1      39.017  22.132  26.127  1.00  0.00    -0.275 N 
ATOM     15  C   UNL A   1      37.857  22.113  25.405  1.00  0.00     0.116 A 
ATOM     16  N   UNL A   1      39.221  23.289  26.784  1.00  0.00    -0.181 NA
ATOM     17  C   UNL A   1      38.154  24.026  26.462  1.00  0.00     0.143 A 
ENDBRANCH  11  12
ENDBRANCH   8  10
ENDBRANCH   7   8
BRANCH   7  18
ATOM     18  C   UNL A   1      31.999  23.055  23.965  1.00  0.00     0.035 C 
ATOM     19  C   UNL A   1      30.694  23.819  23.649  1.00  0.00     0.034 C 
ATOM     20  C   UNL A   1      32.224  21.954  22.900  1.00  0.00     0.034 C 
ATOM     21  C   UNL A   1      31.768  22.287  25.289  1.00  0.00     0.034 C 
ENDBRANCH   7  18
ENDBRANCH   6   7
ENDBRANCH   4   6
ENDBRANCH   3   4
ENDBRANCH   2   3
ENDBRANCH   1   2
BRANCH   1  22
ATOM     22  O   UNL A   1      30.947  28.509  24.606  1.00  0.00    -0.374 OA
BRANCH  22  23
ATOM     23  C   UNL A   1      32.018  28.948  25.436  1.00  0.00     0.202 C 
BRANCH  23  24
ATOM     24  C   UNL A   1      31.975  30.421  25.864  1.00  0.00     0.261 C 
BRANCH  24  25
ATOM     25  O   UNL A   1      32.468  30.606  27.202  1.00  0.00    -0.460 OA
BRANCH  25  26
ATOM     26  C   UNL A   1      33.231  31.707  27.374  1.00  0.00     0.338 C 
ATOM     27  O   UNL A   1      32.873  32.875  27.312  1.00  0.00    -0.246 OA
BRANCH  26  28
ATOM     28  C   UNL A   1      34.583  31.333  27.827  1.00  0.00     0.060 A 
ATOM     29  C   UNL A   1      34.783  29.994  28.187  1.00  0.00     0.016 A 
ATOM     30  C   UNL A   1      35.601  32.275  27.995  1.00  0.00     0.016 A 
ATOM     31  C   UNL A   1      35.978  29.605  28.786  1.00  0.00     0.010 A 
ATOM     32  C   UNL A   1      36.800  31.881  28.605  1.00  0.00     0.010 A 
ATOM     33  C   UNL A   1      36.974  30.557  29.043  1.00  0.00    -0.014 A 
BRANCH  33  34
ATOM     34  C   UNL A   1      38.111  30.184  29.923  1.00  0.00     0.031 A 
ATOM     35  C   UNL A   1      39.189  29.289  29.375  1.00  0.00     0.074 A 
ATOM     36  C   UNL A   1      38.216  30.686  31.165  1.00  0.00     0.049 A 
ATOM     37  N   UNL A   1      40.286  28.862  29.947  1.00  0.00    -0.248 NA
ATOM     38  C   UNL A   1      39.010  28.818  27.993  1.00  0.00     0.031 C 
ATOM     39  C   UNL A   1      37.257  31.595  31.790  1.00  0.00     0.029 A 
ATOM     40  N   UNL A   1      39.183  30.505  32.122  1.00  0.00    -0.354 N 
ATOM     41  C   UNL A   1      40.925  28.075  28.997  1.00  0.00     0.074 A 
ATOM     42  C   UNL A   1      40.081  28.057  27.823  1.00  0.00     0.031 C 
ATOM     43  C   UNL A   1      37.681  31.888  33.031  1.00  0.00     0.029 A 
ATOM     44  C   UNL A   1      38.928  31.171  33.295  1.00  0.00     0.049 A 
ATOM     45  H   UNL A   1      39.983  29.950  31.980  1.00  0.00     0.167 HD
ATOM     46  C   UNL A   1      42.115  27.434  29.093  1.00  0.00     0.037 A 
ATOM     47  C   UNL A   1      39.618  31.186  34.452  1.00  0.00     0.037 A 
ATOM     48  C   UNL A   1      42.952  27.450  30.263  1.00  0.00     0.049 A 
ATOM     49  C   UNL A   1      40.905  30.411  34.556  1.00  0.00     0.074 A 
ATOM     50  C   UNL A   1      44.179  26.840  30.456  1.00  0.00     0.029 A 
ATOM     51  N   UNL A   1      42.642  28.109  31.443  1.00  0.00    -0.354 N 
ATOM     52  N   UNL A   1      41.515  29.695  33.644  1.00  0.00    -0.248 NA
ATOM     53  C   UNL A   1      41.602  30.451  35.850  1.00  0.00     0.031 C 
ATOM     54  C   UNL A   1      44.591  27.093  31.768  1.00  0.00     0.029 A 
ATOM     55  C   UNL A   1      43.644  27.901  32.377  1.00  0.00     0.049 A 
ATOM     56  H   UNL A   1      41.830  28.646  31.595  1.00  0.00     0.167 HD
ATOM     57  C   UNL A   1      42.679  29.226  34.239  1.00  0.00     0.074 A 
ATOM     58  C   UNL A   1      42.694  29.744  35.591  1.00  0.00     0.031 C 
ATOM     59  C   UNL A   1      43.650  28.440  33.713  1.00  0.00     0.037 A 
BRANCH  46  60
ATOM     60  C   UNL A   1      42.570  26.641  27.905  1.00  0.00     0.064 A 
ATOM     61  C   UNL A   1      43.361  27.214  26.896  1.00  0.00     0.173 A 
ATOM     62  C   UNL A   1      42.243  25.281  27.789  1.00  0.00     0.173 A 
ATOM     63  F   UNL A   1      43.690  28.513  26.955  1.00  0.00    -0.203 F 
ATOM     64  C   UNL A   1      43.785  26.461  25.805  1.00  0.00     0.198 A 
ATOM     65  C   UNL A   1      42.692  24.526  26.710  1.00  0.00     0.198 A 
ATOM     66  F   UNL A   1      41.494  24.685  28.729  1.00  0.00    -0.203 F 
ATOM     67  F   UNL A   1      44.505  27.038  24.833  1.00  0.00    -0.200 F 
ATOM     68  C   UNL A   1      43.456  25.116  25.716  1.00  0.00     0.200 A 
ATOM     69  F   UNL A   1      42.382  23.224  26.631  1.00  0.00    -0.200 F 
ATOM     70  F   UNL A   1      43.872  24.392  24.668  1.00  0.00    -0.200 F 
ENDBRANCH  46  60
BRANCH  47  71
ATOM     71  C   UNL A   1      39.103  31.964  35.609  1.00  0.00     0.064 A 
ATOM     72  C   UNL A   1      39.436  33.314  35.783  1.00  0.00     0.173 A 
ATOM     73  C   UNL A   1      38.273  31.369  36.571  1.00  0.00     0.173 A 
ATOM     74  F   UNL A   1      40.247  33.922  34.904  1.00  0.00    -0.203 F 
ATOM     75  C   UNL A   1      38.970  34.036  36.880  1.00  0.00     0.198 A 
ATOM     76  C   UNL A   1      37.786  32.097  37.654  1.00  0.00     0.198 A 
ATOM     77  F   UNL A   1      37.928  30.078  36.452  1.00  0.00    -0.203 F 
ATOM     78  F   UNL A   1      39.336  35.314  37.044  1.00  0.00    -0.200 F 
ATOM     79  C   UNL A   1      38.139  33.429  37.811  1.00  0.00     0.200 A 
ATOM     80  F   UNL A   1      36.976  31.510  38.544  1.00  0.00    -0.200 F 
ATOM     81  F   UNL A   1      37.687  34.125  38.863  1.00  0.00    -0.200 F 
ENDBRANCH  47  71
BRANCH  59  82
ATOM     82  C   UNL A   1      44.832  28.123  34.580  1.00  0.00     0.064 A 
ATOM     83  C   UNL A   1      44.890  26.951  35.346  1.00  0.00     0.173 A 
ATOM     84  C   UNL A   1      45.948  28.975  34.593  1.00  0.00     0.173 A 
ATOM     85  F   UNL A   1      43.844  26.112  35.376  1.00  0.00    -0.203 F 
ATOM     86  C   UNL A   1      46.017  26.651  36.109  1.00  0.00     0.198 A 
ATOM     87  C   UNL A   1      47.082  28.659  35.335  1.00  0.00     0.198 A 
ATOM     88  F   UNL A   1      45.944  30.105  33.869  1.00  0.00    -0.203 F 
ATOM     89  F   UNL A   1      46.037  25.542  36.861  1.00  0.00    -0.200 F 
ATOM     90  C   UNL A   1      47.113  27.500  36.095  1.00  0.00     0.200 A 
ATOM     91  F   UNL A   1      48.146  29.473  35.311  1.00  0.00    -0.200 F 
ATOM     92  F   UNL A   1      48.202  27.202  36.820  1.00  0.00    -0.200 F 
ENDBRANCH  59  82
ENDBRANCH  33  34
ENDBRANCH  26  28
ENDBRANCH  25  26
ENDBRANCH  24  25
ENDBRANCH  23  24
ENDBRANCH  22  23
ENDBRANCH   1  22
TORSDOF 19
ENDMDL
