MODEL 1
REMARK VINA RESULT:     -11.9      0.000      0.000
REMARK SMILES C/C(=N\[NH+]=C1/NC(=O)[C@@H](CC(=O)OCCOCCOC(=O)c2ccc(-c3c4nc(c(-c5c(F)c(F)c(F)c(F)c5F)c5ccc([nH]5)c(-c5c(F)c(F)c(F)c(F)c5F)c5nc(c(-c6c(F)c(F)c(F)c(F)c6F)c6ccc3[nH]6)C=C5)C=C4)cc2)S1)c1ccc(Br)cc1
REMARK SMILES IDX 15 1 14 2 13 3 11 4 12 5 10 6 9 7 4 8 5 9 6 11 85 12 7 13
REMARK SMILES IDX 8 15 3 16 1 17 2 18 86 19 87 20 92 21 88 22 91 23 89 24
REMARK SMILES IDX 90 25 16 26 17 27 18 28 19 29 20 30 21 31 22 32 23 33 84 34
REMARK SMILES IDX 24 35 83 36 25 37 26 38 27 39 77 40 28 41 82 42 76 43 78 44
REMARK SMILES IDX 29 45 81 46 75 47 74 48 30 50 62 51 42 52 61 53 43 54 46 55
REMARK SMILES IDX 60 56 79 57 44 58 45 59 59 61 80 62 47 63 31 64 32 65 40 66
REMARK SMILES IDX 33 67 34 68 38 69 41 70 35 71 36 72 39 73 37 74 63 75 64 76
REMARK SMILES IDX 72 77 65 78 66 79 70 80 73 81 67 82 68 83 71 84 69 85 48 86
REMARK SMILES IDX 49 87 57 88 50 89 51 90 55 91 58 92 52 93 53 94 56 95 54 96
REMARK H PARENT 4 10 6 14 78 49 46 60
REMARK Flexibility Score: inf
ROOT
ATOM      1  C   UNL A   1      31.658  29.763  26.039  1.00  0.00     0.202 C 
ENDROOT
BRANCH   1   2
ATOM      2  C   UNL A   1      31.157  30.069  24.626  1.00  0.00     0.261 C 
BRANCH   2   3
ATOM      3  O   UNL A   1      30.447  28.949  24.066  1.00  0.00    -0.463 OA
BRANCH   3   4
ATOM      4  C   UNL A   1      30.721  28.654  22.768  1.00  0.00     0.307 C 
ATOM      5  O   UNL A   1      30.499  29.387  21.814  1.00  0.00    -0.252 OA
BRANCH   4   6
ATOM      6  C   UNL A   1      31.247  27.251  22.610  1.00  0.00     0.150 C 
BRANCH   6   7
ATOM      7  C   UNL A   1      32.771  27.175  22.594  1.00  0.00     0.184 C 
ATOM      8  N   UNL A   1      34.346  24.668  25.047  1.00  0.00    -0.142 N 
ATOM      9  C   UNL A   1      33.831  25.374  24.103  1.00  0.00     0.337 C 
ATOM     10  H   UNL A   1      34.592  25.050  25.921  1.00  0.00     0.343 HD
ATOM     11  N   UNL A   1      33.591  24.949  22.843  1.00  0.00    -0.202 N 
ATOM     12  S   UNL A   1      33.436  27.049  24.295  1.00  0.00    -0.020 SA
ATOM     13  C   UNL A   1      33.195  25.877  21.932  1.00  0.00     0.322 C 
ATOM     14  H   UNL A   1      33.699  24.003  22.594  1.00  0.00     0.316 HD
ATOM     15  O   UNL A   1      33.177  25.681  20.723  1.00  0.00    -0.246 OA
BRANCH   8  16
ATOM     16  N   UNL A   1      34.530  23.320  24.741  1.00  0.00    -0.090 NA
ATOM     17  C   UNL A   1      32.995  22.816  26.634  1.00  0.00     0.071 C 
ATOM     18  C   UNL A   1      33.813  22.460  25.407  1.00  0.00     0.088 C 
BRANCH  18  19
ATOM     19  C   UNL A   1      33.878  21.021  24.980  1.00  0.00    -0.000 A 
ATOM     20  C   UNL A   1      32.689  20.371  24.606  1.00  0.00     0.011 A 
ATOM     21  C   UNL A   1      35.075  20.296  24.979  1.00  0.00     0.011 A 
ATOM     22  C   UNL A   1      32.697  19.024  24.236  1.00  0.00     0.016 A 
ATOM     23  C   UNL A   1      35.082  18.944  24.617  1.00  0.00     0.016 A 
ATOM     24  C   UNL A   1      33.894  18.315  24.247  1.00  0.00     0.018 A 
ATOM     25  Br  UNL A   1      33.909  16.488  23.768  1.00  0.00    -0.051 Br
ENDBRANCH  18  19
ENDBRANCH   8  16
ENDBRANCH   6   7
ENDBRANCH   4   6
ENDBRANCH   3   4
ENDBRANCH   2   3
ENDBRANCH   1   2
BRANCH   1  26
ATOM     26  O   UNL A   1      32.231  30.860  26.748  1.00  0.00    -0.374 OA
BRANCH  26  27
ATOM     27  C   UNL A   1      31.435  32.036  26.887  1.00  0.00     0.202 C 
BRANCH  27  28
ATOM     28  C   UNL A   1      32.204  33.364  26.902  1.00  0.00     0.261 C 
BRANCH  28  29
ATOM     29  O   UNL A   1      32.497  33.806  28.244  1.00  0.00    -0.460 OA
BRANCH  29  30
ATOM     30  C   UNL A   1      33.660  34.487  28.377  1.00  0.00     0.338 C 
ATOM     31  O   UNL A   1      33.813  35.700  28.399  1.00  0.00    -0.246 OA
BRANCH  30  32
ATOM     32  C   UNL A   1      34.770  33.559  28.666  1.00  0.00     0.060 A 
ATOM     33  C   UNL A   1      34.471  32.391  29.380  1.00  0.00     0.016 A 
ATOM     34  C   UNL A   1      36.092  33.866  28.334  1.00  0.00     0.016 A 
ATOM     35  C   UNL A   1      35.496  31.552  29.814  1.00  0.00     0.010 A 
ATOM     36  C   UNL A   1      37.121  33.029  28.781  1.00  0.00     0.010 A 
ATOM     37  C   UNL A   1      36.830  31.890  29.556  1.00  0.00    -0.014 A 
BRANCH  37  38
ATOM     38  C   UNL A   1      37.922  31.159  30.244  1.00  0.00     0.031 A 
ATOM     39  C   UNL A   1      38.207  31.475  31.686  1.00  0.00     0.074 A 
ATOM     40  C   UNL A   1      38.638  30.216  29.608  1.00  0.00     0.049 A 
ATOM     41  N   UNL A   1      39.155  31.024  32.468  1.00  0.00    -0.248 NA
ATOM     42  C   UNL A   1      37.296  32.431  32.336  1.00  0.00     0.031 C 
ATOM     43  C   UNL A   1      38.425  29.779  28.230  1.00  0.00     0.029 A 
ATOM     44  N   UNL A   1      39.703  29.463  30.041  1.00  0.00    -0.354 N 
ATOM     45  C   UNL A   1      38.963  31.648  33.693  1.00  0.00     0.074 A 
ATOM     46  C   UNL A   1      37.822  32.526  33.549  1.00  0.00     0.031 C 
ATOM     47  C   UNL A   1      39.341  28.845  27.924  1.00  0.00     0.029 A 
ATOM     48  C   UNL A   1      40.226  28.644  29.072  1.00  0.00     0.049 A 
ATOM     49  H   UNL A   1      40.055  29.507  30.959  1.00  0.00     0.167 HD
ATOM     50  C   UNL A   1      39.671  31.500  34.837  1.00  0.00     0.037 A 
ATOM     51  C   UNL A   1      41.310  27.846  29.103  1.00  0.00     0.037 A 
ATOM     52  C   UNL A   1      40.804  30.625  34.983  1.00  0.00     0.049 A 
ATOM     53  C   UNL A   1      42.130  27.755  30.365  1.00  0.00     0.074 A 
ATOM     54  C   UNL A   1      41.586  30.403  36.102  1.00  0.00     0.029 A 
ATOM     55  N   UNL A   1      41.318  29.830  33.970  1.00  0.00    -0.354 N 
ATOM     56  N   UNL A   1      41.940  28.344  31.520  1.00  0.00    -0.248 NA
ATOM     57  C   UNL A   1      43.316  26.886  30.327  1.00  0.00     0.031 C 
ATOM     58  C   UNL A   1      42.599  29.504  35.756  1.00  0.00     0.029 A 
ATOM     59  C   UNL A   1      42.420  29.129  34.434  1.00  0.00     0.049 A 
ATOM     60  H   UNL A   1      40.955  29.771  33.057  1.00  0.00     0.167 HD
ATOM     61  C   UNL A   1      42.956  27.893  32.353  1.00  0.00     0.074 A 
ATOM     62  C   UNL A   1      43.762  26.979  31.571  1.00  0.00     0.031 C 
ATOM     63  C   UNL A   1      43.198  28.205  33.650  1.00  0.00     0.037 A 
BRANCH  50  64
ATOM     64  C   UNL A   1      39.257  32.327  36.018  1.00  0.00     0.064 A 
ATOM     65  C   UNL A   1      38.336  31.853  36.963  1.00  0.00     0.173 A 
ATOM     66  C   UNL A   1      39.809  33.601  36.220  1.00  0.00     0.173 A 
ATOM     67  F   UNL A   1      37.767  30.647  36.805  1.00  0.00    -0.203 F 
ATOM     68  C   UNL A   1      37.964  32.634  38.054  1.00  0.00     0.198 A 
ATOM     69  C   UNL A   1      39.456  34.368  37.325  1.00  0.00     0.198 A 
ATOM     70  F   UNL A   1      40.697  34.098  35.346  1.00  0.00    -0.203 F 
ATOM     71  F   UNL A   1      37.048  32.179  38.921  1.00  0.00    -0.200 F 
ATOM     72  C   UNL A   1      38.529  33.887  38.238  1.00  0.00     0.200 A 
ATOM     73  F   UNL A   1      40.010  35.575  37.507  1.00  0.00    -0.200 F 
ATOM     74  F   UNL A   1      38.172  34.636  39.291  1.00  0.00    -0.200 F 
ENDBRANCH  50  64
BRANCH  51  75
ATOM     75  C   UNL A   1      41.700  27.078  27.893  1.00  0.00     0.064 A 
ATOM     76  C   UNL A   1      42.560  27.628  26.933  1.00  0.00     0.173 A 
ATOM     77  C   UNL A   1      41.210  25.784  27.665  1.00  0.00     0.173 A 
ATOM     78  F   UNL A   1      43.033  28.873  27.093  1.00  0.00    -0.203 F 
ATOM     79  C   UNL A   1      42.903  26.919  25.783  1.00  0.00     0.198 A 
ATOM     80  C   UNL A   1      41.574  25.066  26.528  1.00  0.00     0.198 A 
ATOM     81  F   UNL A   1      40.381  25.214  28.552  1.00  0.00    -0.203 F 
ATOM     82  F   UNL A   1      43.691  27.485  24.860  1.00  0.00    -0.200 F 
ATOM     83  C   UNL A   1      42.414  25.636  25.585  1.00  0.00     0.200 A 
ATOM     84  F   UNL A   1      41.106  23.823  26.345  1.00  0.00    -0.200 F 
ATOM     85  F   UNL A   1      42.746  24.954  24.480  1.00  0.00    -0.200 F 
ENDBRANCH  51  75
BRANCH  63  86
ATOM     86  C   UNL A   1      44.345  27.517  34.329  1.00  0.00     0.064 A 
ATOM     87  C   UNL A   1      44.212  26.240  34.892  1.00  0.00     0.173 A 
ATOM     88  C   UNL A   1      45.612  28.122  34.360  1.00  0.00     0.173 A 
ATOM     89  F   UNL A   1      43.020  25.626  34.898  1.00  0.00    -0.203 F 
ATOM     90  C   UNL A   1      45.301  25.600  35.477  1.00  0.00     0.198 A 
ATOM     91  C   UNL A   1      46.704  27.469  34.923  1.00  0.00     0.198 A 
ATOM     92  F   UNL A   1      45.792  29.341  33.829  1.00  0.00    -0.203 F 
ATOM     93  F   UNL A   1      45.145  24.395  36.041  1.00  0.00    -0.200 F 
ATOM     94  C   UNL A   1      46.548  26.211  35.485  1.00  0.00     0.200 A 
ATOM     95  F   UNL A   1      47.909  28.055  34.918  1.00  0.00    -0.200 F 
ATOM     96  F   UNL A   1      47.598  25.588  36.039  1.00  0.00    -0.200 F 
ENDBRANCH  63  86
ENDBRANCH  37  38
ENDBRANCH  30  32
ENDBRANCH  29  30
ENDBRANCH  28  29
ENDBRANCH  27  28
ENDBRANCH  26  27
ENDBRANCH   1  26
TORSDOF 17
ENDMDL
MODEL 2
REMARK VINA RESULT:     -11.7      5.081      8.104
REMARK SMILES C/C(=N\[NH+]=C1/NC(=O)[C@@H](CC(=O)OCCOCCOC(=O)c2ccc(-c3c4nc(c(-c5c(F)c(F)c(F)c(F)c5F)c5ccc([nH]5)c(-c5c(F)c(F)c(F)c(F)c5F)c5nc(c(-c6c(F)c(F)c(F)c(F)c6F)c6ccc3[nH]6)C=C5)C=C4)cc2)S1)c1ccc(Br)cc1
REMARK SMILES IDX 15 1 14 2 13 3 11 4 12 5 10 6 9 7 4 8 5 9 6 11 85 12 7 13
REMARK SMILES IDX 8 15 3 16 1 17 2 18 86 19 87 20 92 21 88 22 91 23 89 24
REMARK SMILES IDX 90 25 16 26 17 27 18 28 19 29 20 30 21 31 22 32 23 33 84 34
REMARK SMILES IDX 24 35 83 36 25 37 26 38 27 39 77 40 28 41 82 42 76 43 78 44
REMARK SMILES IDX 29 45 81 46 75 47 74 48 30 50 62 51 42 52 61 53 43 54 46 55
REMARK SMILES IDX 60 56 79 57 44 58 45 59 59 61 80 62 47 63 31 64 32 65 40 66
REMARK SMILES IDX 33 67 34 68 38 69 41 70 35 71 36 72 39 73 37 74 63 75 64 76
REMARK SMILES IDX 72 77 65 78 66 79 70 80 73 81 67 82 68 83 71 84 69 85 48 86
REMARK SMILES IDX 49 87 57 88 50 89 51 90 55 91 58 92 52 93 53 94 56 95 54 96
REMARK H PARENT 4 10 6 14 78 49 46 60
REMARK Flexibility Score: inf
ROOT
ATOM      1  C   UNL A   1      33.006  35.829  30.234  1.00  0.00     0.202 C 
ENDROOT
BRANCH   1   2
ATOM      2  C   UNL A   1      32.616  35.762  31.711  1.00  0.00     0.261 C 
BRANCH   2   3
ATOM      3  O   UNL A   1      33.584  35.024  32.479  1.00  0.00    -0.463 OA
BRANCH   3   4
ATOM      4  C   UNL A   1      34.633  35.737  32.966  1.00  0.00     0.307 C 
ATOM      5  O   UNL A   1      34.661  36.952  33.098  1.00  0.00    -0.252 OA
BRANCH   4   6
ATOM      6  C   UNL A   1      35.828  34.861  33.239  1.00  0.00     0.150 C 
BRANCH   6   7
ATOM      7  C   UNL A   1      35.459  33.496  33.814  1.00  0.00     0.184 C 
ATOM      8  N   UNL A   1      37.891  30.629  33.009  1.00  0.00    -0.142 N 
ATOM      9  C   UNL A   1      37.170  31.606  33.434  1.00  0.00     0.337 C 
ATOM     10  H   UNL A   1      37.659  30.110  32.205  1.00  0.00     0.343 HD
ATOM     11  N   UNL A   1      37.353  32.275  34.594  1.00  0.00    -0.202 N 
ATOM     12  S   UNL A   1      35.765  32.169  32.591  1.00  0.00    -0.020 SA
ATOM     13  C   UNL A   1      36.399  33.171  34.960  1.00  0.00     0.322 C 
ATOM     14  H   UNL A   1      38.149  32.118  35.152  1.00  0.00     0.316 HD
ATOM     15  O   UNL A   1      36.317  33.659  36.080  1.00  0.00    -0.246 OA
BRANCH   8  16
ATOM     16  N   UNL A   1      39.026  30.359  33.773  1.00  0.00    -0.090 NA
ATOM     17  C   UNL A   1      39.146  28.176  32.583  1.00  0.00     0.071 C 
ATOM     18  C   UNL A   1      39.678  29.266  33.496  1.00  0.00     0.088 C 
BRANCH  18  19
ATOM     19  C   UNL A   1      40.988  29.041  34.195  1.00  0.00    -0.000 A 
ATOM     20  C   UNL A   1      42.055  28.481  33.472  1.00  0.00     0.011 A 
ATOM     21  C   UNL A   1      41.171  29.335  35.552  1.00  0.00     0.011 A 
ATOM     22  C   UNL A   1      43.280  28.221  34.091  1.00  0.00     0.016 A 
ATOM     23  C   UNL A   1      42.396  29.066  36.174  1.00  0.00     0.016 A 
ATOM     24  C   UNL A   1      43.443  28.512  35.441  1.00  0.00     0.018 A 
ATOM     25  Br  UNL A   1      45.091  28.145  36.290  1.00  0.00    -0.051 Br
ENDBRANCH  18  19
ENDBRANCH   8  16
ENDBRANCH   6   7
ENDBRANCH   4   6
ENDBRANCH   3   4
ENDBRANCH   2   3
ENDBRANCH   1   2
BRANCH   1  26
ATOM     26  O   UNL A   1      32.486  34.793  29.404  1.00  0.00    -0.374 OA
BRANCH  26  27
ATOM     27  C   UNL A   1      33.363  34.234  28.426  1.00  0.00     0.202 C 
BRANCH  27  28
ATOM     28  C   UNL A   1      34.339  33.165  28.939  1.00  0.00     0.261 C 
BRANCH  28  29
ATOM     29  O   UNL A   1      34.906  32.389  27.863  1.00  0.00    -0.460 OA
BRANCH  29  30
ATOM     30  C   UNL A   1      34.682  31.056  27.945  1.00  0.00     0.338 C 
ATOM     31  O   UNL A   1      33.620  30.469  27.787  1.00  0.00    -0.246 OA
BRANCH  30  32
ATOM     32  C   UNL A   1      35.956  30.328  28.101  1.00  0.00     0.060 A 
ATOM     33  C   UNL A   1      36.204  29.711  29.334  1.00  0.00     0.016 A 
ATOM     34  C   UNL A   1      36.931  30.329  27.100  1.00  0.00     0.016 A 
ATOM     35  C   UNL A   1      37.449  29.141  29.595  1.00  0.00     0.010 A 
ATOM     36  C   UNL A   1      38.184  29.766  27.368  1.00  0.00     0.010 A 
ATOM     37  C   UNL A   1      38.461  29.205  28.630  1.00  0.00    -0.014 A 
BRANCH  37  38
ATOM     38  C   UNL A   1      39.854  28.851  28.998  1.00  0.00     0.031 A 
ATOM     39  C   UNL A   1      40.663  29.836  29.795  1.00  0.00     0.074 A 
ATOM     40  C   UNL A   1      40.388  27.668  28.647  1.00  0.00     0.049 A 
ATOM     41  N   UNL A   1      41.918  29.780  30.164  1.00  0.00    -0.248 NA
ATOM     42  C   UNL A   1      39.960  31.050  30.238  1.00  0.00     0.031 C 
ATOM     43  C   UNL A   1      39.692  26.608  27.923  1.00  0.00     0.029 A 
ATOM     44  N   UNL A   1      41.652  27.168  28.847  1.00  0.00    -0.354 N 
ATOM     45  C   UNL A   1      42.157  30.952  30.869  1.00  0.00     0.074 A 
ATOM     46  C   UNL A   1      40.925  31.711  30.860  1.00  0.00     0.031 C 
ATOM     47  C   UNL A   1      40.542  25.586  27.725  1.00  0.00     0.029 A 
ATOM     48  C   UNL A   1      41.851  25.936  28.277  1.00  0.00     0.049 A 
ATOM     49  H   UNL A   1      42.347  27.648  29.353  1.00  0.00     0.167 HD
ATOM     50  C   UNL A   1      43.298  31.357  31.473  1.00  0.00     0.037 A 
ATOM     51  C   UNL A   1      42.970  25.191  28.188  1.00  0.00     0.037 A 
ATOM     52  C   UNL A   1      44.522  30.601  31.486  1.00  0.00     0.049 A 
ATOM     53  C   UNL A   1      44.250  25.698  28.804  1.00  0.00     0.074 A 
ATOM     54  C   UNL A   1      45.732  30.926  32.074  1.00  0.00     0.029 A 
ATOM     55  N   UNL A   1      44.691  29.368  30.875  1.00  0.00    -0.354 N 
ATOM     56  N   UNL A   1      44.467  26.804  29.472  1.00  0.00    -0.248 NA
ATOM     57  C   UNL A   1      45.442  24.849  28.651  1.00  0.00     0.031 C 
ATOM     58  C   UNL A   1      46.646  29.907  31.784  1.00  0.00     0.029 A 
ATOM     59  C   UNL A   1      45.991  28.926  31.057  1.00  0.00     0.049 A 
ATOM     60  H   UNL A   1      43.991  28.879  30.386  1.00  0.00     0.167 HD
ATOM     61  C   UNL A   1      45.804  26.769  29.848  1.00  0.00     0.074 A 
ATOM     62  C   UNL A   1      46.350  25.531  29.334  1.00  0.00     0.031 C 
ATOM     63  C   UNL A   1      46.514  27.679  30.558  1.00  0.00     0.037 A 
BRANCH  50  64
ATOM     64  C   UNL A   1      43.284  32.696  32.149  1.00  0.00     0.064 A 
ATOM     65  C   UNL A   1      43.147  32.819  33.539  1.00  0.00     0.173 A 
ATOM     66  C   UNL A   1      43.437  33.871  31.397  1.00  0.00     0.173 A 
ATOM     67  F   UNL A   1      42.981  31.726  34.300  1.00  0.00    -0.203 F 
ATOM     68  C   UNL A   1      43.137  34.070  34.150  1.00  0.00     0.198 A 
ATOM     69  C   UNL A   1      43.454  35.119  32.013  1.00  0.00     0.198 A 
ATOM     70  F   UNL A   1      43.574  33.807  30.065  1.00  0.00    -0.203 F 
ATOM     71  F   UNL A   1      42.960  34.167  35.475  1.00  0.00    -0.200 F 
ATOM     72  C   UNL A   1      43.298  35.218  33.387  1.00  0.00     0.200 A 
ATOM     73  F   UNL A   1      43.618  36.226  31.276  1.00  0.00    -0.200 F 
ATOM     74  F   UNL A   1      43.292  36.422  33.977  1.00  0.00    -0.200 F 
ENDBRANCH  50  64
BRANCH  51  75
ATOM     75  C   UNL A   1      42.940  23.889  27.474  1.00  0.00     0.064 A 
ATOM     76  C   UNL A   1      43.357  23.786  26.141  1.00  0.00     0.173 A 
ATOM     77  C   UNL A   1      42.479  22.725  28.105  1.00  0.00     0.173 A 
ATOM     78  F   UNL A   1      43.779  24.878  25.485  1.00  0.00    -0.203 F 
ATOM     79  C   UNL A   1      43.301  22.571  25.461  1.00  0.00     0.198 A 
ATOM     80  C   UNL A   1      42.448  21.505  27.433  1.00  0.00     0.198 A 
ATOM     81  F   UNL A   1      42.065  22.771  29.380  1.00  0.00    -0.203 F 
ATOM     82  F   UNL A   1      43.664  22.509  24.172  1.00  0.00    -0.200 F 
ATOM     83  C   UNL A   1      42.852  21.431  26.109  1.00  0.00     0.200 A 
ATOM     84  F   UNL A   1      42.022  20.403  28.067  1.00  0.00    -0.200 F 
ATOM     85  F   UNL A   1      42.801  20.262  25.455  1.00  0.00    -0.200 F 
ENDBRANCH  51  75
BRANCH  63  86
ATOM     86  C   UNL A   1      47.944  27.354  30.873  1.00  0.00     0.064 A 
ATOM     87  C   UNL A   1      48.300  26.608  32.005  1.00  0.00     0.173 A 
ATOM     88  C   UNL A   1      48.967  27.745  29.995  1.00  0.00     0.173 A 
ATOM     89  F   UNL A   1      47.361  26.222  32.882  1.00  0.00    -0.203 F 
ATOM     90  C   UNL A   1      49.629  26.278  32.255  1.00  0.00     0.198 A 
ATOM     91  C   UNL A   1      50.291  27.392  30.233  1.00  0.00     0.198 A 
ATOM     92  F   UNL A   1      48.676  28.456  28.894  1.00  0.00    -0.203 F 
ATOM     93  F   UNL A   1      49.952  25.593  33.361  1.00  0.00    -0.200 F 
ATOM     94  C   UNL A   1      50.623  26.662  31.365  1.00  0.00     0.200 A 
ATOM     95  F   UNL A   1      51.247  27.753  29.366  1.00  0.00    -0.200 F 
ATOM     96  F   UNL A   1      51.900  26.334  31.602  1.00  0.00    -0.200 F 
ENDBRANCH  63  86
ENDBRANCH  37  38
ENDBRANCH  30  32
ENDBRANCH  29  30
ENDBRANCH  28  29
ENDBRANCH  27  28
ENDBRANCH  26  27
ENDBRANCH   1  26
TORSDOF 17
ENDMDL
MODEL 3
REMARK VINA RESULT:     -11.7      2.613      8.474
REMARK SMILES C/C(=N\[NH+]=C1/NC(=O)[C@@H](CC(=O)OCCOCCOC(=O)c2ccc(-c3c4nc(c(-c5c(F)c(F)c(F)c(F)c5F)c5ccc([nH]5)c(-c5c(F)c(F)c(F)c(F)c5F)c5nc(c(-c6c(F)c(F)c(F)c(F)c6F)c6ccc3[nH]6)C=C5)C=C4)cc2)S1)c1ccc(Br)cc1
REMARK SMILES IDX 15 1 14 2 13 3 11 4 12 5 10 6 9 7 4 8 5 9 6 11 85 12 7 13
REMARK SMILES IDX 8 15 3 16 1 17 2 18 86 19 87 20 92 21 88 22 91 23 89 24
REMARK SMILES IDX 90 25 16 26 17 27 18 28 19 29 20 30 21 31 22 32 23 33 84 34
REMARK SMILES IDX 24 35 83 36 25 37 26 38 27 39 77 40 28 41 82 42 76 43 78 44
REMARK SMILES IDX 29 45 81 46 75 47 74 48 30 50 62 51 42 52 61 53 43 54 46 55
REMARK SMILES IDX 60 56 79 57 44 58 45 59 59 61 80 62 47 63 31 64 32 65 40 66
REMARK SMILES IDX 33 67 34 68 38 69 41 70 35 71 36 72 39 73 37 74 63 75 64 76
REMARK SMILES IDX 72 77 65 78 66 79 70 80 73 81 67 82 68 83 71 84 69 85 48 86
REMARK SMILES IDX 49 87 57 88 50 89 51 90 55 91 58 92 52 93 53 94 56 95 54 96
REMARK H PARENT 4 10 6 14 78 49 46 60
REMARK Flexibility Score: inf
ROOT
ATOM      1  C   UNL A   1      33.277  26.128  25.831  1.00  0.00     0.202 C 
ENDROOT
BRANCH   1   2
ATOM      2  C   UNL A   1      34.402  25.200  25.366  1.00  0.00     0.261 C 
BRANCH   2   3
ATOM      3  O   UNL A   1      34.456  24.001  26.161  1.00  0.00    -0.463 OA
BRANCH   3   4
ATOM      4  C   UNL A   1      34.269  22.831  25.495  1.00  0.00     0.307 C 
ATOM      5  O   UNL A   1      34.106  21.738  26.019  1.00  0.00    -0.252 OA
BRANCH   4   6
ATOM      6  C   UNL A   1      34.387  23.009  24.003  1.00  0.00     0.150 C 
BRANCH   6   7
ATOM      7  C   UNL A   1      33.084  22.737  23.257  1.00  0.00     0.184 C 
ATOM      8  N   UNL A   1      30.184  25.141  24.027  1.00  0.00    -0.142 N 
ATOM      9  C   UNL A   1      31.189  24.445  23.627  1.00  0.00     0.337 C 
ATOM     10  H   UNL A   1      29.581  24.838  24.745  1.00  0.00     0.343 HD
ATOM     11  N   UNL A   1      31.977  24.734  22.568  1.00  0.00    -0.202 N 
ATOM     12  S   UNL A   1      31.642  22.945  24.365  1.00  0.00    -0.020 SA
ATOM     13  C   UNL A   1      32.892  23.802  22.193  1.00  0.00     0.322 C 
ATOM     14  H   UNL A   1      31.890  25.588  22.086  1.00  0.00     0.316 HD
ATOM     15  O   UNL A   1      33.492  23.827  21.126  1.00  0.00    -0.246 OA
BRANCH   8  16
ATOM     16  N   UNL A   1      30.011  26.357  23.367  1.00  0.00    -0.090 NA
ATOM     17  C   UNL A   1      27.686  26.359  24.259  1.00  0.00     0.071 C 
ATOM     18  C   UNL A   1      28.885  26.983  23.567  1.00  0.00     0.088 C 
BRANCH  18  19
ATOM     19  C   UNL A   1      28.746  28.365  22.997  1.00  0.00    -0.000 A 
ATOM     20  C   UNL A   1      27.506  29.018  23.099  1.00  0.00     0.011 A 
ATOM     21  C   UNL A   1      29.798  29.010  22.336  1.00  0.00     0.011 A 
ATOM     22  C   UNL A   1      27.321  30.291  22.552  1.00  0.00     0.016 A 
ATOM     23  C   UNL A   1      29.611  30.281  21.780  1.00  0.00     0.016 A 
ATOM     24  C   UNL A   1      28.375  30.915  21.891  1.00  0.00     0.018 A 
ATOM     25  Br  UNL A   1      28.127  32.627  21.132  1.00  0.00    -0.051 Br
ENDBRANCH  18  19
ENDBRANCH   8  16
ENDBRANCH   6   7
ENDBRANCH   4   6
ENDBRANCH   3   4
ENDBRANCH   2   3
ENDBRANCH   1   2
BRANCH   1  26
ATOM     26  O   UNL A   1      33.173  27.372  25.142  1.00  0.00    -0.374 OA
BRANCH  26  27
ATOM     27  C   UNL A   1      32.088  28.228  25.499  1.00  0.00     0.202 C 
BRANCH  27  28
ATOM     28  C   UNL A   1      32.430  29.719  25.631  1.00  0.00     0.261 C 
BRANCH  28  29
ATOM     29  O   UNL A   1      32.529  30.132  27.009  1.00  0.00    -0.460 OA
BRANCH  29  30
ATOM     30  C   UNL A   1      33.207  31.288  27.209  1.00  0.00     0.338 C 
ATOM     31  O   UNL A   1      32.762  32.427  27.168  1.00  0.00    -0.246 OA
BRANCH  30  32
ATOM     32  C   UNL A   1      34.583  31.007  27.659  1.00  0.00     0.060 A 
ATOM     33  C   UNL A   1      34.920  29.673  27.925  1.00  0.00     0.016 A 
ATOM     34  C   UNL A   1      35.498  32.032  27.913  1.00  0.00     0.016 A 
ATOM     35  C   UNL A   1      36.152  29.361  28.497  1.00  0.00     0.010 A 
ATOM     36  C   UNL A   1      36.731  31.718  28.498  1.00  0.00     0.010 A 
ATOM     37  C   UNL A   1      37.046  30.385  28.828  1.00  0.00    -0.014 A 
BRANCH  37  38
ATOM     38  C   UNL A   1      38.225  30.089  29.679  1.00  0.00     0.031 A 
ATOM     39  C   UNL A   1      39.275  29.148  29.155  1.00  0.00     0.074 A 
ATOM     40  C   UNL A   1      38.374  30.657  30.887  1.00  0.00     0.049 A 
ATOM     41  N   UNL A   1      40.346  28.682  29.745  1.00  0.00    -0.248 NA
ATOM     42  C   UNL A   1      39.091  28.669  27.776  1.00  0.00     0.031 C 
ATOM     43  C   UNL A   1      37.458  31.626  31.484  1.00  0.00     0.029 A 
ATOM     44  N   UNL A   1      39.353  30.489  31.836  1.00  0.00    -0.354 N 
ATOM     45  C   UNL A   1      40.955  27.847  28.817  1.00  0.00     0.074 A 
ATOM     46  C   UNL A   1      40.125  27.853  27.631  1.00  0.00     0.031 C 
ATOM     47  C   UNL A   1      37.909  31.955  32.706  1.00  0.00     0.029 A 
ATOM     48  C   UNL A   1      39.126  31.195  32.990  1.00  0.00     0.049 A 
ATOM     49  H   UNL A   1      40.143  29.917  31.699  1.00  0.00     0.167 HD
ATOM     50  C   UNL A   1      42.105  27.144  28.940  1.00  0.00     0.037 A 
ATOM     51  C   UNL A   1      39.808  31.203  34.152  1.00  0.00     0.037 A 
ATOM     52  C   UNL A   1      42.933  27.140  30.117  1.00  0.00     0.049 A 
ATOM     53  C   UNL A   1      41.045  30.351  34.292  1.00  0.00     0.074 A 
ATOM     54  C   UNL A   1      44.118  26.461  30.337  1.00  0.00     0.029 A 
ATOM     55  N   UNL A   1      42.655  27.849  31.275  1.00  0.00    -0.354 N 
ATOM     56  N   UNL A   1      41.616  29.569  33.410  1.00  0.00    -0.248 NA
ATOM     57  C   UNL A   1      41.730  30.385  35.593  1.00  0.00     0.031 C 
ATOM     58  C   UNL A   1      44.537  26.727  31.645  1.00  0.00     0.029 A 
ATOM     59  C   UNL A   1      43.638  27.610  32.221  1.00  0.00     0.049 A 
ATOM     60  H   UNL A   1      41.876  28.436  31.406  1.00  0.00     0.167 HD
ATOM     61  C   UNL A   1      42.743  29.047  34.033  1.00  0.00     0.074 A 
ATOM     62  C   UNL A   1      42.776  29.602  35.370  1.00  0.00     0.031 C 
ATOM     63  C   UNL A   1      43.669  28.188  33.541  1.00  0.00     0.037 A 
BRANCH  50  64
ATOM     64  C   UNL A   1      42.521  26.293  27.777  1.00  0.00     0.064 A 
ATOM     65  C   UNL A   1      41.997  25.007  27.580  1.00  0.00     0.173 A 
ATOM     66  C   UNL A   1      43.435  26.782  26.832  1.00  0.00     0.173 A 
ATOM     67  F   UNL A   1      41.132  24.487  28.465  1.00  0.00    -0.203 F 
ATOM     68  C   UNL A   1      42.394  24.231  26.494  1.00  0.00     0.198 A 
ATOM     69  C   UNL A   1      43.809  26.015  25.732  1.00  0.00     0.198 A 
ATOM     70  F   UNL A   1      43.962  28.007  26.973  1.00  0.00    -0.203 F 
ATOM     71  F   UNL A   1      41.915  22.988  26.349  1.00  0.00    -0.200 F 
ATOM     72  C   UNL A   1      43.293  24.738  25.567  1.00  0.00     0.200 A 
ATOM     73  F   UNL A   1      44.671  26.510  24.833  1.00  0.00    -0.200 F 
ATOM     74  F   UNL A   1      43.671  23.992  24.520  1.00  0.00    -0.200 F 
ENDBRANCH  50  64
BRANCH  51  75
ATOM     75  C   UNL A   1      39.331  32.034  35.287  1.00  0.00     0.064 A 
ATOM     76  C   UNL A   1      38.519  31.490  36.290  1.00  0.00     0.173 A 
ATOM     77  C   UNL A   1      39.666  33.392  35.384  1.00  0.00     0.173 A 
ATOM     78  F   UNL A   1      38.149  30.201  36.227  1.00  0.00    -0.203 F 
ATOM     79  C   UNL A   1      38.047  32.276  37.340  1.00  0.00     0.198 A 
ATOM     80  C   UNL A   1      39.215  34.171  36.447  1.00  0.00     0.198 A 
ATOM     81  F   UNL A   1      40.438  33.962  34.446  1.00  0.00    -0.203 F 
ATOM     82  F   UNL A   1      37.235  31.741  38.262  1.00  0.00    -0.200 F 
ATOM     83  C   UNL A   1      38.400  33.614  37.420  1.00  0.00     0.200 A 
ATOM     84  F   UNL A   1      39.566  35.463  36.526  1.00  0.00    -0.200 F 
ATOM     85  F   UNL A   1      37.948  34.369  38.431  1.00  0.00    -0.200 F 
ENDBRANCH  51  75
BRANCH  63  86
ATOM     86  C   UNL A   1      44.828  27.832  34.425  1.00  0.00     0.064 A 
ATOM     87  C   UNL A   1      46.008  28.589  34.436  1.00  0.00     0.173 A 
ATOM     88  C   UNL A   1      44.730  26.753  35.317  1.00  0.00     0.173 A 
ATOM     89  F   UNL A   1      46.155  29.622  33.593  1.00  0.00    -0.203 F 
ATOM     90  C   UNL A   1      47.054  28.269  35.296  1.00  0.00     0.198 A 
ATOM     91  C   UNL A   1      45.767  26.451  36.194  1.00  0.00     0.198 A 
ATOM     92  F   UNL A   1      43.618  26.002  35.348  1.00  0.00    -0.203 F 
ATOM     93  F   UNL A   1      48.187  28.984  35.267  1.00  0.00    -0.200 F 
ATOM     94  C   UNL A   1      46.930  27.206  36.180  1.00  0.00     0.200 A 
ATOM     95  F   UNL A   1      45.640  25.432  37.055  1.00  0.00    -0.200 F 
ATOM     96  F   UNL A   1      47.934  26.907  37.016  1.00  0.00    -0.200 F 
ENDBRANCH  63  86
ENDBRANCH  37  38
ENDBRANCH  30  32
ENDBRANCH  29  30
ENDBRANCH  28  29
ENDBRANCH  27  28
ENDBRANCH  26  27
ENDBRANCH   1  26
TORSDOF 17
ENDMDL
