MODEL 1
REMARK VINA RESULT:     -12.2      0.000      0.000
REMARK SMILES O=C(C[C@H]1C[C@H]2CC[C@@H](C1)[N@H+]2C[C@@H]1CNC(=O)O1)OCCOCCOC(=O)c1ccc(-c2c3nc(c(-c4c(F)c(F)c(F)c(F)c4F)c4ccc([nH]4)c(-c4c(F)c(F)c(F)c(F)c4F)c4nc(c(-c5c(F)c(F)c(F)c(F)c5F)c5ccc2[nH]5)C=C4)C=C3)cc1
REMARK SMILES IDX 21 1 20 2 19 3 2 4 1 5 3 6 4 7 5 8 10 9 6 10 9 11 7 12 11 13
REMARK SMILES IDX 8 14 12 16 13 17 14 18 18 19 15 20 16 21 17 23 22 24 23 25
REMARK SMILES IDX 24 26 25 27 26 28 27 29 28 30 29 31 90 32 30 33 89 34 31 35
REMARK SMILES IDX 32 36 33 37 83 38 34 39 88 40 82 41 84 42 35 43 87 44 81 45
REMARK SMILES IDX 80 46 36 48 68 49 48 50 67 51 49 52 52 53 66 54 85 55 50 56
REMARK SMILES IDX 51 57 65 59 86 60 53 61 37 62 38 63 46 64 39 65 40 66 44 67
REMARK SMILES IDX 47 68 41 69 42 70 45 71 43 72 69 73 70 74 78 75 71 76 72 77
REMARK SMILES IDX 76 78 79 79 73 80 74 81 77 82 75 83 54 84 55 85 63 86 56 87
REMARK SMILES IDX 57 88 61 89 64 90 58 91 59 92 62 93 60 94
REMARK H PARENT 11 15 15 22 84 47 52 58
REMARK Flexibility Score: inf
ROOT
ATOM      1  C   UNL A   1      30.211  27.057  24.358  1.00  0.00     0.202 C 
ENDROOT
BRANCH   1   2
ATOM      2  C   UNL A   1      30.672  26.450  25.692  1.00  0.00     0.261 C 
BRANCH   2   3
ATOM      3  O   UNL A   1      29.997  25.277  26.161  1.00  0.00    -0.463 OA
BRANCH   3   4
ATOM      4  C   UNL A   1      30.627  24.151  26.574  1.00  0.00     0.306 C 
ATOM      5  O   UNL A   1      30.031  23.334  27.272  1.00  0.00    -0.252 OA
BRANCH   4   6
ATOM      6  C   UNL A   1      32.124  24.037  26.367  1.00  0.00     0.126 C 
BRANCH   6   7
ATOM      7  C   UNL A   1      32.667  22.619  26.237  1.00  0.00     0.012 C 
ATOM      8  C   UNL A   1      32.195  21.948  24.923  1.00  0.00     0.069 C 
ATOM      9  C   UNL A   1      34.184  22.587  26.519  1.00  0.00     0.069 C 
ATOM     10  C   UNL A   1      33.293  21.700  23.897  1.00  0.00     0.184 C 
ATOM     11  C   UNL A   1      35.042  22.298  25.294  1.00  0.00     0.184 C 
ATOM     12  C   UNL A   1      33.786  23.050  23.352  1.00  0.00     0.071 C 
ATOM     13  N   UNL A   1      34.500  21.198  24.516  1.00  0.00    -0.327 N 
ATOM     14  C   UNL A   1      34.932  23.450  24.282  1.00  0.00     0.071 C 
ATOM     15  H   UNL A   1      35.134  20.896  23.777  1.00  0.00     0.348 HD
BRANCH  13  16
ATOM     16  C   UNL A   1      34.706  19.810  24.901  1.00  0.00     0.310 C 
BRANCH  16  17
ATOM     17  C   UNL A   1      33.818  18.559  24.646  1.00  0.00     0.252 C 
ATOM     18  C   UNL A   1      32.779  18.164  25.674  1.00  0.00     0.170 C 
ATOM     19  O   UNL A   1      34.561  17.362  24.365  1.00  0.00    -0.438 OA
ATOM     20  N   UNL A   1      33.164  16.843  26.030  1.00  0.00    -0.318 N 
ATOM     21  C   UNL A   1      34.146  16.378  25.210  1.00  0.00     0.407 C 
ATOM     22  H   UNL A   1      32.772  16.330  26.774  1.00  0.00     0.167 HD
ATOM     23  O   UNL A   1      34.607  15.247  25.252  1.00  0.00    -0.225 OA
ENDBRANCH  16  17
ENDBRANCH  13  16
ENDBRANCH   6   7
ENDBRANCH   4   6
ENDBRANCH   3   4
ENDBRANCH   2   3
ENDBRANCH   1   2
BRANCH   1  24
ATOM     24  O   UNL A   1      30.501  28.406  24.031  1.00  0.00    -0.374 OA
BRANCH  24  25
ATOM     25  C   UNL A   1      31.767  28.963  24.382  1.00  0.00     0.202 C 
BRANCH  25  26
ATOM     26  C   UNL A   1      31.844  29.947  25.542  1.00  0.00     0.261 C 
BRANCH  26  27
ATOM     27  O   UNL A   1      33.197  30.198  25.929  1.00  0.00    -0.460 OA
BRANCH  27  28
ATOM     28  C   UNL A   1      33.346  31.090  26.934  1.00  0.00     0.338 C 
ATOM     29  O   UNL A   1      32.501  31.822  27.418  1.00  0.00    -0.246 OA
BRANCH  28  30
ATOM     30  C   UNL A   1      34.679  30.892  27.524  1.00  0.00     0.060 A 
ATOM     31  C   UNL A   1      35.086  29.583  27.811  1.00  0.00     0.016 A 
ATOM     32  C   UNL A   1      35.507  31.981  27.792  1.00  0.00     0.016 A 
ATOM     33  C   UNL A   1      36.327  29.358  28.395  1.00  0.00     0.010 A 
ATOM     34  C   UNL A   1      36.741  31.757  28.395  1.00  0.00     0.010 A 
ATOM     35  C   UNL A   1      37.141  30.449  28.719  1.00  0.00    -0.014 A 
BRANCH  35  36
ATOM     36  C   UNL A   1      38.360  30.258  29.528  1.00  0.00     0.031 A 
ATOM     37  C   UNL A   1      39.413  29.324  29.011  1.00  0.00     0.074 A 
ATOM     38  C   UNL A   1      38.483  30.862  30.720  1.00  0.00     0.049 A 
ATOM     39  N   UNL A   1      40.474  28.856  29.613  1.00  0.00    -0.248 NA
ATOM     40  C   UNL A   1      39.242  28.840  27.630  1.00  0.00     0.031 C 
ATOM     41  C   UNL A   1      37.526  31.812  31.287  1.00  0.00     0.029 A 
ATOM     42  N   UNL A   1      39.446  30.735  31.687  1.00  0.00    -0.354 N 
ATOM     43  C   UNL A   1      41.077  28.004  28.700  1.00  0.00     0.074 A 
ATOM     44  C   UNL A   1      40.267  28.010  27.504  1.00  0.00     0.031 C 
ATOM     45  C   UNL A   1      37.931  32.151  32.522  1.00  0.00     0.029 A 
ATOM     46  C   UNL A   1      39.144  31.404  32.846  1.00  0.00     0.049 A 
ATOM     47  H   UNL A   1      40.273  30.214  31.561  1.00  0.00     0.167 HD
ATOM     48  C   UNL A   1      42.207  27.278  28.861  1.00  0.00     0.037 A 
ATOM     49  C   UNL A   1      39.752  31.364  34.047  1.00  0.00     0.037 A 
ATOM     50  C   UNL A   1      43.003  27.297  30.059  1.00  0.00     0.049 A 
ATOM     51  C   UNL A   1      40.974  30.494  34.214  1.00  0.00     0.074 A 
ATOM     52  C   UNL A   1      44.200  26.651  30.305  1.00  0.00     0.029 A 
ATOM     53  N   UNL A   1      42.672  27.990  31.213  1.00  0.00    -0.354 N 
ATOM     54  N   UNL A   1      41.578  29.734  33.331  1.00  0.00    -0.248 NA
ATOM     55  C   UNL A   1      41.595  30.471  35.545  1.00  0.00     0.031 C 
ATOM     56  C   UNL A   1      44.556  26.891  31.635  1.00  0.00     0.029 A 
ATOM     57  C   UNL A   1      43.617  27.745  32.194  1.00  0.00     0.049 A 
ATOM     58  H   UNL A   1      41.882  28.568  31.320  1.00  0.00     0.167 HD
ATOM     59  C   UNL A   1      42.659  29.165  33.992  1.00  0.00     0.074 A 
ATOM     60  C   UNL A   1      42.643  29.685  35.342  1.00  0.00     0.031 C 
ATOM     61  C   UNL A   1      43.580  28.285  33.529  1.00  0.00     0.037 A 
BRANCH  48  62
ATOM     62  C   UNL A   1      42.638  26.377  27.745  1.00  0.00     0.064 A 
ATOM     63  C   UNL A   1      43.547  26.793  26.761  1.00  0.00     0.173 A 
ATOM     64  C   UNL A   1      42.199  25.043  27.712  1.00  0.00     0.173 A 
ATOM     65  F   UNL A   1      43.984  28.061  26.739  1.00  0.00    -0.203 F 
ATOM     66  C   UNL A   1      43.998  25.909  25.784  1.00  0.00     0.198 A 
ATOM     67  C   UNL A   1      42.674  24.155  26.752  1.00  0.00     0.198 A 
ATOM     68  F   UNL A   1      41.328  24.595  28.629  1.00  0.00    -0.203 F 
ATOM     69  F   UNL A   1      44.847  26.334  24.839  1.00  0.00    -0.200 F 
ATOM     70  C   UNL A   1      43.572  24.588  25.789  1.00  0.00     0.200 A 
ATOM     71  F   UNL A   1      42.271  22.877  26.767  1.00  0.00    -0.200 F 
ATOM     72  F   UNL A   1      44.028  23.732  24.864  1.00  0.00    -0.200 F 
ENDBRANCH  48  62
BRANCH  49  73
ATOM     73  C   UNL A   1      39.192  32.119  35.202  1.00  0.00     0.064 A 
ATOM     74  C   UNL A   1      39.450  33.486  35.369  1.00  0.00     0.173 A 
ATOM     75  C   UNL A   1      38.433  31.476  36.192  1.00  0.00     0.173 A 
ATOM     76  F   UNL A   1      40.192  34.142  34.463  1.00  0.00    -0.203 F 
ATOM     77  C   UNL A   1      39.008  34.171  36.498  1.00  0.00     0.198 A 
ATOM     78  C   UNL A   1      37.957  32.170  37.303  1.00  0.00     0.198 A 
ATOM     79  F   UNL A   1      38.157  30.168  36.085  1.00  0.00    -0.203 F 
ATOM     80  F   UNL A   1      39.334  35.459  36.668  1.00  0.00    -0.200 F 
ATOM     81  C   UNL A   1      38.258  33.514  37.462  1.00  0.00     0.200 A 
ATOM     82  F   UNL A   1      37.224  31.533  38.225  1.00  0.00    -0.200 F 
ATOM     83  F   UNL A   1      37.842  34.171  38.553  1.00  0.00    -0.200 F 
ENDBRANCH  49  73
BRANCH  61  84
ATOM     84  C   UNL A   1      44.659  27.851  34.479  1.00  0.00     0.064 A 
ATOM     85  C   UNL A   1      44.530  26.692  35.257  1.00  0.00     0.173 A 
ATOM     86  C   UNL A   1      45.862  28.569  34.562  1.00  0.00     0.173 A 
ATOM     87  F   UNL A   1      43.395  25.977  35.222  1.00  0.00    -0.203 F 
ATOM     88  C   UNL A   1      45.557  26.280  36.102  1.00  0.00     0.198 A 
ATOM     89  C   UNL A   1      46.900  28.136  35.381  1.00  0.00     0.198 A 
ATOM     90  F   UNL A   1      46.039  29.679  33.831  1.00  0.00    -0.203 F 
ATOM     91  F   UNL A   1      45.394  25.197  36.873  1.00  0.00    -0.200 F 
ATOM     92  C   UNL A   1      46.744  26.997  36.155  1.00  0.00     0.200 A 
ATOM     93  F   UNL A   1      48.054  28.817  35.415  1.00  0.00    -0.200 F 
ATOM     94  F   UNL A   1      47.738  26.589  36.957  1.00  0.00    -0.200 F 
ENDBRANCH  61  84
ENDBRANCH  35  36
ENDBRANCH  28  30
ENDBRANCH  27  28
ENDBRANCH  26  27
ENDBRANCH  25  26
ENDBRANCH  24  25
ENDBRANCH   1  24
TORSDOF 17
ENDMDL
MODEL 2
REMARK VINA RESULT:     -12.1      1.263      2.046
REMARK SMILES O=C(C[C@H]1C[C@H]2CC[C@@H](C1)[N@H+]2C[C@@H]1CNC(=O)O1)OCCOCCOC(=O)c1ccc(-c2c3nc(c(-c4c(F)c(F)c(F)c(F)c4F)c4ccc([nH]4)c(-c4c(F)c(F)c(F)c(F)c4F)c4nc(c(-c5c(F)c(F)c(F)c(F)c5F)c5ccc2[nH]5)C=C4)C=C3)cc1
REMARK SMILES IDX 21 1 20 2 19 3 2 4 1 5 3 6 4 7 5 8 10 9 6 10 9 11 7 12 11 13
REMARK SMILES IDX 8 14 12 16 13 17 14 18 18 19 15 20 16 21 17 23 22 24 23 25
REMARK SMILES IDX 24 26 25 27 26 28 27 29 28 30 29 31 90 32 30 33 89 34 31 35
REMARK SMILES IDX 32 36 33 37 83 38 34 39 88 40 82 41 84 42 35 43 87 44 81 45
REMARK SMILES IDX 80 46 36 48 68 49 48 50 67 51 49 52 52 53 66 54 85 55 50 56
REMARK SMILES IDX 51 57 65 59 86 60 53 61 37 62 38 63 46 64 39 65 40 66 44 67
REMARK SMILES IDX 47 68 41 69 42 70 45 71 43 72 69 73 70 74 78 75 71 76 72 77
REMARK SMILES IDX 76 78 79 79 73 80 74 81 77 82 75 83 54 84 55 85 63 86 56 87
REMARK SMILES IDX 57 88 61 89 64 90 58 91 59 92 62 93 60 94
REMARK H PARENT 11 15 15 22 84 47 52 58
REMARK Flexibility Score: inf
ROOT
ATOM      1  C   UNL A   1      30.267  28.480  22.735  1.00  0.00     0.202 C 
ENDROOT
BRANCH   1   2
ATOM      2  C   UNL A   1      30.921  27.092  22.637  1.00  0.00     0.261 C 
BRANCH   2   3
ATOM      3  O   UNL A   1      32.100  26.964  21.835  1.00  0.00    -0.463 OA
BRANCH   3   4
ATOM      4  C   UNL A   1      32.961  25.920  21.910  1.00  0.00     0.306 C 
ATOM      5  O   UNL A   1      33.294  25.324  20.888  1.00  0.00    -0.252 OA
BRANCH   4   6
ATOM      6  C   UNL A   1      33.307  25.359  23.273  1.00  0.00     0.126 C 
BRANCH   6   7
ATOM      7  C   UNL A   1      33.449  23.843  23.347  1.00  0.00     0.012 C 
ATOM      8  C   UNL A   1      34.872  23.427  23.796  1.00  0.00     0.069 C 
ATOM      9  C   UNL A   1      32.272  23.221  24.128  1.00  0.00     0.069 C 
ATOM     10  C   UNL A   1      34.950  22.788  25.177  1.00  0.00     0.184 C 
ATOM     11  C   UNL A   1      32.658  22.639  25.483  1.00  0.00     0.184 C 
ATOM     12  C   UNL A   1      34.627  23.849  26.240  1.00  0.00     0.071 C 
ATOM     13  N   UNL A   1      33.872  21.847  25.392  1.00  0.00    -0.327 N 
ATOM     14  C   UNL A   1      33.113  23.759  26.433  1.00  0.00     0.071 C 
ATOM     15  H   UNL A   1      34.065  21.335  26.251  1.00  0.00     0.348 HD
BRANCH  13  16
ATOM     16  C   UNL A   1      33.863  20.483  24.887  1.00  0.00     0.310 C 
BRANCH  16  17
ATOM     17  C   UNL A   1      32.667  19.548  24.553  1.00  0.00     0.252 C 
ATOM     18  C   UNL A   1      32.690  18.112  25.031  1.00  0.00     0.170 C 
ATOM     19  O   UNL A   1      32.347  19.486  23.154  1.00  0.00    -0.438 OA
ATOM     20  N   UNL A   1      32.589  17.368  23.824  1.00  0.00    -0.318 N 
ATOM     21  C   UNL A   1      32.318  18.180  22.766  1.00  0.00     0.407 C 
ATOM     22  H   UNL A   1      32.702  16.392  23.761  1.00  0.00     0.167 HD
ATOM     23  O   UNL A   1      32.111  17.789  21.627  1.00  0.00    -0.225 OA
ENDBRANCH  16  17
ENDBRANCH  13  16
ENDBRANCH   6   7
ENDBRANCH   4   6
ENDBRANCH   3   4
ENDBRANCH   2   3
ENDBRANCH   1   2
BRANCH   1  24
ATOM     24  O   UNL A   1      30.409  29.273  23.901  1.00  0.00    -0.374 OA
BRANCH  24  25
ATOM     25  C   UNL A   1      31.665  29.322  24.577  1.00  0.00     0.202 C 
BRANCH  25  26
ATOM     26  C   UNL A   1      31.776  30.119  25.870  1.00  0.00     0.261 C 
BRANCH  26  27
ATOM     27  O   UNL A   1      33.112  30.110  26.379  1.00  0.00    -0.460 OA
BRANCH  27  28
ATOM     28  C   UNL A   1      33.455  31.203  27.098  1.00  0.00     0.338 C 
ATOM     29  O   UNL A   1      32.758  32.159  27.386  1.00  0.00    -0.246 OA
BRANCH  28  30
ATOM     30  C   UNL A   1      34.783  30.963  27.684  1.00  0.00     0.060 A 
ATOM     31  C   UNL A   1      35.118  29.652  28.045  1.00  0.00     0.016 A 
ATOM     32  C   UNL A   1      35.676  32.016  27.877  1.00  0.00     0.016 A 
ATOM     33  C   UNL A   1      36.353  29.390  28.628  1.00  0.00     0.010 A 
ATOM     34  C   UNL A   1      36.904  31.756  28.478  1.00  0.00     0.010 A 
ATOM     35  C   UNL A   1      37.233  30.449  28.876  1.00  0.00    -0.014 A 
BRANCH  35  36
ATOM     36  C   UNL A   1      38.450  30.235  29.681  1.00  0.00     0.031 A 
ATOM     37  C   UNL A   1      39.486  29.285  29.161  1.00  0.00     0.074 A 
ATOM     38  C   UNL A   1      38.586  30.836  30.875  1.00  0.00     0.049 A 
ATOM     39  N   UNL A   1      40.540  28.798  29.759  1.00  0.00    -0.248 NA
ATOM     40  C   UNL A   1      39.303  28.806  27.779  1.00  0.00     0.031 C 
ATOM     41  C   UNL A   1      37.647  31.801  31.446  1.00  0.00     0.029 A 
ATOM     42  N   UNL A   1      39.549  30.690  31.839  1.00  0.00    -0.354 N 
ATOM     43  C   UNL A   1      41.127  27.938  28.842  1.00  0.00     0.074 A 
ATOM     44  C   UNL A   1      40.314  27.960  27.648  1.00  0.00     0.031 C 
ATOM     45  C   UNL A   1      38.061  32.130  32.681  1.00  0.00     0.029 A 
ATOM     46  C   UNL A   1      39.261  31.362  33.000  1.00  0.00     0.049 A 
ATOM     47  H   UNL A   1      40.367  30.156  31.710  1.00  0.00     0.167 HD
ATOM     48  C   UNL A   1      42.245  27.193  29.000  1.00  0.00     0.037 A 
ATOM     49  C   UNL A   1      39.871  31.310  34.200  1.00  0.00     0.037 A 
ATOM     50  C   UNL A   1      43.044  27.196  30.195  1.00  0.00     0.049 A 
ATOM     51  C   UNL A   1      41.079  30.419  34.361  1.00  0.00     0.074 A 
ATOM     52  C   UNL A   1      44.230  26.529  30.437  1.00  0.00     0.029 A 
ATOM     53  N   UNL A   1      42.727  27.892  31.352  1.00  0.00    -0.354 N 
ATOM     54  N   UNL A   1      41.668  29.650  33.476  1.00  0.00    -0.248 NA
ATOM     55  C   UNL A   1      41.703  30.382  35.691  1.00  0.00     0.031 C 
ATOM     56  C   UNL A   1      44.593  26.761  31.767  1.00  0.00     0.029 A 
ATOM     57  C   UNL A   1      43.670  27.629  32.330  1.00  0.00     0.049 A 
ATOM     58  H   UNL A   1      41.948  28.483  31.462  1.00  0.00     0.167 HD
ATOM     59  C   UNL A   1      42.741  29.062  34.132  1.00  0.00     0.074 A 
ATOM     60  C   UNL A   1      42.737  29.580  35.484  1.00  0.00     0.031 C 
ATOM     61  C   UNL A   1      43.646  28.167  33.666  1.00  0.00     0.037 A 
BRANCH  48  62
ATOM     62  C   UNL A   1      42.657  26.286  27.880  1.00  0.00     0.064 A 
ATOM     63  C   UNL A   1      42.098  25.011  27.711  1.00  0.00     0.173 A 
ATOM     64  C   UNL A   1      43.565  26.740  26.910  1.00  0.00     0.173 A 
ATOM     65  F   UNL A   1      41.239  24.524  28.619  1.00  0.00    -0.203 F 
ATOM     66  C   UNL A   1      42.435  24.223  26.614  1.00  0.00     0.198 A 
ATOM     67  C   UNL A   1      43.877  25.961  25.799  1.00  0.00     0.198 A 
ATOM     68  F   UNL A   1      44.130  27.951  27.026  1.00  0.00    -0.203 F 
ATOM     69  F   UNL A   1      41.909  22.998  26.484  1.00  0.00    -0.200 F 
ATOM     70  C   UNL A   1      43.313  24.704  25.652  1.00  0.00     0.200 A 
ATOM     71  F   UNL A   1      44.714  26.434  24.866  1.00  0.00    -0.200 F 
ATOM     72  F   UNL A   1      43.615  23.954  24.583  1.00  0.00    -0.200 F 
ENDBRANCH  48  62
BRANCH  49  73
ATOM     73  C   UNL A   1      39.328  32.071  35.357  1.00  0.00     0.064 A 
ATOM     74  C   UNL A   1      39.692  33.406  35.583  1.00  0.00     0.173 A 
ATOM     75  C   UNL A   1      38.476  31.464  36.292  1.00  0.00     0.173 A 
ATOM     76  F   UNL A   1      40.524  34.026  34.732  1.00  0.00    -0.203 F 
ATOM     77  C   UNL A   1      39.260  34.089  36.717  1.00  0.00     0.198 A 
ATOM     78  C   UNL A   1      38.012  32.160  37.407  1.00  0.00     0.198 A 
ATOM     79  F   UNL A   1      38.097  30.188  36.128  1.00  0.00    -0.203 F 
ATOM     80  F   UNL A   1      39.685  35.339  36.946  1.00  0.00    -0.200 F 
ATOM     81  C   UNL A   1      38.417  33.467  37.626  1.00  0.00     0.200 A 
ATOM     82  F   UNL A   1      37.190  31.558  38.275  1.00  0.00    -0.200 F 
ATOM     83  F   UNL A   1      38.011  34.122  38.723  1.00  0.00    -0.200 F 
ENDBRANCH  49  73
BRANCH  61  84
ATOM     84  C   UNL A   1      44.720  27.713  34.612  1.00  0.00     0.064 A 
ATOM     85  C   UNL A   1      44.578  26.549  35.381  1.00  0.00     0.173 A 
ATOM     86  C   UNL A   1      45.931  28.417  34.702  1.00  0.00     0.173 A 
ATOM     87  F   UNL A   1      43.435  25.847  35.339  1.00  0.00    -0.203 F 
ATOM     88  C   UNL A   1      45.600  26.119  36.222  1.00  0.00     0.198 A 
ATOM     89  C   UNL A   1      46.964  27.966  35.517  1.00  0.00     0.198 A 
ATOM     90  F   UNL A   1      46.121  29.532  33.980  1.00  0.00    -0.203 F 
ATOM     91  F   UNL A   1      45.425  25.031  36.983  1.00  0.00    -0.200 F 
ATOM     92  C   UNL A   1      46.795  26.822  36.281  1.00  0.00     0.200 A 
ATOM     93  F   UNL A   1      48.125  28.634  35.557  1.00  0.00    -0.200 F 
ATOM     94  F   UNL A   1      47.784  26.396  37.080  1.00  0.00    -0.200 F 
ENDBRANCH  61  84
ENDBRANCH  35  36
ENDBRANCH  28  30
ENDBRANCH  27  28
ENDBRANCH  26  27
ENDBRANCH  25  26
ENDBRANCH  24  25
ENDBRANCH   1  24
TORSDOF 17
ENDMDL
MODEL 3
REMARK VINA RESULT:     -12.0      3.123      7.761
REMARK SMILES O=C(C[C@H]1C[C@H]2CC[C@@H](C1)[N@H+]2C[C@@H]1CNC(=O)O1)OCCOCCOC(=O)c1ccc(-c2c3nc(c(-c4c(F)c(F)c(F)c(F)c4F)c4ccc([nH]4)c(-c4c(F)c(F)c(F)c(F)c4F)c4nc(c(-c5c(F)c(F)c(F)c(F)c5F)c5ccc2[nH]5)C=C4)C=C3)cc1
REMARK SMILES IDX 21 1 20 2 19 3 2 4 1 5 3 6 4 7 5 8 10 9 6 10 9 11 7 12 11 13
REMARK SMILES IDX 8 14 12 16 13 17 14 18 18 19 15 20 16 21 17 23 22 24 23 25
REMARK SMILES IDX 24 26 25 27 26 28 27 29 28 30 29 31 90 32 30 33 89 34 31 35
REMARK SMILES IDX 32 36 33 37 83 38 34 39 88 40 82 41 84 42 35 43 87 44 81 45
REMARK SMILES IDX 80 46 36 48 68 49 48 50 67 51 49 52 52 53 66 54 85 55 50 56
REMARK SMILES IDX 51 57 65 59 86 60 53 61 37 62 38 63 46 64 39 65 40 66 44 67
REMARK SMILES IDX 47 68 41 69 42 70 45 71 43 72 69 73 70 74 78 75 71 76 72 77
REMARK SMILES IDX 76 78 79 79 73 80 74 81 77 82 75 83 54 84 55 85 63 86 56 87
REMARK SMILES IDX 57 88 61 89 64 90 58 91 59 92 62 93 60 94
REMARK H PARENT 11 15 15 22 84 47 52 58
REMARK Flexibility Score: inf
ROOT
ATOM      1  C   UNL A   1      40.118  20.450  26.471  1.00  0.00     0.202 C 
ENDROOT
BRANCH   1   2
ATOM      2  C   UNL A   1      39.158  21.388  25.721  1.00  0.00     0.261 C 
BRANCH   2   3
ATOM      3  O   UNL A   1      38.294  22.222  26.501  1.00  0.00    -0.463 OA
BRANCH   3   4
ATOM      4  C   UNL A   1      37.845  23.436  26.102  1.00  0.00     0.306 C 
ATOM      5  O   UNL A   1      38.466  24.452  26.408  1.00  0.00    -0.252 OA
BRANCH   4   6
ATOM      6  C   UNL A   1      36.461  23.537  25.494  1.00  0.00     0.126 C 
BRANCH   6   7
ATOM      7  C   UNL A   1      35.692  22.226  25.381  1.00  0.00     0.012 C 
ATOM      8  C   UNL A   1      34.962  21.880  26.703  1.00  0.00     0.069 C 
ATOM      9  C   UNL A   1      34.836  22.203  24.097  1.00  0.00     0.069 C 
ATOM     10  C   UNL A   1      33.442  21.952  26.637  1.00  0.00     0.184 C 
ATOM     11  C   UNL A   1      33.334  22.273  24.345  1.00  0.00     0.184 C 
ATOM     12  C   UNL A   1      33.016  23.419  26.466  1.00  0.00     0.071 C 
ATOM     13  N   UNL A   1      32.932  21.374  25.412  1.00  0.00    -0.327 N 
ATOM     14  C   UNL A   1      32.957  23.634  24.953  1.00  0.00     0.071 C 
ATOM     15  H   UNL A   1      31.919  21.300  25.495  1.00  0.00     0.348 HD
BRANCH  13  16
ATOM     16  C   UNL A   1      32.759  19.948  25.191  1.00  0.00     0.310 C 
BRANCH  16  17
ATOM     17  C   UNL A   1      33.392  19.017  24.119  1.00  0.00     0.252 C 
ATOM     18  C   UNL A   1      32.491  18.195  23.223  1.00  0.00     0.170 C 
ATOM     19  O   UNL A   1      34.363  18.096  24.643  1.00  0.00    -0.438 OA
ATOM     20  N   UNL A   1      32.904  16.860  23.486  1.00  0.00    -0.318 N 
ATOM     21  C   UNL A   1      34.031  16.835  24.250  1.00  0.00     0.407 C 
ATOM     22  H   UNL A   1      32.436  16.058  23.160  1.00  0.00     0.167 HD
ATOM     23  O   UNL A   1      34.635  15.820  24.561  1.00  0.00    -0.225 OA
ENDBRANCH  16  17
ENDBRANCH  13  16
ENDBRANCH   6   7
ENDBRANCH   4   6
ENDBRANCH   3   4
ENDBRANCH   2   3
ENDBRANCH   1   2
BRANCH   1  24
ATOM     24  O   UNL A   1      41.379  20.910  26.928  1.00  0.00    -0.374 OA
BRANCH  24  25
ATOM     25  C   UNL A   1      42.570  20.490  26.264  1.00  0.00     0.202 C 
BRANCH  25  26
ATOM     26  C   UNL A   1      43.343  21.502  25.428  1.00  0.00     0.261 C 
BRANCH  26  27
ATOM     27  O   UNL A   1      42.611  22.719  25.266  1.00  0.00    -0.460 OA
BRANCH  27  28
ATOM     28  C   UNL A   1      43.371  23.833  25.165  1.00  0.00     0.338 C 
ATOM     29  O   UNL A   1      44.234  24.078  24.341  1.00  0.00    -0.246 OA
BRANCH  28  30
ATOM     30  C   UNL A   1      42.839  24.833  26.102  1.00  0.00     0.060 A 
ATOM     31  C   UNL A   1      43.258  26.162  25.959  1.00  0.00     0.016 A 
ATOM     32  C   UNL A   1      41.947  24.462  27.108  1.00  0.00     0.016 A 
ATOM     33  C   UNL A   1      42.799  27.131  26.843  1.00  0.00     0.010 A 
ATOM     34  C   UNL A   1      41.503  25.429  28.005  1.00  0.00     0.010 A 
ATOM     35  C   UNL A   1      41.948  26.757  27.889  1.00  0.00    -0.014 A 
BRANCH  35  36
ATOM     36  C   UNL A   1      41.618  27.714  28.962  1.00  0.00     0.031 A 
ATOM     37  C   UNL A   1      42.377  27.621  30.252  1.00  0.00     0.074 A 
ATOM     38  C   UNL A   1      40.622  28.600  28.798  1.00  0.00     0.049 A 
ATOM     39  N   UNL A   1      42.153  28.218  31.391  1.00  0.00    -0.248 NA
ATOM     40  C   UNL A   1      43.543  26.719  30.263  1.00  0.00     0.031 C 
ATOM     41  C   UNL A   1      39.853  28.785  27.568  1.00  0.00     0.029 A 
ATOM     42  N   UNL A   1      40.061  29.481  29.684  1.00  0.00    -0.354 N 
ATOM     43  C   UNL A   1      43.126  27.745  32.260  1.00  0.00     0.074 A 
ATOM     44  C   UNL A   1      43.942  26.807  31.524  1.00  0.00     0.031 C 
ATOM     45  C   UNL A   1      38.891  29.696  27.791  1.00  0.00     0.029 A 
ATOM     46  C   UNL A   1      38.949  30.116  29.189  1.00  0.00     0.049 A 
ATOM     47  H   UNL A   1      40.421  29.644  30.587  1.00  0.00     0.167 HD
ATOM     48  C   UNL A   1      43.307  28.069  33.560  1.00  0.00     0.037 A 
ATOM     49  C   UNL A   1      38.052  30.899  29.819  1.00  0.00     0.037 A 
ATOM     50  C   UNL A   1      42.488  29.015  34.268  1.00  0.00     0.049 A 
ATOM     51  C   UNL A   1      38.247  31.190  31.287  1.00  0.00     0.074 A 
ATOM     52  C   UNL A   1      42.623  29.465  35.569  1.00  0.00     0.029 A 
ATOM     53  N   UNL A   1      41.373  29.644  33.736  1.00  0.00    -0.354 N 
ATOM     54  N   UNL A   1      39.201  30.789  32.093  1.00  0.00    -0.248 NA
ATOM     55  C   UNL A   1      37.235  32.035  31.935  1.00  0.00     0.031 C 
ATOM     56  C   UNL A   1      41.545  30.310  35.849  1.00  0.00     0.029 A 
ATOM     57  C   UNL A   1      40.779  30.440  34.700  1.00  0.00     0.049 A 
ATOM     58  H   UNL A   1      41.050  29.539  32.812  1.00  0.00     0.167 HD
ATOM     59  C   UNL A   1      38.919  31.352  33.330  1.00  0.00     0.074 A 
ATOM     60  C   UNL A   1      37.718  32.143  33.165  1.00  0.00     0.031 C 
ATOM     61  C   UNL A   1      39.587  31.224  34.503  1.00  0.00     0.037 A 
BRANCH  48  62
ATOM     62  C   UNL A   1      44.401  27.380  34.318  1.00  0.00     0.064 A 
ATOM     63  C   UNL A   1      45.679  27.941  34.453  1.00  0.00     0.173 A 
ATOM     64  C   UNL A   1      44.135  26.179  34.995  1.00  0.00     0.173 A 
ATOM     65  F   UNL A   1      45.989  29.079  33.814  1.00  0.00    -0.203 F 
ATOM     66  C   UNL A   1      46.652  27.323  35.235  1.00  0.00     0.198 A 
ATOM     67  C   UNL A   1      45.101  25.580  35.798  1.00  0.00     0.198 A 
ATOM     68  F   UNL A   1      42.929  25.600  34.897  1.00  0.00    -0.203 F 
ATOM     69  F   UNL A   1      47.875  27.862  35.331  1.00  0.00    -0.200 F 
ATOM     70  C   UNL A   1      46.358  26.151  35.917  1.00  0.00     0.200 A 
ATOM     71  F   UNL A   1      44.809  24.455  36.466  1.00  0.00    -0.200 F 
ATOM     72  F   UNL A   1      47.287  25.572  36.691  1.00  0.00    -0.200 F 
ENDBRANCH  48  62
BRANCH  49  73
ATOM     73  C   UNL A   1      36.861  31.416  29.092  1.00  0.00     0.064 A 
ATOM     74  C   UNL A   1      36.763  32.767  28.730  1.00  0.00     0.173 A 
ATOM     75  C   UNL A   1      35.772  30.583  28.793  1.00  0.00     0.173 A 
ATOM     76  F   UNL A   1      37.766  33.611  29.015  1.00  0.00    -0.203 F 
ATOM     77  C   UNL A   1      35.608  33.272  28.136  1.00  0.00     0.198 A 
ATOM     78  C   UNL A   1      34.633  31.081  28.163  1.00  0.00     0.198 A 
ATOM     79  F   UNL A   1      35.810  29.283  29.119  1.00  0.00    -0.203 F 
ATOM     80  F   UNL A   1      35.513  34.581  27.870  1.00  0.00    -0.200 F 
ATOM     81  C   UNL A   1      34.546  32.428  27.849  1.00  0.00     0.200 A 
ATOM     82  F   UNL A   1      33.614  30.259  27.879  1.00  0.00    -0.200 F 
ATOM     83  F   UNL A   1      33.432  32.917  27.288  1.00  0.00    -0.200 F 
ENDBRANCH  49  73
BRANCH  61  84
ATOM     84  C   UNL A   1      39.051  31.974  35.689  1.00  0.00     0.064 A 
ATOM     85  C   UNL A   1      38.233  31.352  36.643  1.00  0.00     0.173 A 
ATOM     86  C   UNL A   1      39.413  33.313  35.905  1.00  0.00     0.173 A 
ATOM     87  F   UNL A   1      37.849  30.077  36.476  1.00  0.00    -0.203 F 
ATOM     88  C   UNL A   1      37.778  32.050  37.758  1.00  0.00     0.198 A 
ATOM     89  C   UNL A   1      38.986  33.997  37.039  1.00  0.00     0.198 A 
ATOM     90  F   UNL A   1      40.201  33.951  35.027  1.00  0.00    -0.203 F 
ATOM     91  F   UNL A   1      36.959  31.450  38.633  1.00  0.00    -0.200 F 
ATOM     92  C   UNL A   1      38.163  33.367  37.960  1.00  0.00     0.200 A 
ATOM     93  F   UNL A   1      39.375  35.262  37.243  1.00  0.00    -0.200 F 
ATOM     94  F   UNL A   1      37.738  34.031  39.044  1.00  0.00    -0.200 F 
ENDBRANCH  61  84
ENDBRANCH  35  36
ENDBRANCH  28  30
ENDBRANCH  27  28
ENDBRANCH  26  27
ENDBRANCH  25  26
ENDBRANCH  24  25
ENDBRANCH   1  24
TORSDOF 17
ENDMDL
