MODEL 1
REMARK VINA RESULT:     -11.2      0.000      0.000
REMARK SMILES O=C(OCCOCCOC(=O)[C@@H]1[C@@H](C(=O)NCCCn2ccnc2)[C@@H]2C=C[C@H]1C2)c1ccc(-c2c3nc(c(-c4c(F)c(F)c(F)c(F)c4F)c4ccc([nH]4)c(-c4c(F)c(F)c(F)c(F)c4F)c4nc(c(-c5c(F)c(F)c(F)c(F)c5F)c5ccc2[nH]5)C=C4)C=C3)cc1
REMARK SMILES IDX 7 1 6 2 5 3 4 4 3 5 2 6 1 7 30 8 31 9 92 10 32 11 91 12
REMARK SMILES IDX 33 13 34 14 35 15 85 16 36 17 90 18 84 19 86 20 37 21 89 22
REMARK SMILES IDX 83 23 82 24 38 26 70 27 50 28 69 29 51 30 54 31 68 32 87 33
REMARK SMILES IDX 52 34 53 35 67 37 88 38 55 39 39 40 40 41 48 42 41 43 42 44
REMARK SMILES IDX 46 45 49 46 43 47 44 48 47 49 45 50 71 51 72 52 80 53 73 54
REMARK SMILES IDX 74 55 78 56 81 57 75 58 76 59 79 60 77 61 56 62 57 63 65 64
REMARK SMILES IDX 58 65 59 66 63 67 66 68 60 69 61 70 64 71 62 72 8 73 9 74
REMARK SMILES IDX 10 75 11 76 12 77 13 78 28 79 25 80 27 81 29 82 26 83 14 84
REMARK SMILES IDX 15 85 16 86 17 88 18 89 19 90 20 91 21 92 24 93 22 94 23 95
REMARK H PARENT 86 25 54 36 16 87
REMARK Flexibility Score: inf
ROOT
ATOM      1  C   UNL A   1      37.527  22.621  25.138  1.00  0.00     0.202 C 
ENDROOT
BRANCH   1   2
ATOM      2  O   UNL A   1      37.152  21.413  24.458  1.00  0.00    -0.374 OA
BRANCH   2   3
ATOM      3  C   UNL A   1      37.834  20.196  24.755  1.00  0.00     0.202 C 
BRANCH   3   4
ATOM      4  C   UNL A   1      38.958  20.256  25.801  1.00  0.00     0.261 C 
BRANCH   4   5
ATOM      5  O   UNL A   1      40.039  19.366  25.493  1.00  0.00    -0.460 OA
BRANCH   5   6
ATOM      6  C   UNL A   1      41.322  19.346  25.914  1.00  0.00     0.338 C 
ATOM      7  O   UNL A   1      42.052  18.425  25.590  1.00  0.00    -0.246 OA
BRANCH   6   8
ATOM      8  C   UNL A   1      41.892  20.486  26.663  1.00  0.00     0.060 A 
ATOM      9  C   UNL A   1      41.817  20.636  28.039  1.00  0.00     0.016 A 
ATOM     10  C   UNL A   1      42.427  21.526  25.890  1.00  0.00     0.016 A 
ATOM     11  C   UNL A   1      41.868  21.892  28.583  1.00  0.00     0.010 A 
ATOM     12  C   UNL A   1      42.662  22.759  26.467  1.00  0.00     0.010 A 
ATOM     13  C   UNL A   1      42.260  22.963  27.783  1.00  0.00    -0.014 A 
BRANCH  13  14
ATOM     14  C   UNL A   1      42.368  24.241  28.462  1.00  0.00     0.031 A 
ATOM     15  C   UNL A   1      41.199  25.142  28.249  1.00  0.00     0.074 A 
ATOM     16  C   UNL A   1      43.401  24.553  29.261  1.00  0.00     0.049 A 
ATOM     17  N   UNL A   1      41.188  26.367  27.833  1.00  0.00    -0.248 NA
ATOM     18  C   UNL A   1      39.858  24.536  28.373  1.00  0.00     0.031 C 
ATOM     19  C   UNL A   1      44.474  23.674  29.728  1.00  0.00     0.029 A 
ATOM     20  N   UNL A   1      43.623  25.709  29.943  1.00  0.00    -0.354 N 
ATOM     21  C   UNL A   1      39.846  26.738  27.798  1.00  0.00     0.074 A 
ATOM     22  C   UNL A   1      39.076  25.540  27.986  1.00  0.00     0.031 C 
ATOM     23  C   UNL A   1      45.056  24.236  30.808  1.00  0.00     0.029 A 
ATOM     24  C   UNL A   1      44.473  25.550  31.023  1.00  0.00     0.049 A 
ATOM     25  H   UNL A   1      43.221  26.571  29.692  1.00  0.00     0.167 HD
ATOM     26  C   UNL A   1      39.472  28.042  27.877  1.00  0.00     0.037 A 
ATOM     27  C   UNL A   1      44.584  26.387  32.081  1.00  0.00     0.037 A 
ATOM     28  C   UNL A   1      40.503  28.917  27.382  1.00  0.00     0.049 A 
ATOM     29  C   UNL A   1      44.017  27.702  31.685  1.00  0.00     0.074 A 
ATOM     30  C   UNL A   1      41.165  29.048  26.175  1.00  0.00     0.029 A 
ATOM     31  N   UNL A   1      41.237  29.651  28.279  1.00  0.00    -0.354 N 
ATOM     32  N   UNL A   1      44.571  28.515  30.829  1.00  0.00    -0.248 NA
ATOM     33  C   UNL A   1      42.605  27.947  31.949  1.00  0.00     0.031 C 
ATOM     34  C   UNL A   1      42.493  29.441  26.515  1.00  0.00     0.029 A 
ATOM     35  C   UNL A   1      42.551  29.553  27.903  1.00  0.00     0.049 A 
ATOM     36  H   UNL A   1      40.886  30.154  29.049  1.00  0.00     0.167 HD
ATOM     37  C   UNL A   1      43.507  29.080  30.140  1.00  0.00     0.074 A 
ATOM     38  C   UNL A   1      42.330  28.788  30.949  1.00  0.00     0.031 C 
ATOM     39  C   UNL A   1      43.642  29.480  28.842  1.00  0.00     0.037 A 
BRANCH  26  40
ATOM     40  C   UNL A   1      38.370  28.506  28.807  1.00  0.00     0.064 A 
ATOM     41  C   UNL A   1      37.484  29.506  28.359  1.00  0.00     0.173 A 
ATOM     42  C   UNL A   1      38.354  28.265  30.201  1.00  0.00     0.173 A 
ATOM     43  F   UNL A   1      37.404  29.814  27.057  1.00  0.00    -0.203 F 
ATOM     44  C   UNL A   1      36.750  30.292  29.251  1.00  0.00     0.198 A 
ATOM     45  C   UNL A   1      37.582  29.017  31.081  1.00  0.00     0.198 A 
ATOM     46  F   UNL A   1      39.157  27.375  30.792  1.00  0.00    -0.203 F 
ATOM     47  F   UNL A   1      36.043  31.332  28.790  1.00  0.00    -0.200 F 
ATOM     48  C   UNL A   1      36.814  30.059  30.612  1.00  0.00     0.200 A 
ATOM     49  F   UNL A   1      37.665  28.778  32.397  1.00  0.00    -0.200 F 
ATOM     50  F   UNL A   1      36.179  30.864  31.474  1.00  0.00    -0.200 F 
ENDBRANCH  26  40
BRANCH  27  51
ATOM     51  C   UNL A   1      44.873  26.023  33.486  1.00  0.00     0.064 A 
ATOM     52  C   UNL A   1      43.879  25.464  34.301  1.00  0.00     0.173 A 
ATOM     53  C   UNL A   1      46.188  25.996  33.995  1.00  0.00     0.173 A 
ATOM     54  F   UNL A   1      42.612  25.396  33.868  1.00  0.00    -0.203 F 
ATOM     55  C   UNL A   1      44.183  24.905  35.546  1.00  0.00     0.198 A 
ATOM     56  C   UNL A   1      46.486  25.459  35.246  1.00  0.00     0.198 A 
ATOM     57  F   UNL A   1      47.228  26.407  33.256  1.00  0.00    -0.203 F 
ATOM     58  F   UNL A   1      43.215  24.323  36.269  1.00  0.00    -0.200 F 
ATOM     59  C   UNL A   1      45.485  24.901  36.017  1.00  0.00     0.200 A 
ATOM     60  F   UNL A   1      47.757  25.433  35.671  1.00  0.00    -0.200 F 
ATOM     61  F   UNL A   1      45.783  24.326  37.189  1.00  0.00    -0.200 F 
ENDBRANCH  27  51
BRANCH  39  62
ATOM     62  C   UNL A   1      45.031  29.592  28.288  1.00  0.00     0.064 A 
ATOM     63  C   UNL A   1      45.831  30.742  28.406  1.00  0.00     0.173 A 
ATOM     64  C   UNL A   1      45.616  28.454  27.717  1.00  0.00     0.173 A 
ATOM     65  F   UNL A   1      45.383  31.830  29.046  1.00  0.00    -0.203 F 
ATOM     66  C   UNL A   1      47.131  30.769  27.910  1.00  0.00     0.198 A 
ATOM     67  C   UNL A   1      46.929  28.471  27.259  1.00  0.00     0.198 A 
ATOM     68  F   UNL A   1      44.921  27.307  27.638  1.00  0.00    -0.203 F 
ATOM     69  F   UNL A   1      47.866  31.887  28.010  1.00  0.00    -0.200 F 
ATOM     70  C   UNL A   1      47.681  29.632  27.340  1.00  0.00     0.200 A 
ATOM     71  F   UNL A   1      47.475  27.355  26.756  1.00  0.00    -0.200 F 
ATOM     72  F   UNL A   1      48.945  29.648  26.893  1.00  0.00    -0.200 F 
ENDBRANCH  39  62
ENDBRANCH  13  14
ENDBRANCH   6   8
ENDBRANCH   5   6
ENDBRANCH   4   5
ENDBRANCH   3   4
ENDBRANCH   2   3
ENDBRANCH   1   2
BRANCH   1  73
ATOM     73  C   UNL A   1      36.455  23.667  25.461  1.00  0.00     0.261 C 
BRANCH  73  74
ATOM     74  O   UNL A   1      35.147  23.074  25.554  1.00  0.00    -0.463 OA
BRANCH  74  75
ATOM     75  C   UNL A   1      34.185  23.711  24.841  1.00  0.00     0.310 C 
ATOM     76  O   UNL A   1      34.017  23.565  23.635  1.00  0.00    -0.252 OA
BRANCH  75  77
ATOM     77  C   UNL A   1      33.233  24.530  25.688  1.00  0.00     0.119 C 
ATOM     78  C   UNL A   1      31.727  24.294  25.396  1.00  0.00     0.100 C 
ATOM     79  C   UNL A   1      33.342  26.069  25.628  1.00  0.00     0.027 C 
ATOM     80  C   UNL A   1      31.141  25.723  25.504  1.00  0.00     0.025 C 
ATOM     81  C   UNL A   1      32.853  26.646  24.320  1.00  0.00    -0.027 C 
ATOM     82  C   UNL A   1      32.120  26.436  26.459  1.00  0.00     0.017 C 
ATOM     83  C   UNL A   1      31.531  26.453  24.249  1.00  0.00    -0.027 C 
BRANCH  78  84
ATOM     84  C   UNL A   1      31.180  23.198  26.290  1.00  0.00     0.224 C 
ATOM     85  O   UNL A   1      30.566  23.515  27.314  1.00  0.00    -0.275 OA
ATOM     86  N   UNL A   1      31.223  21.873  26.028  1.00  0.00    -0.356 N 
ATOM     87  H   UNL A   1      30.656  21.344  26.633  1.00  0.00     0.163 HD
BRANCH  86  88
ATOM     88  C   UNL A   1      31.919  21.060  25.051  1.00  0.00     0.117 C 
BRANCH  88  89
ATOM     89  C   UNL A   1      32.873  20.069  25.709  1.00  0.00     0.043 C 
BRANCH  89  90
ATOM     90  C   UNL A   1      33.898  19.492  24.739  1.00  0.00     0.125 C 
BRANCH  90  91
ATOM     91  N   UNL A   1      33.805  18.047  24.655  1.00  0.00    -0.337 N 
ATOM     92  C   UNL A   1      33.088  17.237  25.489  1.00  0.00     0.107 A 
ATOM     93  C   UNL A   1      34.284  17.277  23.635  1.00  0.00     0.199 A 
ATOM     94  C   UNL A   1      33.127  15.998  24.894  1.00  0.00     0.130 A 
ATOM     95  N   UNL A   1      33.876  16.033  23.745  1.00  0.00    -0.245 NA
ENDBRANCH  90  91
ENDBRANCH  89  90
ENDBRANCH  88  89
ENDBRANCH  86  88
ENDBRANCH  78  84
ENDBRANCH  75  77
ENDBRANCH  74  75
ENDBRANCH  73  74
ENDBRANCH   1  73
TORSDOF 19
ENDMDL
MODEL 2
REMARK VINA RESULT:     -11.1      3.088      7.975
REMARK SMILES O=C(OCCOCCOC(=O)[C@@H]1[C@@H](C(=O)NCCCn2ccnc2)[C@@H]2C=C[C@H]1C2)c1ccc(-c2c3nc(c(-c4c(F)c(F)c(F)c(F)c4F)c4ccc([nH]4)c(-c4c(F)c(F)c(F)c(F)c4F)c4nc(c(-c5c(F)c(F)c(F)c(F)c5F)c5ccc2[nH]5)C=C4)C=C3)cc1
REMARK SMILES IDX 7 1 6 2 5 3 4 4 3 5 2 6 1 7 30 8 31 9 92 10 32 11 91 12
REMARK SMILES IDX 33 13 34 14 35 15 85 16 36 17 90 18 84 19 86 20 37 21 89 22
REMARK SMILES IDX 83 23 82 24 38 26 70 27 50 28 69 29 51 30 54 31 68 32 87 33
REMARK SMILES IDX 52 34 53 35 67 37 88 38 55 39 39 40 40 41 48 42 41 43 42 44
REMARK SMILES IDX 46 45 49 46 43 47 44 48 47 49 45 50 71 51 72 52 80 53 73 54
REMARK SMILES IDX 74 55 78 56 81 57 75 58 76 59 79 60 77 61 56 62 57 63 65 64
REMARK SMILES IDX 58 65 59 66 63 67 66 68 60 69 61 70 64 71 62 72 8 73 9 74
REMARK SMILES IDX 10 75 11 76 12 77 13 78 28 79 25 80 27 81 29 82 26 83 14 84
REMARK SMILES IDX 15 85 16 86 17 88 18 89 19 90 20 91 21 92 24 93 22 94 23 95
REMARK H PARENT 86 25 54 36 16 87
REMARK Flexibility Score: inf
ROOT
ATOM      1  C   UNL A   1      35.221  22.069  25.987  1.00  0.00     0.202 C 
ENDROOT
BRANCH   1   2
ATOM      2  O   UNL A   1      35.647  20.787  25.500  1.00  0.00    -0.374 OA
BRANCH   2   3
ATOM      3  C   UNL A   1      36.806  20.696  24.673  1.00  0.00     0.202 C 
BRANCH   3   4
ATOM      4  C   UNL A   1      38.136  20.349  25.360  1.00  0.00     0.261 C 
BRANCH   4   5
ATOM      5  O   UNL A   1      38.899  21.516  25.694  1.00  0.00    -0.460 OA
BRANCH   5   6
ATOM      6  C   UNL A   1      39.856  21.716  26.625  1.00  0.00     0.338 C 
ATOM      7  O   UNL A   1      40.343  20.762  27.208  1.00  0.00    -0.246 OA
BRANCH   6   8
ATOM      8  C   UNL A   1      40.412  23.066  26.863  1.00  0.00     0.060 A 
ATOM      9  C   UNL A   1      41.615  23.314  27.507  1.00  0.00     0.016 A 
ATOM     10  C   UNL A   1      39.587  24.143  26.515  1.00  0.00     0.016 A 
ATOM     11  C   UNL A   1      41.799  24.510  28.149  1.00  0.00     0.010 A 
ATOM     12  C   UNL A   1      39.862  25.405  27.006  1.00  0.00     0.010 A 
ATOM     13  C   UNL A   1      40.898  25.548  27.923  1.00  0.00    -0.014 A 
BRANCH  13  14
ATOM     14  C   UNL A   1      41.218  26.804  28.577  1.00  0.00     0.031 A 
ATOM     15  C   UNL A   1      42.478  27.437  28.094  1.00  0.00     0.074 A 
ATOM     16  C   UNL A   1      40.412  27.371  29.490  1.00  0.00     0.049 A 
ATOM     17  N   UNL A   1      43.496  27.840  28.783  1.00  0.00    -0.248 NA
ATOM     18  C   UNL A   1      42.685  27.480  26.633  1.00  0.00     0.031 C 
ATOM     19  C   UNL A   1      39.056  26.970  29.866  1.00  0.00     0.029 A 
ATOM     20  N   UNL A   1      40.598  28.531  30.176  1.00  0.00    -0.354 N 
ATOM     21  C   UNL A   1      44.405  28.338  27.853  1.00  0.00     0.074 A 
ATOM     22  C   UNL A   1      43.927  27.952  26.554  1.00  0.00     0.031 C 
ATOM     23  C   UNL A   1      38.454  28.005  30.487  1.00  0.00     0.029 A 
ATOM     24  C   UNL A   1      39.419  29.081  30.647  1.00  0.00     0.049 A 
ATOM     25  H   UNL A   1      41.482  28.937  30.323  1.00  0.00     0.167 HD
ATOM     26  C   UNL A   1      45.345  29.253  28.204  1.00  0.00     0.037 A 
ATOM     27  C   UNL A   1      39.231  30.368  31.019  1.00  0.00     0.037 A 
ATOM     28  C   UNL A   1      45.684  29.151  29.600  1.00  0.00     0.049 A 
ATOM     29  C   UNL A   1      40.565  30.966  31.284  1.00  0.00     0.074 A 
ATOM     30  C   UNL A   1      46.182  28.142  30.405  1.00  0.00     0.029 A 
ATOM     31  N   UNL A   1      45.226  30.112  30.466  1.00  0.00    -0.354 N 
ATOM     32  N   UNL A   1      41.322  30.657  32.300  1.00  0.00    -0.248 NA
ATOM     33  C   UNL A   1      41.246  31.637  30.185  1.00  0.00     0.031 C 
ATOM     34  C   UNL A   1      45.565  28.336  31.676  1.00  0.00     0.029 A 
ATOM     35  C   UNL A   1      44.753  29.464  31.576  1.00  0.00     0.049 A 
ATOM     36  H   UNL A   1      45.235  31.085  30.318  1.00  0.00     0.167 HD
ATOM     37  C   UNL A   1      42.616  30.699  31.801  1.00  0.00     0.074 A 
ATOM     38  C   UNL A   1      42.515  31.422  30.539  1.00  0.00     0.031 C 
ATOM     39  C   UNL A   1      43.595  29.899  32.316  1.00  0.00     0.037 A 
BRANCH  26  40
ATOM     40  C   UNL A   1      45.600  30.498  27.380  1.00  0.00     0.064 A 
ATOM     41  C   UNL A   1      46.931  30.845  27.074  1.00  0.00     0.173 A 
ATOM     42  C   UNL A   1      44.647  31.522  27.173  1.00  0.00     0.173 A 
ATOM     43  F   UNL A   1      47.920  29.952  27.221  1.00  0.00    -0.203 F 
ATOM     44  C   UNL A   1      47.291  32.149  26.725  1.00  0.00     0.198 A 
ATOM     45  C   UNL A   1      45.004  32.808  26.776  1.00  0.00     0.198 A 
ATOM     46  F   UNL A   1      43.348  31.369  27.447  1.00  0.00    -0.203 F 
ATOM     47  F   UNL A   1      48.586  32.468  26.597  1.00  0.00    -0.200 F 
ATOM     48  C   UNL A   1      46.329  33.134  26.595  1.00  0.00     0.200 A 
ATOM     49  F   UNL A   1      44.055  33.747  26.663  1.00  0.00    -0.200 F 
ATOM     50  F   UNL A   1      46.678  34.402  26.346  1.00  0.00    -0.200 F 
ENDBRANCH  26  40
BRANCH  27  51
ATOM     51  C   UNL A   1      38.001  31.176  30.864  1.00  0.00     0.064 A 
ATOM     52  C   UNL A   1      37.487  31.462  29.591  1.00  0.00     0.173 A 
ATOM     53  C   UNL A   1      37.170  31.489  31.960  1.00  0.00     0.173 A 
ATOM     54  F   UNL A   1      38.188  31.144  28.494  1.00  0.00    -0.203 F 
ATOM     55  C   UNL A   1      36.216  32.021  29.425  1.00  0.00     0.198 A 
ATOM     56  C   UNL A   1      35.912  32.066  31.793  1.00  0.00     0.198 A 
ATOM     57  F   UNL A   1      37.518  31.160  33.212  1.00  0.00    -0.203 F 
ATOM     58  F   UNL A   1      35.734  32.223  28.191  1.00  0.00    -0.200 F 
ATOM     59  C   UNL A   1      35.429  32.321  30.524  1.00  0.00     0.200 A 
ATOM     60  F   UNL A   1      35.150  32.318  32.867  1.00  0.00    -0.200 F 
ATOM     61  F   UNL A   1      34.195  32.814  30.363  1.00  0.00    -0.200 F 
ENDBRANCH  27  51
BRANCH  39  62
ATOM     62  C   UNL A   1      43.323  29.220  33.625  1.00  0.00     0.064 A 
ATOM     63  C   UNL A   1      42.622  28.008  33.748  1.00  0.00     0.173 A 
ATOM     64  C   UNL A   1      43.891  29.759  34.787  1.00  0.00     0.173 A 
ATOM     65  F   UNL A   1      42.152  27.371  32.667  1.00  0.00    -0.203 F 
ATOM     66  C   UNL A   1      42.441  27.403  34.988  1.00  0.00     0.198 A 
ATOM     67  C   UNL A   1      43.743  29.131  36.020  1.00  0.00     0.198 A 
ATOM     68  F   UNL A   1      44.626  30.881  34.720  1.00  0.00    -0.203 F 
ATOM     69  F   UNL A   1      41.745  26.260  35.084  1.00  0.00    -0.200 F 
ATOM     70  C   UNL A   1      43.004  27.963  36.123  1.00  0.00     0.200 A 
ATOM     71  F   UNL A   1      44.333  29.647  37.107  1.00  0.00    -0.200 F 
ATOM     72  F   UNL A   1      42.857  27.363  37.313  1.00  0.00    -0.200 F 
ENDBRANCH  39  62
ENDBRANCH  13  14
ENDBRANCH   6   8
ENDBRANCH   5   6
ENDBRANCH   4   5
ENDBRANCH   3   4
ENDBRANCH   2   3
ENDBRANCH   1   2
BRANCH   1  73
ATOM     73  C   UNL A   1      35.926  23.335  25.490  1.00  0.00     0.261 C 
BRANCH  73  74
ATOM     74  O   UNL A   1      35.015  24.216  24.809  1.00  0.00    -0.463 OA
BRANCH  74  75
ATOM     75  C   UNL A   1      34.760  23.880  23.520  1.00  0.00     0.310 C 
ATOM     76  O   UNL A   1      35.567  23.320  22.787  1.00  0.00    -0.252 OA
BRANCH  75  77
ATOM     77  C   UNL A   1      33.330  24.134  23.090  1.00  0.00     0.119 C 
ATOM     78  C   UNL A   1      32.823  25.583  23.326  1.00  0.00     0.100 C 
ATOM     79  C   UNL A   1      32.212  23.287  23.734  1.00  0.00     0.027 C 
ATOM     80  C   UNL A   1      31.367  25.351  23.798  1.00  0.00     0.025 C 
ATOM     81  C   UNL A   1      31.959  23.642  25.180  1.00  0.00    -0.027 C 
ATOM     82  C   UNL A   1      30.997  23.999  23.155  1.00  0.00     0.017 C 
ATOM     83  C   UNL A   1      31.439  24.873  25.221  1.00  0.00    -0.027 C 
BRANCH  78  84
ATOM     84  C   UNL A   1      33.078  26.438  22.100  1.00  0.00     0.224 C 
ATOM     85  O   UNL A   1      33.278  25.882  21.014  1.00  0.00    -0.275 OA
ATOM     86  N   UNL A   1      33.022  27.788  22.055  1.00  0.00    -0.356 N 
ATOM     87  H   UNL A   1      33.034  28.142  21.137  1.00  0.00     0.163 HD
BRANCH  86  88
ATOM     88  C   UNL A   1      32.948  28.828  23.062  1.00  0.00     0.117 C 
BRANCH  88  89
ATOM     89  C   UNL A   1      31.536  28.989  23.613  1.00  0.00     0.043 C 
BRANCH  89  90
ATOM     90  C   UNL A   1      30.465  28.987  22.528  1.00  0.00     0.125 C 
BRANCH  90  91
ATOM     91  N   UNL A   1      29.240  29.618  22.979  1.00  0.00    -0.337 N 
ATOM     92  C   UNL A   1      29.124  30.881  23.486  1.00  0.00     0.107 A 
ATOM     93  C   UNL A   1      27.981  29.115  22.820  1.00  0.00     0.199 A 
ATOM     94  C   UNL A   1      27.770  31.105  23.566  1.00  0.00     0.130 A 
ATOM     95  N   UNL A   1      27.069  30.001  23.153  1.00  0.00    -0.245 NA
ENDBRANCH  90  91
ENDBRANCH  89  90
ENDBRANCH  88  89
ENDBRANCH  86  88
ENDBRANCH  78  84
ENDBRANCH  75  77
ENDBRANCH  74  75
ENDBRANCH  73  74
ENDBRANCH   1  73
TORSDOF 19
ENDMDL
MODEL 3
REMARK VINA RESULT:     -11.0      4.576      9.743
REMARK SMILES O=C(OCCOCCOC(=O)[C@@H]1[C@@H](C(=O)NCCCn2ccnc2)[C@@H]2C=C[C@H]1C2)c1ccc(-c2c3nc(c(-c4c(F)c(F)c(F)c(F)c4F)c4ccc([nH]4)c(-c4c(F)c(F)c(F)c(F)c4F)c4nc(c(-c5c(F)c(F)c(F)c(F)c5F)c5ccc2[nH]5)C=C4)C=C3)cc1
REMARK SMILES IDX 7 1 6 2 5 3 4 4 3 5 2 6 1 7 30 8 31 9 92 10 32 11 91 12
REMARK SMILES IDX 33 13 34 14 35 15 85 16 36 17 90 18 84 19 86 20 37 21 89 22
REMARK SMILES IDX 83 23 82 24 38 26 70 27 50 28 69 29 51 30 54 31 68 32 87 33
REMARK SMILES IDX 52 34 53 35 67 37 88 38 55 39 39 40 40 41 48 42 41 43 42 44
REMARK SMILES IDX 46 45 49 46 43 47 44 48 47 49 45 50 71 51 72 52 80 53 73 54
REMARK SMILES IDX 74 55 78 56 81 57 75 58 76 59 79 60 77 61 56 62 57 63 65 64
REMARK SMILES IDX 58 65 59 66 63 67 66 68 60 69 61 70 64 71 62 72 8 73 9 74
REMARK SMILES IDX 10 75 11 76 12 77 13 78 28 79 25 80 27 81 29 82 26 83 14 84
REMARK SMILES IDX 15 85 16 86 17 88 18 89 19 90 20 91 21 92 24 93 22 94 23 95
REMARK H PARENT 86 25 54 36 16 87
REMARK Flexibility Score: inf
ROOT
ATOM      1  C   UNL A   1      44.369  20.614  24.915  1.00  0.00     0.202 C 
ENDROOT
BRANCH   1   2
ATOM      2  O   UNL A   1      42.952  20.514  25.122  1.00  0.00    -0.374 OA
BRANCH   2   3
ATOM      3  C   UNL A   1      42.454  20.023  26.365  1.00  0.00     0.202 C 
BRANCH   3   4
ATOM      4  C   UNL A   1      40.930  19.882  26.507  1.00  0.00     0.261 C 
BRANCH   4   5
ATOM      5  O   UNL A   1      40.339  21.000  27.183  1.00  0.00    -0.460 OA
BRANCH   5   6
ATOM      6  C   UNL A   1      39.762  22.124  26.705  1.00  0.00     0.338 C 
ATOM      7  O   UNL A   1      38.685  22.058  26.137  1.00  0.00    -0.246 OA
BRANCH   6   8
ATOM      8  C   UNL A   1      40.356  23.452  26.968  1.00  0.00     0.060 A 
ATOM      9  C   UNL A   1      41.537  23.658  27.664  1.00  0.00     0.016 A 
ATOM     10  C   UNL A   1      39.587  24.559  26.583  1.00  0.00     0.016 A 
ATOM     11  C   UNL A   1      41.735  24.848  28.314  1.00  0.00     0.010 A 
ATOM     12  C   UNL A   1      39.886  25.811  27.085  1.00  0.00     0.010 A 
ATOM     13  C   UNL A   1      40.885  25.918  28.047  1.00  0.00    -0.014 A 
BRANCH  13  14
ATOM     14  C   UNL A   1      41.220  27.162  28.715  1.00  0.00     0.031 A 
ATOM     15  C   UNL A   1      42.425  27.842  28.160  1.00  0.00     0.074 A 
ATOM     16  C   UNL A   1      40.470  27.681  29.701  1.00  0.00     0.049 A 
ATOM     17  N   UNL A   1      43.481  28.253  28.786  1.00  0.00    -0.248 NA
ATOM     18  C   UNL A   1      42.523  27.933  26.690  1.00  0.00     0.031 C 
ATOM     19  C   UNL A   1      39.156  27.232  30.163  1.00  0.00     0.029 A 
ATOM     20  N   UNL A   1      40.677  28.825  30.407  1.00  0.00    -0.354 N 
ATOM     21  C   UNL A   1      44.306  28.802  27.807  1.00  0.00     0.074 A 
ATOM     22  C   UNL A   1      43.743  28.440  26.536  1.00  0.00     0.031 C 
ATOM     23  C   UNL A   1      38.576  28.233  30.858  1.00  0.00     0.029 A 
ATOM     24  C   UNL A   1      39.523  29.328  30.980  1.00  0.00     0.049 A 
ATOM     25  H   UNL A   1      41.560  29.251  30.502  1.00  0.00     0.167 HD
ATOM     26  C   UNL A   1      45.246  29.732  28.117  1.00  0.00     0.037 A 
ATOM     27  C   UNL A   1      39.332  30.600  31.404  1.00  0.00     0.037 A 
ATOM     28  C   UNL A   1      45.690  29.599  29.481  1.00  0.00     0.049 A 
ATOM     29  C   UNL A   1      40.665  31.226  31.589  1.00  0.00     0.074 A 
ATOM     30  C   UNL A   1      46.271  28.581  30.215  1.00  0.00     0.029 A 
ATOM     31  N   UNL A   1      45.273  30.521  30.407  1.00  0.00    -0.354 N 
ATOM     32  N   UNL A   1      41.503  30.908  32.537  1.00  0.00    -0.248 NA
ATOM     33  C   UNL A   1      41.247  31.946  30.464  1.00  0.00     0.031 C 
ATOM     34  C   UNL A   1      45.745  28.721  31.533  1.00  0.00     0.029 A 
ATOM     35  C   UNL A   1      44.900  29.829  31.528  1.00  0.00     0.049 A 
ATOM     36  H   UNL A   1      45.248  31.499  30.288  1.00  0.00     0.167 HD
ATOM     37  C   UNL A   1      42.755  30.999  31.947  1.00  0.00     0.074 A 
ATOM     38  C   UNL A   1      42.544  31.755  30.718  1.00  0.00     0.031 C 
ATOM     39  C   UNL A   1      43.789  30.211  32.364  1.00  0.00     0.037 A 
BRANCH  26  40
ATOM     40  C   UNL A   1      45.409  31.006  27.315  1.00  0.00     0.064 A 
ATOM     41  C   UNL A   1      46.698  31.367  26.873  1.00  0.00     0.173 A 
ATOM     42  C   UNL A   1      44.440  32.035  27.255  1.00  0.00     0.173 A 
ATOM     43  F   UNL A   1      47.695  30.471  26.874  1.00  0.00    -0.203 F 
ATOM     44  C   UNL A   1      47.018  32.684  26.533  1.00  0.00     0.198 A 
ATOM     45  C   UNL A   1      44.752  33.335  26.867  1.00  0.00     0.198 A 
ATOM     46  F   UNL A   1      43.180  31.870  27.669  1.00  0.00    -0.203 F 
ATOM     47  F   UNL A   1      48.291  33.010  26.271  1.00  0.00    -0.200 F 
ATOM     48  C   UNL A   1      46.049  33.670  26.549  1.00  0.00     0.200 A 
ATOM     49  F   UNL A   1      43.799  34.276  26.897  1.00  0.00    -0.200 F 
ATOM     50  F   UNL A   1      46.371  34.947  26.308  1.00  0.00    -0.200 F 
ENDBRANCH  26  40
BRANCH  27  51
ATOM     51  C   UNL A   1      38.073  31.377  31.364  1.00  0.00     0.064 A 
ATOM     52  C   UNL A   1      37.455  31.679  30.142  1.00  0.00     0.173 A 
ATOM     53  C   UNL A   1      37.322  31.644  32.528  1.00  0.00     0.173 A 
ATOM     54  F   UNL A   1      38.076  31.404  28.986  1.00  0.00    -0.203 F 
ATOM     55  C   UNL A   1      36.162  32.207  30.088  1.00  0.00     0.198 A 
ATOM     56  C   UNL A   1      36.042  32.191  32.473  1.00  0.00     0.198 A 
ATOM     57  F   UNL A   1      37.775  31.297  33.741  1.00  0.00    -0.203 F 
ATOM     58  F   UNL A   1      35.580  32.424  28.900  1.00  0.00    -0.200 F 
ATOM     59  C   UNL A   1      35.455  32.461  31.252  1.00  0.00     0.200 A 
ATOM     60  F   UNL A   1      35.360  32.399  33.608  1.00  0.00    -0.200 F 
ATOM     61  F   UNL A   1      34.201  32.926  31.199  1.00  0.00    -0.200 F 
ENDBRANCH  27  51
BRANCH  39  62
ATOM     62  C   UNL A   1      43.632  29.488  33.668  1.00  0.00     0.064 A 
ATOM     63  C   UNL A   1      43.987  30.032  34.913  1.00  0.00     0.173 A 
ATOM     64  C   UNL A   1      42.992  28.241  33.666  1.00  0.00     0.173 A 
ATOM     65  F   UNL A   1      44.495  31.269  35.006  1.00  0.00    -0.203 F 
ATOM     66  C   UNL A   1      43.774  29.328  36.095  1.00  0.00     0.198 A 
ATOM     67  C   UNL A   1      42.743  27.557  34.852  1.00  0.00     0.198 A 
ATOM     68  F   UNL A   1      42.571  27.702  32.511  1.00  0.00    -0.203 F 
ATOM     69  F   UNL A   1      44.148  29.857  37.270  1.00  0.00    -0.200 F 
ATOM     70  C   UNL A   1      43.149  28.092  36.064  1.00  0.00     0.200 A 
ATOM     71  F   UNL A   1      42.091  26.387  34.822  1.00  0.00    -0.200 F 
ATOM     72  F   UNL A   1      42.915  27.428  37.205  1.00  0.00    -0.200 F 
ENDBRANCH  39  62
ENDBRANCH  13  14
ENDBRANCH   6   8
ENDBRANCH   5   6
ENDBRANCH   4   5
ENDBRANCH   3   4
ENDBRANCH   2   3
ENDBRANCH   1   2
BRANCH   1  73
ATOM     73  C   UNL A   1      44.993  21.980  24.610  1.00  0.00     0.261 C 
BRANCH  73  74
ATOM     74  O   UNL A   1      43.986  22.992  24.428  1.00  0.00    -0.463 OA
BRANCH  74  75
ATOM     75  C   UNL A   1      44.302  24.204  24.948  1.00  0.00     0.310 C 
ATOM     76  O   UNL A   1      43.555  25.176  24.921  1.00  0.00    -0.252 OA
BRANCH  75  77
ATOM     77  C   UNL A   1      45.619  24.227  25.695  1.00  0.00     0.119 C 
ATOM     78  C   UNL A   1      45.572  24.919  27.084  1.00  0.00     0.100 C 
ATOM     79  C   UNL A   1      46.827  24.918  25.026  1.00  0.00     0.027 C 
ATOM     80  C   UNL A   1      46.919  25.680  27.121  1.00  0.00     0.025 C 
ATOM     81  C   UNL A   1      46.697  26.422  24.980  1.00  0.00    -0.027 C 
ATOM     82  C   UNL A   1      47.819  24.854  26.179  1.00  0.00     0.017 C 
ATOM     83  C   UNL A   1      46.767  26.883  26.234  1.00  0.00    -0.027 C 
BRANCH  78  84
ATOM     84  C   UNL A   1      45.263  23.905  28.169  1.00  0.00     0.224 C 
ATOM     85  O   UNL A   1      45.150  22.714  27.859  1.00  0.00    -0.275 OA
ATOM     86  N   UNL A   1      45.182  24.168  29.493  1.00  0.00    -0.356 N 
ATOM     87  H   UNL A   1      45.157  23.353  30.044  1.00  0.00     0.163 HD
BRANCH  86  88
ATOM     88  C   UNL A   1      45.122  25.384  30.277  1.00  0.00     0.117 C 
BRANCH  88  89
ATOM     89  C   UNL A   1      44.332  25.194  31.567  1.00  0.00     0.043 C 
BRANCH  89  90
ATOM     90  C   UNL A   1      45.190  25.331  32.820  1.00  0.00     0.125 C 
BRANCH  90  91
ATOM     91  N   UNL A   1      44.696  24.502  33.903  1.00  0.00    -0.337 N 
ATOM     92  C   UNL A   1      45.055  24.597  35.217  1.00  0.00     0.107 A 
ATOM     93  C   UNL A   1      43.672  23.604  33.813  1.00  0.00     0.199 A 
ATOM     94  C   UNL A   1      44.180  23.769  35.881  1.00  0.00     0.130 A 
ATOM     95  N   UNL A   1      43.328  23.155  34.999  1.00  0.00    -0.245 NA
ENDBRANCH  90  91
ENDBRANCH  89  90
ENDBRANCH  88  89
ENDBRANCH  86  88
ENDBRANCH  78  84
ENDBRANCH  75  77
ENDBRANCH  74  75
ENDBRANCH  73  74
ENDBRANCH   1  73
TORSDOF 19
ENDMDL
