MODEL 1
REMARK VINA RESULT:     -11.9      0.000      0.000
REMARK SMILES Nc1oc2ccc(F)cc2c(=O)c1[C@@H]1[NH2+][C@H](C(=O)OCCOCCOC(=O)c2ccc(-c3c4nc(c(-c5c(F)c(F)c(F)c(F)c5F)c5ccc([nH]5)c(-c5c(F)c(F)c(F)c(F)c5F)c5nc(c(-c6c(F)c(F)c(F)c(F)c6F)c6ccc3[nH]6)C=C5)C=C4)cc2)CS1
REMARK SMILES IDX 22 1 21 2 20 3 19 4 17 5 18 6 16 7 14 8 15 9 92 10 91 13
REMARK SMILES IDX 13 14 2 15 3 16 4 17 11 18 5 19 10 20 12 21 6 22 9 23 7 24
REMARK SMILES IDX 8 25 1 26 23 29 24 30 25 31 26 32 27 33 28 34 29 35 90 36
REMARK SMILES IDX 30 37 89 38 31 39 32 40 33 41 83 42 34 43 88 44 82 45 84 46
REMARK SMILES IDX 35 47 87 48 81 49 80 50 36 52 68 53 48 54 67 55 49 56 52 57
REMARK SMILES IDX 66 58 85 59 50 60 51 61 65 63 86 64 53 65 37 66 38 67 46 68
REMARK SMILES IDX 39 69 40 70 44 71 47 72 41 73 42 74 45 75 43 76 69 77 70 78
REMARK SMILES IDX 78 79 71 80 72 81 76 82 79 83 73 84 74 85 77 86 75 87 54 88
REMARK SMILES IDX 55 89 63 90 56 91 57 92 61 93 64 94 58 95 59 96 62 97 60 98
REMARK H PARENT 15 11 15 12 1 27 1 28 84 51 52 62
REMARK Flexibility Score: inf
ROOT
ATOM      1  O   UNL A   1      30.651  29.649  24.345  1.00  0.00    -0.374 OA
ENDROOT
BRANCH   1   2
ATOM      2  C   UNL A   1      30.784  29.011  23.072  1.00  0.00     0.202 C 
BRANCH   2   3
ATOM      3  C   UNL A   1      32.124  28.328  22.805  1.00  0.00     0.261 C 
BRANCH   3   4
ATOM      4  O   UNL A   1      32.064  26.973  23.265  1.00  0.00    -0.459 OA
BRANCH   4   5
ATOM      5  C   UNL A   1      31.545  26.071  22.397  1.00  0.00     0.365 C 
ATOM      6  O   UNL A   1      31.886  25.964  21.221  1.00  0.00    -0.245 OA
BRANCH   5   7
ATOM      7  C   UNL A   1      30.569  25.092  23.062  1.00  0.00     0.304 C 
ATOM      8  C   UNL A   1      31.639  23.563  24.603  1.00  0.00     0.283 C 
ATOM      9  N   UNL A   1      31.084  23.710  23.253  1.00  0.00    -0.319 N 
ATOM     10  S   UNL A   1      30.756  24.702  25.703  1.00  0.00    -0.087 SA
ATOM     11  H   UNL A   1      30.322  23.044  23.127  1.00  0.00     0.348 HD
ATOM     12  H   UNL A   1      31.818  23.528  22.567  1.00  0.00     0.348 HD
ATOM     13  C   UNL A   1      30.022  25.664  24.363  1.00  0.00     0.153 C 
BRANCH   8  14
ATOM     14  C   UNL A   1      33.142  23.665  24.691  1.00  0.00     0.128 A 
ATOM     15  C   UNL A   1      33.905  24.691  25.133  1.00  0.00     0.205 A 
ATOM     16  O   UNL A   1      35.290  24.665  25.140  1.00  0.00    -0.440 OA
ATOM     17  C   UNL A   1      35.916  23.453  25.108  1.00  0.00     0.140 A 
ATOM     18  C   UNL A   1      33.858  22.412  24.299  1.00  0.00     0.205 A 
ATOM     19  C   UNL A   1      37.250  23.408  25.507  1.00  0.00     0.051 A 
ATOM     20  C   UNL A   1      35.265  22.300  24.699  1.00  0.00     0.068 A 
ATOM     21  O   UNL A   1      33.309  21.474  23.732  1.00  0.00    -0.288 OA
ATOM     22  C   UNL A   1      37.933  22.192  25.500  1.00  0.00     0.043 A 
ATOM     23  C   UNL A   1      35.937  21.075  24.691  1.00  0.00     0.055 A 
ATOM     24  C   UNL A   1      37.268  21.037  25.096  1.00  0.00     0.124 A 
ATOM     25  F   UNL A   1      37.931  19.875  25.070  1.00  0.00    -0.207 F 
BRANCH  15  26
ATOM     26  N   UNL A   1      33.431  25.869  25.633  1.00  0.00    -0.369 N 
ATOM     27  H   UNL A   1      32.466  26.060  25.611  1.00  0.00     0.159 HD
ATOM     28  H   UNL A   1      34.055  26.528  26.015  1.00  0.00     0.159 HD
ENDBRANCH  15  26
ENDBRANCH   8  14
ENDBRANCH   5   7
ENDBRANCH   4   5
ENDBRANCH   3   4
ENDBRANCH   2   3
ENDBRANCH   1   2
BRANCH   1  29
ATOM     29  C   UNL A   1      31.846  29.908  25.083  1.00  0.00     0.202 C 
BRANCH  29  30
ATOM     30  C   UNL A   1      31.769  30.963  26.196  1.00  0.00     0.261 C 
BRANCH  30  31
ATOM     31  O   UNL A   1      32.718  30.770  27.255  1.00  0.00    -0.460 OA
BRANCH  31  32
ATOM     32  C   UNL A   1      33.457  31.866  27.561  1.00  0.00     0.338 C 
ATOM     33  O   UNL A   1      33.087  33.026  27.596  1.00  0.00    -0.246 OA
BRANCH  32  34
ATOM     34  C   UNL A   1      34.806  31.449  27.993  1.00  0.00     0.060 A 
ATOM     35  C   UNL A   1      35.824  32.382  28.154  1.00  0.00     0.016 A 
ATOM     36  C   UNL A   1      35.019  30.106  28.329  1.00  0.00     0.016 A 
ATOM     37  C   UNL A   1      37.049  31.963  28.679  1.00  0.00     0.010 A 
ATOM     38  C   UNL A   1      36.251  29.691  28.851  1.00  0.00     0.010 A 
ATOM     39  C   UNL A   1      37.280  30.619  29.042  1.00  0.00    -0.014 A 
BRANCH  39  40
ATOM     40  C   UNL A   1      38.553  30.264  29.734  1.00  0.00     0.031 A 
ATOM     41  C   UNL A   1      38.915  30.794  31.093  1.00  0.00     0.074 A 
ATOM     42  C   UNL A   1      39.377  29.377  29.138  1.00  0.00     0.049 A 
ATOM     43  N   UNL A   1      39.832  30.354  31.922  1.00  0.00    -0.248 NA
ATOM     44  C   UNL A   1      38.153  31.942  31.607  1.00  0.00     0.031 C 
ATOM     45  C   UNL A   1      39.177  28.826  27.797  1.00  0.00     0.029 A 
ATOM     46  N   UNL A   1      40.522  28.763  29.584  1.00  0.00    -0.354 N 
ATOM     47  C   UNL A   1      39.717  31.124  33.070  1.00  0.00     0.074 A 
ATOM     48  C   UNL A   1      38.683  32.104  32.815  1.00  0.00     0.031 C 
ATOM     49  C   UNL A   1      40.127  27.912  27.553  1.00  0.00     0.029 A 
ATOM     50  C   UNL A   1      41.028  27.840  28.700  1.00  0.00     0.049 A 
ATOM     51  H   UNL A   1      40.939  28.964  30.453  1.00  0.00     0.167 HD
ATOM     52  C   UNL A   1      40.393  31.002  34.237  1.00  0.00     0.037 A 
ATOM     53  C   UNL A   1      42.093  27.020  28.795  1.00  0.00     0.037 A 
ATOM     54  C   UNL A   1      41.476  30.081  34.469  1.00  0.00     0.049 A 
ATOM     55  C   UNL A   1      42.907  27.004  30.057  1.00  0.00     0.074 A 
ATOM     56  C   UNL A   1      42.198  29.879  35.634  1.00  0.00     0.029 A 
ATOM     57  N   UNL A   1      42.024  29.243  33.511  1.00  0.00    -0.354 N 
ATOM     58  N   UNL A   1      42.693  27.638  31.184  1.00  0.00    -0.248 NA
ATOM     59  C   UNL A   1      44.114  26.163  30.062  1.00  0.00     0.031 C 
ATOM     60  C   UNL A   1      43.228  28.976  35.361  1.00  0.00     0.029 A 
ATOM     61  C   UNL A   1      43.114  28.569  34.043  1.00  0.00     0.049 A 
ATOM     62  H   UNL A   1      41.690  29.141  32.591  1.00  0.00     0.167 HD
ATOM     63  C   UNL A   1      43.721  27.258  32.035  1.00  0.00     0.074 A 
ATOM     64  C   UNL A   1      44.555  26.330  31.302  1.00  0.00     0.031 C 
ATOM     65  C   UNL A   1      43.946  27.649  33.312  1.00  0.00     0.037 A 
BRANCH  52  66
ATOM     66  C   UNL A   1      39.980  31.867  35.390  1.00  0.00     0.064 A 
ATOM     67  C   UNL A   1      40.556  33.133  35.575  1.00  0.00     0.173 A 
ATOM     68  C   UNL A   1      38.904  31.505  36.215  1.00  0.00     0.173 A 
ATOM     69  F   UNL A   1      41.588  33.522  34.811  1.00  0.00    -0.203 F 
ATOM     70  C   UNL A   1      40.064  34.009  36.539  1.00  0.00     0.198 A 
ATOM     71  C   UNL A   1      38.406  32.389  37.168  1.00  0.00     0.198 A 
ATOM     72  F   UNL A   1      38.312  30.310  36.067  1.00  0.00    -0.203 F 
ATOM     73  F   UNL A   1      40.627  35.215  36.697  1.00  0.00    -0.200 F 
ATOM     74  C   UNL A   1      38.982  33.642  37.327  1.00  0.00     0.200 A 
ATOM     75  F   UNL A   1      37.351  32.040  37.918  1.00  0.00    -0.200 F 
ATOM     76  F   UNL A   1      38.491  34.497  38.234  1.00  0.00    -0.200 F 
ENDBRANCH  52  66
BRANCH  53  77
ATOM     77  C   UNL A   1      42.432  26.132  27.651  1.00  0.00     0.064 A 
ATOM     78  C   UNL A   1      43.411  26.494  26.717  1.00  0.00     0.173 A 
ATOM     79  C   UNL A   1      41.800  24.890  27.490  1.00  0.00     0.173 A 
ATOM     80  F   UNL A   1      44.025  27.682  26.816  1.00  0.00    -0.203 F 
ATOM     81  C   UNL A   1      43.743  25.647  25.662  1.00  0.00     0.198 A 
ATOM     82  C   UNL A   1      42.156  24.030  26.454  1.00  0.00     0.198 A 
ATOM     83  F   UNL A   1      40.856  24.499  28.358  1.00  0.00    -0.203 F 
ATOM     84  F   UNL A   1      44.660  26.029  24.762  1.00  0.00    -0.200 F 
ATOM     85  C   UNL A   1      43.123  24.412  25.537  1.00  0.00     0.200 A 
ATOM     86  F   UNL A   1      41.565  22.833  26.347  1.00  0.00    -0.200 F 
ATOM     87  F   UNL A   1      43.455  23.591  24.531  1.00  0.00    -0.200 F 
ENDBRANCH  53  77
BRANCH  65  88
ATOM     88  C   UNL A   1      45.142  27.086  34.022  1.00  0.00     0.064 A 
ATOM     89  C   UNL A   1      46.377  27.751  34.007  1.00  0.00     0.173 A 
ATOM     90  C   UNL A   1      45.027  25.932  34.813  1.00  0.00     0.173 A 
ATOM     91  F   UNL A   1      46.541  28.851  33.257  1.00  0.00    -0.203 F 
ATOM     92  C   UNL A   1      47.451  27.282  34.758  1.00  0.00     0.198 A 
ATOM     93  C   UNL A   1      46.095  25.481  35.583  1.00  0.00     0.198 A 
ATOM     94  F   UNL A   1      43.864  25.264  34.868  1.00  0.00    -0.203 F 
ATOM     95  F   UNL A   1      48.627  27.923  34.716  1.00  0.00    -0.200 F 
ATOM     96  C   UNL A   1      47.306  26.157  35.556  1.00  0.00     0.200 A 
ATOM     97  F   UNL A   1      45.946  24.403  36.366  1.00  0.00    -0.200 F 
ATOM     98  F   UNL A   1      48.332  25.723  36.300  1.00  0.00    -0.200 F 
ENDBRANCH  65  88
ENDBRANCH  39  40
ENDBRANCH  32  34
ENDBRANCH  31  32
ENDBRANCH  30  31
ENDBRANCH  29  30
ENDBRANCH   1  29
TORSDOF 16
ENDMDL
MODEL 2
REMARK VINA RESULT:     -11.9      4.234      9.653
REMARK SMILES Nc1oc2ccc(F)cc2c(=O)c1[C@@H]1[NH2+][C@H](C(=O)OCCOCCOC(=O)c2ccc(-c3c4nc(c(-c5c(F)c(F)c(F)c(F)c5F)c5ccc([nH]5)c(-c5c(F)c(F)c(F)c(F)c5F)c5nc(c(-c6c(F)c(F)c(F)c(F)c6F)c6ccc3[nH]6)C=C5)C=C4)cc2)CS1
REMARK SMILES IDX 22 1 21 2 20 3 19 4 17 5 18 6 16 7 14 8 15 9 92 10 91 13
REMARK SMILES IDX 13 14 2 15 3 16 4 17 11 18 5 19 10 20 12 21 6 22 9 23 7 24
REMARK SMILES IDX 8 25 1 26 23 29 24 30 25 31 26 32 27 33 28 34 29 35 90 36
REMARK SMILES IDX 30 37 89 38 31 39 32 40 33 41 83 42 34 43 88 44 82 45 84 46
REMARK SMILES IDX 35 47 87 48 81 49 80 50 36 52 68 53 48 54 67 55 49 56 52 57
REMARK SMILES IDX 66 58 85 59 50 60 51 61 65 63 86 64 53 65 37 66 38 67 46 68
REMARK SMILES IDX 39 69 40 70 44 71 47 72 41 73 42 74 45 75 43 76 69 77 70 78
REMARK SMILES IDX 78 79 71 80 72 81 76 82 79 83 73 84 74 85 77 86 75 87 54 88
REMARK SMILES IDX 55 89 63 90 56 91 57 92 61 93 64 94 58 95 59 96 62 97 60 98
REMARK H PARENT 15 11 15 12 1 27 1 28 84 51 52 62
REMARK Flexibility Score: inf
ROOT
ATOM      1  O   UNL A   1      35.043  21.933  24.227  1.00  0.00    -0.374 OA
ENDROOT
BRANCH   1   2
ATOM      2  C   UNL A   1      34.597  21.043  25.254  1.00  0.00     0.202 C 
BRANCH   2   3
ATOM      3  C   UNL A   1      33.256  21.389  25.900  1.00  0.00     0.261 C 
BRANCH   3   4
ATOM      4  O   UNL A   1      32.789  22.639  25.380  1.00  0.00    -0.459 OA
BRANCH   4   5
ATOM      5  C   UNL A   1      31.446  22.763  25.243  1.00  0.00     0.365 C 
ATOM      6  O   UNL A   1      30.641  22.632  26.161  1.00  0.00    -0.245 OA
BRANCH   5   7
ATOM      7  C   UNL A   1      31.027  23.217  23.838  1.00  0.00     0.304 C 
ATOM      8  C   UNL A   1      31.649  25.502  23.340  1.00  0.00     0.283 C 
ATOM      9  N   UNL A   1      30.546  24.621  23.740  1.00  0.00    -0.319 N 
ATOM     10  S   UNL A   1      32.809  24.534  22.338  1.00  0.00    -0.087 SA
ATOM     11  H   UNL A   1      29.801  24.676  23.047  1.00  0.00     0.348 HD
ATOM     12  H   UNL A   1      30.193  24.919  24.650  1.00  0.00     0.348 HD
ATOM     13  C   UNL A   1      32.125  22.935  22.822  1.00  0.00     0.153 C 
BRANCH   8  14
ATOM     14  C   UNL A   1      32.299  26.266  24.467  1.00  0.00     0.128 A 
ATOM     15  C   UNL A   1      33.488  26.048  25.074  1.00  0.00     0.205 A 
ATOM     16  O   UNL A   1      33.963  26.819  26.123  1.00  0.00    -0.440 OA
ATOM     17  C   UNL A   1      33.451  28.072  26.290  1.00  0.00     0.140 A 
ATOM     18  C   UNL A   1      31.531  27.474  24.901  1.00  0.00     0.205 A 
ATOM     19  C   UNL A   1      34.185  28.967  27.066  1.00  0.00     0.051 A 
ATOM     20  C   UNL A   1      32.252  28.460  25.715  1.00  0.00     0.068 A 
ATOM     21  O   UNL A   1      30.376  27.697  24.555  1.00  0.00    -0.288 OA
ATOM     22  C   UNL A   1      33.709  30.263  27.261  1.00  0.00     0.043 A 
ATOM     23  C   UNL A   1      31.767  29.757  25.900  1.00  0.00     0.055 A 
ATOM     24  C   UNL A   1      32.507  30.647  26.672  1.00  0.00     0.124 A 
ATOM     25  F   UNL A   1      32.042  31.884  26.877  1.00  0.00    -0.207 F 
BRANCH  15  26
ATOM     26  N   UNL A   1      34.375  25.066  24.742  1.00  0.00    -0.369 N 
ATOM     27  H   UNL A   1      34.324  24.187  25.182  1.00  0.00     0.159 HD
ATOM     28  H   UNL A   1      35.066  25.237  24.061  1.00  0.00     0.159 HD
ENDBRANCH  15  26
ENDBRANCH   8  14
ENDBRANCH   5   7
ENDBRANCH   4   5
ENDBRANCH   3   4
ENDBRANCH   2   3
ENDBRANCH   1   2
BRANCH   1  29
ATOM     29  C   UNL A   1      36.447  22.171  24.121  1.00  0.00     0.202 C 
BRANCH  29  30
ATOM     30  C   UNL A   1      37.386  21.056  24.602  1.00  0.00     0.261 C 
BRANCH  30  31
ATOM     31  O   UNL A   1      37.833  21.209  25.958  1.00  0.00    -0.460 OA
BRANCH  31  32
ATOM     32  C   UNL A   1      39.174  21.098  26.129  1.00  0.00     0.338 C 
ATOM     33  O   UNL A   1      39.894  20.180  25.779  1.00  0.00    -0.246 OA
BRANCH  32  34
ATOM     34  C   UNL A   1      39.706  22.347  26.708  1.00  0.00     0.060 A 
ATOM     35  C   UNL A   1      40.782  22.325  27.587  1.00  0.00     0.016 A 
ATOM     36  C   UNL A   1      39.163  23.568  26.285  1.00  0.00     0.016 A 
ATOM     37  C   UNL A   1      41.329  23.537  28.017  1.00  0.00     0.010 A 
ATOM     38  C   UNL A   1      39.713  24.779  26.723  1.00  0.00     0.010 A 
ATOM     39  C   UNL A   1      40.812  24.779  27.589  1.00  0.00    -0.014 A 
BRANCH  39  40
ATOM     40  C   UNL A   1      41.531  26.031  27.965  1.00  0.00     0.031 A 
ATOM     41  C   UNL A   1      42.948  26.310  27.551  1.00  0.00     0.074 A 
ATOM     42  C   UNL A   1      40.851  26.976  28.647  1.00  0.00     0.049 A 
ATOM     43  N   UNL A   1      43.590  27.455  27.558  1.00  0.00    -0.248 NA
ATOM     44  C   UNL A   1      43.750  25.185  27.047  1.00  0.00     0.031 C 
ATOM     45  C   UNL A   1      39.489  26.817  29.159  1.00  0.00     0.029 A 
ATOM     46  N   UNL A   1      41.192  28.259  29.000  1.00  0.00    -0.354 N 
ATOM     47  C   UNL A   1      44.838  27.202  27.008  1.00  0.00     0.074 A 
ATOM     48  C   UNL A   1      44.894  25.783  26.732  1.00  0.00     0.031 C 
ATOM     49  C   UNL A   1      39.088  27.973  29.705  1.00  0.00     0.029 A 
ATOM     50  C   UNL A   1      40.174  28.945  29.620  1.00  0.00     0.049 A 
ATOM     51  H   UNL A   1      42.078  28.650  28.825  1.00  0.00     0.167 HD
ATOM     52  C   UNL A   1      45.830  28.082  26.733  1.00  0.00     0.037 A 
ATOM     53  C   UNL A   1      40.111  30.214  30.068  1.00  0.00     0.037 A 
ATOM     54  C   UNL A   1      45.809  29.481  27.078  1.00  0.00     0.049 A 
ATOM     55  C   UNL A   1      41.284  31.130  29.868  1.00  0.00     0.074 A 
ATOM     56  C   UNL A   1      46.767  30.445  26.812  1.00  0.00     0.029 A 
ATOM     57  N   UNL A   1      44.806  30.106  27.801  1.00  0.00    -0.354 N 
ATOM     58  N   UNL A   1      42.400  30.911  29.216  1.00  0.00    -0.248 NA
ATOM     59  C   UNL A   1      41.194  32.471  30.467  1.00  0.00     0.031 C 
ATOM     60  C   UNL A   1      46.380  31.633  27.437  1.00  0.00     0.029 A 
ATOM     61  C   UNL A   1      45.152  31.427  28.042  1.00  0.00     0.049 A 
ATOM     62  H   UNL A   1      43.972  29.676  28.098  1.00  0.00     0.167 HD
ATOM     63  C   UNL A   1      43.132  32.086  29.308  1.00  0.00     0.074 A 
ATOM     64  C   UNL A   1      42.333  33.023  30.070  1.00  0.00     0.031 C 
ATOM     65  C   UNL A   1      44.358  32.357  28.803  1.00  0.00     0.037 A 
BRANCH  52  66
ATOM     66  C   UNL A   1      47.036  27.583  25.994  1.00  0.00     0.064 A 
ATOM     67  C   UNL A   1      47.095  27.655  24.594  1.00  0.00     0.173 A 
ATOM     68  C   UNL A   1      48.190  27.184  26.684  1.00  0.00     0.173 A 
ATOM     69  F   UNL A   1      46.015  28.030  23.892  1.00  0.00    -0.203 F 
ATOM     70  C   UNL A   1      48.270  27.352  23.912  1.00  0.00     0.198 A 
ATOM     71  C   UNL A   1      49.367  26.895  25.998  1.00  0.00     0.198 A 
ATOM     72  F   UNL A   1      48.186  27.113  28.023  1.00  0.00    -0.203 F 
ATOM     73  F   UNL A   1      48.306  27.430  22.574  1.00  0.00    -0.200 F 
ATOM     74  C   UNL A   1      49.408  26.984  24.614  1.00  0.00     0.200 A 
ATOM     75  F   UNL A   1      50.471  26.554  26.679  1.00  0.00    -0.200 F 
ATOM     76  F   UNL A   1      50.547  26.721  23.958  1.00  0.00    -0.200 F 
ENDBRANCH  52  66
BRANCH  53  77
ATOM     77  C   UNL A   1      38.873  30.688  30.740  1.00  0.00     0.064 A 
ATOM     78  C   UNL A   1      38.710  30.573  32.126  1.00  0.00     0.173 A 
ATOM     79  C   UNL A   1      37.841  31.292  30.007  1.00  0.00     0.173 A 
ATOM     80  F   UNL A   1      39.658  29.982  32.867  1.00  0.00    -0.203 F 
ATOM     81  C   UNL A   1      37.558  31.043  32.754  1.00  0.00     0.198 A 
ATOM     82  C   UNL A   1      36.704  31.789  30.639  1.00  0.00     0.198 A 
ATOM     83  F   UNL A   1      37.949  31.424  28.677  1.00  0.00    -0.203 F 
ATOM     84  F   UNL A   1      37.410  30.892  34.078  1.00  0.00    -0.200 F 
ATOM     85  C   UNL A   1      36.561  31.659  32.012  1.00  0.00     0.200 A 
ATOM     86  F   UNL A   1      35.752  32.398  29.920  1.00  0.00    -0.200 F 
ATOM     87  F   UNL A   1      35.461  32.125  32.619  1.00  0.00    -0.200 F 
ENDBRANCH  53  77
BRANCH  65  88
ATOM     88  C   UNL A   1      44.937  33.720  29.046  1.00  0.00     0.064 A 
ATOM     89  C   UNL A   1      45.810  33.960  30.117  1.00  0.00     0.173 A 
ATOM     90  C   UNL A   1      44.704  34.767  28.141  1.00  0.00     0.173 A 
ATOM     91  F   UNL A   1      46.055  32.995  31.016  1.00  0.00    -0.203 F 
ATOM     92  C   UNL A   1      46.429  35.197  30.272  1.00  0.00     0.198 A 
ATOM     93  C   UNL A   1      45.346  35.995  28.284  1.00  0.00     0.198 A 
ATOM     94  F   UNL A   1      43.884  34.586  27.095  1.00  0.00    -0.203 F 
ATOM     95  F   UNL A   1      47.247  35.410  31.312  1.00  0.00    -0.200 F 
ATOM     96  C   UNL A   1      46.208  36.208  29.349  1.00  0.00     0.200 A 
ATOM     97  F   UNL A   1      45.143  36.964  27.380  1.00  0.00    -0.200 F 
ATOM     98  F   UNL A   1      46.827  37.389  29.483  1.00  0.00    -0.200 F 
ENDBRANCH  65  88
ENDBRANCH  39  40
ENDBRANCH  32  34
ENDBRANCH  31  32
ENDBRANCH  30  31
ENDBRANCH  29  30
ENDBRANCH   1  29
TORSDOF 16
ENDMDL
MODEL 3
REMARK VINA RESULT:     -11.8      2.028      3.922
REMARK SMILES Nc1oc2ccc(F)cc2c(=O)c1[C@@H]1[NH2+][C@H](C(=O)OCCOCCOC(=O)c2ccc(-c3c4nc(c(-c5c(F)c(F)c(F)c(F)c5F)c5ccc([nH]5)c(-c5c(F)c(F)c(F)c(F)c5F)c5nc(c(-c6c(F)c(F)c(F)c(F)c6F)c6ccc3[nH]6)C=C5)C=C4)cc2)CS1
REMARK SMILES IDX 22 1 21 2 20 3 19 4 17 5 18 6 16 7 14 8 15 9 92 10 91 13
REMARK SMILES IDX 13 14 2 15 3 16 4 17 11 18 5 19 10 20 12 21 6 22 9 23 7 24
REMARK SMILES IDX 8 25 1 26 23 29 24 30 25 31 26 32 27 33 28 34 29 35 90 36
REMARK SMILES IDX 30 37 89 38 31 39 32 40 33 41 83 42 34 43 88 44 82 45 84 46
REMARK SMILES IDX 35 47 87 48 81 49 80 50 36 52 68 53 48 54 67 55 49 56 52 57
REMARK SMILES IDX 66 58 85 59 50 60 51 61 65 63 86 64 53 65 37 66 38 67 46 68
REMARK SMILES IDX 39 69 40 70 44 71 47 72 41 73 42 74 45 75 43 76 69 77 70 78
REMARK SMILES IDX 78 79 71 80 72 81 76 82 79 83 73 84 74 85 77 86 75 87 54 88
REMARK SMILES IDX 55 89 63 90 56 91 57 92 61 93 64 94 58 95 59 96 62 97 60 98
REMARK H PARENT 15 11 15 12 1 27 1 28 84 51 52 62
REMARK Flexibility Score: inf
ROOT
ATOM      1  O   UNL A   1      33.658  28.885  25.337  1.00  0.00    -0.374 OA
ENDROOT
BRANCH   1   2
ATOM      2  C   UNL A   1      33.639  27.475  25.098  1.00  0.00     0.202 C 
BRANCH   2   3
ATOM      3  C   UNL A   1      32.872  26.636  26.119  1.00  0.00     0.261 C 
BRANCH   3   4
ATOM      4  O   UNL A   1      33.039  25.247  25.810  1.00  0.00    -0.459 OA
BRANCH   4   5
ATOM      5  C   UNL A   1      32.053  24.419  26.236  1.00  0.00     0.365 C 
ATOM      6  O   UNL A   1      31.385  24.601  27.251  1.00  0.00    -0.245 OA
BRANCH   5   7
ATOM      7  C   UNL A   1      31.756  23.283  25.248  1.00  0.00     0.304 C 
ATOM      8  C   UNL A   1      31.199  24.063  23.025  1.00  0.00     0.283 C 
ATOM      9  N   UNL A   1      30.653  23.549  24.286  1.00  0.00    -0.319 N 
ATOM     10  S   UNL A   1      32.868  23.386  22.816  1.00  0.00    -0.087 SA
ATOM     11  H   UNL A   1      30.145  22.683  24.107  1.00  0.00     0.348 HD
ATOM     12  H   UNL A   1      30.020  24.243  24.685  1.00  0.00     0.348 HD
ATOM     13  C   UNL A   1      33.023  22.838  24.529  1.00  0.00     0.153 C 
BRANCH   8  14
ATOM     14  C   UNL A   1      31.117  25.560  22.857  1.00  0.00     0.128 A 
ATOM     15  C   UNL A   1      31.892  26.381  22.110  1.00  0.00     0.205 A 
ATOM     16  O   UNL A   1      31.722  27.755  22.059  1.00  0.00    -0.440 OA
ATOM     17  C   UNL A   1      30.511  28.272  22.417  1.00  0.00     0.140 A 
ATOM     18  C   UNL A   1      29.959  26.187  23.567  1.00  0.00     0.205 A 
ATOM     19  C   UNL A   1      30.217  29.568  21.999  1.00  0.00     0.051 A 
ATOM     20  C   UNL A   1      29.595  27.550  23.164  1.00  0.00     0.068 A 
ATOM     21  O   UNL A   1      29.282  25.595  24.400  1.00  0.00    -0.288 OA
ATOM     22  C   UNL A   1      28.990  30.140  22.331  1.00  0.00     0.043 A 
ATOM     23  C   UNL A   1      28.360  28.111  23.501  1.00  0.00     0.055 A 
ATOM     24  C   UNL A   1      28.071  29.404  23.075  1.00  0.00     0.124 A 
ATOM     25  F   UNL A   1      26.903  29.962  23.412  1.00  0.00    -0.207 F 
BRANCH  15  26
ATOM     26  N   UNL A   1      32.922  25.981  21.309  1.00  0.00    -0.369 N 
ATOM     27  H   UNL A   1      33.832  26.317  21.474  1.00  0.00     0.159 HD
ATOM     28  H   UNL A   1      32.755  25.356  20.567  1.00  0.00     0.159 HD
ENDBRANCH  15  26
ENDBRANCH   8  14
ENDBRANCH   5   7
ENDBRANCH   4   5
ENDBRANCH   3   4
ENDBRANCH   2   3
ENDBRANCH   1   2
BRANCH   1  29
ATOM     29  C   UNL A   1      32.570  29.656  24.826  1.00  0.00     0.202 C 
BRANCH  29  30
ATOM     30  C   UNL A   1      31.776  30.502  25.832  1.00  0.00     0.261 C 
BRANCH  30  31
ATOM     31  O   UNL A   1      32.382  30.594  27.130  1.00  0.00    -0.460 OA
BRANCH  31  32
ATOM     32  C   UNL A   1      33.100  31.726  27.342  1.00  0.00     0.338 C 
ATOM     33  O   UNL A   1      32.715  32.878  27.250  1.00  0.00    -0.246 OA
BRANCH  32  34
ATOM     34  C   UNL A   1      34.441  31.375  27.847  1.00  0.00     0.060 A 
ATOM     35  C   UNL A   1      35.418  32.350  28.017  1.00  0.00     0.016 A 
ATOM     36  C   UNL A   1      34.687  30.053  28.241  1.00  0.00     0.016 A 
ATOM     37  C   UNL A   1      36.632  31.995  28.610  1.00  0.00     0.010 A 
ATOM     38  C   UNL A   1      35.908  29.703  28.831  1.00  0.00     0.010 A 
ATOM     39  C   UNL A   1      36.894  30.675  29.032  1.00  0.00    -0.014 A 
BRANCH  39  40
ATOM     40  C   UNL A   1      38.147  30.392  29.791  1.00  0.00     0.031 A 
ATOM     41  C   UNL A   1      38.409  30.944  31.164  1.00  0.00     0.074 A 
ATOM     42  C   UNL A   1      39.048  29.550  29.243  1.00  0.00     0.049 A 
ATOM     43  N   UNL A   1      39.304  30.557  32.042  1.00  0.00    -0.248 NA
ATOM     44  C   UNL A   1      37.559  32.050  31.631  1.00  0.00     0.031 C 
ATOM     45  C   UNL A   1      38.949  28.985  27.897  1.00  0.00     0.029 A 
ATOM     46  N   UNL A   1      40.200  29.000  29.752  1.00  0.00    -0.354 N 
ATOM     47  C   UNL A   1      39.087  31.323  33.178  1.00  0.00     0.074 A 
ATOM     48  C   UNL A   1      38.016  32.244  32.864  1.00  0.00     0.031 C 
ATOM     49  C   UNL A   1      39.959  28.124  27.708  1.00  0.00     0.029 A 
ATOM     50  C   UNL A   1      40.801  28.104  28.900  1.00  0.00     0.049 A 
ATOM     51  H   UNL A   1      40.560  29.226  30.640  1.00  0.00     0.167 HD
ATOM     52  C   UNL A   1      39.706  31.241  34.379  1.00  0.00     0.037 A 
ATOM     53  C   UNL A   1      41.902  27.344  29.054  1.00  0.00     0.037 A 
ATOM     54  C   UNL A   1      40.825  30.381  34.672  1.00  0.00     0.049 A 
ATOM     55  C   UNL A   1      42.650  27.376  30.357  1.00  0.00     0.074 A 
ATOM     56  C   UNL A   1      41.495  30.222  35.874  1.00  0.00     0.029 A 
ATOM     57  N   UNL A   1      41.467  29.572  33.748  1.00  0.00    -0.354 N 
ATOM     58  N   UNL A   1      42.343  28.000  31.468  1.00  0.00    -0.248 NA
ATOM     59  C   UNL A   1      43.899  26.602  30.429  1.00  0.00     0.031 C 
ATOM     60  C   UNL A   1      42.586  29.376  35.660  1.00  0.00     0.029 A 
ATOM     61  C   UNL A   1      42.563  28.960  34.340  1.00  0.00     0.049 A 
ATOM     62  H   UNL A   1      41.187  29.450  32.813  1.00  0.00     0.167 HD
ATOM     63  C   UNL A   1      43.344  27.679  32.373  1.00  0.00     0.074 A 
ATOM     64  C   UNL A   1      44.265  26.797  31.689  1.00  0.00     0.031 C 
ATOM     65  C   UNL A   1      43.481  28.085  33.658  1.00  0.00     0.037 A 
BRANCH  52  66
ATOM     66  C   UNL A   1      39.187  32.085  35.505  1.00  0.00     0.064 A 
ATOM     67  C   UNL A   1      38.295  31.548  36.445  1.00  0.00     0.173 A 
ATOM     68  C   UNL A   1      39.697  33.370  35.738  1.00  0.00     0.173 A 
ATOM     69  F   UNL A   1      37.780  30.323  36.263  1.00  0.00    -0.203 F 
ATOM     70  C   UNL A   1      37.938  32.266  37.584  1.00  0.00     0.198 A 
ATOM     71  C   UNL A   1      39.349  34.080  36.885  1.00  0.00     0.198 A 
ATOM     72  F   UNL A   1      40.563  33.920  34.874  1.00  0.00    -0.203 F 
ATOM     73  F   UNL A   1      37.086  31.734  38.471  1.00  0.00    -0.200 F 
ATOM     74  C   UNL A   1      38.474  33.526  37.809  1.00  0.00     0.200 A 
ATOM     75  F   UNL A   1      39.879  35.290  37.109  1.00  0.00    -0.200 F 
ATOM     76  F   UNL A   1      38.153  34.204  38.919  1.00  0.00    -0.200 F 
ENDBRANCH  52  66
BRANCH  53  77
ATOM     77  C   UNL A   1      42.349  26.473  27.935  1.00  0.00     0.064 A 
ATOM     78  C   UNL A   1      41.833  25.182  27.769  1.00  0.00     0.173 A 
ATOM     79  C   UNL A   1      43.281  26.932  26.992  1.00  0.00     0.173 A 
ATOM     80  F   UNL A   1      40.958  24.690  28.659  1.00  0.00    -0.203 F 
ATOM     81  C   UNL A   1      42.236  24.380  26.704  1.00  0.00     0.198 A 
ATOM     82  C   UNL A   1      43.658  26.142  25.909  1.00  0.00     0.198 A 
ATOM     83  F   UNL A   1      43.803  28.161  27.107  1.00  0.00    -0.203 F 
ATOM     84  F   UNL A   1      41.754  23.135  26.585  1.00  0.00    -0.200 F 
ATOM     85  C   UNL A   1      43.139  24.864  25.769  1.00  0.00     0.200 A 
ATOM     86  F   UNL A   1      44.519  26.620  25.001  1.00  0.00    -0.200 F 
ATOM     87  F   UNL A   1      43.514  24.098  24.735  1.00  0.00    -0.200 F 
ENDBRANCH  53  77
BRANCH  65  88
ATOM     88  C   UNL A   1      44.667  27.590  34.433  1.00  0.00     0.064 A 
ATOM     89  C   UNL A   1      45.836  28.358  34.543  1.00  0.00     0.173 A 
ATOM     90  C   UNL A   1      44.597  26.392  35.159  1.00  0.00     0.173 A 
ATOM     91  F   UNL A   1      45.956  29.506  33.858  1.00  0.00    -0.203 F 
ATOM     92  C   UNL A   1      46.890  27.944  35.353  1.00  0.00     0.198 A 
ATOM     93  C   UNL A   1      45.643  25.994  35.988  1.00  0.00     0.198 A 
ATOM     94  F   UNL A   1      43.498  25.625  35.094  1.00  0.00    -0.203 F 
ATOM     95  F   UNL A   1      48.004  28.685  35.431  1.00  0.00    -0.200 F 
ATOM     96  C   UNL A   1      46.787  26.771  36.085  1.00  0.00     0.200 A 
ATOM     97  F   UNL A   1      45.534  24.869  36.708  1.00  0.00    -0.200 F 
ATOM     98  F   UNL A   1      47.791  26.388  36.886  1.00  0.00    -0.200 F 
ENDBRANCH  65  88
ENDBRANCH  39  40
ENDBRANCH  32  34
ENDBRANCH  31  32
ENDBRANCH  30  31
ENDBRANCH  29  30
ENDBRANCH   1  29
TORSDOF 16
ENDMDL
