MODEL 1
REMARK VINA RESULT:     -11.2      0.000      0.000
REMARK SMILES C[C@H](C[N@H+](C)[C@H]1CC[C@H]([NH3+])CC1)C(=O)OCCOCCOC(=O)c1ccc(-c2c3nc(c(-c4c(F)c(F)c(F)c(F)c4F)c4ccc([nH]4)c(-c4c(F)c(F)c(F)c(F)c4F)c4nc(c(-c5c(F)c(F)c(F)c(F)c5F)c5ccc2[nH]5)C=C4)C=C3)cc1
REMARK SMILES IDX 17 1 16 2 15 3 13 4 14 5 2 6 1 7 3 8 4 9 5 10 6 12 7 13
REMARK SMILES IDX 12 14 8 15 11 16 9 17 10 18 18 22 19 23 20 24 21 25 22 26
REMARK SMILES IDX 23 27 24 28 25 29 86 30 26 31 85 32 27 33 28 34 29 35 79 36
REMARK SMILES IDX 30 37 84 38 78 39 80 40 31 41 83 42 77 43 76 44 32 46 64 47
REMARK SMILES IDX 44 48 63 49 45 50 48 51 62 52 81 53 46 54 47 55 61 57 82 58
REMARK SMILES IDX 49 59 33 60 34 61 42 62 35 63 36 64 40 65 43 66 37 67 38 68
REMARK SMILES IDX 41 69 39 70 65 71 66 72 74 73 67 74 68 75 72 76 75 77 69 78
REMARK SMILES IDX 70 79 73 80 71 81 50 82 51 83 59 84 52 85 53 86 57 87 60 88
REMARK SMILES IDX 54 89 55 90 58 91 56 92
REMARK H PARENT 4 11 10 19 10 20 10 21 80 45 48 56
REMARK Flexibility Score: inf
ROOT
ATOM      1  C   UNL A   1      40.759  20.563  26.858  1.00  0.00     0.202 C 
ENDROOT
BRANCH   1   2
ATOM      2  C   UNL A   1      39.947  21.803  26.465  1.00  0.00     0.261 C 
BRANCH   2   3
ATOM      3  O   UNL A   1      38.795  21.416  25.699  1.00  0.00    -0.463 OA
BRANCH   3   4
ATOM      4  C   UNL A   1      37.822  22.338  25.495  1.00  0.00     0.314 C 
ATOM      5  O   UNL A   1      37.881  23.489  25.907  1.00  0.00    -0.252 OA
BRANCH   4   6
ATOM      6  C   UNL A   1      36.697  21.790  24.605  1.00  0.00     0.151 C 
ATOM      7  C   UNL A   1      36.332  22.772  23.494  1.00  0.00     0.026 C 
BRANCH   6   8
ATOM      8  C   UNL A   1      35.450  21.211  25.321  1.00  0.00     0.277 C 
BRANCH   8   9
ATOM      9  N   UNL A   1      34.206  20.875  24.616  1.00  0.00    -0.334 N 
ATOM     10  C   UNL A   1      33.116  21.820  24.739  1.00  0.00     0.332 C 
ATOM     11  H   UNL A   1      34.458  21.030  23.640  1.00  0.00     0.348 HD
BRANCH   9  12
ATOM     12  C   UNL A   1      33.857  19.464  24.616  1.00  0.00     0.184 C 
ATOM     13  C   UNL A   1      32.906  19.106  25.750  1.00  0.00     0.071 C 
ATOM     14  C   UNL A   1      35.008  18.446  24.628  1.00  0.00     0.071 C 
ATOM     15  C   UNL A   1      32.280  17.770  25.370  1.00  0.00     0.071 C 
ATOM     16  C   UNL A   1      34.497  17.030  24.359  1.00  0.00     0.071 C 
ATOM     17  C   UNL A   1      33.299  16.639  25.224  1.00  0.00     0.181 C 
BRANCH  17  18
ATOM     18  N   UNL A   1      32.662  15.455  24.641  1.00  0.00    -0.355 N 
ATOM     19  H   UNL A   1      33.370  14.872  24.195  1.00  0.00     0.344 HD
ATOM     20  H   UNL A   1      31.975  15.747  23.945  1.00  0.00     0.344 HD
ATOM     21  H   UNL A   1      32.196  14.923  25.376  1.00  0.00     0.344 HD
ENDBRANCH  17  18
ENDBRANCH   9  12
ENDBRANCH   8   9
ENDBRANCH   6   8
ENDBRANCH   4   6
ENDBRANCH   3   4
ENDBRANCH   2   3
ENDBRANCH   1   2
BRANCH   1  22
ATOM     22  O   UNL A   1      42.161  20.773  27.022  1.00  0.00    -0.374 OA
BRANCH  22  23
ATOM     23  C   UNL A   1      43.012  20.363  25.956  1.00  0.00     0.202 C 
BRANCH  23  24
ATOM     24  C   UNL A   1      43.812  21.460  25.234  1.00  0.00     0.261 C 
BRANCH  24  25
ATOM     25  O   UNL A   1      43.068  22.633  24.844  1.00  0.00    -0.460 OA
BRANCH  25  26
ATOM     26  C   UNL A   1      43.760  23.799  24.903  1.00  0.00     0.338 C 
ATOM     27  O   UNL A   1      44.750  24.101  24.249  1.00  0.00    -0.246 OA
BRANCH  26  28
ATOM     28  C   UNL A   1      43.138  24.755  25.846  1.00  0.00     0.060 A 
ATOM     29  C   UNL A   1      43.701  26.032  25.987  1.00  0.00     0.016 A 
ATOM     30  C   UNL A   1      42.069  24.377  26.663  1.00  0.00     0.016 A 
ATOM     31  C   UNL A   1      43.192  26.936  26.933  1.00  0.00     0.010 A 
ATOM     32  C   UNL A   1      41.565  25.280  27.615  1.00  0.00     0.010 A 
ATOM     33  C   UNL A   1      42.124  26.568  27.766  1.00  0.00    -0.014 A 
BRANCH  33  34
ATOM     34  C   UNL A   1      41.675  27.451  28.884  1.00  0.00     0.031 A 
ATOM     35  C   UNL A   1      42.377  27.331  30.207  1.00  0.00     0.074 A 
ATOM     36  C   UNL A   1      40.656  28.329  28.770  1.00  0.00     0.049 A 
ATOM     37  N   UNL A   1      42.142  27.960  31.330  1.00  0.00    -0.248 NA
ATOM     38  C   UNL A   1      43.505  26.388  30.268  1.00  0.00     0.031 C 
ATOM     39  C   UNL A   1      39.924  28.622  27.548  1.00  0.00     0.029 A 
ATOM     40  N   UNL A   1      40.037  29.130  29.705  1.00  0.00    -0.354 N 
ATOM     41  C   UNL A   1      43.103  27.508  32.221  1.00  0.00     0.074 A 
ATOM     42  C   UNL A   1      43.893  26.514  31.528  1.00  0.00     0.031 C 
ATOM     43  C   UNL A   1      38.910  29.460  27.806  1.00  0.00     0.029 A 
ATOM     44  C   UNL A   1      38.933  29.797  29.221  1.00  0.00     0.049 A 
ATOM     45  H   UNL A   1      40.355  29.217  30.633  1.00  0.00     0.167 HD
ATOM     46  C   UNL A   1      43.321  27.903  33.497  1.00  0.00     0.037 A 
ATOM     47  C   UNL A   1      38.036  30.592  29.837  1.00  0.00     0.037 A 
ATOM     48  C   UNL A   1      42.531  28.882  34.197  1.00  0.00     0.049 A 
ATOM     49  C   UNL A   1      38.239  30.932  31.287  1.00  0.00     0.074 A 
ATOM     50  C   UNL A   1      42.706  29.367  35.481  1.00  0.00     0.029 A 
ATOM     51  N   UNL A   1      41.406  29.508  33.682  1.00  0.00    -0.354 N 
ATOM     52  N   UNL A   1      39.200  30.557  32.094  1.00  0.00    -0.248 NA
ATOM     53  C   UNL A   1      37.253  31.829  31.905  1.00  0.00     0.031 C 
ATOM     54  C   UNL A   1      41.650  30.238  35.767  1.00  0.00     0.029 A 
ATOM     55  C   UNL A   1      40.853  30.344  34.640  1.00  0.00     0.049 A 
ATOM     56  H   UNL A   1      41.053  29.378  32.772  1.00  0.00     0.167 HD
ATOM     57  C   UNL A   1      38.960  31.205  33.297  1.00  0.00     0.074 A 
ATOM     58  C   UNL A   1      37.769  32.007  33.113  1.00  0.00     0.031 C 
ATOM     59  C   UNL A   1      39.669  31.142  34.450  1.00  0.00     0.037 A 
BRANCH  46  60
ATOM     60  C   UNL A   1      44.461  27.265  34.229  1.00  0.00     0.064 A 
ATOM     61  C   UNL A   1      44.297  26.069  34.943  1.00  0.00     0.173 A 
ATOM     62  C   UNL A   1      45.743  27.830  34.174  1.00  0.00     0.173 A 
ATOM     63  F   UNL A   1      43.087  25.499  35.039  1.00  0.00    -0.203 F 
ATOM     64  C   UNL A   1      45.375  25.469  35.588  1.00  0.00     0.198 A 
ATOM     65  C   UNL A   1      46.824  27.212  34.796  1.00  0.00     0.198 A 
ATOM     66  F   UNL A   1      45.950  28.973  33.504  1.00  0.00    -0.203 F 
ATOM     67  F   UNL A   1      45.189  24.346  36.296  1.00  0.00    -0.200 F 
ATOM     68  C   UNL A   1      46.639  26.035  35.506  1.00  0.00     0.200 A 
ATOM     69  F   UNL A   1      48.046  27.755  34.705  1.00  0.00    -0.200 F 
ATOM     70  F   UNL A   1      47.678  25.449  36.115  1.00  0.00    -0.200 F 
ENDBRANCH  46  60
BRANCH  47  71
ATOM     71  C   UNL A   1      36.868  31.139  29.090  1.00  0.00     0.064 A 
ATOM     72  C   UNL A   1      36.792  32.497  28.751  1.00  0.00     0.173 A 
ATOM     73  C   UNL A   1      35.777  30.323  28.754  1.00  0.00     0.173 A 
ATOM     74  F   UNL A   1      37.798  33.323  29.072  1.00  0.00    -0.203 F 
ATOM     75  C   UNL A   1      35.656  33.026  28.139  1.00  0.00     0.198 A 
ATOM     76  C   UNL A   1      34.654  30.848  28.115  1.00  0.00     0.198 A 
ATOM     77  F   UNL A   1      35.796  29.017  29.055  1.00  0.00    -0.203 F 
ATOM     78  F   UNL A   1      35.584  34.341  27.889  1.00  0.00    -0.200 F 
ATOM     79  C   UNL A   1      34.589  32.201  27.821  1.00  0.00     0.200 A 
ATOM     80  F   UNL A   1      33.627  30.045  27.802  1.00  0.00    -0.200 F 
ATOM     81  F   UNL A   1      33.492  32.713  27.246  1.00  0.00    -0.200 F 
ENDBRANCH  47  71
BRANCH  59  82
ATOM     82  C   UNL A   1      39.195  31.986  35.598  1.00  0.00     0.064 A 
ATOM     83  C   UNL A   1      38.332  31.477  36.579  1.00  0.00     0.173 A 
ATOM     84  C   UNL A   1      39.641  33.310  35.737  1.00  0.00     0.173 A 
ATOM     85  F   UNL A   1      37.864  30.224  36.483  1.00  0.00    -0.203 F 
ATOM     86  C   UNL A   1      37.909  32.272  37.641  1.00  0.00     0.198 A 
ATOM     87  C   UNL A   1      39.244  34.089  36.819  1.00  0.00     0.198 A 
ATOM     88  F   UNL A   1      40.472  33.844  34.829  1.00  0.00    -0.203 F 
ATOM     89  F   UNL A   1      37.042  31.781  38.538  1.00  0.00    -0.200 F 
ATOM     90  C   UNL A   1      38.372  33.573  37.766  1.00  0.00     0.200 A 
ATOM     91  F   UNL A   1      39.706  35.341  36.946  1.00  0.00    -0.200 F 
ATOM     92  F   UNL A   1      37.973  34.332  38.796  1.00  0.00    -0.200 F 
ENDBRANCH  59  82
ENDBRANCH  33  34
ENDBRANCH  26  28
ENDBRANCH  25  26
ENDBRANCH  24  25
ENDBRANCH  23  24
ENDBRANCH  22  23
ENDBRANCH   1  22
TORSDOF 18
ENDMDL
MODEL 2
REMARK VINA RESULT:     -10.8      1.559      2.292
REMARK SMILES C[C@H](C[N@H+](C)[C@H]1CC[C@H]([NH3+])CC1)C(=O)OCCOCCOC(=O)c1ccc(-c2c3nc(c(-c4c(F)c(F)c(F)c(F)c4F)c4ccc([nH]4)c(-c4c(F)c(F)c(F)c(F)c4F)c4nc(c(-c5c(F)c(F)c(F)c(F)c5F)c5ccc2[nH]5)C=C4)C=C3)cc1
REMARK SMILES IDX 17 1 16 2 15 3 13 4 14 5 2 6 1 7 3 8 4 9 5 10 6 12 7 13
REMARK SMILES IDX 12 14 8 15 11 16 9 17 10 18 18 22 19 23 20 24 21 25 22 26
REMARK SMILES IDX 23 27 24 28 25 29 86 30 26 31 85 32 27 33 28 34 29 35 79 36
REMARK SMILES IDX 30 37 84 38 78 39 80 40 31 41 83 42 77 43 76 44 32 46 64 47
REMARK SMILES IDX 44 48 63 49 45 50 48 51 62 52 81 53 46 54 47 55 61 57 82 58
REMARK SMILES IDX 49 59 33 60 34 61 42 62 35 63 36 64 40 65 43 66 37 67 38 68
REMARK SMILES IDX 41 69 39 70 65 71 66 72 74 73 67 74 68 75 72 76 75 77 69 78
REMARK SMILES IDX 70 79 73 80 71 81 50 82 51 83 59 84 52 85 53 86 57 87 60 88
REMARK SMILES IDX 54 89 55 90 58 91 56 92
REMARK H PARENT 4 11 10 19 10 20 10 21 80 45 48 56
REMARK Flexibility Score: inf
ROOT
ATOM      1  C   UNL A   1      40.992  20.410  26.473  1.00  0.00     0.202 C 
ENDROOT
BRANCH   1   2
ATOM      2  C   UNL A   1      40.064  21.556  26.896  1.00  0.00     0.261 C 
BRANCH   2   3
ATOM      3  O   UNL A   1      38.980  21.682  25.962  1.00  0.00    -0.463 OA
BRANCH   3   4
ATOM      4  C   UNL A   1      38.232  22.812  25.998  1.00  0.00     0.314 C 
ATOM      5  O   UNL A   1      38.653  23.892  26.392  1.00  0.00    -0.252 OA
BRANCH   4   6
ATOM      6  C   UNL A   1      36.838  22.591  25.395  1.00  0.00     0.151 C 
ATOM      7  C   UNL A   1      36.906  22.391  23.883  1.00  0.00     0.026 C 
BRANCH   6   8
ATOM      8  C   UNL A   1      35.722  23.584  25.815  1.00  0.00     0.277 C 
BRANCH   8   9
ATOM      9  N   UNL A   1      34.423  23.151  26.345  1.00  0.00    -0.334 N 
ATOM     10  C   UNL A   1      34.373  21.831  26.939  1.00  0.00     0.332 C 
ATOM     11  H   UNL A   1      34.328  23.721  27.186  1.00  0.00     0.348 HD
BRANCH   9  12
ATOM     12  C   UNL A   1      33.267  23.568  25.567  1.00  0.00     0.184 C 
ATOM     13  C   UNL A   1      31.957  23.106  26.191  1.00  0.00     0.071 C 
ATOM     14  C   UNL A   1      33.238  23.191  24.078  1.00  0.00     0.071 C 
ATOM     15  C   UNL A   1      30.867  23.969  25.568  1.00  0.00     0.071 C 
ATOM     16  C   UNL A   1      32.110  23.917  23.346  1.00  0.00     0.071 C 
ATOM     17  C   UNL A   1      30.758  23.811  24.051  1.00  0.00     0.181 C 
BRANCH  17  18
ATOM     18  N   UNL A   1      29.857  24.827  23.499  1.00  0.00    -0.355 N 
ATOM     19  H   UNL A   1      29.826  25.631  24.126  1.00  0.00     0.344 HD
ATOM     20  H   UNL A   1      28.920  24.434  23.403  1.00  0.00     0.344 HD
ATOM     21  H   UNL A   1      30.196  25.122  22.583  1.00  0.00     0.344 HD
ENDBRANCH  17  18
ENDBRANCH   9  12
ENDBRANCH   8   9
ENDBRANCH   6   8
ENDBRANCH   4   6
ENDBRANCH   3   4
ENDBRANCH   2   3
ENDBRANCH   1   2
BRANCH   1  22
ATOM     22  O   UNL A   1      42.380  20.616  26.732  1.00  0.00    -0.374 OA
BRANCH  22  23
ATOM     23  C   UNL A   1      43.291  20.321  25.676  1.00  0.00     0.202 C 
BRANCH  23  24
ATOM     24  C   UNL A   1      44.060  21.502  25.061  1.00  0.00     0.261 C 
BRANCH  24  25
ATOM     25  O   UNL A   1      43.282  22.684  24.777  1.00  0.00    -0.460 OA
BRANCH  25  26
ATOM     26  C   UNL A   1      43.960  23.856  24.874  1.00  0.00     0.338 C 
ATOM     27  O   UNL A   1      44.963  24.179  24.251  1.00  0.00    -0.246 OA
BRANCH  26  28
ATOM     28  C   UNL A   1      43.304  24.788  25.817  1.00  0.00     0.060 A 
ATOM     29  C   UNL A   1      43.807  26.092  25.941  1.00  0.00     0.016 A 
ATOM     30  C   UNL A   1      42.265  24.366  26.651  1.00  0.00     0.016 A 
ATOM     31  C   UNL A   1      43.266  26.979  26.886  1.00  0.00     0.010 A 
ATOM     32  C   UNL A   1      41.729  25.253  27.602  1.00  0.00     0.010 A 
ATOM     33  C   UNL A   1      42.228  26.567  27.735  1.00  0.00    -0.014 A 
BRANCH  33  34
ATOM     34  C   UNL A   1      41.749  27.437  28.852  1.00  0.00     0.031 A 
ATOM     35  C   UNL A   1      42.431  27.315  30.186  1.00  0.00     0.074 A 
ATOM     36  C   UNL A   1      40.723  28.304  28.726  1.00  0.00     0.049 A 
ATOM     37  N   UNL A   1      42.170  27.934  31.308  1.00  0.00    -0.248 NA
ATOM     38  C   UNL A   1      43.569  26.385  30.258  1.00  0.00     0.031 C 
ATOM     39  C   UNL A   1      40.008  28.597  27.495  1.00  0.00     0.029 A 
ATOM     40  N   UNL A   1      40.080  29.091  29.657  1.00  0.00    -0.354 N 
ATOM     41  C   UNL A   1      43.121  27.486  32.213  1.00  0.00     0.074 A 
ATOM     42  C   UNL A   1      43.934  26.506  31.526  1.00  0.00     0.031 C 
ATOM     43  C   UNL A   1      38.981  29.423  27.741  1.00  0.00     0.029 A 
ATOM     44  C   UNL A   1      38.976  29.749  29.159  1.00  0.00     0.049 A 
ATOM     45  H   UNL A   1      40.382  29.175  30.590  1.00  0.00     0.167 HD
ATOM     46  C   UNL A   1      43.313  27.875  33.494  1.00  0.00     0.037 A 
ATOM     47  C   UNL A   1      38.060  30.530  29.765  1.00  0.00     0.037 A 
ATOM     48  C   UNL A   1      42.502  28.839  34.188  1.00  0.00     0.049 A 
ATOM     49  C   UNL A   1      38.236  30.862  31.221  1.00  0.00     0.074 A 
ATOM     50  C   UNL A   1      42.650  29.317  35.478  1.00  0.00     0.029 A 
ATOM     51  N   UNL A   1      41.378  29.456  33.659  1.00  0.00    -0.354 N 
ATOM     52  N   UNL A   1      39.187  30.492  32.041  1.00  0.00    -0.248 NA
ATOM     53  C   UNL A   1      37.229  31.744  31.829  1.00  0.00     0.031 C 
ATOM     54  C   UNL A   1      41.579  30.174  35.752  1.00  0.00     0.029 A 
ATOM     55  C   UNL A   1      40.799  30.279  34.613  1.00  0.00     0.049 A 
ATOM     56  H   UNL A   1      41.042  29.329  32.742  1.00  0.00     0.167 HD
ATOM     57  C   UNL A   1      38.920  31.128  33.245  1.00  0.00     0.074 A 
ATOM     58  C   UNL A   1      37.723  31.918  33.046  1.00  0.00     0.031 C 
ATOM     59  C   UNL A   1      39.610  31.066  34.409  1.00  0.00     0.037 A 
BRANCH  46  60
ATOM     60  C   UNL A   1      44.449  27.244  34.241  1.00  0.00     0.064 A 
ATOM     61  C   UNL A   1      45.722  27.831  34.273  1.00  0.00     0.173 A 
ATOM     62  C   UNL A   1      44.246  26.066  34.975  1.00  0.00     0.173 A 
ATOM     63  F   UNL A   1      45.969  28.948  33.575  1.00  0.00    -0.203 F 
ATOM     64  C   UNL A   1      46.757  27.251  35.003  1.00  0.00     0.198 A 
ATOM     65  C   UNL A   1      45.275  25.506  35.725  1.00  0.00     0.198 A 
ATOM     66  F   UNL A   1      43.046  25.468  34.975  1.00  0.00    -0.203 F 
ATOM     67  F   UNL A   1      47.977  27.808  34.990  1.00  0.00    -0.200 F 
ATOM     68  C   UNL A   1      46.530  26.095  35.736  1.00  0.00     0.200 A 
ATOM     69  F   UNL A   1      45.050  24.396  36.442  1.00  0.00    -0.200 F 
ATOM     70  F   UNL A   1      47.523  25.547  36.448  1.00  0.00    -0.200 F 
ENDBRANCH  46  60
BRANCH  47  71
ATOM     71  C   UNL A   1      36.899  31.069  29.004  1.00  0.00     0.064 A 
ATOM     72  C   UNL A   1      36.825  32.424  28.651  1.00  0.00     0.173 A 
ATOM     73  C   UNL A   1      35.811  30.250  28.665  1.00  0.00     0.173 A 
ATOM     74  F   UNL A   1      37.828  33.254  28.972  1.00  0.00    -0.203 F 
ATOM     75  C   UNL A   1      35.694  32.946  28.023  1.00  0.00     0.198 A 
ATOM     76  C   UNL A   1      34.693  30.768  28.012  1.00  0.00     0.198 A 
ATOM     77  F   UNL A   1      35.828  28.946  28.979  1.00  0.00    -0.203 F 
ATOM     78  F   UNL A   1      35.624  34.258  27.760  1.00  0.00    -0.200 F 
ATOM     79  C   UNL A   1      34.631  32.118  27.704  1.00  0.00     0.200 A 
ATOM     80  F   UNL A   1      33.670  29.961  27.698  1.00  0.00    -0.200 F 
ATOM     81  F   UNL A   1      33.538  32.623  27.114  1.00  0.00    -0.200 F 
ENDBRANCH  47  71
BRANCH  59  82
ATOM     82  C   UNL A   1      39.108  31.896  35.555  1.00  0.00     0.064 A 
ATOM     83  C   UNL A   1      38.282  31.354  36.551  1.00  0.00     0.173 A 
ATOM     84  C   UNL A   1      39.488  33.242  35.677  1.00  0.00     0.173 A 
ATOM     85  F   UNL A   1      37.877  30.078  36.471  1.00  0.00    -0.203 F 
ATOM     86  C   UNL A   1      37.833  32.137  37.611  1.00  0.00     0.198 A 
ATOM     87  C   UNL A   1      39.065  34.011  36.756  1.00  0.00     0.198 A 
ATOM     88  F   UNL A   1      40.281  33.808  34.753  1.00  0.00    -0.203 F 
ATOM     89  F   UNL A   1      37.002  31.612  38.522  1.00  0.00    -0.200 F 
ATOM     90  C   UNL A   1      38.231  33.461  37.718  1.00  0.00     0.200 A 
ATOM     91  F   UNL A   1      39.465  35.285  36.866  1.00  0.00    -0.200 F 
ATOM     92  F   UNL A   1      37.806  34.209  38.745  1.00  0.00    -0.200 F 
ENDBRANCH  59  82
ENDBRANCH  33  34
ENDBRANCH  26  28
ENDBRANCH  25  26
ENDBRANCH  24  25
ENDBRANCH  23  24
ENDBRANCH  22  23
ENDBRANCH   1  22
TORSDOF 18
ENDMDL
MODEL 3
REMARK VINA RESULT:     -10.4      3.855      8.918
REMARK SMILES C[C@H](C[N@H+](C)[C@H]1CC[C@H]([NH3+])CC1)C(=O)OCCOCCOC(=O)c1ccc(-c2c3nc(c(-c4c(F)c(F)c(F)c(F)c4F)c4ccc([nH]4)c(-c4c(F)c(F)c(F)c(F)c4F)c4nc(c(-c5c(F)c(F)c(F)c(F)c5F)c5ccc2[nH]5)C=C4)C=C3)cc1
REMARK SMILES IDX 17 1 16 2 15 3 13 4 14 5 2 6 1 7 3 8 4 9 5 10 6 12 7 13
REMARK SMILES IDX 12 14 8 15 11 16 9 17 10 18 18 22 19 23 20 24 21 25 22 26
REMARK SMILES IDX 23 27 24 28 25 29 86 30 26 31 85 32 27 33 28 34 29 35 79 36
REMARK SMILES IDX 30 37 84 38 78 39 80 40 31 41 83 42 77 43 76 44 32 46 64 47
REMARK SMILES IDX 44 48 63 49 45 50 48 51 62 52 81 53 46 54 47 55 61 57 82 58
REMARK SMILES IDX 49 59 33 60 34 61 42 62 35 63 36 64 40 65 43 66 37 67 38 68
REMARK SMILES IDX 41 69 39 70 65 71 66 72 74 73 67 74 68 75 72 76 75 77 69 78
REMARK SMILES IDX 70 79 73 80 71 81 50 82 51 83 59 84 52 85 53 86 57 87 60 88
REMARK SMILES IDX 54 89 55 90 58 91 56 92
REMARK H PARENT 4 11 10 19 10 20 10 21 80 45 48 56
REMARK Flexibility Score: inf
ROOT
ATOM      1  C   UNL A   1      32.490  29.974  27.134  1.00  0.00     0.202 C 
ENDROOT
BRANCH   1   2
ATOM      2  C   UNL A   1      31.770  28.630  27.296  1.00  0.00     0.261 C 
BRANCH   2   3
ATOM      3  O   UNL A   1      31.762  27.920  26.047  1.00  0.00    -0.463 OA
BRANCH   3   4
ATOM      4  C   UNL A   1      31.678  26.568  26.080  1.00  0.00     0.314 C 
ATOM      5  O   UNL A   1      30.775  25.957  26.636  1.00  0.00    -0.252 OA
BRANCH   4   6
ATOM      6  C   UNL A   1      32.791  25.908  25.253  1.00  0.00     0.151 C 
ATOM      7  C   UNL A   1      33.653  26.948  24.542  1.00  0.00     0.026 C 
BRANCH   6   8
ATOM      8  C   UNL A   1      32.379  24.739  24.322  1.00  0.00     0.277 C 
BRANCH   8   9
ATOM      9  N   UNL A   1      32.653  23.330  24.636  1.00  0.00    -0.334 N 
ATOM     10  C   UNL A   1      31.736  22.679  25.546  1.00  0.00     0.332 C 
ATOM     11  H   UNL A   1      32.398  22.858  23.768  1.00  0.00     0.348 HD
BRANCH   9  12
ATOM     12  C   UNL A   1      34.061  22.988  24.761  1.00  0.00     0.184 C 
ATOM     13  C   UNL A   1      34.779  23.005  23.417  1.00  0.00     0.071 C 
ATOM     14  C   UNL A   1      34.412  21.668  25.465  1.00  0.00     0.071 C 
ATOM     15  C   UNL A   1      36.267  23.090  23.736  1.00  0.00     0.071 C 
ATOM     16  C   UNL A   1      35.911  21.577  25.753  1.00  0.00     0.071 C 
ATOM     17  C   UNL A   1      36.785  21.899  24.542  1.00  0.00     0.181 C 
BRANCH  17  18
ATOM     18  N   UNL A   1      38.153  22.156  25.002  1.00  0.00    -0.355 N 
ATOM     19  H   UNL A   1      38.525  21.319  25.449  1.00  0.00     0.344 HD
ATOM     20  H   UNL A   1      38.147  22.925  25.673  1.00  0.00     0.344 HD
ATOM     21  H   UNL A   1      38.739  22.406  24.205  1.00  0.00     0.344 HD
ENDBRANCH  17  18
ENDBRANCH   9  12
ENDBRANCH   8   9
ENDBRANCH   6   8
ENDBRANCH   4   6
ENDBRANCH   3   4
ENDBRANCH   2   3
ENDBRANCH   1   2
BRANCH   1  22
ATOM     22  O   UNL A   1      31.835  30.926  26.298  1.00  0.00    -0.374 OA
BRANCH  22  23
ATOM     23  C   UNL A   1      31.516  32.190  26.875  1.00  0.00     0.202 C 
BRANCH  23  24
ATOM     24  C   UNL A   1      32.691  33.119  27.223  1.00  0.00     0.261 C 
BRANCH  24  25
ATOM     25  O   UNL A   1      32.402  34.180  28.158  1.00  0.00    -0.460 OA
BRANCH  25  26
ATOM     26  C   UNL A   1      33.488  34.847  28.625  1.00  0.00     0.338 C 
ATOM     27  O   UNL A   1      33.602  36.058  28.767  1.00  0.00    -0.246 OA
BRANCH  26  28
ATOM     28  C   UNL A   1      34.568  33.918  29.025  1.00  0.00     0.060 A 
ATOM     29  C   UNL A   1      34.266  32.864  29.900  1.00  0.00     0.016 A 
ATOM     30  C   UNL A   1      35.892  34.130  28.629  1.00  0.00     0.016 A 
ATOM     31  C   UNL A   1      35.281  32.014  30.370  1.00  0.00     0.010 A 
ATOM     32  C   UNL A   1      36.907  33.283  29.106  1.00  0.00     0.010 A 
ATOM     33  C   UNL A   1      36.615  32.219  29.987  1.00  0.00    -0.014 A 
BRANCH  33  34
ATOM     34  C   UNL A   1      37.726  31.430  30.600  1.00  0.00     0.031 A 
ATOM     35  C   UNL A   1      38.155  31.778  31.997  1.00  0.00     0.074 A 
ATOM     36  C   UNL A   1      38.377  30.441  29.950  1.00  0.00     0.049 A 
ATOM     37  N   UNL A   1      39.114  31.263  32.722  1.00  0.00    -0.248 NA
ATOM     38  C   UNL A   1      37.388  32.836  32.674  1.00  0.00     0.031 C 
ATOM     39  C   UNL A   1      38.042  29.932  28.631  1.00  0.00     0.029 A 
ATOM     40  N   UNL A   1      39.479  29.695  30.304  1.00  0.00    -0.354 N 
ATOM     41  C   UNL A   1      39.054  31.916  33.943  1.00  0.00     0.074 A 
ATOM     42  C   UNL A   1      37.998  32.901  33.848  1.00  0.00     0.031 C 
ATOM     43  C   UNL A   1      38.950  29.026  28.240  1.00  0.00     0.029 A 
ATOM     44  C   UNL A   1      39.930  28.862  29.303  1.00  0.00     0.049 A 
ATOM     45  H   UNL A   1      39.905  29.751  31.190  1.00  0.00     0.167 HD
ATOM     46  C   UNL A   1      39.797  31.698  35.052  1.00  0.00     0.037 A 
ATOM     47  C   UNL A   1      41.006  28.053  29.238  1.00  0.00     0.037 A 
ATOM     48  C   UNL A   1      40.857  30.731  35.151  1.00  0.00     0.049 A 
ATOM     49  C   UNL A   1      41.882  27.908  30.451  1.00  0.00     0.074 A 
ATOM     50  C   UNL A   1      41.637  30.420  36.250  1.00  0.00     0.029 A 
ATOM     51  N   UNL A   1      41.301  29.933  34.107  1.00  0.00    -0.354 N 
ATOM     52  N   UNL A   1      41.762  28.475  31.626  1.00  0.00    -0.248 NA
ATOM     53  C   UNL A   1      43.024  26.990  30.343  1.00  0.00     0.031 C 
ATOM     54  C   UNL A   1      42.596  29.481  35.855  1.00  0.00     0.029 A 
ATOM     55  C   UNL A   1      42.373  29.160  34.527  1.00  0.00     0.049 A 
ATOM     56  H   UNL A   1      40.912  29.916  33.203  1.00  0.00     0.167 HD
ATOM     57  C   UNL A   1      42.783  27.952  32.407  1.00  0.00     0.074 A 
ATOM     58  C   UNL A   1      43.506  27.011  31.577  1.00  0.00     0.031 C 
ATOM     59  C   UNL A   1      43.087  28.224  33.698  1.00  0.00     0.037 A 
BRANCH  46  60
ATOM     60  C   UNL A   1      39.496  32.536  36.258  1.00  0.00     0.064 A 
ATOM     61  C   UNL A   1      40.171  33.740  36.502  1.00  0.00     0.173 A 
ATOM     62  C   UNL A   1      38.484  32.154  37.150  1.00  0.00     0.173 A 
ATOM     63  F   UNL A   1      41.158  34.139  35.686  1.00  0.00    -0.203 F 
ATOM     64  C   UNL A   1      39.854  34.525  37.607  1.00  0.00     0.198 A 
ATOM     65  C   UNL A   1      38.150  32.956  38.238  1.00  0.00     0.198 A 
ATOM     66  F   UNL A   1      37.809  31.011  36.959  1.00  0.00    -0.203 F 
ATOM     67  F   UNL A   1      40.537  35.654  37.843  1.00  0.00    -0.200 F 
ATOM     68  C   UNL A   1      38.837  34.138  38.468  1.00  0.00     0.200 A 
ATOM     69  F   UNL A   1      37.160  32.585  39.061  1.00  0.00    -0.200 F 
ATOM     70  F   UNL A   1      38.524  34.902  39.522  1.00  0.00    -0.200 F 
ENDBRANCH  46  60
BRANCH  47  71
ATOM     71  C   UNL A   1      41.317  27.302  27.990  1.00  0.00     0.064 A 
ATOM     72  C   UNL A   1      40.877  25.983  27.805  1.00  0.00     0.173 A 
ATOM     73  C   UNL A   1      42.111  27.869  26.982  1.00  0.00     0.173 A 
ATOM     74  F   UNL A   1      40.134  25.388  28.750  1.00  0.00    -0.203 F 
ATOM     75  C   UNL A   1      41.250  25.248  26.680  1.00  0.00     0.198 A 
ATOM     76  C   UNL A   1      42.459  27.142  25.843  1.00  0.00     0.198 A 
ATOM     77  F   UNL A   1      42.560  29.126  27.107  1.00  0.00    -0.203 F 
ATOM     78  F   UNL A   1      40.871  23.968  26.564  1.00  0.00    -0.200 F 
ATOM     79  C   UNL A   1      42.039  25.829  25.700  1.00  0.00     0.200 A 
ATOM     80  F   UNL A   1      43.217  27.710  24.894  1.00  0.00    -0.200 F 
ATOM     81  F   UNL A   1      42.409  25.117  24.626  1.00  0.00    -0.200 F 
ENDBRANCH  47  71
BRANCH  59  82
ATOM     82  C   UNL A   1      44.236  27.475  34.309  1.00  0.00     0.064 A 
ATOM     83  C   UNL A   1      44.064  26.211  34.893  1.00  0.00     0.173 A 
ATOM     84  C   UNL A   1      45.532  28.012  34.276  1.00  0.00     0.173 A 
ATOM     85  F   UNL A   1      42.843  25.661  34.966  1.00  0.00    -0.203 F 
ATOM     86  C   UNL A   1      45.142  25.527  35.448  1.00  0.00     0.198 A 
ATOM     87  C   UNL A   1      46.613  27.310  34.799  1.00  0.00     0.198 A 
ATOM     88  F   UNL A   1      45.753  29.215  33.724  1.00  0.00    -0.203 F 
ATOM     89  F   UNL A   1      44.945  24.345  36.049  1.00  0.00    -0.200 F 
ATOM     90  C   UNL A   1      46.417  26.072  35.393  1.00  0.00     0.200 A 
ATOM     91  F   UNL A   1      47.846  27.830  34.731  1.00  0.00    -0.200 F 
ATOM     92  F   UNL A   1      47.455  25.406  35.917  1.00  0.00    -0.200 F 
ENDBRANCH  59  82
ENDBRANCH  33  34
ENDBRANCH  26  28
ENDBRANCH  25  26
ENDBRANCH  24  25
ENDBRANCH  23  24
ENDBRANCH  22  23
ENDBRANCH   1  22
TORSDOF 18
ENDMDL
