MODEL 1
REMARK VINA RESULT:      -9.1      0.000      0.000
REMARK SMILES CC(C)Oc1ccc(-c2ccc(/C(=C\c3ccc(S(C)(=O)=O)cc3)C(=O)OCCOCCOC(=O)c3ccc(-c4c5nc(c(-c6c(F)c(F)c(F)c(F)c6F)c6ccc([nH]6)c(-c6c(F)c(F)c(F)c(F)c6F)c6nc(c(-c7c(F)c(F)c(F)c(F)c7F)c7ccc4[nH]7)C=C6)C=C5)cc3)cc2)cc1
REMARK SMILES IDX 29 1 28 2 27 3 25 4 26 5 13 6 14 7 12 8 9 9 10 10 100 11
REMARK SMILES IDX 11 12 99 13 8 14 5 15 6 16 102 17 7 18 101 19 4 20 2 21 1 22
REMARK SMILES IDX 3 23 15 24 16 25 24 26 17 27 23 28 18 29 19 30 20 31 21 32
REMARK SMILES IDX 22 33 30 34 31 35 32 36 33 37 34 38 35 39 36 40 37 41 98 42
REMARK SMILES IDX 38 43 97 44 39 45 40 46 41 47 91 48 42 49 96 50 90 51 92 52
REMARK SMILES IDX 43 53 95 54 89 55 88 56 44 58 76 59 56 60 75 61 57 62 60 63
REMARK SMILES IDX 74 64 93 65 58 66 59 67 73 69 94 70 61 71 45 72 46 73 54 74
REMARK SMILES IDX 47 75 48 76 52 77 55 78 49 79 50 80 53 81 51 82 77 83 78 84
REMARK SMILES IDX 86 85 79 86 80 87 84 88 87 89 81 90 82 91 85 92 83 93 62 94
REMARK SMILES IDX 63 95 71 96 64 97 65 98 69 99 72 100 66 101 67 102 70 103
REMARK SMILES IDX 68 104
REMARK H PARENT 92 57 60 68
REMARK Flexibility Score: inf
ROOT
ATOM      1  C   UNL A   1      49.586  27.278  23.311  1.00  0.00     0.202 C 
ENDROOT
BRANCH   1   2
ATOM      2  C   UNL A   1      48.974  27.641  24.666  1.00  0.00     0.261 C 
BRANCH   2   3
ATOM      3  O   UNL A   1      47.856  26.783  24.947  1.00  0.00    -0.460 OA
BRANCH   3   4
ATOM      4  C   UNL A   1      46.649  27.405  25.003  1.00  0.00     0.338 C 
ATOM      5  O   UNL A   1      46.438  28.575  24.723  1.00  0.00    -0.246 OA
BRANCH   4   6
ATOM      6  C   UNL A   1      45.555  26.422  25.312  1.00  0.00     0.067 C 
ATOM      7  C   UNL A   1      45.802  25.125  25.006  1.00  0.00     0.024 C 
BRANCH   6   8
ATOM      8  C   UNL A   1      44.302  26.957  25.918  1.00  0.00    -0.011 A 
ATOM      9  C   UNL A   1      41.799  27.814  27.026  1.00  0.00    -0.018 A 
ATOM     10  C   UNL A   1      42.933  27.615  27.828  1.00  0.00     0.009 A 
ATOM     11  C   UNL A   1      41.960  27.614  25.648  1.00  0.00     0.009 A 
ATOM     12  C   UNL A   1      44.166  27.235  27.282  1.00  0.00     0.009 A 
ATOM     13  C   UNL A   1      43.181  27.188  25.106  1.00  0.00     0.009 A 
BRANCH   9  14
ATOM     14  C   UNL A   1      40.508  28.248  27.605  1.00  0.00    -0.018 A 
ATOM     15  C   UNL A   1      38.001  29.047  28.662  1.00  0.00     0.119 A 
ATOM     16  C   UNL A   1      38.542  29.705  27.562  1.00  0.00     0.047 A 
ATOM     17  C   UNL A   1      38.690  27.981  29.227  1.00  0.00     0.047 A 
ATOM     18  C   UNL A   1      39.780  29.312  27.043  1.00  0.00     0.012 A 
ATOM     19  C   UNL A   1      39.938  27.600  28.716  1.00  0.00     0.012 A 
BRANCH  15  20
ATOM     20  O   UNL A   1      36.740  29.405  29.034  1.00  0.00    -0.491 OA
BRANCH  20  21
ATOM     21  C   UNL A   1      36.073  30.434  28.287  1.00  0.00     0.167 C 
ATOM     22  C   UNL A   1      34.785  29.950  27.630  1.00  0.00     0.052 C 
ATOM     23  C   UNL A   1      35.894  31.750  29.041  1.00  0.00     0.052 C 
ENDBRANCH  20  21
ENDBRANCH  15  20
ENDBRANCH   9  14
ENDBRANCH   6   8
BRANCH   7  24
ATOM     24  C   UNL A   1      44.957  23.974  25.362  1.00  0.00    -0.025 A 
ATOM     25  C   UNL A   1      45.036  23.513  26.684  1.00  0.00     0.009 A 
ATOM     26  C   UNL A   1      43.978  23.451  24.505  1.00  0.00     0.009 A 
ATOM     27  C   UNL A   1      44.070  22.641  27.186  1.00  0.00     0.021 A 
ATOM     28  C   UNL A   1      43.003  22.581  25.004  1.00  0.00     0.021 A 
ATOM     29  C   UNL A   1      43.037  22.209  26.352  1.00  0.00     0.067 A 
BRANCH  29  30
ATOM     30  S   UNL A   1      41.662  21.346  27.079  1.00  0.00     0.175 S 
ATOM     31  C   UNL A   1      42.280  19.717  27.383  1.00  0.00     0.163 C 
ATOM     32  O   UNL A   1      41.403  21.977  28.360  1.00  0.00    -0.224 OA
ATOM     33  O   UNL A   1      40.619  21.251  26.076  1.00  0.00    -0.224 OA
ENDBRANCH  29  30
ENDBRANCH   7  24
ENDBRANCH   4   6
ENDBRANCH   3   4
ENDBRANCH   2   3
ENDBRANCH   1   2
BRANCH   1  34
ATOM     34  O   UNL A   1      50.999  27.067  23.311  1.00  0.00    -0.374 OA
BRANCH  34  35
ATOM     35  C   UNL A   1      51.764  27.762  24.297  1.00  0.00     0.202 C 
BRANCH  35  36
ATOM     36  C   UNL A   1      52.965  27.012  24.880  1.00  0.00     0.261 C 
BRANCH  36  37
ATOM     37  O   UNL A   1      52.799  26.751  26.285  1.00  0.00    -0.460 OA
BRANCH  37  38
ATOM     38  C   UNL A   1      52.034  25.674  26.573  1.00  0.00     0.338 C 
ATOM     39  O   UNL A   1      52.240  24.509  26.258  1.00  0.00    -0.246 OA
BRANCH  38  40
ATOM     40  C   UNL A   1      50.956  26.059  27.501  1.00  0.00     0.060 A 
ATOM     41  C   UNL A   1      49.744  25.363  27.406  1.00  0.00     0.016 A 
ATOM     42  C   UNL A   1      51.100  27.119  28.398  1.00  0.00     0.016 A 
ATOM     43  C   UNL A   1      48.651  25.759  28.171  1.00  0.00     0.010 A 
ATOM     44  C   UNL A   1      49.998  27.521  29.160  1.00  0.00     0.010 A 
ATOM     45  C   UNL A   1      48.760  26.867  29.021  1.00  0.00    -0.014 A 
BRANCH  45  46
ATOM     46  C   UNL A   1      47.539  27.434  29.639  1.00  0.00     0.031 A 
ATOM     47  C   UNL A   1      46.953  26.752  30.844  1.00  0.00     0.074 A 
ATOM     48  C   UNL A   1      46.979  28.554  29.154  1.00  0.00     0.049 A 
ATOM     49  N   UNL A   1      45.880  27.053  31.531  1.00  0.00    -0.248 NA
ATOM     50  C   UNL A   1      47.676  25.571  31.343  1.00  0.00     0.031 C 
ATOM     51  C   UNL A   1      47.480  29.326  28.019  1.00  0.00     0.029 A 
ATOM     52  N   UNL A   1      45.859  29.237  29.560  1.00  0.00    -0.354 N 
ATOM     53  C   UNL A   1      45.798  26.099  32.537  1.00  0.00     0.074 A 
ATOM     54  C   UNL A   1      46.909  25.190  32.352  1.00  0.00     0.031 C 
ATOM     55  C   UNL A   1      46.665  30.375  27.813  1.00  0.00     0.029 A 
ATOM     56  C   UNL A   1      45.571  30.330  28.782  1.00  0.00     0.049 A 
ATOM     57  H   UNL A   1      45.315  28.967  30.334  1.00  0.00     0.167 HD
ATOM     58  C   UNL A   1      44.884  25.997  33.531  1.00  0.00     0.037 A 
ATOM     59  C   UNL A   1      44.531  31.184  28.838  1.00  0.00     0.037 A 
ATOM     60  C   UNL A   1      43.780  26.901  33.711  1.00  0.00     0.049 A 
ATOM     61  C   UNL A   1      43.486  31.005  29.908  1.00  0.00     0.074 A 
ATOM     62  C   UNL A   1      42.806  26.891  34.694  1.00  0.00     0.029 A 
ATOM     63  N   UNL A   1      43.499  27.977  32.880  1.00  0.00    -0.354 N 
ATOM     64  N   UNL A   1      43.425  30.114  30.868  1.00  0.00    -0.248 NA
ATOM     65  C   UNL A   1      42.364  31.955  29.903  1.00  0.00     0.031 C 
ATOM     66  C   UNL A   1      41.909  27.933  34.431  1.00  0.00     0.029 A 
ATOM     67  C   UNL A   1      42.353  28.623  33.314  1.00  0.00     0.049 A 
ATOM     68  H   UNL A   1      44.036  28.242  32.099  1.00  0.00     0.167 HD
ATOM     69  C   UNL A   1      42.281  30.413  31.598  1.00  0.00     0.074 A 
ATOM     70  C   UNL A   1      41.682  31.575  30.974  1.00  0.00     0.031 C 
ATOM     71  C   UNL A   1      41.775  29.785  32.687  1.00  0.00     0.037 A 
BRANCH  58  72
ATOM     72  C   UNL A   1      45.029  24.849  34.486  1.00  0.00     0.064 A 
ATOM     73  C   UNL A   1      45.635  25.006  35.743  1.00  0.00     0.173 A 
ATOM     74  C   UNL A   1      44.539  23.578  34.149  1.00  0.00     0.173 A 
ATOM     75  F   UNL A   1      46.134  26.197  36.106  1.00  0.00    -0.203 F 
ATOM     76  C   UNL A   1      45.767  23.928  36.614  1.00  0.00     0.198 A 
ATOM     77  C   UNL A   1      44.647  22.510  35.034  1.00  0.00     0.198 A 
ATOM     78  F   UNL A   1      43.949  23.374  32.961  1.00  0.00    -0.203 F 
ATOM     79  F   UNL A   1      46.393  24.091  37.788  1.00  0.00    -0.200 F 
ATOM     80  C   UNL A   1      45.269  22.683  36.262  1.00  0.00     0.200 A 
ATOM     81  F   UNL A   1      44.156  21.309  34.697  1.00  0.00    -0.200 F 
ATOM     82  F   UNL A   1      45.395  21.647  37.103  1.00  0.00    -0.200 F 
ENDBRANCH  58  72
BRANCH  59  83
ATOM     83  C   UNL A   1      44.424  32.287  27.849  1.00  0.00     0.064 A 
ATOM     84  C   UNL A   1      44.789  33.597  28.184  1.00  0.00     0.173 A 
ATOM     85  C   UNL A   1      43.941  32.056  26.552  1.00  0.00     0.173 A 
ATOM     86  F   UNL A   1      45.232  33.873  29.421  1.00  0.00    -0.203 F 
ATOM     87  C   UNL A   1      44.662  34.637  27.266  1.00  0.00     0.198 A 
ATOM     88  C   UNL A   1      43.840  33.091  25.626  1.00  0.00     0.198 A 
ATOM     89  F   UNL A   1      43.576  30.819  26.181  1.00  0.00    -0.203 F 
ATOM     90  F   UNL A   1      44.976  35.889  27.627  1.00  0.00    -0.200 F 
ATOM     91  C   UNL A   1      44.193  34.382  25.986  1.00  0.00     0.200 A 
ATOM     92  F   UNL A   1      43.397  32.838  24.387  1.00  0.00    -0.200 F 
ATOM     93  F   UNL A   1      44.073  35.382  25.102  1.00  0.00    -0.200 F 
ENDBRANCH  59  83
BRANCH  71  94
ATOM     94  C   UNL A   1      40.532  30.361  33.300  1.00  0.00     0.064 A 
ATOM     95  C   UNL A   1      39.256  29.876  32.977  1.00  0.00     0.173 A 
ATOM     96  C   UNL A   1      40.623  31.384  34.257  1.00  0.00     0.173 A 
ATOM     97  F   UNL A   1      39.115  28.909  32.058  1.00  0.00    -0.203 F 
ATOM     98  C   UNL A   1      38.116  30.411  33.571  1.00  0.00     0.198 A 
ATOM     99  C   UNL A   1      39.483  31.896  34.871  1.00  0.00     0.198 A 
ATOM    100  F   UNL A   1      41.819  31.878  34.608  1.00  0.00    -0.203 F 
ATOM    101  F   UNL A   1      36.904  29.964  33.213  1.00  0.00    -0.200 F 
ATOM    102  C   UNL A   1      38.230  31.414  34.522  1.00  0.00     0.200 A 
ATOM    103  F   UNL A   1      39.596  32.856  35.800  1.00  0.00    -0.200 F 
ATOM    104  F   UNL A   1      37.132  31.922  35.098  1.00  0.00    -0.200 F 
ENDBRANCH  71  94
ENDBRANCH  45  46
ENDBRANCH  38  40
ENDBRANCH  37  38
ENDBRANCH  36  37
ENDBRANCH  35  36
ENDBRANCH  34  35
ENDBRANCH   1  34
TORSDOF 20
ENDMDL
MODEL 2
REMARK VINA RESULT:      -9.1      0.972      6.926
REMARK SMILES CC(C)Oc1ccc(-c2ccc(/C(=C\c3ccc(S(C)(=O)=O)cc3)C(=O)OCCOCCOC(=O)c3ccc(-c4c5nc(c(-c6c(F)c(F)c(F)c(F)c6F)c6ccc([nH]6)c(-c6c(F)c(F)c(F)c(F)c6F)c6nc(c(-c7c(F)c(F)c(F)c(F)c7F)c7ccc4[nH]7)C=C6)C=C5)cc3)cc2)cc1
REMARK SMILES IDX 29 1 28 2 27 3 25 4 26 5 13 6 14 7 12 8 9 9 10 10 100 11
REMARK SMILES IDX 11 12 99 13 8 14 5 15 6 16 102 17 7 18 101 19 4 20 2 21 1 22
REMARK SMILES IDX 3 23 15 24 16 25 24 26 17 27 23 28 18 29 19 30 20 31 21 32
REMARK SMILES IDX 22 33 30 34 31 35 32 36 33 37 34 38 35 39 36 40 37 41 98 42
REMARK SMILES IDX 38 43 97 44 39 45 40 46 41 47 91 48 42 49 96 50 90 51 92 52
REMARK SMILES IDX 43 53 95 54 89 55 88 56 44 58 76 59 56 60 75 61 57 62 60 63
REMARK SMILES IDX 74 64 93 65 58 66 59 67 73 69 94 70 61 71 45 72 46 73 54 74
REMARK SMILES IDX 47 75 48 76 52 77 55 78 49 79 50 80 53 81 51 82 77 83 78 84
REMARK SMILES IDX 86 85 79 86 80 87 84 88 87 89 81 90 82 91 85 92 83 93 62 94
REMARK SMILES IDX 63 95 71 96 64 97 65 98 69 99 72 100 66 101 67 102 70 103
REMARK SMILES IDX 68 104
REMARK H PARENT 92 57 60 68
REMARK Flexibility Score: inf
ROOT
ATOM      1  C   UNL A   1      49.382  27.405  22.959  1.00  0.00     0.202 C 
ENDROOT
BRANCH   1   2
ATOM      2  C   UNL A   1      48.809  27.743  24.337  1.00  0.00     0.261 C 
BRANCH   2   3
ATOM      3  O   UNL A   1      47.690  26.890  24.628  1.00  0.00    -0.460 OA
BRANCH   3   4
ATOM      4  C   UNL A   1      46.511  27.534  24.837  1.00  0.00     0.338 C 
ATOM      5  O   UNL A   1      46.297  28.716  24.615  1.00  0.00    -0.246 OA
BRANCH   4   6
ATOM      6  C   UNL A   1      45.437  26.563  25.238  1.00  0.00     0.067 C 
ATOM      7  C   UNL A   1      45.675  25.254  24.978  1.00  0.00     0.024 C 
BRANCH   6   8
ATOM      8  C   UNL A   1      44.211  27.121  25.877  1.00  0.00    -0.011 A 
ATOM      9  C   UNL A   1      41.955  28.368  27.135  1.00  0.00    -0.018 A 
ATOM     10  C   UNL A   1      41.910  27.932  25.803  1.00  0.00     0.009 A 
ATOM     11  C   UNL A   1      43.144  28.127  27.838  1.00  0.00     0.009 A 
ATOM     12  C   UNL A   1      42.999  27.287  25.200  1.00  0.00     0.009 A 
ATOM     13  C   UNL A   1      44.250  27.524  27.221  1.00  0.00     0.009 A 
BRANCH   9  14
ATOM     14  C   UNL A   1      40.791  29.019  27.777  1.00  0.00    -0.018 A 
ATOM     15  C   UNL A   1      38.585  30.327  28.986  1.00  0.00     0.119 A 
ATOM     16  C   UNL A   1      39.819  30.293  29.627  1.00  0.00     0.047 A 
ATOM     17  C   UNL A   1      38.446  29.732  27.739  1.00  0.00     0.047 A 
ATOM     18  C   UNL A   1      40.906  29.645  29.031  1.00  0.00     0.012 A 
ATOM     19  C   UNL A   1      39.532  29.069  27.151  1.00  0.00     0.012 A 
BRANCH  15  20
ATOM     20  O   UNL A   1      37.610  31.079  29.570  1.00  0.00    -0.491 OA
BRANCH  20  21
ATOM     21  C   UNL A   1      37.994  32.274  30.268  1.00  0.00     0.167 C 
ATOM     22  C   UNL A   1      38.379  33.411  29.327  1.00  0.00     0.052 C 
ATOM     23  C   UNL A   1      37.018  32.713  31.357  1.00  0.00     0.052 C 
ENDBRANCH  20  21
ENDBRANCH  15  20
ENDBRANCH   9  14
ENDBRANCH   6   8
BRANCH   7  24
ATOM     24  C   UNL A   1      44.852  24.118  25.422  1.00  0.00    -0.025 A 
ATOM     25  C   UNL A   1      44.755  23.906  26.805  1.00  0.00     0.009 A 
ATOM     26  C   UNL A   1      44.045  23.373  24.550  1.00  0.00     0.009 A 
ATOM     27  C   UNL A   1      43.775  23.060  27.322  1.00  0.00     0.021 A 
ATOM     28  C   UNL A   1      43.056  22.526  25.064  1.00  0.00     0.021 A 
ATOM     29  C   UNL A   1      42.906  22.403  26.448  1.00  0.00     0.067 A 
BRANCH  29  30
ATOM     30  S   UNL A   1      41.488  21.571  27.127  1.00  0.00     0.175 S 
ATOM     31  C   UNL A   1      41.974  19.871  27.204  1.00  0.00     0.163 C 
ATOM     32  O   UNL A   1      41.327  22.057  28.484  1.00  0.00    -0.224 OA
ATOM     33  O   UNL A   1      40.407  21.685  26.166  1.00  0.00    -0.224 OA
ENDBRANCH  29  30
ENDBRANCH   7  24
ENDBRANCH   4   6
ENDBRANCH   3   4
ENDBRANCH   2   3
ENDBRANCH   1   2
BRANCH   1  34
ATOM     34  O   UNL A   1      50.750  26.992  22.945  1.00  0.00    -0.374 OA
BRANCH  34  35
ATOM     35  C   UNL A   1      51.658  27.712  23.780  1.00  0.00     0.202 C 
BRANCH  35  36
ATOM     36  C   UNL A   1      52.758  26.889  24.457  1.00  0.00     0.261 C 
BRANCH  36  37
ATOM     37  O   UNL A   1      52.565  26.811  25.880  1.00  0.00    -0.460 OA
BRANCH  37  38
ATOM     38  C   UNL A   1      51.913  25.704  26.301  1.00  0.00     0.338 C 
ATOM     39  O   UNL A   1      52.172  24.539  26.030  1.00  0.00    -0.246 OA
BRANCH  38  40
ATOM     40  C   UNL A   1      50.906  26.071  27.312  1.00  0.00     0.060 A 
ATOM     41  C   UNL A   1      49.623  25.525  27.172  1.00  0.00     0.016 A 
ATOM     42  C   UNL A   1      51.185  26.980  28.335  1.00  0.00     0.016 A 
ATOM     43  C   UNL A   1      48.598  25.928  28.023  1.00  0.00     0.010 A 
ATOM     44  C   UNL A   1      50.152  27.389  29.184  1.00  0.00     0.010 A 
ATOM     45  C   UNL A   1      48.847  26.893  29.007  1.00  0.00    -0.014 A 
BRANCH  45  46
ATOM     46  C   UNL A   1      47.709  27.496  29.740  1.00  0.00     0.031 A 
ATOM     47  C   UNL A   1      47.071  28.742  29.192  1.00  0.00     0.074 A 
ATOM     48  C   UNL A   1      47.232  26.926  30.859  1.00  0.00     0.049 A 
ATOM     49  N   UNL A   1      46.086  29.455  29.676  1.00  0.00    -0.248 NA
ATOM     50  C   UNL A   1      47.619  29.253  27.925  1.00  0.00     0.031 C 
ATOM     51  C   UNL A   1      47.740  25.696  31.462  1.00  0.00     0.029 A 
ATOM     52  N   UNL A   1      46.210  27.313  31.689  1.00  0.00    -0.354 N 
ATOM     53  C   UNL A   1      45.900  30.498  28.778  1.00  0.00     0.074 A 
ATOM     54  C   UNL A   1      46.893  30.345  27.737  1.00  0.00     0.031 C 
ATOM     55  C   UNL A   1      47.031  25.431  32.573  1.00  0.00     0.029 A 
ATOM     56  C   UNL A   1      46.041  26.489  32.773  1.00  0.00     0.049 A 
ATOM     57  H   UNL A   1      45.652  28.107  31.522  1.00  0.00     0.167 HD
ATOM     58  C   UNL A   1      44.975  31.486  28.812  1.00  0.00     0.037 A 
ATOM     59  C   UNL A   1      45.195  26.591  33.816  1.00  0.00     0.037 A 
ATOM     60  C   UNL A   1      43.989  31.636  29.848  1.00  0.00     0.049 A 
ATOM     61  C   UNL A   1      44.226  27.743  33.870  1.00  0.00     0.074 A 
ATOM     62  C   UNL A   1      43.000  32.596  29.969  1.00  0.00     0.029 A 
ATOM     63  N   UNL A   1      43.872  30.801  30.951  1.00  0.00    -0.354 N 
ATOM     64  N   UNL A   1      44.041  28.713  33.008  1.00  0.00    -0.248 NA
ATOM     65  C   UNL A   1      43.345  27.811  35.045  1.00  0.00     0.031 C 
ATOM     66  C   UNL A   1      42.315  32.372  31.168  1.00  0.00     0.029 A 
ATOM     67  C   UNL A   1      42.844  31.240  31.769  1.00  0.00     0.049 A 
ATOM     68  H   UNL A   1      44.437  30.014  31.126  1.00  0.00     0.167 HD
ATOM     69  C   UNL A   1      43.005  29.487  33.517  1.00  0.00     0.074 A 
ATOM     70  C   UNL A   1      42.596  28.868  34.761  1.00  0.00     0.031 C 
ATOM     71  C   UNL A   1      42.443  30.607  33.000  1.00  0.00     0.037 A 
BRANCH  58  72
ATOM     72  C   UNL A   1      45.006  32.499  27.705  1.00  0.00     0.064 A 
ATOM     73  C   UNL A   1      45.789  33.661  27.790  1.00  0.00     0.173 A 
ATOM     74  C   UNL A   1      44.258  32.295  26.535  1.00  0.00     0.173 A 
ATOM     75  F   UNL A   1      46.509  33.910  28.893  1.00  0.00    -0.203 F 
ATOM     76  C   UNL A   1      45.800  34.593  26.756  1.00  0.00     0.198 A 
ATOM     77  C   UNL A   1      44.295  33.215  25.492  1.00  0.00     0.198 A 
ATOM     78  F   UNL A   1      43.496  31.199  26.402  1.00  0.00    -0.203 F 
ATOM     79  F   UNL A   1      46.516  35.719  26.879  1.00  0.00    -0.200 F 
ATOM     80  C   UNL A   1      45.059  34.368  25.606  1.00  0.00     0.200 A 
ATOM     81  F   UNL A   1      43.586  32.991  24.377  1.00  0.00    -0.200 F 
ATOM     82  F   UNL A   1      45.072  35.265  24.610  1.00  0.00    -0.200 F 
ENDBRANCH  58  72
BRANCH  59  83
ATOM     83  C   UNL A   1      45.227  25.573  34.898  1.00  0.00     0.064 A 
ATOM     84  C   UNL A   1      45.901  25.819  36.102  1.00  0.00     0.173 A 
ATOM     85  C   UNL A   1      44.597  24.330  34.744  1.00  0.00     0.173 A 
ATOM     86  F   UNL A   1      46.541  26.984  36.284  1.00  0.00    -0.203 F 
ATOM     87  C   UNL A   1      45.955  24.854  37.105  1.00  0.00     0.198 A 
ATOM     88  C   UNL A   1      44.628  23.376  35.760  1.00  0.00     0.198 A 
ATOM     89  F   UNL A   1      43.940  24.044  33.610  1.00  0.00    -0.203 F 
ATOM     90  F   UNL A   1      46.643  25.098  38.229  1.00  0.00    -0.200 F 
ATOM     91  C   UNL A   1      45.314  23.636  36.936  1.00  0.00     0.200 A 
ATOM     92  F   UNL A   1      43.998  22.205  35.596  1.00  0.00    -0.200 F 
ATOM     93  F   UNL A   1      45.364  22.710  37.903  1.00  0.00    -0.200 F 
ENDBRANCH  59  83
BRANCH  71  94
ATOM     94  C   UNL A   1      41.297  31.215  33.756  1.00  0.00     0.064 A 
ATOM     95  C   UNL A   1      41.476  32.315  34.609  1.00  0.00     0.173 A 
ATOM     96  C   UNL A   1      39.996  30.717  33.591  1.00  0.00     0.173 A 
ATOM     97  F   UNL A   1      42.703  32.818  34.810  1.00  0.00    -0.203 F 
ATOM     98  C   UNL A   1      40.398  32.877  35.286  1.00  0.00     0.198 A 
ATOM     99  C   UNL A   1      38.915  31.301  34.246  1.00  0.00     0.198 A 
ATOM    100  F   UNL A   1      39.769  29.672  32.781  1.00  0.00    -0.203 F 
ATOM    101  F   UNL A   1      40.599  33.898  36.130  1.00  0.00    -0.200 F 
ATOM    102  C   UNL A   1      39.118  32.375  35.099  1.00  0.00     0.200 A 
ATOM    103  F   UNL A   1      37.677  30.824  34.054  1.00  0.00    -0.200 F 
ATOM    104  F   UNL A   1      38.081  32.923  35.747  1.00  0.00    -0.200 F 
ENDBRANCH  71  94
ENDBRANCH  45  46
ENDBRANCH  38  40
ENDBRANCH  37  38
ENDBRANCH  36  37
ENDBRANCH  35  36
ENDBRANCH  34  35
ENDBRANCH   1  34
TORSDOF 20
ENDMDL
MODEL 3
REMARK VINA RESULT:      -9.0      3.635     11.958
REMARK SMILES CC(C)Oc1ccc(-c2ccc(/C(=C\c3ccc(S(C)(=O)=O)cc3)C(=O)OCCOCCOC(=O)c3ccc(-c4c5nc(c(-c6c(F)c(F)c(F)c(F)c6F)c6ccc([nH]6)c(-c6c(F)c(F)c(F)c(F)c6F)c6nc(c(-c7c(F)c(F)c(F)c(F)c7F)c7ccc4[nH]7)C=C6)C=C5)cc3)cc2)cc1
REMARK SMILES IDX 29 1 28 2 27 3 25 4 26 5 13 6 14 7 12 8 9 9 10 10 100 11
REMARK SMILES IDX 11 12 99 13 8 14 5 15 6 16 102 17 7 18 101 19 4 20 2 21 1 22
REMARK SMILES IDX 3 23 15 24 16 25 24 26 17 27 23 28 18 29 19 30 20 31 21 32
REMARK SMILES IDX 22 33 30 34 31 35 32 36 33 37 34 38 35 39 36 40 37 41 98 42
REMARK SMILES IDX 38 43 97 44 39 45 40 46 41 47 91 48 42 49 96 50 90 51 92 52
REMARK SMILES IDX 43 53 95 54 89 55 88 56 44 58 76 59 56 60 75 61 57 62 60 63
REMARK SMILES IDX 74 64 93 65 58 66 59 67 73 69 94 70 61 71 45 72 46 73 54 74
REMARK SMILES IDX 47 75 48 76 52 77 55 78 49 79 50 80 53 81 51 82 77 83 78 84
REMARK SMILES IDX 86 85 79 86 80 87 84 88 87 89 81 90 82 91 85 92 83 93 62 94
REMARK SMILES IDX 63 95 71 96 64 97 65 98 69 99 72 100 66 101 67 102 70 103
REMARK SMILES IDX 68 104
REMARK H PARENT 92 57 60 68
REMARK Flexibility Score: inf
ROOT
ATOM      1  C   UNL A   1      34.027  35.110  31.335  1.00  0.00     0.202 C 
ENDROOT
BRANCH   1   2
ATOM      2  C   UNL A   1      33.474  34.720  29.962  1.00  0.00     0.261 C 
BRANCH   2   3
ATOM      3  O   UNL A   1      33.939  33.410  29.598  1.00  0.00    -0.460 OA
BRANCH   3   4
ATOM      4  C   UNL A   1      34.324  33.273  28.301  1.00  0.00     0.338 C 
ATOM      5  O   UNL A   1      34.779  34.162  27.597  1.00  0.00    -0.246 OA
BRANCH   4   6
ATOM      6  C   UNL A   1      34.263  31.834  27.876  1.00  0.00     0.067 C 
ATOM      7  C   UNL A   1      33.072  31.392  27.402  1.00  0.00     0.024 C 
BRANCH   6   8
ATOM      8  C   UNL A   1      35.507  31.023  28.016  1.00  0.00    -0.011 A 
ATOM      9  C   UNL A   1      37.909  29.458  28.081  1.00  0.00    -0.018 A 
ATOM     10  C   UNL A   1      37.854  30.750  28.623  1.00  0.00     0.009 A 
ATOM     11  C   UNL A   1      36.719  28.950  27.541  1.00  0.00     0.009 A 
ATOM     12  C   UNL A   1      36.670  31.500  28.627  1.00  0.00     0.009 A 
ATOM     13  C   UNL A   1      35.546  29.717  27.502  1.00  0.00     0.009 A 
BRANCH   9  14
ATOM     14  C   UNL A   1      39.154  28.658  28.110  1.00  0.00    -0.018 A 
ATOM     15  C   UNL A   1      41.519  27.094  28.108  1.00  0.00     0.119 A 
ATOM     16  C   UNL A   1      40.314  26.546  28.536  1.00  0.00     0.047 A 
ATOM     17  C   UNL A   1      41.551  28.409  27.661  1.00  0.00     0.047 A 
ATOM     18  C   UNL A   1      39.149  27.319  28.539  1.00  0.00     0.012 A 
ATOM     19  C   UNL A   1      40.385  29.186  27.682  1.00  0.00     0.012 A 
BRANCH  15  20
ATOM     20  O   UNL A   1      42.583  26.246  28.018  1.00  0.00    -0.491 OA
BRANCH  20  21
ATOM     21  C   UNL A   1      43.693  26.446  28.906  1.00  0.00     0.167 C 
ATOM     22  C   UNL A   1      43.863  25.309  29.908  1.00  0.00     0.052 C 
ATOM     23  C   UNL A   1      45.000  26.823  28.211  1.00  0.00     0.052 C 
ENDBRANCH  20  21
ENDBRANCH  15  20
ENDBRANCH   9  14
ENDBRANCH   6   8
BRANCH   7  24
ATOM     24  C   UNL A   1      32.818  30.082  26.781  1.00  0.00    -0.025 A 
ATOM     25  C   UNL A   1      32.395  29.048  27.629  1.00  0.00     0.009 A 
ATOM     26  C   UNL A   1      32.812  29.884  25.393  1.00  0.00     0.009 A 
ATOM     27  C   UNL A   1      31.848  27.880  27.099  1.00  0.00     0.021 A 
ATOM     28  C   UNL A   1      32.259  28.716  24.855  1.00  0.00     0.021 A 
ATOM     29  C   UNL A   1      31.749  27.737  25.713  1.00  0.00     0.067 A 
BRANCH  29  30
ATOM     30  S   UNL A   1      30.788  26.388  25.065  1.00  0.00     0.175 S 
ATOM     31  C   UNL A   1      29.794  27.127  23.801  1.00  0.00     0.163 C 
ATOM     32  O   UNL A   1      31.722  25.476  24.430  1.00  0.00    -0.224 OA
ATOM     33  O   UNL A   1      29.904  25.928  26.119  1.00  0.00    -0.224 OA
ENDBRANCH  29  30
ENDBRANCH   7  24
ENDBRANCH   4   6
ENDBRANCH   3   4
ENDBRANCH   2   3
ENDBRANCH   1   2
BRANCH   1  34
ATOM     34  O   UNL A   1      34.747  34.086  32.023  1.00  0.00    -0.374 OA
BRANCH  34  35
ATOM     35  C   UNL A   1      35.823  34.498  32.867  1.00  0.00     0.202 C 
BRANCH  35  36
ATOM     36  C   UNL A   1      37.037  33.566  32.927  1.00  0.00     0.261 C 
BRANCH  36  37
ATOM     37  O   UNL A   1      36.740  32.348  33.632  1.00  0.00    -0.460 OA
BRANCH  37  38
ATOM     38  C   UNL A   1      36.636  31.252  32.847  1.00  0.00     0.338 C 
ATOM     39  O   UNL A   1      35.668  30.897  32.188  1.00  0.00    -0.246 OA
BRANCH  38  40
ATOM     40  C   UNL A   1      37.948  30.589  32.738  1.00  0.00     0.060 A 
ATOM     41  C   UNL A   1      39.008  31.132  33.476  1.00  0.00     0.016 A 
ATOM     42  C   UNL A   1      38.157  29.503  31.885  1.00  0.00     0.016 A 
ATOM     43  C   UNL A   1      40.295  30.626  33.322  1.00  0.00     0.010 A 
ATOM     44  C   UNL A   1      39.452  29.001  31.726  1.00  0.00     0.010 A 
ATOM     45  C   UNL A   1      40.531  29.585  32.415  1.00  0.00    -0.014 A 
BRANCH  45  46
ATOM     46  C   UNL A   1      41.926  29.220  32.073  1.00  0.00     0.031 A 
ATOM     47  C   UNL A   1      42.644  30.009  31.014  1.00  0.00     0.074 A 
ATOM     48  C   UNL A   1      42.553  28.221  32.717  1.00  0.00     0.049 A 
ATOM     49  N   UNL A   1      43.851  29.852  30.535  1.00  0.00    -0.248 NA
ATOM     50  C   UNL A   1      41.898  31.127  30.414  1.00  0.00     0.031 C 
ATOM     51  C   UNL A   1      41.975  27.414  33.789  1.00  0.00     0.029 A 
ATOM     52  N   UNL A   1      43.819  27.716  32.558  1.00  0.00    -0.354 N 
ATOM     53  C   UNL A   1      44.008  30.846  29.577  1.00  0.00     0.074 A 
ATOM     54  C   UNL A   1      42.762  31.579  29.519  1.00  0.00     0.031 C 
ATOM     55  C   UNL A   1      42.883  26.507  34.189  1.00  0.00     0.029 A 
ATOM     56  C   UNL A   1      44.093  26.652  33.380  1.00  0.00     0.049 A 
ATOM     57  H   UNL A   1      44.468  28.083  31.914  1.00  0.00     0.167 HD
ATOM     58  C   UNL A   1      45.097  31.128  28.824  1.00  0.00     0.037 A 
ATOM     59  C   UNL A   1      45.189  25.874  33.454  1.00  0.00     0.037 A 
ATOM     60  C   UNL A   1      46.334  30.396  28.883  1.00  0.00     0.049 A 
ATOM     61  C   UNL A   1      46.361  26.161  32.551  1.00  0.00     0.074 A 
ATOM     62  C   UNL A   1      47.501  30.610  28.170  1.00  0.00     0.029 A 
ATOM     63  N   UNL A   1      46.562  29.300  29.703  1.00  0.00    -0.354 N 
ATOM     64  N   UNL A   1      46.510  27.114  31.663  1.00  0.00    -0.248 NA
ATOM     65  C   UNL A   1      47.519  25.263  32.664  1.00  0.00     0.031 C 
ATOM     66  C   UNL A   1      48.418  29.615  28.524  1.00  0.00     0.029 A 
ATOM     67  C   UNL A   1      47.842  28.812  29.495  1.00  0.00     0.049 A 
ATOM     68  H   UNL A   1      45.910  28.925  30.339  1.00  0.00     0.167 HD
ATOM     69  C   UNL A   1      47.785  26.951  31.136  1.00  0.00     0.074 A 
ATOM     70  C   UNL A   1      48.372  25.812  31.810  1.00  0.00     0.031 C 
ATOM     71  C   UNL A   1      48.414  27.681  30.182  1.00  0.00     0.037 A 
BRANCH  58  72
ATOM     72  C   UNL A   1      44.987  32.264  27.850  1.00  0.00     0.064 A 
ATOM     73  C   UNL A   1      45.553  33.521  28.114  1.00  0.00     0.173 A 
ATOM     74  C   UNL A   1      44.322  32.089  26.626  1.00  0.00     0.173 A 
ATOM     75  F   UNL A   1      46.184  33.745  29.276  1.00  0.00    -0.203 F 
ATOM     76  C   UNL A   1      45.434  34.566  27.202  1.00  0.00     0.198 A 
ATOM     77  C   UNL A   1      44.231  33.127  25.704  1.00  0.00     0.198 A 
ATOM     78  F   UNL A   1      43.766  30.906  26.322  1.00  0.00    -0.203 F 
ATOM     79  F   UNL A   1      45.940  35.772  27.498  1.00  0.00    -0.200 F 
ATOM     80  C   UNL A   1      44.780  34.367  25.996  1.00  0.00     0.200 A 
ATOM     81  F   UNL A   1      43.607  32.930  24.535  1.00  0.00    -0.200 F 
ATOM     82  F   UNL A   1      44.669  35.374  25.118  1.00  0.00    -0.200 F 
ENDBRANCH  58  72
BRANCH  59  83
ATOM     83  C   UNL A   1      45.233  24.745  34.419  1.00  0.00     0.064 A 
ATOM     84  C   UNL A   1      44.865  23.450  34.033  1.00  0.00     0.173 A 
ATOM     85  C   UNL A   1      45.630  24.942  35.750  1.00  0.00     0.173 A 
ATOM     86  F   UNL A   1      44.453  23.217  32.778  1.00  0.00    -0.203 F 
ATOM     87  C   UNL A   1      44.879  22.396  34.945  1.00  0.00     0.198 A 
ATOM     88  C   UNL A   1      45.670  23.883  36.654  1.00  0.00     0.198 A 
ATOM     89  F   UNL A   1      45.990  26.164  36.171  1.00  0.00    -0.203 F 
ATOM     90  F   UNL A   1      44.479  21.176  34.561  1.00  0.00    -0.200 F 
ATOM     91  C   UNL A   1      45.286  22.613  36.253  1.00  0.00     0.200 A 
ATOM     92  F   UNL A   1      46.074  24.095  37.913  1.00  0.00    -0.200 F 
ATOM     93  F   UNL A   1      45.302  21.599  37.128  1.00  0.00    -0.200 F 
ENDBRANCH  59  83
BRANCH  71  94
ATOM     94  C   UNL A   1      49.823  27.296  29.836  1.00  0.00     0.064 A 
ATOM     95  C   UNL A   1      50.113  26.445  28.760  1.00  0.00     0.173 A 
ATOM     96  C   UNL A   1      50.900  27.822  30.566  1.00  0.00     0.173 A 
ATOM     97  F   UNL A   1      49.118  25.906  28.040  1.00  0.00    -0.203 F 
ATOM     98  C   UNL A   1      51.428  26.114  28.443  1.00  0.00     0.198 A 
ATOM     99  C   UNL A   1      52.215  27.513  30.228  1.00  0.00     0.198 A 
ATOM    100  F   UNL A   1      50.679  28.647  31.600  1.00  0.00    -0.203 F 
ATOM    101  F   UNL A   1      51.679  25.263  27.439  1.00  0.00    -0.200 F 
ATOM    102  C   UNL A   1      52.478  26.655  29.172  1.00  0.00     0.200 A 
ATOM    103  F   UNL A   1      53.229  28.047  30.924  1.00  0.00    -0.200 F 
ATOM    104  F   UNL A   1      53.742  26.341  28.860  1.00  0.00    -0.200 F 
ENDBRANCH  71  94
ENDBRANCH  45  46
ENDBRANCH  38  40
ENDBRANCH  37  38
ENDBRANCH  36  37
ENDBRANCH  35  36
ENDBRANCH  34  35
ENDBRANCH   1  34
TORSDOF 20
ENDMDL
