MODEL 1
REMARK VINA RESULT:     -11.1      0.000      0.000
REMARK SMILES C[NH2+]C[C@H](C)C(=O)N1CCc2cc(C(=O)OCCOCCOC(=O)c3ccc(-c4c5nc(c(-c6c(F)c(F)c(F)c(F)c6F)c6ccc([nH]6)c(-c6c(F)c(F)c(F)c(F)c6F)c6nc(c(-c7c(F)c(F)c(F)c(F)c7F)c7ccc4[nH]7)C=C6)C=C5)cc3)ccc21
REMARK SMILES IDX 18 1 17 2 16 3 14 4 15 5 13 6 8 7 9 8 90 9 10 10 11 11 89 12
REMARK SMILES IDX 12 13 88 14 6 15 7 16 4 17 5 18 3 19 2 20 1 21 19 24 20 25
REMARK SMILES IDX 21 26 22 27 23 28 24 29 25 30 26 31 87 32 27 33 86 34 28 35
REMARK SMILES IDX 29 36 30 37 80 38 31 39 85 40 79 41 81 42 32 43 84 44 78 45
REMARK SMILES IDX 77 46 33 48 65 49 45 50 64 51 46 52 49 53 63 54 82 55 47 56
REMARK SMILES IDX 48 57 62 59 83 60 50 61 34 62 35 63 43 64 36 65 37 66 41 67
REMARK SMILES IDX 44 68 38 69 39 70 42 71 40 72 66 73 67 74 75 75 68 76 69 77
REMARK SMILES IDX 73 78 76 79 70 80 71 81 74 82 72 83 51 84 52 85 60 86 53 87
REMARK SMILES IDX 54 88 58 89 61 90 55 91 56 92 59 93 57 94
REMARK H PARENT 2 22 2 23 81 47 49 58
REMARK Flexibility Score: inf
ROOT
ATOM      1  C   UNL A   1      39.707  20.944  26.140  1.00  0.00     0.202 C 
ENDROOT
BRANCH   1   2
ATOM      2  C   UNL A   1      38.857  22.084  25.571  1.00  0.00     0.261 C 
BRANCH   2   3
ATOM      3  O   UNL A   1      37.538  22.071  26.133  1.00  0.00    -0.460 OA
BRANCH   3   4
ATOM      4  C   UNL A   1      36.573  21.591  25.314  1.00  0.00     0.338 C 
ATOM      5  O   UNL A   1      36.391  20.425  25.002  1.00  0.00    -0.246 OA
BRANCH   4   6
ATOM      6  C   UNL A   1      35.635  22.678  24.946  1.00  0.00     0.060 A 
ATOM      7  N   UNL A   1      33.156  25.661  23.466  1.00  0.00    -0.311 N 
ATOM      8  C   UNL A   1      32.692  25.071  22.199  1.00  0.00     0.130 C 
ATOM      9  C   UNL A   1      33.948  24.726  24.134  1.00  0.00     0.047 A 
ATOM     10  C   UNL A   1      33.269  23.657  22.112  1.00  0.00     0.059 C 
ATOM     11  C   UNL A   1      34.147  23.612  23.321  1.00  0.00    -0.022 A 
ATOM     12  C   UNL A   1      34.436  24.740  25.424  1.00  0.00     0.027 A 
ATOM     13  C   UNL A   1      35.010  22.596  23.695  1.00  0.00     0.021 A 
ATOM     14  C   UNL A   1      35.300  23.718  25.832  1.00  0.00     0.018 A 
BRANCH   7  15
ATOM     15  C   UNL A   1      32.880  26.980  23.734  1.00  0.00     0.235 C 
ATOM     16  O   UNL A   1      33.809  27.793  23.830  1.00  0.00    -0.274 OA
BRANCH  15  17
ATOM     17  C   UNL A   1      31.467  27.434  24.144  1.00  0.00     0.131 C 
ATOM     18  C   UNL A   1      30.763  26.563  25.178  1.00  0.00     0.024 C 
BRANCH  17  19
ATOM     19  C   UNL A   1      31.320  28.932  24.487  1.00  0.00     0.273 C 
BRANCH  19  20
ATOM     20  N   UNL A   1      30.668  29.822  23.524  1.00  0.00    -0.348 N 
ATOM     21  C   UNL A   1      30.048  29.140  22.398  1.00  0.00     0.330 C 
ATOM     22  H   UNL A   1      29.946  30.350  24.015  1.00  0.00     0.346 HD
ATOM     23  H   UNL A   1      31.400  30.417  23.136  1.00  0.00     0.346 HD
ENDBRANCH  19  20
ENDBRANCH  17  19
ENDBRANCH  15  17
ENDBRANCH   7  15
ENDBRANCH   4   6
ENDBRANCH   3   4
ENDBRANCH   2   3
ENDBRANCH   1   2
BRANCH   1  24
ATOM     24  O   UNL A   1      40.923  21.301  26.793  1.00  0.00    -0.374 OA
BRANCH  24  25
ATOM     25  C   UNL A   1      42.126  20.680  26.342  1.00  0.00     0.202 C 
BRANCH  25  26
ATOM     26  C   UNL A   1      43.161  21.567  25.637  1.00  0.00     0.261 C 
BRANCH  26  27
ATOM     27  O   UNL A   1      42.565  22.710  24.999  1.00  0.00    -0.460 OA
BRANCH  27  28
ATOM     28  C   UNL A   1      43.319  23.834  25.044  1.00  0.00     0.338 C 
ATOM     29  O   UNL A   1      44.290  24.106  24.354  1.00  0.00    -0.246 OA
BRANCH  28  30
ATOM     30  C   UNL A   1      42.698  24.817  25.948  1.00  0.00     0.060 A 
ATOM     31  C   UNL A   1      43.341  26.050  26.106  1.00  0.00     0.016 A 
ATOM     32  C   UNL A   1      41.554  24.509  26.687  1.00  0.00     0.016 A 
ATOM     33  C   UNL A   1      42.872  26.966  27.044  1.00  0.00     0.010 A 
ATOM     34  C   UNL A   1      41.088  25.427  27.632  1.00  0.00     0.010 A 
ATOM     35  C   UNL A   1      41.766  26.644  27.841  1.00  0.00    -0.014 A 
BRANCH  35  36
ATOM     36  C   UNL A   1      41.401  27.519  28.981  1.00  0.00     0.031 A 
ATOM     37  C   UNL A   1      42.213  27.450  30.244  1.00  0.00     0.074 A 
ATOM     38  C   UNL A   1      40.374  28.381  28.883  1.00  0.00     0.049 A 
ATOM     39  N   UNL A   1      42.046  28.086  31.377  1.00  0.00    -0.248 NA
ATOM     40  C   UNL A   1      43.367  26.537  30.231  1.00  0.00     0.031 C 
ATOM     41  C   UNL A   1      39.542  28.566  27.697  1.00  0.00     0.029 A 
ATOM     42  N   UNL A   1      39.855  29.256  29.803  1.00  0.00    -0.354 N 
ATOM     43  C   UNL A   1      43.064  27.642  32.211  1.00  0.00     0.074 A 
ATOM     44  C   UNL A   1      43.821  26.658  31.469  1.00  0.00     0.031 C 
ATOM     45  C   UNL A   1      38.607  29.494  27.963  1.00  0.00     0.029 A 
ATOM     46  C   UNL A   1      38.755  29.938  29.349  1.00  0.00     0.049 A 
ATOM     47  H   UNL A   1      40.236  29.383  30.702  1.00  0.00     0.167 HD
ATOM     48  C   UNL A   1      43.347  28.030  33.479  1.00  0.00     0.037 A 
ATOM     49  C   UNL A   1      37.944  30.803  29.988  1.00  0.00     0.037 A 
ATOM     50  C   UNL A   1      42.589  29.012  34.211  1.00  0.00     0.049 A 
ATOM     51  C   UNL A   1      38.232  31.160  31.424  1.00  0.00     0.074 A 
ATOM     52  C   UNL A   1      42.806  29.491  35.491  1.00  0.00     0.029 A 
ATOM     53  N   UNL A   1      41.458  29.657  33.731  1.00  0.00    -0.354 N 
ATOM     54  N   UNL A   1      39.212  30.759  32.199  1.00  0.00    -0.248 NA
ATOM     55  C   UNL A   1      37.303  32.096  32.073  1.00  0.00     0.031 C 
ATOM     56  C   UNL A   1      41.770  30.375  35.810  1.00  0.00     0.029 A 
ATOM     57  C   UNL A   1      40.947  30.504  34.702  1.00  0.00     0.049 A 
ATOM     58  H   UNL A   1      41.074  29.531  32.833  1.00  0.00     0.167 HD
ATOM     59  C   UNL A   1      39.036  31.416  33.410  1.00  0.00     0.074 A 
ATOM     60  C   UNL A   1      37.863  32.252  33.264  1.00  0.00     0.031 C 
ATOM     61  C   UNL A   1      39.780  31.336  34.542  1.00  0.00     0.037 A 
BRANCH  48  62
ATOM     62  C   UNL A   1      44.507  27.367  34.166  1.00  0.00     0.064 A 
ATOM     63  C   UNL A   1      45.799  27.914  34.138  1.00  0.00     0.173 A 
ATOM     64  C   UNL A   1      44.317  26.178  34.887  1.00  0.00     0.173 A 
ATOM     65  F   UNL A   1      46.040  29.044  33.454  1.00  0.00    -0.203 F 
ATOM     66  C   UNL A   1      46.862  27.279  34.775  1.00  0.00     0.198 A 
ATOM     67  C   UNL A   1      45.375  25.564  35.552  1.00  0.00     0.198 A 
ATOM     68  F   UNL A   1      43.103  25.612  34.953  1.00  0.00    -0.203 F 
ATOM     69  F   UNL A   1      48.098  27.791  34.685  1.00  0.00    -0.200 F 
ATOM     70  C   UNL A   1      46.648  26.109  35.487  1.00  0.00     0.200 A 
ATOM     71  F   UNL A   1      45.162  24.442  36.254  1.00  0.00    -0.200 F 
ATOM     72  F   UNL A   1      47.670  25.502  36.106  1.00  0.00    -0.200 F 
ENDBRANCH  48  62
BRANCH  49  73
ATOM     73  C   UNL A   1      36.776  31.388  29.278  1.00  0.00     0.064 A 
ATOM     74  C   UNL A   1      35.654  30.608  28.964  1.00  0.00     0.173 A 
ATOM     75  C   UNL A   1      36.762  32.736  28.889  1.00  0.00     0.173 A 
ATOM     76  F   UNL A   1      35.631  29.308  29.293  1.00  0.00    -0.203 F 
ATOM     77  C   UNL A   1      34.572  31.148  28.273  1.00  0.00     0.198 A 
ATOM     78  C   UNL A   1      35.666  33.283  28.226  1.00  0.00     0.198 A 
ATOM     79  F   UNL A   1      37.810  33.527  29.165  1.00  0.00    -0.203 F 
ATOM     80  F   UNL A   1      33.535  30.368  27.943  1.00  0.00    -0.200 F 
ATOM     81  C   UNL A   1      34.575  32.487  27.910  1.00  0.00     0.200 A 
ATOM     82  F   UNL A   1      35.666  34.581  27.892  1.00  0.00    -0.200 F 
ATOM     83  F   UNL A   1      33.532  33.007  27.252  1.00  0.00    -0.200 F 
ENDBRANCH  49  73
BRANCH  61  84
ATOM     84  C   UNL A   1      39.379  32.208  35.698  1.00  0.00     0.064 A 
ATOM     85  C   UNL A   1      39.822  33.535  35.817  1.00  0.00     0.173 A 
ATOM     86  C   UNL A   1      38.503  31.722  36.682  1.00  0.00     0.173 A 
ATOM     87  F   UNL A   1      40.671  34.046  34.912  1.00  0.00    -0.203 F 
ATOM     88  C   UNL A   1      39.431  34.328  36.892  1.00  0.00     0.198 A 
ATOM     89  C   UNL A   1      38.084  32.530  37.736  1.00  0.00     0.198 A 
ATOM     90  F   UNL A   1      38.040  30.465  36.614  1.00  0.00    -0.203 F 
ATOM     91  F   UNL A   1      39.913  35.573  37.014  1.00  0.00    -0.200 F 
ATOM     92  C   UNL A   1      38.556  33.828  37.846  1.00  0.00     0.200 A 
ATOM     93  F   UNL A   1      37.224  32.050  38.645  1.00  0.00    -0.200 F 
ATOM     94  F   UNL A   1      38.172  34.597  38.874  1.00  0.00    -0.200 F 
ENDBRANCH  61  84
ENDBRANCH  35  36
ENDBRANCH  28  30
ENDBRANCH  27  28
ENDBRANCH  26  27
ENDBRANCH  25  26
ENDBRANCH  24  25
ENDBRANCH   1  24
TORSDOF 18
ENDMDL
MODEL 2
REMARK VINA RESULT:     -10.9      3.756      9.016
REMARK SMILES C[NH2+]C[C@H](C)C(=O)N1CCc2cc(C(=O)OCCOCCOC(=O)c3ccc(-c4c5nc(c(-c6c(F)c(F)c(F)c(F)c6F)c6ccc([nH]6)c(-c6c(F)c(F)c(F)c(F)c6F)c6nc(c(-c7c(F)c(F)c(F)c(F)c7F)c7ccc4[nH]7)C=C6)C=C5)cc3)ccc21
REMARK SMILES IDX 18 1 17 2 16 3 14 4 15 5 13 6 8 7 9 8 90 9 10 10 11 11 89 12
REMARK SMILES IDX 12 13 88 14 6 15 7 16 4 17 5 18 3 19 2 20 1 21 19 24 20 25
REMARK SMILES IDX 21 26 22 27 23 28 24 29 25 30 26 31 87 32 27 33 86 34 28 35
REMARK SMILES IDX 29 36 30 37 80 38 31 39 85 40 79 41 81 42 32 43 84 44 78 45
REMARK SMILES IDX 77 46 33 48 65 49 45 50 64 51 46 52 49 53 63 54 82 55 47 56
REMARK SMILES IDX 48 57 62 59 83 60 50 61 34 62 35 63 43 64 36 65 37 66 41 67
REMARK SMILES IDX 44 68 38 69 39 70 42 71 40 72 66 73 67 74 75 75 68 76 69 77
REMARK SMILES IDX 73 78 76 79 70 80 71 81 74 82 72 83 51 84 52 85 60 86 53 87
REMARK SMILES IDX 54 88 58 89 61 90 55 91 56 92 59 93 57 94
REMARK H PARENT 2 22 2 23 81 47 49 58
REMARK Flexibility Score: inf
ROOT
ATOM      1  C   UNL A   1      35.327  33.722  28.466  1.00  0.00     0.202 C 
ENDROOT
BRANCH   1   2
ATOM      2  C   UNL A   1      34.730  32.430  29.032  1.00  0.00     0.261 C 
BRANCH   2   3
ATOM      3  O   UNL A   1      34.097  31.662  28.000  1.00  0.00    -0.460 OA
BRANCH   3   4
ATOM      4  C   UNL A   1      34.806  30.594  27.566  1.00  0.00     0.338 C 
ATOM      5  O   UNL A   1      36.020  30.459  27.598  1.00  0.00    -0.246 OA
BRANCH   4   6
ATOM      6  C   UNL A   1      33.885  29.503  27.170  1.00  0.00     0.060 A 
ATOM      7  N   UNL A   1      31.587  26.382  25.682  1.00  0.00    -0.311 N 
ATOM      8  C   UNL A   1      32.618  25.452  25.189  1.00  0.00     0.130 C 
ATOM      9  C   UNL A   1      32.216  27.465  26.299  1.00  0.00     0.047 A 
ATOM     10  C   UNL A   1      33.982  26.046  25.547  1.00  0.00     0.059 C 
ATOM     11  C   UNL A   1      33.595  27.372  26.119  1.00  0.00    -0.022 A 
ATOM     12  C   UNL A   1      31.683  28.474  27.072  1.00  0.00     0.027 A 
ATOM     13  C   UNL A   1      34.440  28.394  26.518  1.00  0.00     0.021 A 
ATOM     14  C   UNL A   1      32.519  29.512  27.499  1.00  0.00     0.018 A 
BRANCH   7  15
ATOM     15  C   UNL A   1      30.268  26.144  25.379  1.00  0.00     0.235 C 
ATOM     16  O   UNL A   1      29.586  25.434  26.130  1.00  0.00    -0.274 OA
BRANCH  15  17
ATOM     17  C   UNL A   1      29.676  26.544  24.016  1.00  0.00     0.131 C 
ATOM     18  C   UNL A   1      28.154  26.599  23.942  1.00  0.00     0.024 C 
BRANCH  17  19
ATOM     19  C   UNL A   1      30.309  27.787  23.352  1.00  0.00     0.273 C 
BRANCH  19  20
ATOM     20  N   UNL A   1      31.505  27.620  22.524  1.00  0.00    -0.348 N 
ATOM     21  C   UNL A   1      32.524  28.639  22.727  1.00  0.00     0.330 C 
ATOM     22  H   UNL A   1      31.916  26.711  22.737  1.00  0.00     0.346 HD
ATOM     23  H   UNL A   1      31.201  27.701  21.554  1.00  0.00     0.346 HD
ENDBRANCH  19  20
ENDBRANCH  17  19
ENDBRANCH  15  17
ENDBRANCH   7  15
ENDBRANCH   4   6
ENDBRANCH   3   4
ENDBRANCH   2   3
ENDBRANCH   1   2
BRANCH   1  24
ATOM     24  O   UNL A   1      34.431  34.628  27.826  1.00  0.00    -0.374 OA
BRANCH  24  25
ATOM     25  C   UNL A   1      34.169  35.873  28.475  1.00  0.00     0.202 C 
BRANCH  25  26
ATOM     26  C   UNL A   1      32.835  36.016  29.220  1.00  0.00     0.261 C 
BRANCH  26  27
ATOM     27  O   UNL A   1      32.672  35.031  30.254  1.00  0.00    -0.460 OA
BRANCH  27  28
ATOM     28  C   UNL A   1      32.803  35.513  31.513  1.00  0.00     0.338 C 
ATOM     29  O   UNL A   1      32.033  36.247  32.113  1.00  0.00    -0.246 OA
BRANCH  28  30
ATOM     30  C   UNL A   1      33.957  34.877  32.173  1.00  0.00     0.060 A 
ATOM     31  C   UNL A   1      35.213  35.472  32.000  1.00  0.00     0.016 A 
ATOM     32  C   UNL A   1      33.826  33.680  32.879  1.00  0.00     0.016 A 
ATOM     33  C   UNL A   1      36.354  34.845  32.490  1.00  0.00     0.010 A 
ATOM     34  C   UNL A   1      34.975  33.049  33.367  1.00  0.00     0.010 A 
ATOM     35  C   UNL A   1      36.247  33.610  33.143  1.00  0.00    -0.014 A 
BRANCH  35  36
ATOM     36  C   UNL A   1      37.472  32.842  33.470  1.00  0.00     0.031 A 
ATOM     37  C   UNL A   1      38.193  33.129  34.757  1.00  0.00     0.074 A 
ATOM     38  C   UNL A   1      37.923  31.884  32.641  1.00  0.00     0.049 A 
ATOM     39  N   UNL A   1      39.305  32.615  35.221  1.00  0.00    -0.248 NA
ATOM     40  C   UNL A   1      37.582  34.136  35.638  1.00  0.00     0.031 C 
ATOM     41  C   UNL A   1      37.286  31.488  31.387  1.00  0.00     0.029 A 
ATOM     42  N   UNL A   1      39.028  31.076  32.731  1.00  0.00    -0.354 N 
ATOM     43  C   UNL A   1      39.530  33.243  36.440  1.00  0.00     0.074 A 
ATOM     44  C   UNL A   1      38.461  34.201  36.626  1.00  0.00     0.031 C 
ATOM     45  C   UNL A   1      38.017  30.515  30.818  1.00  0.00     0.029 A 
ATOM     46  C   UNL A   1      39.191  30.248  31.649  1.00  0.00     0.049 A 
ATOM     47  H   UNL A   1      39.645  31.089  33.498  1.00  0.00     0.167 HD
ATOM     48  C   UNL A   1      40.532  33.031  37.327  1.00  0.00     0.037 A 
ATOM     49  C   UNL A   1      40.187  29.392  31.351  1.00  0.00     0.037 A 
ATOM     50  C   UNL A   1      41.593  32.075  37.134  1.00  0.00     0.049 A 
ATOM     51  C   UNL A   1      41.333  29.230  32.317  1.00  0.00     0.074 A 
ATOM     52  C   UNL A   1      42.642  31.768  37.983  1.00  0.00     0.029 A 
ATOM     53  N   UNL A   1      41.744  31.278  36.008  1.00  0.00    -0.354 N 
ATOM     54  N   UNL A   1      41.526  29.806  33.480  1.00  0.00    -0.248 NA
ATOM     55  C   UNL A   1      42.398  28.295  31.930  1.00  0.00     0.031 C 
ATOM     56  C   UNL A   1      43.464  30.836  37.342  1.00  0.00     0.029 A 
ATOM     57  C   UNL A   1      42.889  30.505  36.125  1.00  0.00     0.049 A 
ATOM     58  H   UNL A   1      41.129  31.264  35.239  1.00  0.00     0.167 HD
ATOM     59  C   UNL A   1      42.712  29.279  33.976  1.00  0.00     0.074 A 
ATOM     60  C   UNL A   1      43.188  28.329  32.994  1.00  0.00     0.031 C 
ATOM     61  C   UNL A   1      43.349  29.557  35.142  1.00  0.00     0.037 A 
BRANCH  48  62
ATOM     62  C   UNL A   1      40.548  33.872  38.572  1.00  0.00     0.064 A 
ATOM     63  C   UNL A   1      41.277  35.069  38.650  1.00  0.00     0.173 A 
ATOM     64  C   UNL A   1      39.800  33.489  39.695  1.00  0.00     0.173 A 
ATOM     65  F   UNL A   1      42.020  35.478  37.609  1.00  0.00    -0.203 F 
ATOM     66  C   UNL A   1      41.284  35.830  39.817  1.00  0.00     0.198 A 
ATOM     67  C   UNL A   1      39.781  34.270  40.847  1.00  0.00     0.198 A 
ATOM     68  F   UNL A   1      39.080  32.357  39.675  1.00  0.00    -0.203 F 
ATOM     69  F   UNL A   1      42.035  36.939  39.887  1.00  0.00    -0.200 F 
ATOM     70  C   UNL A   1      40.531  35.434  40.911  1.00  0.00     0.200 A 
ATOM     71  F   UNL A   1      39.039  33.893  41.899  1.00  0.00    -0.200 F 
ATOM     72  F   UNL A   1      40.533  36.171  42.031  1.00  0.00    -0.200 F 
ENDBRANCH  48  62
BRANCH  49  73
ATOM     73  C   UNL A   1      40.150  28.625  30.078  1.00  0.00     0.064 A 
ATOM     74  C   UNL A   1      40.738  29.131  28.911  1.00  0.00     0.173 A 
ATOM     75  C   UNL A   1      39.518  27.375  30.000  1.00  0.00     0.173 A 
ATOM     76  F   UNL A   1      41.334  30.333  28.929  1.00  0.00    -0.203 F 
ATOM     77  C   UNL A   1      40.679  28.426  27.711  1.00  0.00     0.198 A 
ATOM     78  C   UNL A   1      39.487  26.656  28.808  1.00  0.00     0.198 A 
ATOM     79  F   UNL A   1      38.940  26.844  31.089  1.00  0.00    -0.203 F 
ATOM     80  F   UNL A   1      41.206  28.956  26.599  1.00  0.00    -0.200 F 
ATOM     81  C   UNL A   1      40.060  27.186  27.661  1.00  0.00     0.200 A 
ATOM     82  F   UNL A   1      38.901  25.452  28.769  1.00  0.00    -0.200 F 
ATOM     83  F   UNL A   1      40.009  26.506  26.509  1.00  0.00    -0.200 F 
ENDBRANCH  49  73
BRANCH  61  84
ATOM     84  C   UNL A   1      44.606  28.790  35.444  1.00  0.00     0.064 A 
ATOM     85  C   UNL A   1      45.874  29.272  35.082  1.00  0.00     0.173 A 
ATOM     86  C   UNL A   1      44.544  27.574  36.143  1.00  0.00     0.173 A 
ATOM     87  F   UNL A   1      45.991  30.422  34.401  1.00  0.00    -0.203 F 
ATOM     88  C   UNL A   1      47.027  28.548  35.379  1.00  0.00     0.198 A 
ATOM     89  C   UNL A   1      45.701  26.872  36.470  1.00  0.00     0.198 A 
ATOM     90  F   UNL A   1      43.359  27.071  36.521  1.00  0.00    -0.203 F 
ATOM     91  F   UNL A   1      48.222  29.000  34.974  1.00  0.00    -0.200 F 
ATOM     92  C   UNL A   1      46.940  27.355  36.081  1.00  0.00     0.200 A 
ATOM     93  F   UNL A   1      45.615  25.729  37.164  1.00  0.00    -0.200 F 
ATOM     94  F   UNL A   1      48.051  26.666  36.375  1.00  0.00    -0.200 F 
ENDBRANCH  61  84
ENDBRANCH  35  36
ENDBRANCH  28  30
ENDBRANCH  27  28
ENDBRANCH  26  27
ENDBRANCH  25  26
ENDBRANCH  24  25
ENDBRANCH   1  24
TORSDOF 18
ENDMDL
MODEL 3
REMARK VINA RESULT:     -10.8      3.762      9.155
REMARK SMILES C[NH2+]C[C@H](C)C(=O)N1CCc2cc(C(=O)OCCOCCOC(=O)c3ccc(-c4c5nc(c(-c6c(F)c(F)c(F)c(F)c6F)c6ccc([nH]6)c(-c6c(F)c(F)c(F)c(F)c6F)c6nc(c(-c7c(F)c(F)c(F)c(F)c7F)c7ccc4[nH]7)C=C6)C=C5)cc3)ccc21
REMARK SMILES IDX 18 1 17 2 16 3 14 4 15 5 13 6 8 7 9 8 90 9 10 10 11 11 89 12
REMARK SMILES IDX 12 13 88 14 6 15 7 16 4 17 5 18 3 19 2 20 1 21 19 24 20 25
REMARK SMILES IDX 21 26 22 27 23 28 24 29 25 30 26 31 87 32 27 33 86 34 28 35
REMARK SMILES IDX 29 36 30 37 80 38 31 39 85 40 79 41 81 42 32 43 84 44 78 45
REMARK SMILES IDX 77 46 33 48 65 49 45 50 64 51 46 52 49 53 63 54 82 55 47 56
REMARK SMILES IDX 48 57 62 59 83 60 50 61 34 62 35 63 43 64 36 65 37 66 41 67
REMARK SMILES IDX 44 68 38 69 39 70 42 71 40 72 66 73 67 74 75 75 68 76 69 77
REMARK SMILES IDX 73 78 76 79 70 80 71 81 74 82 72 83 51 84 52 85 60 86 53 87
REMARK SMILES IDX 54 88 58 89 61 90 55 91 56 92 59 93 57 94
REMARK H PARENT 2 22 2 23 81 47 49 58
REMARK Flexibility Score: inf
ROOT
ATOM      1  C   UNL A   1      35.237  33.809  28.050  1.00  0.00     0.202 C 
ENDROOT
BRANCH   1   2
ATOM      2  C   UNL A   1      34.706  32.757  29.028  1.00  0.00     0.261 C 
BRANCH   2   3
ATOM      3  O   UNL A   1      33.954  31.749  28.339  1.00  0.00    -0.460 OA
BRANCH   3   4
ATOM      4  C   UNL A   1      34.698  30.787  27.745  1.00  0.00     0.338 C 
ATOM      5  O   UNL A   1      35.914  30.679  27.776  1.00  0.00    -0.246 OA
BRANCH   4   6
ATOM      6  C   UNL A   1      33.813  29.755  27.155  1.00  0.00     0.060 A 
ATOM      7  N   UNL A   1      31.697  26.757  25.215  1.00  0.00    -0.311 N 
ATOM      8  C   UNL A   1      32.728  25.720  25.040  1.00  0.00     0.130 C 
ATOM      9  C   UNL A   1      32.243  27.816  25.941  1.00  0.00     0.047 A 
ATOM     10  C   UNL A   1      34.003  26.219  25.725  1.00  0.00     0.059 C 
ATOM     11  C   UNL A   1      33.607  27.601  26.133  1.00  0.00    -0.022 A 
ATOM     12  C   UNL A   1      31.625  28.907  26.516  1.00  0.00     0.027 A 
ATOM     13  C   UNL A   1      34.411  28.570  26.708  1.00  0.00     0.021 A 
ATOM     14  C   UNL A   1      32.414  29.895  27.114  1.00  0.00     0.018 A 
BRANCH   7  15
ATOM     15  C   UNL A   1      30.485  26.611  24.584  1.00  0.00     0.235 C 
ATOM     16  O   UNL A   1      29.687  25.751  24.981  1.00  0.00    -0.274 OA
BRANCH  15  17
ATOM     17  C   UNL A   1      30.184  27.329  23.257  1.00  0.00     0.131 C 
ATOM     18  C   UNL A   1      29.892  28.822  23.359  1.00  0.00     0.024 C 
BRANCH  17  19
ATOM     19  C   UNL A   1      31.163  27.034  22.100  1.00  0.00     0.273 C 
BRANCH  19  20
ATOM     20  N   UNL A   1      31.403  25.643  21.708  1.00  0.00    -0.348 N 
ATOM     21  C   UNL A   1      32.809  25.289  21.578  1.00  0.00     0.330 C 
ATOM     22  H   UNL A   1      30.984  25.037  22.413  1.00  0.00     0.346 HD
ATOM     23  H   UNL A   1      30.986  25.525  20.785  1.00  0.00     0.346 HD
ENDBRANCH  19  20
ENDBRANCH  17  19
ENDBRANCH  15  17
ENDBRANCH   7  15
ENDBRANCH   4   6
ENDBRANCH   3   4
ENDBRANCH   2   3
ENDBRANCH   1   2
BRANCH   1  24
ATOM     24  O   UNL A   1      34.342  34.849  27.663  1.00  0.00    -0.374 OA
BRANCH  24  25
ATOM     25  C   UNL A   1      34.221  35.979  28.528  1.00  0.00     0.202 C 
BRANCH  25  26
ATOM     26  C   UNL A   1      32.879  36.184  29.243  1.00  0.00     0.261 C 
BRANCH  26  27
ATOM     27  O   UNL A   1      32.640  35.198  30.261  1.00  0.00    -0.460 OA
BRANCH  27  28
ATOM     28  C   UNL A   1      32.764  35.659  31.529  1.00  0.00     0.338 C 
ATOM     29  O   UNL A   1      32.002  36.401  32.128  1.00  0.00    -0.246 OA
BRANCH  28  30
ATOM     30  C   UNL A   1      33.895  34.990  32.194  1.00  0.00     0.060 A 
ATOM     31  C   UNL A   1      35.152  35.602  32.111  1.00  0.00     0.016 A 
ATOM     32  C   UNL A   1      33.746  33.750  32.818  1.00  0.00     0.016 A 
ATOM     33  C   UNL A   1      36.278  34.953  32.608  1.00  0.00     0.010 A 
ATOM     34  C   UNL A   1      34.880  33.097  33.312  1.00  0.00     0.010 A 
ATOM     35  C   UNL A   1      36.155  33.678  33.176  1.00  0.00    -0.014 A 
BRANCH  35  36
ATOM     36  C   UNL A   1      37.373  32.899  33.505  1.00  0.00     0.031 A 
ATOM     37  C   UNL A   1      38.083  33.165  34.803  1.00  0.00     0.074 A 
ATOM     38  C   UNL A   1      37.826  31.950  32.668  1.00  0.00     0.049 A 
ATOM     39  N   UNL A   1      39.186  32.638  35.271  1.00  0.00    -0.248 NA
ATOM     40  C   UNL A   1      37.469  34.163  35.692  1.00  0.00     0.031 C 
ATOM     41  C   UNL A   1      37.200  31.574  31.402  1.00  0.00     0.029 A 
ATOM     42  N   UNL A   1      38.926  31.135  32.757  1.00  0.00    -0.354 N 
ATOM     43  C   UNL A   1      39.403  33.248  36.500  1.00  0.00     0.074 A 
ATOM     44  C   UNL A   1      38.338  34.209  36.689  1.00  0.00     0.031 C 
ATOM     45  C   UNL A   1      37.930  30.605  30.827  1.00  0.00     0.029 A 
ATOM     46  C   UNL A   1      39.095  30.321  31.665  1.00  0.00     0.049 A 
ATOM     47  H   UNL A   1      39.536  31.133  33.531  1.00  0.00     0.167 HD
ATOM     48  C   UNL A   1      40.396  33.018  37.394  1.00  0.00     0.037 A 
ATOM     49  C   UNL A   1      40.089  29.463  31.366  1.00  0.00     0.037 A 
ATOM     50  C   UNL A   1      41.452  32.059  37.199  1.00  0.00     0.049 A 
ATOM     51  C   UNL A   1      41.224  29.282  32.341  1.00  0.00     0.074 A 
ATOM     52  C   UNL A   1      42.492  31.734  38.053  1.00  0.00     0.029 A 
ATOM     53  N   UNL A   1      41.610  31.277  36.064  1.00  0.00    -0.354 N 
ATOM     54  N   UNL A   1      41.409  29.840  33.514  1.00  0.00    -0.248 NA
ATOM     55  C   UNL A   1      42.288  28.345  31.951  1.00  0.00     0.031 C 
ATOM     56  C   UNL A   1      43.315  30.806  37.408  1.00  0.00     0.029 A 
ATOM     57  C   UNL A   1      42.750  30.496  36.181  1.00  0.00     0.049 A 
ATOM     58  H   UNL A   1      41.003  31.277  35.288  1.00  0.00     0.167 HD
ATOM     59  C   UNL A   1      42.587  29.300  34.014  1.00  0.00     0.074 A 
ATOM     60  C   UNL A   1      43.067  28.360  33.023  1.00  0.00     0.031 C 
ATOM     61  C   UNL A   1      43.215  29.558  35.189  1.00  0.00     0.037 A 
BRANCH  48  62
ATOM     62  C   UNL A   1      40.404  33.842  38.650  1.00  0.00     0.064 A 
ATOM     63  C   UNL A   1      39.675  33.467  39.790  1.00  0.00     0.173 A 
ATOM     64  C   UNL A   1      41.174  35.013  38.724  1.00  0.00     0.173 A 
ATOM     65  F   UNL A   1      38.912  32.363  39.770  1.00  0.00    -0.203 F 
ATOM     66  C   UNL A   1      39.690  34.250  40.941  1.00  0.00     0.198 A 
ATOM     67  C   UNL A   1      41.214  35.774  39.889  1.00  0.00     0.198 A 
ATOM     68  F   UNL A   1      41.895  35.418  37.668  1.00  0.00    -0.203 F 
ATOM     69  F   UNL A   1      38.940  33.900  41.997  1.00  0.00    -0.200 F 
ATOM     70  C   UNL A   1      40.465  35.398  40.993  1.00  0.00     0.200 A 
ATOM     71  F   UNL A   1      41.977  36.876  39.942  1.00  0.00    -0.200 F 
ATOM     72  F   UNL A   1      40.484  36.147  42.104  1.00  0.00    -0.200 F 
ENDBRANCH  48  62
BRANCH  49  73
ATOM     73  C   UNL A   1      40.060  28.713  30.082  1.00  0.00     0.064 A 
ATOM     74  C   UNL A   1      39.454  27.453  29.994  1.00  0.00     0.173 A 
ATOM     75  C   UNL A   1      40.648  29.237  28.921  1.00  0.00     0.173 A 
ATOM     76  F   UNL A   1      38.899  26.899  31.083  1.00  0.00    -0.203 F 
ATOM     77  C   UNL A   1      39.452  26.737  28.799  1.00  0.00     0.198 A 
ATOM     78  C   UNL A   1      40.618  28.534  27.719  1.00  0.00     0.198 A 
ATOM     79  F   UNL A   1      41.242  30.440  28.951  1.00  0.00    -0.203 F 
ATOM     80  F   UNL A   1      38.909  25.513  28.755  1.00  0.00    -0.200 F 
ATOM     81  C   UNL A   1      40.028  27.280  27.660  1.00  0.00     0.200 A 
ATOM     82  F   UNL A   1      41.162  29.071  26.618  1.00  0.00    -0.200 F 
ATOM     83  F   UNL A   1      40.020  26.595  26.510  1.00  0.00    -0.200 F 
ENDBRANCH  49  73
BRANCH  61  84
ATOM     84  C   UNL A   1      44.464  28.780  35.493  1.00  0.00     0.064 A 
ATOM     85  C   UNL A   1      44.425  27.537  36.144  1.00  0.00     0.173 A 
ATOM     86  C   UNL A   1      45.717  29.267  35.089  1.00  0.00     0.173 A 
ATOM     87  F   UNL A   1      43.256  27.031  36.563  1.00  0.00    -0.203 F 
ATOM     88  C   UNL A   1      45.595  26.830  36.407  1.00  0.00     0.198 A 
ATOM     89  C   UNL A   1      46.882  28.540  35.322  1.00  0.00     0.198 A 
ATOM     90  F   UNL A   1      45.813  30.446  34.455  1.00  0.00    -0.203 F 
ATOM     91  F   UNL A   1      45.538  25.672  37.081  1.00  0.00    -0.200 F 
ATOM     92  C   UNL A   1      46.821  27.326  35.989  1.00  0.00     0.200 A 
ATOM     93  F   UNL A   1      48.062  29.013  34.899  1.00  0.00    -0.200 F 
ATOM     94  F   UNL A   1      47.944  26.639  36.234  1.00  0.00    -0.200 F 
ENDBRANCH  61  84
ENDBRANCH  35  36
ENDBRANCH  28  30
ENDBRANCH  27  28
ENDBRANCH  26  27
ENDBRANCH  25  26
ENDBRANCH  24  25
ENDBRANCH   1  24
TORSDOF 18
ENDMDL
