MODEL 1
REMARK VINA RESULT:     -15.8      0.000      0.000
REMARK SMILES O=C(OCCOCCOC(=O)[C@@H]1[C@H](C(=O)Nc2cccc(Cl)c2F)[C@@H]2C=C[C@H]1C2)c1ccc(-c2c3nc(c(-c4c(F)c(F)c(F)c(F)c4F)c4ccc([nH]4)c(-c4c(F)c(F)c(F)c(F)c4F)c4nc(c(-c5c(F)c(F)c(F)c(F)c5F)c5ccc2[nH]5)C=C4)C=C3)cc1
REMARK SMILES IDX 6 1 5 2 4 3 3 4 2 5 1 6 30 7 31 8 92 9 32 10 91 11 33 12
REMARK SMILES IDX 34 13 35 14 85 15 36 16 90 17 84 18 86 19 37 20 89 21 83 22
REMARK SMILES IDX 82 23 38 25 70 26 50 27 69 28 51 29 54 30 68 31 87 32 52 33
REMARK SMILES IDX 53 34 67 36 88 37 55 38 39 39 40 40 48 41 41 42 42 43 46 44
REMARK SMILES IDX 49 45 43 46 44 47 47 48 45 49 71 50 72 51 80 52 73 53 74 54
REMARK SMILES IDX 78 55 81 56 75 57 76 58 79 59 77 60 56 61 57 62 65 63 58 64
REMARK SMILES IDX 59 65 63 66 66 67 60 68 61 69 64 70 62 71 7 72 8 73 9 74
REMARK SMILES IDX 10 75 11 76 12 77 13 78 28 79 25 80 27 81 29 82 26 83 14 84
REMARK SMILES IDX 15 85 16 86 17 88 18 89 23 90 19 91 21 92 24 93 20 94 22 95
REMARK H PARENT 86 24 54 35 16 87
REMARK Flexibility Score: inf
ROOT
ATOM      1  O   UNL A   1      39.640  21.315  26.566  1.00  0.00    -0.374 OA
ENDROOT
BRANCH   1   2
ATOM      2  C   UNL A   1      40.812  20.093  26.407  1.00  0.00     0.202 C 
BRANCH   2   3
ATOM      3  C   UNL A   1      42.696  20.376  25.920  1.00  0.00     0.261 C 
BRANCH   3   4
ATOM      4  O   UNL A   1      43.230  22.133  25.018  1.00  0.00    -0.460 OA
BRANCH   4   5
ATOM      5  C   UNL A   1      43.225  23.705  25.058  1.00  0.00     0.338 C 
ATOM      6  O   UNL A   1      44.219  24.303  24.658  1.00  0.00    -0.246 OA
BRANCH   5   7
ATOM      7  C   UNL A   1      42.019  24.577  25.725  1.00  0.00     0.060 A 
ATOM      8  C   UNL A   1      41.973  25.936  25.433  1.00  0.00     0.016 A 
ATOM      9  C   UNL A   1      41.333  24.214  26.905  1.00  0.00     0.016 A 
ATOM     10  C   UNL A   1      41.740  26.872  26.489  1.00  0.00     0.010 A 
ATOM     11  C   UNL A   1      40.852  25.209  27.854  1.00  0.00     0.010 A 
ATOM     12  C   UNL A   1      41.168  26.581  27.743  1.00  0.00    -0.014 A 
BRANCH  12  13
ATOM     13  C   UNL A   1      41.007  27.669  28.864  1.00  0.00     0.031 A 
ATOM     14  C   UNL A   1      41.954  27.746  30.085  1.00  0.00     0.074 A 
ATOM     15  C   UNL A   1      40.079  28.675  28.830  1.00  0.00     0.049 A 
ATOM     16  N   UNL A   1      41.775  28.304  31.268  1.00  0.00    -0.248 NA
ATOM     17  C   UNL A   1      43.284  27.131  29.951  1.00  0.00     0.031 C 
ATOM     18  C   UNL A   1      39.160  28.981  27.732  1.00  0.00     0.029 A 
ATOM     19  N   UNL A   1      39.741  29.661  29.760  1.00  0.00    -0.354 N 
ATOM     20  C   UNL A   1      42.906  28.010  32.037  1.00  0.00     0.074 A 
ATOM     21  C   UNL A   1      43.789  27.255  31.173  1.00  0.00     0.031 C 
ATOM     22  C   UNL A   1      38.454  30.084  27.993  1.00  0.00     0.029 A 
ATOM     23  C   UNL A   1      38.670  30.450  29.374  1.00  0.00     0.049 A 
ATOM     24  H   UNL A   1      40.222  29.783  30.611  1.00  0.00     0.167 HD
ATOM     25  C   UNL A   1      43.176  28.317  33.338  1.00  0.00     0.037 A 
ATOM     26  C   UNL A   1      37.836  31.282  30.037  1.00  0.00     0.037 A 
ATOM     27  C   UNL A   1      42.337  29.149  34.174  1.00  0.00     0.049 A 
ATOM     28  C   UNL A   1      38.041  31.486  31.508  1.00  0.00     0.074 A 
ATOM     29  C   UNL A   1      42.489  29.476  35.513  1.00  0.00     0.029 A 
ATOM     30  N   UNL A   1      41.198  29.810  33.738  1.00  0.00    -0.354 N 
ATOM     31  N   UNL A   1      39.001  31.033  32.272  1.00  0.00    -0.248 NA
ATOM     32  C   UNL A   1      37.035  32.290  32.217  1.00  0.00     0.031 C 
ATOM     33  C   UNL A   1      41.402  30.268  35.903  1.00  0.00     0.029 A 
ATOM     34  C   UNL A   1      40.620  30.511  34.786  1.00  0.00     0.049 A 
ATOM     35  H   UNL A   1      40.850  29.785  32.816  1.00  0.00     0.167 HD
ATOM     36  C   UNL A   1      38.736  31.521  33.541  1.00  0.00     0.074 A 
ATOM     37  C   UNL A   1      37.533  32.320  33.443  1.00  0.00     0.031 C 
ATOM     38  C   UNL A   1      39.433  31.321  34.684  1.00  0.00     0.037 A 
BRANCH  25  39
ATOM     39  C   UNL A   1      44.378  27.669  33.995  1.00  0.00     0.064 A 
ATOM     40  C   UNL A   1      44.347  26.390  34.570  1.00  0.00     0.173 A 
ATOM     41  C   UNL A   1      45.608  28.354  34.022  1.00  0.00     0.173 A 
ATOM     42  F   UNL A   1      43.209  25.679  34.574  1.00  0.00    -0.203 F 
ATOM     43  C   UNL A   1      45.475  25.849  35.194  1.00  0.00     0.198 A 
ATOM     44  C   UNL A   1      46.742  27.797  34.612  1.00  0.00     0.198 A 
ATOM     45  F   UNL A   1      45.716  29.570  33.467  1.00  0.00    -0.203 F 
ATOM     46  F   UNL A   1      45.396  24.658  35.802  1.00  0.00    -0.200 F 
ATOM     47  C   UNL A   1      46.671  26.553  35.213  1.00  0.00     0.200 A 
ATOM     48  F   UNL A   1      47.900  28.473  34.608  1.00  0.00    -0.200 F 
ATOM     49  F   UNL A   1      47.748  26.036  35.821  1.00  0.00    -0.200 F 
ENDBRANCH  25  39
BRANCH  26  50
ATOM     50  C   UNL A   1      36.638  31.878  29.353  1.00  0.00     0.064 A 
ATOM     51  C   UNL A   1      36.554  33.250  29.077  1.00  0.00     0.173 A 
ATOM     52  C   UNL A   1      35.530  31.087  28.991  1.00  0.00     0.173 A 
ATOM     53  F   UNL A   1      37.558  34.066  29.430  1.00  0.00    -0.203 F 
ATOM     54  C   UNL A   1      35.415  33.805  28.486  1.00  0.00     0.198 A 
ATOM     55  C   UNL A   1      34.415  31.635  28.355  1.00  0.00     0.198 A 
ATOM     56  F   UNL A   1      35.534  29.768  29.235  1.00  0.00    -0.203 F 
ATOM     57  F   UNL A   1      35.341  35.130  28.296  1.00  0.00    -0.200 F 
ATOM     58  C   UNL A   1      34.352  32.996  28.116  1.00  0.00     0.200 A 
ATOM     59  F   UNL A   1      33.403  30.841  27.980  1.00  0.00    -0.200 F 
ATOM     60  F   UNL A   1      33.265  33.529  27.541  1.00  0.00    -0.200 F 
ENDBRANCH  26  50
BRANCH  38  61
ATOM     61  C   UNL A   1      38.957  32.040  35.912  1.00  0.00     0.064 A 
ATOM     62  C   UNL A   1      38.161  31.414  36.882  1.00  0.00     0.173 A 
ATOM     63  C   UNL A   1      39.329  33.376  36.128  1.00  0.00     0.173 A 
ATOM     64  F   UNL A   1      37.759  30.145  36.711  1.00  0.00    -0.203 F 
ATOM     65  C   UNL A   1      37.731  32.108  38.009  1.00  0.00     0.198 A 
ATOM     66  C   UNL A   1      38.931  34.054  37.275  1.00  0.00     0.198 A 
ATOM     67  F   UNL A   1      40.088  34.022  35.229  1.00  0.00    -0.203 F 
ATOM     68  F   UNL A   1      36.921  31.510  38.893  1.00  0.00    -0.200 F 
ATOM     69  C   UNL A   1      38.125  33.423  38.211  1.00  0.00     0.200 A 
ATOM     70  F   UNL A   1      39.328  35.318  37.476  1.00  0.00    -0.200 F 
ATOM     71  F   UNL A   1      37.721  34.085  39.304  1.00  0.00    -0.200 F 
ENDBRANCH  38  61
ENDBRANCH  12  13
ENDBRANCH   5   7
ENDBRANCH   4   5
ENDBRANCH   3   4
ENDBRANCH   2   3
ENDBRANCH   1   2
BRANCH   1  72
ATOM     72  C   UNL A   1      38.299  21.727  25.767  1.00  0.00     0.202 C 
BRANCH  72  73
ATOM     73  C   UNL A   1      37.185  20.938  24.619  1.00  0.00     0.261 C 
BRANCH  73  74
ATOM     74  O   UNL A   1      36.187  19.833  24.975  1.00  0.00    -0.463 OA
BRANCH  74  75
ATOM     75  C   UNL A   1      34.817  20.027  24.851  1.00  0.00     0.310 C 
ATOM     76  O   UNL A   1      34.075  19.047  24.743  1.00  0.00    -0.252 OA
BRANCH  75  77
ATOM     77  C   UNL A   1      34.142  21.541  25.119  1.00  0.00     0.119 C 
ATOM     78  C   UNL A   1      33.525  22.764  24.291  1.00  0.00     0.100 C 
ATOM     79  C   UNL A   1      34.508  22.295  26.527  1.00  0.00     0.027 C 
ATOM     80  C   UNL A   1      33.323  23.858  25.426  1.00  0.00     0.025 C 
ATOM     81  C   UNL A   1      35.322  23.602  26.444  1.00  0.00    -0.027 C 
ATOM     82  C   UNL A   1      33.202  23.054  26.750  1.00  0.00     0.017 C 
ATOM     83  C   UNL A   1      34.633  24.506  25.740  1.00  0.00    -0.027 C 
BRANCH  78  84
ATOM     84  C   UNL A   1      33.695  23.485  22.867  1.00  0.00     0.229 C 
ATOM     85  O   UNL A   1      34.762  23.235  22.271  1.00  0.00    -0.274 OA
ATOM     86  N   UNL A   1      32.727  24.093  22.066  1.00  0.00    -0.323 N 
ATOM     87  H   UNL A   1      32.652  23.738  21.150  1.00  0.00     0.170 HD
BRANCH  86  88
ATOM     88  C   UNL A   1      31.827  25.159  22.385  1.00  0.00     0.078 A 
ATOM     89  C   UNL A   1      30.343  24.929  23.321  1.00  0.00     0.029 A 
ATOM     90  C   UNL A   1      32.503  26.652  22.159  1.00  0.00     0.165 A 
ATOM     91  C   UNL A   1      29.554  26.278  24.219  1.00  0.00     0.004 A 
ATOM     92  C   UNL A   1      31.988  28.008  23.133  1.00  0.00     0.078 A 
ATOM     93  F   UNL A   1      33.572  26.741  21.356  1.00  0.00    -0.203 F 
ATOM     94  C   UNL A   1      30.414  27.890  24.182  1.00  0.00     0.024 A 
ATOM     95  Cl  UNL A   1      33.830  27.683  24.111  1.00  0.00    -0.081 Cl
ENDBRANCH  86  88
ENDBRANCH  78  84
ENDBRANCH  75  77
ENDBRANCH  74  75
ENDBRANCH  73  74
ENDBRANCH  72  73
ENDBRANCH   1  72
TORSDOF 16
ENDMDL
MODEL 2
REMARK VINA RESULT:     -15.7      1.659      2.852
REMARK SMILES O=C(OCCOCCOC(=O)[C@@H]1[C@H](C(=O)Nc2cccc(Cl)c2F)[C@@H]2C=C[C@H]1C2)c1ccc(-c2c3nc(c(-c4c(F)c(F)c(F)c(F)c4F)c4ccc([nH]4)c(-c4c(F)c(F)c(F)c(F)c4F)c4nc(c(-c5c(F)c(F)c(F)c(F)c5F)c5ccc2[nH]5)C=C4)C=C3)cc1
REMARK SMILES IDX 6 1 5 2 4 3 3 4 2 5 1 6 30 7 31 8 92 9 32 10 91 11 33 12
REMARK SMILES IDX 34 13 35 14 85 15 36 16 90 17 84 18 86 19 37 20 89 21 83 22
REMARK SMILES IDX 82 23 38 25 70 26 50 27 69 28 51 29 54 30 68 31 87 32 52 33
REMARK SMILES IDX 53 34 67 36 88 37 55 38 39 39 40 40 48 41 41 42 42 43 46 44
REMARK SMILES IDX 49 45 43 46 44 47 47 48 45 49 71 50 72 51 80 52 73 53 74 54
REMARK SMILES IDX 78 55 81 56 75 57 76 58 79 59 77 60 56 61 57 62 65 63 58 64
REMARK SMILES IDX 59 65 63 66 66 67 60 68 61 69 64 70 62 71 7 72 8 73 9 74
REMARK SMILES IDX 10 75 11 76 12 77 13 78 28 79 25 80 27 81 29 82 26 83 14 84
REMARK SMILES IDX 15 85 16 86 17 88 18 89 23 90 19 91 21 92 24 93 20 94 22 95
REMARK H PARENT 86 24 54 35 16 87
REMARK Flexibility Score: inf
ROOT
ATOM      1  O   UNL A   1      38.974  21.301  25.385  1.00  0.00    -0.374 OA
ENDROOT
BRANCH   1   2
ATOM      2  C   UNL A   1      40.036  20.320  26.281  1.00  0.00     0.202 C 
BRANCH   2   3
ATOM      3  C   UNL A   1      41.998  20.343  26.145  1.00  0.00     0.261 C 
BRANCH   3   4
ATOM      4  O   UNL A   1      42.912  21.971  25.308  1.00  0.00    -0.460 OA
BRANCH   4   5
ATOM      5  C   UNL A   1      42.976  23.536  25.169  1.00  0.00     0.338 C 
ATOM      6  O   UNL A   1      43.991  24.040  24.696  1.00  0.00    -0.246 OA
BRANCH   5   7
ATOM      7  C   UNL A   1      41.818  24.532  25.740  1.00  0.00     0.060 A 
ATOM      8  C   UNL A   1      41.950  25.890  25.472  1.00  0.00     0.016 A 
ATOM      9  C   UNL A   1      40.990  24.238  26.846  1.00  0.00     0.016 A 
ATOM     10  C   UNL A   1      41.726  26.836  26.520  1.00  0.00     0.010 A 
ATOM     11  C   UNL A   1      40.537  25.271  27.767  1.00  0.00     0.010 A 
ATOM     12  C   UNL A   1      41.011  26.600  27.712  1.00  0.00    -0.014 A 
BRANCH  12  13
ATOM     13  C   UNL A   1      40.870  27.689  28.834  1.00  0.00     0.031 A 
ATOM     14  C   UNL A   1      41.833  27.762  30.043  1.00  0.00     0.074 A 
ATOM     15  C   UNL A   1      39.945  28.698  28.812  1.00  0.00     0.049 A 
ATOM     16  N   UNL A   1      41.671  28.321  31.228  1.00  0.00    -0.248 NA
ATOM     17  C   UNL A   1      43.159  27.142  29.891  1.00  0.00     0.031 C 
ATOM     18  C   UNL A   1      39.013  29.008  27.727  1.00  0.00     0.029 A 
ATOM     19  N   UNL A   1      39.623  29.685  29.747  1.00  0.00    -0.354 N 
ATOM     20  C   UNL A   1      42.812  28.023  31.982  1.00  0.00     0.074 A 
ATOM     21  C   UNL A   1      43.681  27.264  31.107  1.00  0.00     0.031 C 
ATOM     22  C   UNL A   1      38.315  30.114  27.997  1.00  0.00     0.029 A 
ATOM     23  C   UNL A   1      38.550  30.479  29.375  1.00  0.00     0.049 A 
ATOM     24  H   UNL A   1      40.115  29.806  30.591  1.00  0.00     0.167 HD
ATOM     25  C   UNL A   1      43.100  28.329  33.279  1.00  0.00     0.037 A 
ATOM     26  C   UNL A   1      37.728  31.314  30.048  1.00  0.00     0.037 A 
ATOM     27  C   UNL A   1      42.275  29.164  34.126  1.00  0.00     0.049 A 
ATOM     28  C   UNL A   1      37.953  31.517  31.516  1.00  0.00     0.074 A 
ATOM     29  C   UNL A   1      42.446  29.492  35.463  1.00  0.00     0.029 A 
ATOM     30  N   UNL A   1      41.133  29.830  33.705  1.00  0.00    -0.354 N 
ATOM     31  N   UNL A   1      38.922  31.061  32.268  1.00  0.00    -0.248 NA
ATOM     32  C   UNL A   1      36.960  32.326  32.238  1.00  0.00     0.031 C 
ATOM     33  C   UNL A   1      41.367  30.287  35.867  1.00  0.00     0.029 A 
ATOM     34  C   UNL A   1      40.572  30.533  34.761  1.00  0.00     0.049 A 
ATOM     35  H   UNL A   1      40.773  29.806  32.788  1.00  0.00     0.167 HD
ATOM     36  C   UNL A   1      38.675  31.550  33.540  1.00  0.00     0.074 A 
ATOM     37  C   UNL A   1      37.474  32.354  33.458  1.00  0.00     0.031 C 
ATOM     38  C   UNL A   1      39.387  31.348  34.674  1.00  0.00     0.037 A 
BRANCH  25  39
ATOM     39  C   UNL A   1      44.307  27.676  33.920  1.00  0.00     0.064 A 
ATOM     40  C   UNL A   1      44.273  26.409  34.520  1.00  0.00     0.173 A 
ATOM     41  C   UNL A   1      45.547  28.345  33.907  1.00  0.00     0.173 A 
ATOM     42  F   UNL A   1      43.126  25.713  34.562  1.00  0.00    -0.203 F 
ATOM     43  C   UNL A   1      45.408  25.864  35.128  1.00  0.00     0.198 A 
ATOM     44  C   UNL A   1      46.687  27.784  34.481  1.00  0.00     0.198 A 
ATOM     45  F   UNL A   1      45.659  29.550  33.328  1.00  0.00    -0.203 F 
ATOM     46  F   UNL A   1      45.327  24.685  35.759  1.00  0.00    -0.200 F 
ATOM     47  C   UNL A   1      46.613  26.551  35.107  1.00  0.00     0.200 A 
ATOM     48  F   UNL A   1      47.853  28.443  34.439  1.00  0.00    -0.200 F 
ATOM     49  F   UNL A   1      47.696  26.031  35.700  1.00  0.00    -0.200 F 
ENDBRANCH  25  39
BRANCH  26  50
ATOM     50  C   UNL A   1      36.523  31.914  29.380  1.00  0.00     0.064 A 
ATOM     51  C   UNL A   1      35.433  31.127  28.981  1.00  0.00     0.173 A 
ATOM     52  C   UNL A   1      36.453  33.290  29.090  1.00  0.00     0.173 A 
ATOM     53  F   UNL A   1      35.452  29.802  29.192  1.00  0.00    -0.203 F 
ATOM     54  C   UNL A   1      34.338  31.684  28.314  1.00  0.00     0.198 A 
ATOM     55  C   UNL A   1      35.338  33.853  28.470  1.00  0.00     0.198 A 
ATOM     56  F   UNL A   1      37.466  34.103  29.431  1.00  0.00    -0.203 F 
ATOM     57  F   UNL A   1      33.343  30.893  27.890  1.00  0.00    -0.200 F 
ATOM     58  C   UNL A   1      34.287  33.048  28.070  1.00  0.00     0.200 A 
ATOM     59  F   UNL A   1      35.287  35.175  28.259  1.00  0.00    -0.200 F 
ATOM     60  F   UNL A   1      33.232  33.581  27.438  1.00  0.00    -0.200 F 
ENDBRANCH  26  50
BRANCH  38  61
ATOM     61  C   UNL A   1      38.930  32.069  35.907  1.00  0.00     0.064 A 
ATOM     62  C   UNL A   1      38.153  31.443  36.893  1.00  0.00     0.173 A 
ATOM     63  C   UNL A   1      39.299  33.407  36.114  1.00  0.00     0.173 A 
ATOM     64  F   UNL A   1      37.754  30.172  36.734  1.00  0.00    -0.203 F 
ATOM     65  C   UNL A   1      37.740  32.139  38.026  1.00  0.00     0.198 A 
ATOM     66  C   UNL A   1      38.919  34.087  37.265  1.00  0.00     0.198 A 
ATOM     67  F   UNL A   1      40.040  34.052  35.199  1.00  0.00    -0.203 F 
ATOM     68  F   UNL A   1      36.949  31.540  38.927  1.00  0.00    -0.200 F 
ATOM     69  C   UNL A   1      38.133  33.456  38.217  1.00  0.00     0.200 A 
ATOM     70  F   UNL A   1      39.315  35.353  37.455  1.00  0.00    -0.200 F 
ATOM     71  F   UNL A   1      37.745  34.120  39.314  1.00  0.00    -0.200 F 
ENDBRANCH  38  61
ENDBRANCH  12  13
ENDBRANCH   5   7
ENDBRANCH   4   5
ENDBRANCH   3   4
ENDBRANCH   2   3
ENDBRANCH   1   2
BRANCH   1  72
ATOM     72  C   UNL A   1      37.608  22.099  25.705  1.00  0.00     0.202 C 
BRANCH  72  73
ATOM     73  C   UNL A   1      36.996  23.759  25.474  1.00  0.00     0.261 C 
BRANCH  73  74
ATOM     74  O   UNL A   1      35.570  24.224  25.777  1.00  0.00    -0.463 OA
BRANCH  74  75
ATOM     75  C   UNL A   1      34.793  24.853  24.812  1.00  0.00     0.310 C 
ATOM     76  O   UNL A   1      34.684  24.340  23.695  1.00  0.00    -0.252 OA
BRANCH  75  77
ATOM     77  C   UNL A   1      33.795  26.138  25.224  1.00  0.00     0.119 C 
ATOM     78  C   UNL A   1      32.357  26.405  25.876  1.00  0.00     0.100 C 
ATOM     79  C   UNL A   1      34.031  27.561  24.446  1.00  0.00     0.027 C 
ATOM     80  C   UNL A   1      32.191  27.973  25.672  1.00  0.00     0.025 C 
ATOM     81  C   UNL A   1      32.900  28.069  23.531  1.00  0.00    -0.027 C 
ATOM     82  C   UNL A   1      33.639  28.524  25.564  1.00  0.00     0.017 C 
ATOM     83  C   UNL A   1      31.795  28.257  24.260  1.00  0.00    -0.027 C 
BRANCH  78  84
ATOM     84  C   UNL A   1      30.911  25.714  25.971  1.00  0.00     0.229 C 
ATOM     85  O   UNL A   1      30.128  26.234  26.790  1.00  0.00    -0.274 OA
ATOM     86  N   UNL A   1      30.297  24.830  25.081  1.00  0.00    -0.323 N 
ATOM     87  H   UNL A   1      29.421  25.119  24.736  1.00  0.00     0.170 HD
BRANCH  86  88
ATOM     88  C   UNL A   1      30.760  23.565  24.597  1.00  0.00     0.078 A 
ATOM     89  C   UNL A   1      31.461  23.339  22.988  1.00  0.00     0.029 A 
ATOM     90  C   UNL A   1      30.953  22.453  25.807  1.00  0.00     0.165 A 
ATOM     91  C   UNL A   1      32.560  21.963  22.604  1.00  0.00     0.004 A 
ATOM     92  C   UNL A   1      32.155  21.194  25.661  1.00  0.00     0.078 A 
ATOM     93  F   UNL A   1      30.305  22.663  26.961  1.00  0.00    -0.203 F 
ATOM     94  C   UNL A   1      32.983  20.850  23.991  1.00  0.00     0.024 A 
ATOM     95  Cl  UNL A   1      33.214  22.392  27.038  1.00  0.00    -0.081 Cl
ENDBRANCH  86  88
ENDBRANCH  78  84
ENDBRANCH  75  77
ENDBRANCH  74  75
ENDBRANCH  73  74
ENDBRANCH  72  73
ENDBRANCH   1  72
TORSDOF 16
ENDMDL
MODEL 3
REMARK VINA RESULT:     -15.7      0.210      1.576
REMARK SMILES O=C(OCCOCCOC(=O)[C@@H]1[C@H](C(=O)Nc2cccc(Cl)c2F)[C@@H]2C=C[C@H]1C2)c1ccc(-c2c3nc(c(-c4c(F)c(F)c(F)c(F)c4F)c4ccc([nH]4)c(-c4c(F)c(F)c(F)c(F)c4F)c4nc(c(-c5c(F)c(F)c(F)c(F)c5F)c5ccc2[nH]5)C=C4)C=C3)cc1
REMARK SMILES IDX 6 1 5 2 4 3 3 4 2 5 1 6 30 7 31 8 92 9 32 10 91 11 33 12
REMARK SMILES IDX 34 13 35 14 85 15 36 16 90 17 84 18 86 19 37 20 89 21 83 22
REMARK SMILES IDX 82 23 38 25 70 26 50 27 69 28 51 29 54 30 68 31 87 32 52 33
REMARK SMILES IDX 53 34 67 36 88 37 55 38 39 39 40 40 48 41 41 42 42 43 46 44
REMARK SMILES IDX 49 45 43 46 44 47 47 48 45 49 71 50 72 51 80 52 73 53 74 54
REMARK SMILES IDX 78 55 81 56 75 57 76 58 79 59 77 60 56 61 57 62 65 63 58 64
REMARK SMILES IDX 59 65 63 66 66 67 60 68 61 69 64 70 62 71 7 72 8 73 9 74
REMARK SMILES IDX 10 75 11 76 12 77 13 78 28 79 25 80 27 81 29 82 26 83 14 84
REMARK SMILES IDX 15 85 16 86 17 88 18 89 23 90 19 91 21 92 24 93 20 94 22 95
REMARK H PARENT 86 24 54 35 16 87
REMARK Flexibility Score: inf
ROOT
ATOM      1  O   UNL A   1      39.720  21.247  26.532  1.00  0.00    -0.374 OA
ENDROOT
BRANCH   1   2
ATOM      2  C   UNL A   1      40.863  19.987  26.508  1.00  0.00     0.202 C 
BRANCH   2   3
ATOM      3  C   UNL A   1      42.721  20.145  25.883  1.00  0.00     0.261 C 
BRANCH   3   4
ATOM      4  O   UNL A   1      43.344  21.916  25.072  1.00  0.00    -0.460 OA
BRANCH   4   5
ATOM      5  C   UNL A   1      43.273  23.487  25.091  1.00  0.00     0.338 C 
ATOM      6  O   UNL A   1      44.221  24.121  24.639  1.00  0.00    -0.246 OA
BRANCH   5   7
ATOM      7  C   UNL A   1      42.061  24.318  25.798  1.00  0.00     0.060 A 
ATOM      8  C   UNL A   1      41.922  25.661  25.465  1.00  0.00     0.016 A 
ATOM      9  C   UNL A   1      41.465  23.962  27.029  1.00  0.00     0.016 A 
ATOM     10  C   UNL A   1      41.699  26.621  26.501  1.00  0.00     0.010 A 
ATOM     11  C   UNL A   1      40.985  24.964  27.971  1.00  0.00     0.010 A 
ATOM     12  C   UNL A   1      41.217  26.346  27.796  1.00  0.00    -0.014 A 
BRANCH  12  13
ATOM     13  C   UNL A   1      41.061  27.465  28.887  1.00  0.00     0.031 A 
ATOM     14  C   UNL A   1      42.022  27.582  30.094  1.00  0.00     0.074 A 
ATOM     15  C   UNL A   1      40.125  28.462  28.836  1.00  0.00     0.049 A 
ATOM     16  N   UNL A   1      41.852  28.173  31.263  1.00  0.00    -0.248 NA
ATOM     17  C   UNL A   1      43.355  26.974  29.961  1.00  0.00     0.031 C 
ATOM     18  C   UNL A   1      39.191  28.730  27.741  1.00  0.00     0.029 A 
ATOM     19  N   UNL A   1      39.791  29.471  29.742  1.00  0.00    -0.354 N 
ATOM     20  C   UNL A   1      42.995  27.909  32.026  1.00  0.00     0.074 A 
ATOM     21  C   UNL A   1      43.874  27.136  31.174  1.00  0.00     0.031 C 
ATOM     22  C   UNL A   1      38.480  29.835  27.979  1.00  0.00     0.029 A 
ATOM     23  C   UNL A   1      38.709  30.241  29.347  1.00  0.00     0.049 A 
ATOM     24  H   UNL A   1      40.280  29.621  30.583  1.00  0.00     0.167 HD
ATOM     25  C   UNL A   1      43.278  28.255  33.314  1.00  0.00     0.037 A 
ATOM     26  C   UNL A   1      37.876  31.085  29.996  1.00  0.00     0.037 A 
ATOM     27  C   UNL A   1      42.442  29.104  34.136  1.00  0.00     0.049 A 
ATOM     28  C   UNL A   1      38.097  31.332  31.457  1.00  0.00     0.074 A 
ATOM     29  C   UNL A   1      42.607  29.471  35.464  1.00  0.00     0.029 A 
ATOM     30  N   UNL A   1      41.293  29.744  33.696  1.00  0.00    -0.354 N 
ATOM     31  N   UNL A   1      39.070  30.909  32.223  1.00  0.00    -0.248 NA
ATOM     32  C   UNL A   1      37.093  32.149  32.155  1.00  0.00     0.031 C 
ATOM     33  C   UNL A   1      41.519  30.265  35.845  1.00  0.00     0.029 A 
ATOM     34  C   UNL A   1      40.723  30.470  34.731  1.00  0.00     0.049 A 
ATOM     35  H   UNL A   1      40.935  29.691  32.780  1.00  0.00     0.167 HD
ATOM     36  C   UNL A   1      38.816  31.431  33.481  1.00  0.00     0.074 A 
ATOM     37  C   UNL A   1      37.605  32.218  33.374  1.00  0.00     0.031 C 
ATOM     38  C   UNL A   1      39.528  31.268  34.620  1.00  0.00     0.037 A 
BRANCH  25  39
ATOM     39  C   UNL A   1      44.492  27.635  33.975  1.00  0.00     0.064 A 
ATOM     40  C   UNL A   1      45.768  28.218  33.950  1.00  0.00     0.173 A 
ATOM     41  C   UNL A   1      44.356  26.421  34.677  1.00  0.00     0.173 A 
ATOM     42  F   UNL A   1      45.967  29.377  33.305  1.00  0.00    -0.203 F 
ATOM     43  C   UNL A   1      46.864  27.588  34.547  1.00  0.00     0.198 A 
ATOM     44  C   UNL A   1      45.443  25.813  35.304  1.00  0.00     0.198 A 
ATOM     45  F   UNL A   1      43.160  25.821  34.763  1.00  0.00    -0.203 F 
ATOM     46  F   UNL A   1      48.085  28.130  34.443  1.00  0.00    -0.200 F 
ATOM     47  C   UNL A   1      46.700  26.388  35.223  1.00  0.00     0.200 A 
ATOM     48  F   UNL A   1      45.275  24.664  35.974  1.00  0.00    -0.200 F 
ATOM     49  F   UNL A   1      47.755  25.781  35.786  1.00  0.00    -0.200 F 
ENDBRANCH  25  39
BRANCH  26  50
ATOM     50  C   UNL A   1      36.666  31.652  29.309  1.00  0.00     0.064 A 
ATOM     51  C   UNL A   1      35.573  30.846  28.958  1.00  0.00     0.173 A 
ATOM     52  C   UNL A   1      36.592  33.013  28.955  1.00  0.00     0.173 A 
ATOM     53  F   UNL A   1      35.595  29.534  29.231  1.00  0.00    -0.203 F 
ATOM     54  C   UNL A   1      34.472  31.371  28.274  1.00  0.00     0.198 A 
ATOM     55  C   UNL A   1      35.471  33.546  28.318  1.00  0.00     0.198 A 
ATOM     56  F   UNL A   1      37.606  33.842  29.248  1.00  0.00    -0.203 F 
ATOM     57  F   UNL A   1      33.473  30.560  27.896  1.00  0.00    -0.200 F 
ATOM     58  C   UNL A   1      34.417  32.721  27.965  1.00  0.00     0.200 A 
ATOM     59  F   UNL A   1      35.417  34.856  28.044  1.00  0.00    -0.200 F 
ATOM     60  F   UNL A   1      33.357  33.224  27.318  1.00  0.00    -0.200 F 
ENDBRANCH  26  50
BRANCH  38  61
ATOM     61  C   UNL A   1      39.061  32.019  35.832  1.00  0.00     0.064 A 
ATOM     62  C   UNL A   1      38.255  31.423  36.813  1.00  0.00     0.173 A 
ATOM     63  C   UNL A   1      39.452  33.353  36.023  1.00  0.00     0.173 A 
ATOM     64  F   UNL A   1      37.835  30.158  36.667  1.00  0.00    -0.203 F 
ATOM     65  C   UNL A   1      37.833  32.146  37.926  1.00  0.00     0.198 A 
ATOM     66  C   UNL A   1      39.062  34.059  37.156  1.00  0.00     0.198 A 
ATOM     67  F   UNL A   1      40.222  33.969  35.113  1.00  0.00    -0.203 F 
ATOM     68  F   UNL A   1      37.014  31.577  38.821  1.00  0.00    -0.200 F 
ATOM     69  C   UNL A   1      38.246  33.459  38.102  1.00  0.00     0.200 A 
ATOM     70  F   UNL A   1      39.478  35.321  37.332  1.00  0.00    -0.200 F 
ATOM     71  F   UNL A   1      37.851  34.148  39.181  1.00  0.00    -0.200 F 
ENDBRANCH  38  61
ENDBRANCH  12  13
ENDBRANCH   5   7
ENDBRANCH   4   5
ENDBRANCH   3   4
ENDBRANCH   2   3
ENDBRANCH   1   2
BRANCH   1  72
ATOM     72  C   UNL A   1      38.443  21.651  25.630  1.00  0.00     0.202 C 
BRANCH  72  73
ATOM     73  C   UNL A   1      37.264  20.795  24.601  1.00  0.00     0.261 C 
BRANCH  73  74
ATOM     74  O   UNL A   1      36.155  19.871  25.111  1.00  0.00    -0.463 OA
BRANCH  74  75
ATOM     75  C   UNL A   1      34.818  20.127  24.837  1.00  0.00     0.310 C 
ATOM     76  O   UNL A   1      34.059  19.184  24.594  1.00  0.00    -0.252 OA
BRANCH  75  77
ATOM     77  C   UNL A   1      34.169  21.653  25.097  1.00  0.00     0.119 C 
ATOM     78  C   UNL A   1      33.515  22.858  24.269  1.00  0.00     0.100 C 
ATOM     79  C   UNL A   1      34.619  22.446  26.459  1.00  0.00     0.027 C 
ATOM     80  C   UNL A   1      33.386  23.986  25.381  1.00  0.00     0.025 C 
ATOM     81  C   UNL A   1      35.437  23.742  26.292  1.00  0.00    -0.027 C 
ATOM     82  C   UNL A   1      33.334  23.222  26.733  1.00  0.00     0.017 C 
ATOM     83  C   UNL A   1      34.715  24.631  25.601  1.00  0.00    -0.027 C 
BRANCH  78  84
ATOM     84  C   UNL A   1      33.610  23.534  22.817  1.00  0.00     0.229 C 
ATOM     85  O   UNL A   1      34.649  23.275  22.179  1.00  0.00    -0.274 OA
ATOM     86  N   UNL A   1      32.598  24.110  22.046  1.00  0.00    -0.323 N 
ATOM     87  H   UNL A   1      32.483  23.725  21.146  1.00  0.00     0.170 HD
BRANCH  86  88
ATOM     88  C   UNL A   1      31.704  25.177  22.375  1.00  0.00     0.078 A 
ATOM     89  C   UNL A   1      30.289  24.972  23.418  1.00  0.00     0.029 A 
ATOM     90  C   UNL A   1      32.339  26.667  22.035  1.00  0.00     0.165 A 
ATOM     91  C   UNL A   1      29.540  26.351  24.303  1.00  0.00     0.004 A 
ATOM     92  C   UNL A   1      31.868  28.060  22.977  1.00  0.00     0.078 A 
ATOM     93  F   UNL A   1      33.350  26.732  21.158  1.00  0.00    -0.203 F 
ATOM     94  C   UNL A   1      30.369  27.971  24.134  1.00  0.00     0.024 A 
ATOM     95  Cl  UNL A   1      33.776  27.806  23.843  1.00  0.00    -0.081 Cl
ENDBRANCH  86  88
ENDBRANCH  78  84
ENDBRANCH  75  77
ENDBRANCH  74  75
ENDBRANCH  73  74
ENDBRANCH  72  73
ENDBRANCH   1  72
TORSDOF 16
ENDMDL
