MODEL 1
REMARK VINA RESULT:     -12.7      0.000      0.000
REMARK SMILES COC(=O)c1ccc([C@H]2CC(=O)Nc3c(C(=O)OCCOCCOC(=O)c4ccc(-c5c6nc(c(-c7c(F)c(F)c(F)c(F)c7F)c7ccc([nH]7)c(-c7c(F)c(F)c(F)c(F)c7F)c7nc(c(-c8c(F)c(F)c(F)c(F)c8F)c8ccc5[nH]8)C=C7)C=C6)cc4)cn(-c4ccccc4)c32)cc1
REMARK SMILES IDX 20 1 19 2 18 3 16 4 17 5 15 6 9 7 10 8 98 9 11 10 14 11
REMARK SMILES IDX 91 12 12 13 13 14 90 15 8 17 5 18 6 19 100 20 7 21 99 22
REMARK SMILES IDX 3 23 4 24 2 25 1 26 92 27 93 28 97 29 94 30 96 31 95 32
REMARK SMILES IDX 21 33 22 34 23 35 24 36 25 37 26 38 27 39 28 40 89 41 29 42
REMARK SMILES IDX 88 43 30 44 31 45 32 46 82 47 33 48 87 49 81 50 83 51 34 52
REMARK SMILES IDX 86 53 80 54 79 55 35 57 67 58 47 59 66 60 48 61 51 62 65 63
REMARK SMILES IDX 84 64 49 65 50 66 64 68 85 69 52 70 36 71 37 72 45 73 38 74
REMARK SMILES IDX 39 75 43 76 46 77 40 78 41 79 44 80 42 81 68 82 69 83 77 84
REMARK SMILES IDX 70 85 71 86 75 87 78 88 72 89 73 90 76 91 74 92 53 93 54 94
REMARK SMILES IDX 62 95 55 96 56 97 60 98 63 99 57 100 58 101 61 102 59 103
REMARK H PARENT 13 16 83 56 51 67
REMARK Flexibility Score: inf
ROOT
ATOM      1  C   UNL A   1      34.109  31.472  27.962  1.00  0.00     0.202 C 
ENDROOT
BRANCH   1   2
ATOM      2  C   UNL A   1      33.196  30.785  26.942  1.00  0.00     0.261 C 
BRANCH   2   3
ATOM      3  O   UNL A   1      33.492  29.390  26.766  1.00  0.00    -0.460 OA
BRANCH   3   4
ATOM      4  C   UNL A   1      32.432  28.557  26.964  1.00  0.00     0.341 C 
ATOM      5  O   UNL A   1      31.433  28.844  27.626  1.00  0.00    -0.246 OA
BRANCH   4   6
ATOM      6  C   UNL A   1      32.519  27.333  26.190  1.00  0.00     0.102 A 
ATOM      7  C   UNL A   1      31.517  24.661  23.795  1.00  0.00     0.078 C 
ATOM      8  C   UNL A   1      30.013  24.973  23.716  1.00  0.00     0.115 C 
ATOM      9  C   UNL A   1      32.189  25.588  24.777  1.00  0.00     0.055 A 
ATOM     10  C   UNL A   1      29.621  26.420  23.971  1.00  0.00     0.225 C 
ATOM     11  C   UNL A   1      31.614  26.732  25.285  1.00  0.00     0.078 A 
ATOM     12  N   UNL A   1      33.466  25.487  25.306  1.00  0.00    -0.317 N 
ATOM     13  O   UNL A   1      28.587  26.894  23.503  1.00  0.00    -0.275 OA
ATOM     14  N   UNL A   1      30.381  27.148  24.851  1.00  0.00    -0.324 N 
ATOM     15  C   UNL A   1      33.605  26.471  26.255  1.00  0.00     0.109 A 
ATOM     16  H   UNL A   1      30.026  28.003  25.185  1.00  0.00     0.170 HD
BRANCH   7  17
ATOM     17  C   UNL A   1      31.698  23.165  24.062  1.00  0.00    -0.038 A 
ATOM     18  C   UNL A   1      32.319  20.462  24.591  1.00  0.00     0.060 A 
ATOM     19  C   UNL A   1      32.509  20.991  23.309  1.00  0.00     0.016 A 
ATOM     20  C   UNL A   1      31.748  21.264  25.583  1.00  0.00     0.016 A 
ATOM     21  C   UNL A   1      32.201  22.332  23.048  1.00  0.00     0.005 A 
ATOM     22  C   UNL A   1      31.404  22.588  25.308  1.00  0.00     0.005 A 
BRANCH  18  23
ATOM     23  C   UNL A   1      32.769  19.073  24.875  1.00  0.00     0.337 C 
ATOM     24  O   UNL A   1      32.072  18.227  25.412  1.00  0.00    -0.246 OA
BRANCH  23  25
ATOM     25  O   UNL A   1      34.045  18.902  24.445  1.00  0.00    -0.465 OA
ATOM     26  C   UNL A   1      34.410  17.551  24.170  1.00  0.00     0.282 C 
ENDBRANCH  23  25
ENDBRANCH  18  23
ENDBRANCH   7  17
BRANCH  12  27
ATOM     27  C   UNL A   1      34.464  24.543  24.981  1.00  0.00     0.045 A 
ATOM     28  C   UNL A   1      34.968  24.498  23.680  1.00  0.00     0.026 A 
ATOM     29  C   UNL A   1      34.868  23.608  25.942  1.00  0.00     0.026 A 
ATOM     30  C   UNL A   1      35.850  23.482  23.322  1.00  0.00     0.002 A 
ATOM     31  C   UNL A   1      35.717  22.568  25.560  1.00  0.00     0.002 A 
ATOM     32  C   UNL A   1      36.201  22.503  24.253  1.00  0.00     0.000 A 
ENDBRANCH  12  27
ENDBRANCH   4   6
ENDBRANCH   3   4
ENDBRANCH   2   3
ENDBRANCH   1   2
BRANCH   1  33
ATOM     33  O   UNL A   1      34.294  32.884  27.873  1.00  0.00    -0.374 OA
BRANCH  33  34
ATOM     34  C   UNL A   1      34.531  33.656  29.045  1.00  0.00     0.202 C 
BRANCH  34  35
ATOM     35  C   UNL A   1      33.432  34.575  29.550  1.00  0.00     0.261 C 
BRANCH  35  36
ATOM     36  O   UNL A   1      33.867  35.357  30.649  1.00  0.00    -0.460 OA
BRANCH  36  37
ATOM     37  C   UNL A   1      33.492  34.873  31.851  1.00  0.00     0.338 C 
ATOM     38  O   UNL A   1      32.430  35.061  32.432  1.00  0.00    -0.246 OA
BRANCH  37  39
ATOM     39  C   UNL A   1      34.643  34.205  32.455  1.00  0.00     0.060 A 
ATOM     40  C   UNL A   1      35.817  34.958  32.520  1.00  0.00     0.016 A 
ATOM     41  C   UNL A   1      34.639  32.807  32.570  1.00  0.00     0.016 A 
ATOM     42  C   UNL A   1      37.010  34.289  32.402  1.00  0.00     0.010 A 
ATOM     43  C   UNL A   1      35.828  32.143  32.432  1.00  0.00     0.010 A 
ATOM     44  C   UNL A   1      36.979  32.900  32.243  1.00  0.00    -0.014 A 
BRANCH  44  45
ATOM     45  C   UNL A   1      38.221  32.218  31.979  1.00  0.00     0.031 A 
ATOM     46  C   UNL A   1      39.015  32.051  33.211  1.00  0.00     0.074 A 
ATOM     47  C   UNL A   1      38.529  31.731  30.764  1.00  0.00     0.049 A 
ATOM     48  N   UNL A   1      40.105  32.666  33.524  1.00  0.00    -0.248 NA
ATOM     49  C   UNL A   1      38.409  31.294  34.321  1.00  0.00     0.031 C 
ATOM     50  C   UNL A   1      37.687  31.647  29.568  1.00  0.00     0.029 A 
ATOM     51  N   UNL A   1      39.674  31.110  30.373  1.00  0.00    -0.354 N 
ATOM     52  C   UNL A   1      40.436  32.200  34.788  1.00  0.00     0.074 A 
ATOM     53  C   UNL A   1      39.259  31.561  35.311  1.00  0.00     0.031 C 
ATOM     54  C   UNL A   1      38.266  30.812  28.672  1.00  0.00     0.029 A 
ATOM     55  C   UNL A   1      39.568  30.411  29.174  1.00  0.00     0.049 A 
ATOM     56  H   UNL A   1      40.508  31.151  30.894  1.00  0.00     0.167 HD
ATOM     57  C   UNL A   1      41.739  32.108  35.164  1.00  0.00     0.037 A 
ATOM     58  C   UNL A   1      40.472  29.506  28.718  1.00  0.00     0.037 A 
ATOM     59  C   UNL A   1      42.575  32.929  34.324  1.00  0.00     0.049 A 
ATOM     60  C   UNL A   1      41.751  29.768  29.436  1.00  0.00     0.074 A 
ATOM     61  C   UNL A   1      42.639  34.283  34.053  1.00  0.00     0.029 A 
ATOM     62  N   UNL A   1      43.256  32.310  33.303  1.00  0.00    -0.354 N 
ATOM     63  N   UNL A   1      42.464  30.847  29.259  1.00  0.00    -0.248 NA
ATOM     64  C   UNL A   1      41.958  29.085  30.706  1.00  0.00     0.031 C 
ATOM     65  C   UNL A   1      42.937  34.370  32.660  1.00  0.00     0.029 A 
ATOM     66  C   UNL A   1      43.114  33.074  32.175  1.00  0.00     0.049 A 
ATOM     67  H   UNL A   1      43.756  31.464  33.371  1.00  0.00     0.167 HD
ATOM     68  C   UNL A   1      42.865  31.217  30.535  1.00  0.00     0.074 A 
ATOM     69  C   UNL A   1      42.572  30.062  31.380  1.00  0.00     0.031 C 
ATOM     70  C   UNL A   1      43.110  32.526  30.840  1.00  0.00     0.037 A 
BRANCH  57  71
ATOM     71  C   UNL A   1      42.289  30.963  35.979  1.00  0.00     0.064 A 
ATOM     72  C   UNL A   1      43.211  31.252  37.002  1.00  0.00     0.173 A 
ATOM     73  C   UNL A   1      42.199  29.602  35.608  1.00  0.00     0.173 A 
ATOM     74  F   UNL A   1      43.388  32.513  37.425  1.00  0.00    -0.203 F 
ATOM     75  C   UNL A   1      44.045  30.270  37.539  1.00  0.00     0.198 A 
ATOM     76  C   UNL A   1      42.993  28.617  36.187  1.00  0.00     0.198 A 
ATOM     77  F   UNL A   1      41.435  29.175  34.597  1.00  0.00    -0.203 F 
ATOM     78  F   UNL A   1      45.003  30.617  38.410  1.00  0.00    -0.200 F 
ATOM     79  C   UNL A   1      43.941  28.955  37.126  1.00  0.00     0.200 A 
ATOM     80  F   UNL A   1      42.887  27.352  35.755  1.00  0.00    -0.200 F 
ATOM     81  F   UNL A   1      44.785  28.025  37.589  1.00  0.00    -0.200 F 
ENDBRANCH  57  71
BRANCH  58  82
ATOM     82  C   UNL A   1      40.211  28.225  28.013  1.00  0.00     0.064 A 
ATOM     83  C   UNL A   1      40.853  27.918  26.800  1.00  0.00     0.173 A 
ATOM     84  C   UNL A   1      39.552  27.159  28.655  1.00  0.00     0.173 A 
ATOM     85  F   UNL A   1      41.547  28.862  26.148  1.00  0.00    -0.203 F 
ATOM     86  C   UNL A   1      40.852  26.621  26.275  1.00  0.00     0.198 A 
ATOM     87  C   UNL A   1      39.548  25.865  28.128  1.00  0.00     0.198 A 
ATOM     88  F   UNL A   1      38.979  27.326  29.855  1.00  0.00    -0.203 F 
ATOM     89  F   UNL A   1      41.526  26.354  25.147  1.00  0.00    -0.200 F 
ATOM     90  C   UNL A   1      40.209  25.593  26.945  1.00  0.00     0.200 A 
ATOM     91  F   UNL A   1      38.955  24.874  28.807  1.00  0.00    -0.200 F 
ATOM     92  F   UNL A   1      40.259  24.339  26.476  1.00  0.00    -0.200 F 
ENDBRANCH  58  82
BRANCH  70  93
ATOM     93  C   UNL A   1      43.174  33.510  29.706  1.00  0.00     0.064 A 
ATOM     94  C   UNL A   1      44.276  33.651  28.843  1.00  0.00     0.173 A 
ATOM     95  C   UNL A   1      42.015  34.229  29.393  1.00  0.00     0.173 A 
ATOM     96  F   UNL A   1      45.386  32.921  29.018  1.00  0.00    -0.203 F 
ATOM     97  C   UNL A   1      44.225  34.504  27.741  1.00  0.00     0.198 A 
ATOM     98  C   UNL A   1      41.954  35.051  28.272  1.00  0.00     0.198 A 
ATOM     99  F   UNL A   1      40.915  34.091  30.150  1.00  0.00    -0.203 F 
ATOM    100  F   UNL A   1      45.292  34.628  26.936  1.00  0.00    -0.200 F 
ATOM    101  C   UNL A   1      43.061  35.197  27.452  1.00  0.00     0.200 A 
ATOM    102  F   UNL A   1      40.809  35.679  27.969  1.00  0.00    -0.200 F 
ATOM    103  F   UNL A   1      42.996  35.985  26.369  1.00  0.00    -0.200 F 
ENDBRANCH  70  93
ENDBRANCH  44  45
ENDBRANCH  37  39
ENDBRANCH  36  37
ENDBRANCH  35  36
ENDBRANCH  34  35
ENDBRANCH  33  34
ENDBRANCH   1  33
TORSDOF 18
ENDMDL
MODEL 2
REMARK VINA RESULT:     -12.7      2.183      3.239
REMARK SMILES COC(=O)c1ccc([C@H]2CC(=O)Nc3c(C(=O)OCCOCCOC(=O)c4ccc(-c5c6nc(c(-c7c(F)c(F)c(F)c(F)c7F)c7ccc([nH]7)c(-c7c(F)c(F)c(F)c(F)c7F)c7nc(c(-c8c(F)c(F)c(F)c(F)c8F)c8ccc5[nH]8)C=C7)C=C6)cc4)cn(-c4ccccc4)c32)cc1
REMARK SMILES IDX 20 1 19 2 18 3 16 4 17 5 15 6 9 7 10 8 98 9 11 10 14 11
REMARK SMILES IDX 91 12 12 13 13 14 90 15 8 17 5 18 6 19 100 20 7 21 99 22
REMARK SMILES IDX 3 23 4 24 2 25 1 26 92 27 93 28 97 29 94 30 96 31 95 32
REMARK SMILES IDX 21 33 22 34 23 35 24 36 25 37 26 38 27 39 28 40 89 41 29 42
REMARK SMILES IDX 88 43 30 44 31 45 32 46 82 47 33 48 87 49 81 50 83 51 34 52
REMARK SMILES IDX 86 53 80 54 79 55 35 57 67 58 47 59 66 60 48 61 51 62 65 63
REMARK SMILES IDX 84 64 49 65 50 66 64 68 85 69 52 70 36 71 37 72 45 73 38 74
REMARK SMILES IDX 39 75 43 76 46 77 40 78 41 79 44 80 42 81 68 82 69 83 77 84
REMARK SMILES IDX 70 85 71 86 75 87 78 88 72 89 73 90 76 91 74 92 53 93 54 94
REMARK SMILES IDX 62 95 55 96 56 97 60 98 63 99 57 100 58 101 61 102 59 103
REMARK H PARENT 13 16 83 56 51 67
REMARK Flexibility Score: inf
ROOT
ATOM      1  C   UNL A   1      34.515  30.961  27.454  1.00  0.00     0.202 C 
ENDROOT
BRANCH   1   2
ATOM      2  C   UNL A   1      33.169  30.587  26.826  1.00  0.00     0.261 C 
BRANCH   2   3
ATOM      3  O   UNL A   1      33.205  29.345  26.105  1.00  0.00    -0.460 OA
BRANCH   3   4
ATOM      4  C   UNL A   1      32.712  28.277  26.794  1.00  0.00     0.341 C 
ATOM      5  O   UNL A   1      32.162  28.349  27.893  1.00  0.00    -0.246 OA
BRANCH   4   6
ATOM      6  C   UNL A   1      32.763  27.040  26.036  1.00  0.00     0.102 A 
ATOM      7  C   UNL A   1      31.679  24.366  23.681  1.00  0.00     0.078 C 
ATOM      8  C   UNL A   1      30.184  24.718  23.601  1.00  0.00     0.115 C 
ATOM      9  C   UNL A   1      32.380  25.286  24.648  1.00  0.00     0.055 A 
ATOM     10  C   UNL A   1      29.834  26.179  23.838  1.00  0.00     0.225 C 
ATOM     11  C   UNL A   1      31.838  26.452  25.142  1.00  0.00     0.078 A 
ATOM     12  N   UNL A   1      33.654  25.157  25.175  1.00  0.00    -0.317 N 
ATOM     13  O   UNL A   1      28.812  26.676  23.366  1.00  0.00    -0.275 OA
ATOM     14  N   UNL A   1      30.616  26.897  24.706  1.00  0.00    -0.324 N 
ATOM     15  C   UNL A   1      33.825  26.149  26.111  1.00  0.00     0.109 A 
ATOM     16  H   UNL A   1      30.287  27.767  25.029  1.00  0.00     0.170 HD
BRANCH   7  17
ATOM     17  C   UNL A   1      31.818  22.868  23.967  1.00  0.00    -0.038 A 
ATOM     18  C   UNL A   1      32.366  20.154  24.516  1.00  0.00     0.060 A 
ATOM     19  C   UNL A   1      32.502  20.652  23.215  1.00  0.00     0.016 A 
ATOM     20  C   UNL A   1      31.882  20.995  25.522  1.00  0.00     0.016 A 
ATOM     21  C   UNL A   1      32.231  21.998  22.944  1.00  0.00     0.005 A 
ATOM     22  C   UNL A   1      31.574  22.326  25.240  1.00  0.00     0.005 A 
BRANCH  18  23
ATOM     23  C   UNL A   1      32.779  18.753  24.803  1.00  0.00     0.337 C 
ATOM     24  O   UNL A   1      32.041  17.911  25.290  1.00  0.00    -0.246 OA
BRANCH  23  25
ATOM     25  O   UNL A   1      34.073  18.568  24.438  1.00  0.00    -0.465 OA
ATOM     26  C   UNL A   1      34.343  17.323  23.797  1.00  0.00     0.282 C 
ENDBRANCH  23  25
ENDBRANCH  18  23
ENDBRANCH   7  17
BRANCH  12  27
ATOM     27  C   UNL A   1      34.624  24.180  24.861  1.00  0.00     0.045 A 
ATOM     28  C   UNL A   1      35.124  24.104  23.558  1.00  0.00     0.026 A 
ATOM     29  C   UNL A   1      35.005  23.246  25.833  1.00  0.00     0.026 A 
ATOM     30  C   UNL A   1      35.975  23.058  23.212  1.00  0.00     0.002 A 
ATOM     31  C   UNL A   1      35.822  22.178  25.463  1.00  0.00     0.002 A 
ATOM     32  C   UNL A   1      36.301  22.082  24.155  1.00  0.00     0.000 A 
ENDBRANCH  12  27
ENDBRANCH   4   6
ENDBRANCH   3   4
ENDBRANCH   2   3
ENDBRANCH   1   2
BRANCH   1  33
ATOM     33  O   UNL A   1      34.850  32.341  27.584  1.00  0.00    -0.374 OA
BRANCH  33  34
ATOM     34  C   UNL A   1      34.005  33.224  28.313  1.00  0.00     0.202 C 
BRANCH  34  35
ATOM     35  C   UNL A   1      34.401  33.611  29.728  1.00  0.00     0.261 C 
BRANCH  35  36
ATOM     36  O   UNL A   1      34.406  32.489  30.595  1.00  0.00    -0.460 OA
BRANCH  36  37
ATOM     37  C   UNL A   1      35.551  32.339  31.293  1.00  0.00     0.338 C 
ATOM     38  O   UNL A   1      35.825  32.817  32.388  1.00  0.00    -0.246 OA
BRANCH  37  39
ATOM     39  C   UNL A   1      36.515  31.638  30.447  1.00  0.00     0.060 A 
ATOM     40  C   UNL A   1      36.410  30.245  30.433  1.00  0.00     0.016 A 
ATOM     41  C   UNL A   1      37.674  32.309  30.031  1.00  0.00     0.016 A 
ATOM     42  C   UNL A   1      37.566  29.521  30.284  1.00  0.00     0.010 A 
ATOM     43  C   UNL A   1      38.829  31.585  29.903  1.00  0.00     0.010 A 
ATOM     44  C   UNL A   1      38.771  30.216  30.139  1.00  0.00    -0.014 A 
BRANCH  44  45
ATOM     45  C   UNL A   1      39.996  29.458  30.123  1.00  0.00     0.031 A 
ATOM     46  C   UNL A   1      40.560  29.321  31.479  1.00  0.00     0.074 A 
ATOM     47  C   UNL A   1      40.473  28.886  29.003  1.00  0.00     0.049 A 
ATOM     48  N   UNL A   1      41.618  29.897  31.943  1.00  0.00    -0.248 NA
ATOM     49  C   UNL A   1      39.733  28.660  32.504  1.00  0.00     0.031 C 
ATOM     50  C   UNL A   1      39.840  28.777  27.686  1.00  0.00     0.029 A 
ATOM     51  N   UNL A   1      41.628  28.187  28.843  1.00  0.00    -0.354 N 
ATOM     52  C   UNL A   1      41.704  29.487  33.266  1.00  0.00     0.074 A 
ATOM     53  C   UNL A   1      40.420  28.940  33.611  1.00  0.00     0.031 C 
ATOM     54  C   UNL A   1      40.509  27.864  26.942  1.00  0.00     0.029 A 
ATOM     55  C   UNL A   1      41.682  27.427  27.678  1.00  0.00     0.049 A 
ATOM     56  H   UNL A   1      42.364  28.214  29.496  1.00  0.00     0.167 HD
ATOM     57  C   UNL A   1      42.918  29.350  33.862  1.00  0.00     0.037 A 
ATOM     58  C   UNL A   1      42.594  26.451  27.426  1.00  0.00     0.037 A 
ATOM     59  C   UNL A   1      43.930  30.078  33.139  1.00  0.00     0.049 A 
ATOM     60  C   UNL A   1      43.749  26.688  28.339  1.00  0.00     0.074 A 
ATOM     61  C   UNL A   1      44.120  31.409  32.818  1.00  0.00     0.029 A 
ATOM     62  N   UNL A   1      44.734  29.367  32.280  1.00  0.00    -0.354 N 
ATOM     63  N   UNL A   1      44.544  27.718  28.234  1.00  0.00    -0.248 NA
ATOM     64  C   UNL A   1      43.698  26.069  29.657  1.00  0.00     0.031 C 
ATOM     65  C   UNL A   1      44.651  31.401  31.495  1.00  0.00     0.029 A 
ATOM     66  C   UNL A   1      44.829  30.072  31.109  1.00  0.00     0.049 A 
ATOM     67  H   UNL A   1      45.164  28.503  32.473  1.00  0.00     0.167 HD
ATOM     68  C   UNL A   1      44.747  28.140  29.541  1.00  0.00     0.074 A 
ATOM     69  C   UNL A   1      44.248  27.051  30.378  1.00  0.00     0.031 C 
ATOM     70  C   UNL A   1      45.016  29.449  29.820  1.00  0.00     0.037 A 
BRANCH  57  71
ATOM     71  C   UNL A   1      43.253  28.228  34.814  1.00  0.00     0.064 A 
ATOM     72  C   UNL A   1      43.717  28.557  36.100  1.00  0.00     0.173 A 
ATOM     73  C   UNL A   1      43.439  26.880  34.426  1.00  0.00     0.173 A 
ATOM     74  F   UNL A   1      43.603  29.809  36.567  1.00  0.00    -0.203 F 
ATOM     75  C   UNL A   1      44.399  27.633  36.895  1.00  0.00     0.198 A 
ATOM     76  C   UNL A   1      44.070  25.949  35.244  1.00  0.00     0.198 A 
ATOM     77  F   UNL A   1      43.132  26.428  33.206  1.00  0.00    -0.203 F 
ATOM     78  F   UNL A   1      44.944  28.029  38.053  1.00  0.00    -0.200 F 
ATOM     79  C   UNL A   1      44.582  26.333  36.463  1.00  0.00     0.200 A 
ATOM     80  F   UNL A   1      44.253  24.699  34.796  1.00  0.00    -0.200 F 
ATOM     81  F   UNL A   1      45.296  25.465  37.192  1.00  0.00    -0.200 F 
ENDBRANCH  57  71
BRANCH  58  82
ATOM     82  C   UNL A   1      42.378  25.147  26.750  1.00  0.00     0.064 A 
ATOM     83  C   UNL A   1      43.104  24.798  25.597  1.00  0.00     0.173 A 
ATOM     84  C   UNL A   1      41.670  24.105  27.379  1.00  0.00     0.173 A 
ATOM     85  F   UNL A   1      43.847  25.717  24.964  1.00  0.00    -0.203 F 
ATOM     86  C   UNL A   1      43.134  23.483  25.118  1.00  0.00     0.198 A 
ATOM     87  C   UNL A   1      41.698  22.794  26.898  1.00  0.00     0.198 A 
ATOM     88  F   UNL A   1      41.014  24.316  28.528  1.00  0.00    -0.203 F 
ATOM     89  F   UNL A   1      43.886  23.175  24.051  1.00  0.00    -0.200 F 
ATOM     90  C   UNL A   1      42.441  22.480  25.776  1.00  0.00     0.200 A 
ATOM     91  F   UNL A   1      41.054  21.828  27.567  1.00  0.00    -0.200 F 
ATOM     92  F   UNL A   1      42.519  21.210  25.355  1.00  0.00    -0.200 F 
ENDBRANCH  58  82
BRANCH  70  93
ATOM     93  C   UNL A   1      45.328  30.362  28.669  1.00  0.00     0.064 A 
ATOM     94  C   UNL A   1      44.354  31.048  27.918  1.00  0.00     0.173 A 
ATOM     95  C   UNL A   1      46.670  30.671  28.418  1.00  0.00     0.173 A 
ATOM     96  F   UNL A   1      43.049  30.882  28.167  1.00  0.00    -0.203 F 
ATOM     97  C   UNL A   1      44.717  31.968  26.935  1.00  0.00     0.198 A 
ATOM     98  C   UNL A   1      47.029  31.618  27.463  1.00  0.00     0.198 A 
ATOM     99  F   UNL A   1      47.638  30.089  29.142  1.00  0.00    -0.203 F 
ATOM    100  F   UNL A   1      43.772  32.604  26.225  1.00  0.00    -0.200 F 
ATOM    101  C   UNL A   1      46.054  32.258  26.715  1.00  0.00     0.200 A 
ATOM    102  F   UNL A   1      48.320  31.931  27.290  1.00  0.00    -0.200 F 
ATOM    103  F   UNL A   1      46.403  33.174  25.800  1.00  0.00    -0.200 F 
ENDBRANCH  70  93
ENDBRANCH  44  45
ENDBRANCH  37  39
ENDBRANCH  36  37
ENDBRANCH  35  36
ENDBRANCH  34  35
ENDBRANCH  33  34
ENDBRANCH   1  33
TORSDOF 18
ENDMDL
MODEL 3
REMARK VINA RESULT:     -12.7      3.939      9.550
REMARK SMILES COC(=O)c1ccc([C@H]2CC(=O)Nc3c(C(=O)OCCOCCOC(=O)c4ccc(-c5c6nc(c(-c7c(F)c(F)c(F)c(F)c7F)c7ccc([nH]7)c(-c7c(F)c(F)c(F)c(F)c7F)c7nc(c(-c8c(F)c(F)c(F)c(F)c8F)c8ccc5[nH]8)C=C7)C=C6)cc4)cn(-c4ccccc4)c32)cc1
REMARK SMILES IDX 20 1 19 2 18 3 16 4 17 5 15 6 9 7 10 8 98 9 11 10 14 11
REMARK SMILES IDX 91 12 12 13 13 14 90 15 8 17 5 18 6 19 100 20 7 21 99 22
REMARK SMILES IDX 3 23 4 24 2 25 1 26 92 27 93 28 97 29 94 30 96 31 95 32
REMARK SMILES IDX 21 33 22 34 23 35 24 36 25 37 26 38 27 39 28 40 89 41 29 42
REMARK SMILES IDX 88 43 30 44 31 45 32 46 82 47 33 48 87 49 81 50 83 51 34 52
REMARK SMILES IDX 86 53 80 54 79 55 35 57 67 58 47 59 66 60 48 61 51 62 65 63
REMARK SMILES IDX 84 64 49 65 50 66 64 68 85 69 52 70 36 71 37 72 45 73 38 74
REMARK SMILES IDX 39 75 43 76 46 77 40 78 41 79 44 80 42 81 68 82 69 83 77 84
REMARK SMILES IDX 70 85 71 86 75 87 78 88 72 89 73 90 76 91 74 92 53 93 54 94
REMARK SMILES IDX 62 95 55 96 56 97 60 98 63 99 57 100 58 101 61 102 59 103
REMARK H PARENT 13 16 83 56 51 67
REMARK Flexibility Score: inf
ROOT
ATOM      1  C   UNL A   1      39.262  22.246  26.532  1.00  0.00     0.202 C 
ENDROOT
BRANCH   1   2
ATOM      2  C   UNL A   1      37.963  22.023  25.750  1.00  0.00     0.261 C 
BRANCH   2   3
ATOM      3  O   UNL A   1      37.322  23.247  25.356  1.00  0.00    -0.460 OA
BRANCH   3   4
ATOM      4  C   UNL A   1      36.590  23.157  24.209  1.00  0.00     0.341 C 
ATOM      5  O   UNL A   1      36.933  22.526  23.209  1.00  0.00    -0.246 OA
BRANCH   4   6
ATOM      6  C   UNL A   1      35.275  23.762  24.327  1.00  0.00     0.102 A 
ATOM      7  C   UNL A   1      31.571  24.085  24.109  1.00  0.00     0.078 C 
ATOM      8  C   UNL A   1      31.293  22.924  23.140  1.00  0.00     0.115 C 
ATOM      9  C   UNL A   1      33.055  24.228  24.338  1.00  0.00     0.055 A 
ATOM     10  C   UNL A   1      32.295  21.780  23.171  1.00  0.00     0.225 C 
ATOM     11  C   UNL A   1      33.990  23.280  23.987  1.00  0.00     0.078 A 
ATOM     12  N   UNL A   1      33.725  25.278  24.944  1.00  0.00    -0.317 N 
ATOM     13  O   UNL A   1      31.975  20.641  22.832  1.00  0.00    -0.275 OA
ATOM     14  N   UNL A   1      33.602  22.075  23.459  1.00  0.00    -0.324 N 
ATOM     15  C   UNL A   1      35.074  25.046  24.814  1.00  0.00     0.109 A 
ATOM     16  H   UNL A   1      34.290  21.394  23.281  1.00  0.00     0.170 HD
BRANCH   7  17
ATOM     17  C   UNL A   1      30.852  25.337  23.599  1.00  0.00    -0.038 A 
ATOM     18  C   UNL A   1      29.630  27.783  22.898  1.00  0.00     0.060 A 
ATOM     19  C   UNL A   1      29.011  26.922  23.812  1.00  0.00     0.016 A 
ATOM     20  C   UNL A   1      30.818  27.384  22.280  1.00  0.00     0.016 A 
ATOM     21  C   UNL A   1      29.619  25.710  24.159  1.00  0.00     0.005 A 
ATOM     22  C   UNL A   1      31.400  26.156  22.598  1.00  0.00     0.005 A 
BRANCH  18  23
ATOM     23  C   UNL A   1      29.028  29.119  22.640  1.00  0.00     0.337 C 
ATOM     24  O   UNL A   1      28.057  29.557  23.236  1.00  0.00    -0.246 OA
BRANCH  23  25
ATOM     25  O   UNL A   1      29.720  29.757  21.662  1.00  0.00    -0.465 OA
ATOM     26  C   UNL A   1      29.164  31.004  21.248  1.00  0.00     0.282 C 
ENDBRANCH  23  25
ENDBRANCH  18  23
ENDBRANCH   7  17
BRANCH  12  27
ATOM     27  C   UNL A   1      33.167  26.416  25.567  1.00  0.00     0.045 A 
ATOM     28  C   UNL A   1      32.202  26.248  26.562  1.00  0.00     0.026 A 
ATOM     29  C   UNL A   1      33.521  27.694  25.117  1.00  0.00     0.026 A 
ATOM     30  C   UNL A   1      31.551  27.365  27.080  1.00  0.00     0.002 A 
ATOM     31  C   UNL A   1      32.831  28.801  25.611  1.00  0.00     0.002 A 
ATOM     32  C   UNL A   1      31.846  28.636  26.585  1.00  0.00     0.000 A 
ENDBRANCH  12  27
ENDBRANCH   4   6
ENDBRANCH   3   4
ENDBRANCH   2   3
ENDBRANCH   1   2
BRANCH   1  33
ATOM     33  O   UNL A   1      40.199  21.174  26.623  1.00  0.00    -0.374 OA
BRANCH  33  34
ATOM     34  C   UNL A   1      41.549  21.358  26.211  1.00  0.00     0.202 C 
BRANCH  34  35
ATOM     35  C   UNL A   1      42.383  20.134  25.877  1.00  0.00     0.261 C 
BRANCH  35  36
ATOM     36  O   UNL A   1      43.771  20.403  25.982  1.00  0.00    -0.460 OA
BRANCH  36  37
ATOM     37  C   UNL A   1      44.329  20.871  24.846  1.00  0.00     0.338 C 
ATOM     38  O   UNL A   1      44.647  20.228  23.852  1.00  0.00    -0.246 OA
BRANCH  37  39
ATOM     39  C   UNL A   1      44.662  22.280  25.045  1.00  0.00     0.060 A 
ATOM     40  C   UNL A   1      45.472  22.562  26.147  1.00  0.00     0.016 A 
ATOM     41  C   UNL A   1      43.887  23.262  24.410  1.00  0.00     0.016 A 
ATOM     42  C   UNL A   1      45.277  23.758  26.791  1.00  0.00     0.010 A 
ATOM     43  C   UNL A   1      43.679  24.445  25.066  1.00  0.00     0.010 A 
ATOM     44  C   UNL A   1      44.296  24.625  26.299  1.00  0.00    -0.014 A 
BRANCH  44  45
ATOM     45  C   UNL A   1      43.996  25.813  27.057  1.00  0.00     0.031 A 
ATOM     46  C   UNL A   1      44.960  26.892  26.769  1.00  0.00     0.074 A 
ATOM     47  C   UNL A   1      42.907  25.909  27.842  1.00  0.00     0.049 A 
ATOM     48  N   UNL A   1      45.881  27.341  27.553  1.00  0.00    -0.248 NA
ATOM     49  C   UNL A   1      45.068  27.362  25.377  1.00  0.00     0.031 C 
ATOM     50  C   UNL A   1      41.789  24.973  27.979  1.00  0.00     0.029 A 
ATOM     51  N   UNL A   1      42.533  26.948  28.636  1.00  0.00    -0.354 N 
ATOM     52  C   UNL A   1      46.544  28.312  26.816  1.00  0.00     0.074 A 
ATOM     53  C   UNL A   1      46.167  28.114  25.443  1.00  0.00     0.031 C 
ATOM     54  C   UNL A   1      40.767  25.588  28.620  1.00  0.00     0.029 A 
ATOM     55  C   UNL A   1      41.204  26.905  29.047  1.00  0.00     0.049 A 
ATOM     56  H   UNL A   1      43.150  27.669  28.897  1.00  0.00     0.167 HD
ATOM     57  C   UNL A   1      47.098  29.385  27.440  1.00  0.00     0.037 A 
ATOM     58  C   UNL A   1      40.530  27.942  29.610  1.00  0.00     0.037 A 
ATOM     59  C   UNL A   1      47.282  29.124  28.845  1.00  0.00     0.049 A 
ATOM     60  C   UNL A   1      41.552  28.891  30.137  1.00  0.00     0.074 A 
ATOM     61  C   UNL A   1      48.007  28.196  29.569  1.00  0.00     0.029 A 
ATOM     62  N   UNL A   1      46.343  29.626  29.714  1.00  0.00    -0.354 N 
ATOM     63  N   UNL A   1      42.335  28.612  31.142  1.00  0.00    -0.248 NA
ATOM     64  C   UNL A   1      42.041  29.920  29.229  1.00  0.00     0.031 C 
ATOM     65  C   UNL A   1      47.174  27.851  30.673  1.00  0.00     0.029 A 
ATOM     66  C   UNL A   1      46.024  28.638  30.609  1.00  0.00     0.049 A 
ATOM     67  H   UNL A   1      45.965  30.535  29.696  1.00  0.00     0.167 HD
ATOM     68  C   UNL A   1      43.581  29.093  30.761  1.00  0.00     0.074 A 
ATOM     69  C   UNL A   1      43.325  29.940  29.598  1.00  0.00     0.031 C 
ATOM     70  C   UNL A   1      44.727  28.520  31.232  1.00  0.00     0.037 A 
BRANCH  57  71
ATOM     71  C   UNL A   1      47.057  30.785  26.876  1.00  0.00     0.064 A 
ATOM     72  C   UNL A   1      48.238  31.550  26.899  1.00  0.00     0.173 A 
ATOM     73  C   UNL A   1      45.870  31.506  26.611  1.00  0.00     0.173 A 
ATOM     74  F   UNL A   1      49.421  30.971  27.153  1.00  0.00    -0.203 F 
ATOM     75  C   UNL A   1      48.216  32.939  26.764  1.00  0.00     0.198 A 
ATOM     76  C   UNL A   1      45.861  32.884  26.422  1.00  0.00     0.198 A 
ATOM     77  F   UNL A   1      44.658  30.942  26.640  1.00  0.00    -0.203 F 
ATOM     78  F   UNL A   1      49.346  33.640  26.932  1.00  0.00    -0.200 F 
ATOM     79  C   UNL A   1      47.027  33.606  26.534  1.00  0.00     0.200 A 
ATOM     80  F   UNL A   1      44.692  33.510  26.219  1.00  0.00    -0.200 F 
ATOM     81  F   UNL A   1      46.994  34.943  26.474  1.00  0.00    -0.200 F 
ENDBRANCH  57  71
BRANCH  58  82
ATOM     82  C   UNL A   1      39.118  28.346  29.387  1.00  0.00     0.064 A 
ATOM     83  C   UNL A   1      38.231  28.512  30.465  1.00  0.00     0.173 A 
ATOM     84  C   UNL A   1      38.690  28.855  28.145  1.00  0.00     0.173 A 
ATOM     85  F   UNL A   1      38.580  28.102  31.694  1.00  0.00    -0.203 F 
ATOM     86  C   UNL A   1      37.002  29.164  30.313  1.00  0.00     0.198 A 
ATOM     87  C   UNL A   1      37.462  29.502  27.994  1.00  0.00     0.198 A 
ATOM     88  F   UNL A   1      39.494  28.821  27.074  1.00  0.00    -0.203 F 
ATOM     89  F   UNL A   1      36.209  29.356  31.377  1.00  0.00    -0.200 F 
ATOM     90  C   UNL A   1      36.624  29.669  29.080  1.00  0.00     0.200 A 
ATOM     91  F   UNL A   1      37.127  30.019  26.803  1.00  0.00    -0.200 F 
ATOM     92  F   UNL A   1      35.476  30.348  28.945  1.00  0.00    -0.200 F 
ENDBRANCH  58  82
BRANCH  70  93
ATOM     93  C   UNL A   1      44.606  27.527  32.353  1.00  0.00     0.064 A 
ATOM     94  C   UNL A   1      44.486  27.879  33.711  1.00  0.00     0.173 A 
ATOM     95  C   UNL A   1      44.452  26.176  32.023  1.00  0.00     0.173 A 
ATOM     96  F   UNL A   1      44.521  29.162  34.096  1.00  0.00    -0.203 F 
ATOM     97  C   UNL A   1      44.263  26.912  34.690  1.00  0.00     0.198 A 
ATOM     98  C   UNL A   1      44.192  25.217  32.997  1.00  0.00     0.198 A 
ATOM     99  F   UNL A   1      44.502  25.791  30.738  1.00  0.00    -0.203 F 
ATOM    100  F   UNL A   1      44.160  27.270  35.979  1.00  0.00    -0.200 F 
ATOM    101  C   UNL A   1      44.108  25.583  34.331  1.00  0.00     0.200 A 
ATOM    102  F   UNL A   1      43.992  23.942  32.638  1.00  0.00    -0.200 F 
ATOM    103  F   UNL A   1      43.850  24.657  35.266  1.00  0.00    -0.200 F 
ENDBRANCH  70  93
ENDBRANCH  44  45
ENDBRANCH  37  39
ENDBRANCH  36  37
ENDBRANCH  35  36
ENDBRANCH  34  35
ENDBRANCH  33  34
ENDBRANCH   1  33
TORSDOF 18
ENDMDL
