MODEL 1
REMARK VINA RESULT:     -10.8      0.000      0.000
REMARK SMILES O=C(Cc1ccc(OC[C@H]2Cc3ccccc3S2)cc1)OCCOCCOC(=O)c1ccc(-c2c3nc(c(-c4c(F)c(F)c(F)c(F)c4F)c4ccc([nH]4)c(-c4c(F)c(F)c(F)c(F)c4F)c4nc(c(-c5c(F)c(F)c(F)c(F)c5F)c5ccc2[nH]5)C=C4)C=C3)cc1
REMARK SMILES IDX 23 1 22 2 21 3 2 4 1 5 3 6 4 7 5 8 20 9 6 10 19 11 7 12 8 13
REMARK SMILES IDX 9 14 10 15 11 16 18 17 12 18 17 19 13 20 16 21 14 22 15 23
REMARK SMILES IDX 24 24 25 25 26 26 27 27 28 28 29 29 30 30 31 31 92 32 32 33
REMARK SMILES IDX 91 34 33 35 34 36 35 37 85 38 36 39 90 40 84 41 86 42 37 43
REMARK SMILES IDX 89 44 83 45 82 46 38 48 70 49 50 50 69 51 51 52 54 53 68 54
REMARK SMILES IDX 87 55 52 56 53 57 67 59 88 60 55 61 39 62 40 63 48 64 41 65
REMARK SMILES IDX 42 66 46 67 49 68 43 69 44 70 47 71 45 72 71 73 72 74 80 75
REMARK SMILES IDX 73 76 74 77 78 78 81 79 75 80 76 81 79 82 77 83 56 84 57 85
REMARK SMILES IDX 65 86 58 87 59 88 63 89 66 90 60 91 61 92 64 93 62 94
REMARK H PARENT 86 47 54 58
REMARK Flexibility Score: inf
ROOT
ATOM      1  C   UNL A   1      35.345  33.672  29.281  1.00  0.00     0.202 C 
ENDROOT
BRANCH   1   2
ATOM      2  C   UNL A   1      34.360  32.515  29.112  1.00  0.00     0.261 C 
BRANCH   2   3
ATOM      3  O   UNL A   1      34.927  31.216  28.892  1.00  0.00    -0.463 OA
BRANCH   3   4
ATOM      4  C   UNL A   1      35.120  30.606  27.697  1.00  0.00     0.310 C 
ATOM      5  O   UNL A   1      36.272  30.381  27.325  1.00  0.00    -0.252 OA
BRANCH   4   6
ATOM      6  C   UNL A   1      33.965  30.353  26.752  1.00  0.00     0.158 C 
BRANCH   6   7
ATOM      7  C   UNL A   1      33.278  29.018  26.844  1.00  0.00    -0.037 A 
ATOM      8  C   UNL A   1      31.966  28.895  27.330  1.00  0.00     0.008 A 
ATOM      9  C   UNL A   1      33.946  27.886  26.360  1.00  0.00     0.008 A 
ATOM     10  C   UNL A   1      31.288  27.681  27.197  1.00  0.00     0.047 A 
ATOM     11  C   UNL A   1      33.275  26.677  26.248  1.00  0.00     0.047 A 
ATOM     12  C   UNL A   1      31.943  26.585  26.644  1.00  0.00     0.119 A 
BRANCH  12  13
ATOM     13  O   UNL A   1      31.235  25.445  26.385  1.00  0.00    -0.492 OA
BRANCH  13  14
ATOM     14  C   UNL A   1      31.920  24.611  25.441  1.00  0.00     0.244 C 
BRANCH  14  15
ATOM     15  C   UNL A   1      31.068  24.442  24.162  1.00  0.00     0.094 C 
ATOM     16  C   UNL A   1      30.151  25.658  23.872  1.00  0.00     0.055 C 
ATOM     17  S   UNL A   1      32.233  24.462  22.751  1.00  0.00    -0.119 SA
ATOM     18  C   UNL A   1      31.076  26.737  23.371  1.00  0.00    -0.033 A 
ATOM     19  C   UNL A   1      32.246  26.232  22.791  1.00  0.00     0.011 A 
ATOM     20  C   UNL A   1      30.891  28.106  23.504  1.00  0.00     0.005 A 
ATOM     21  C   UNL A   1      33.300  27.060  22.459  1.00  0.00     0.015 A 
ATOM     22  C   UNL A   1      31.944  28.955  23.149  1.00  0.00     0.000 A 
ATOM     23  C   UNL A   1      33.151  28.432  22.660  1.00  0.00     0.001 A 
ENDBRANCH  14  15
ENDBRANCH  13  14
ENDBRANCH  12  13
ENDBRANCH   6   7
ENDBRANCH   4   6
ENDBRANCH   3   4
ENDBRANCH   2   3
ENDBRANCH   1   2
BRANCH   1  24
ATOM     24  O   UNL A   1      35.025  34.927  28.703  1.00  0.00    -0.374 OA
BRANCH  24  25
ATOM     25  C   UNL A   1      33.645  35.225  28.469  1.00  0.00     0.202 C 
BRANCH  25  26
ATOM     26  C   UNL A   1      32.903  36.099  29.486  1.00  0.00     0.261 C 
BRANCH  26  27
ATOM     27  O   UNL A   1      32.441  35.348  30.621  1.00  0.00    -0.460 OA
BRANCH  27  28
ATOM     28  C   UNL A   1      32.759  35.865  31.830  1.00  0.00     0.338 C 
ATOM     29  O   UNL A   1      32.153  36.721  32.460  1.00  0.00    -0.246 OA
BRANCH  28  30
ATOM     30  C   UNL A   1      33.868  35.089  32.402  1.00  0.00     0.060 A 
ATOM     31  C   UNL A   1      35.159  35.631  32.356  1.00  0.00     0.016 A 
ATOM     32  C   UNL A   1      33.641  33.820  32.936  1.00  0.00     0.016 A 
ATOM     33  C   UNL A   1      36.240  34.893  32.835  1.00  0.00     0.010 A 
ATOM     34  C   UNL A   1      34.726  33.078  33.402  1.00  0.00     0.010 A 
ATOM     35  C   UNL A   1      36.030  33.603  33.337  1.00  0.00    -0.014 A 
BRANCH  35  36
ATOM     36  C   UNL A   1      37.174  32.746  33.719  1.00  0.00     0.031 A 
ATOM     37  C   UNL A   1      37.907  33.044  34.994  1.00  0.00     0.074 A 
ATOM     38  C   UNL A   1      37.580  31.759  32.901  1.00  0.00     0.049 A 
ATOM     39  N   UNL A   1      39.031  32.544  35.439  1.00  0.00    -0.248 NA
ATOM     40  C   UNL A   1      37.298  34.046  35.884  1.00  0.00     0.031 C 
ATOM     41  C   UNL A   1      36.918  31.371  31.657  1.00  0.00     0.029 A 
ATOM     42  N   UNL A   1      38.668  30.928  32.978  1.00  0.00    -0.354 N 
ATOM     43  C   UNL A   1      39.276  33.189  36.644  1.00  0.00     0.074 A 
ATOM     44  C   UNL A   1      38.191  34.120  36.861  1.00  0.00     0.031 C 
ATOM     45  C   UNL A   1      37.636  30.403  31.065  1.00  0.00     0.029 A 
ATOM     46  C   UNL A   1      38.831  30.141  31.864  1.00  0.00     0.049 A 
ATOM     47  H   UNL A   1      39.274  30.899  33.754  1.00  0.00     0.167 HD
ATOM     48  C   UNL A   1      40.322  33.016  37.485  1.00  0.00     0.037 A 
ATOM     49  C   UNL A   1      39.858  29.344  31.510  1.00  0.00     0.037 A 
ATOM     50  C   UNL A   1      41.386  32.074  37.259  1.00  0.00     0.049 A 
ATOM     51  C   UNL A   1      41.040  29.222  32.438  1.00  0.00     0.074 A 
ATOM     52  C   UNL A   1      42.458  31.772  38.080  1.00  0.00     0.029 A 
ATOM     53  N   UNL A   1      41.519  31.292  36.121  1.00  0.00    -0.354 N 
ATOM     54  N   UNL A   1      41.242  29.789  33.603  1.00  0.00    -0.248 NA
ATOM     55  C   UNL A   1      42.142  28.353  31.999  1.00  0.00     0.031 C 
ATOM     56  C   UNL A   1      43.278  30.861  37.409  1.00  0.00     0.029 A 
ATOM     57  C   UNL A   1      42.682  30.545  36.198  1.00  0.00     0.049 A 
ATOM     58  H   UNL A   1      40.882  31.272  35.371  1.00  0.00     0.167 HD
ATOM     59  C   UNL A   1      42.476  29.330  34.044  1.00  0.00     0.074 A 
ATOM     60  C   UNL A   1      42.968  28.419  33.033  1.00  0.00     0.031 C 
ATOM     61  C   UNL A   1      43.149  29.638  35.180  1.00  0.00     0.037 A 
BRANCH  48  62
ATOM     62  C   UNL A   1      40.401  33.877  38.710  1.00  0.00     0.064 A 
ATOM     63  C   UNL A   1      41.069  35.110  38.708  1.00  0.00     0.173 A 
ATOM     64  C   UNL A   1      39.717  33.501  39.877  1.00  0.00     0.173 A 
ATOM     65  F   UNL A   1      41.747  35.510  37.623  1.00  0.00    -0.203 F 
ATOM     66  C   UNL A   1      41.052  35.933  39.832  1.00  0.00     0.198 A 
ATOM     67  C   UNL A   1      39.681  34.338  40.988  1.00  0.00     0.198 A 
ATOM     68  F   UNL A   1      39.062  32.332  39.929  1.00  0.00    -0.203 F 
ATOM     69  F   UNL A   1      41.716  37.097  39.817  1.00  0.00    -0.200 F 
ATOM     70  C   UNL A   1      40.349  35.552  40.966  1.00  0.00     0.200 A 
ATOM     71  F   UNL A   1      38.988  33.974  42.077  1.00  0.00    -0.200 F 
ATOM     72  F   UNL A   1      40.314  36.357  42.037  1.00  0.00    -0.200 F 
ENDBRANCH  48  62
BRANCH  49  73
ATOM     73  C   UNL A   1      39.849  28.645  30.196  1.00  0.00     0.064 A 
ATOM     74  C   UNL A   1      39.303  27.361  30.060  1.00  0.00     0.173 A 
ATOM     75  C   UNL A   1      40.434  29.225  29.059  1.00  0.00     0.173 A 
ATOM     76  F   UNL A   1      38.755  26.752  31.122  1.00  0.00    -0.203 F 
ATOM     77  C   UNL A   1      39.372  26.672  28.851  1.00  0.00     0.198 A 
ATOM     78  C   UNL A   1      40.471  28.549  27.841  1.00  0.00     0.198 A 
ATOM     79  F   UNL A   1      40.974  30.451  29.131  1.00  0.00    -0.203 F 
ATOM     80  F   UNL A   1      38.905  25.419  28.769  1.00  0.00    -0.200 F 
ATOM     81  C   UNL A   1      39.953  27.268  27.741  1.00  0.00     0.200 A 
ATOM     82  F   UNL A   1      41.020  29.135  26.768  1.00  0.00    -0.200 F 
ATOM     83  F   UNL A   1      40.026  26.602  26.581  1.00  0.00    -0.200 F 
ENDBRANCH  49  73
BRANCH  61  84
ATOM     84  C   UNL A   1      44.474  28.970  35.403  1.00  0.00     0.064 A 
ATOM     85  C   UNL A   1      45.676  29.572  35.003  1.00  0.00     0.173 A 
ATOM     86  C   UNL A   1      44.546  27.740  36.075  1.00  0.00     0.173 A 
ATOM     87  F   UNL A   1      45.659  30.740  34.343  1.00  0.00    -0.203 F 
ATOM     88  C   UNL A   1      46.900  28.957  35.249  1.00  0.00     0.198 A 
ATOM     89  C   UNL A   1      45.773  27.145  36.350  1.00  0.00     0.198 A 
ATOM     90  F   UNL A   1      43.425  27.126  36.485  1.00  0.00    -0.203 F 
ATOM     91  F   UNL A   1      48.033  29.528  34.819  1.00  0.00    -0.200 F 
ATOM     92  C   UNL A   1      46.948  27.750  35.932  1.00  0.00     0.200 A 
ATOM     93  F   UNL A   1      45.818  25.988  37.025  1.00  0.00    -0.200 F 
ATOM     94  F   UNL A   1      48.129  27.167  36.182  1.00  0.00    -0.200 F 
ENDBRANCH  61  84
ENDBRANCH  35  36
ENDBRANCH  28  30
ENDBRANCH  27  28
ENDBRANCH  26  27
ENDBRANCH  25  26
ENDBRANCH  24  25
ENDBRANCH   1  24
TORSDOF 18
ENDMDL
MODEL 2
REMARK VINA RESULT:     -10.7      3.554      8.943
REMARK SMILES O=C(Cc1ccc(OC[C@H]2Cc3ccccc3S2)cc1)OCCOCCOC(=O)c1ccc(-c2c3nc(c(-c4c(F)c(F)c(F)c(F)c4F)c4ccc([nH]4)c(-c4c(F)c(F)c(F)c(F)c4F)c4nc(c(-c5c(F)c(F)c(F)c(F)c5F)c5ccc2[nH]5)C=C4)C=C3)cc1
REMARK SMILES IDX 23 1 22 2 21 3 2 4 1 5 3 6 4 7 5 8 20 9 6 10 19 11 7 12 8 13
REMARK SMILES IDX 9 14 10 15 11 16 18 17 12 18 17 19 13 20 16 21 14 22 15 23
REMARK SMILES IDX 24 24 25 25 26 26 27 27 28 28 29 29 30 30 31 31 92 32 32 33
REMARK SMILES IDX 91 34 33 35 34 36 35 37 85 38 36 39 90 40 84 41 86 42 37 43
REMARK SMILES IDX 89 44 83 45 82 46 38 48 70 49 50 50 69 51 51 52 54 53 68 54
REMARK SMILES IDX 87 55 52 56 53 57 67 59 88 60 55 61 39 62 40 63 48 64 41 65
REMARK SMILES IDX 42 66 46 67 49 68 43 69 44 70 47 71 45 72 71 73 72 74 80 75
REMARK SMILES IDX 73 76 74 77 78 78 81 79 75 80 76 81 79 82 77 83 56 84 57 85
REMARK SMILES IDX 65 86 58 87 59 88 63 89 66 90 60 91 61 92 64 93 62 94
REMARK H PARENT 86 47 54 58
REMARK Flexibility Score: inf
ROOT
ATOM      1  C   UNL A   1      39.123  21.612  26.199  1.00  0.00     0.202 C 
ENDROOT
BRANCH   1   2
ATOM      2  C   UNL A   1      37.905  21.896  25.320  1.00  0.00     0.261 C 
BRANCH   2   3
ATOM      3  O   UNL A   1      36.681  21.243  25.688  1.00  0.00    -0.463 OA
BRANCH   3   4
ATOM      4  C   UNL A   1      35.427  21.740  25.557  1.00  0.00     0.310 C 
ATOM      5  O   UNL A   1      34.930  21.808  24.431  1.00  0.00    -0.252 OA
BRANCH   4   6
ATOM      6  C   UNL A   1      34.702  22.356  26.733  1.00  0.00     0.158 C 
BRANCH   6   7
ATOM      7  C   UNL A   1      33.636  23.374  26.433  1.00  0.00    -0.037 A 
ATOM      8  C   UNL A   1      32.273  23.092  26.614  1.00  0.00     0.008 A 
ATOM      9  C   UNL A   1      34.030  24.658  26.033  1.00  0.00     0.008 A 
ATOM     10  C   UNL A   1      31.334  24.123  26.534  1.00  0.00     0.047 A 
ATOM     11  C   UNL A   1      33.092  25.675  25.936  1.00  0.00     0.047 A 
ATOM     12  C   UNL A   1      31.753  25.410  26.210  1.00  0.00     0.119 A 
BRANCH  12  13
ATOM     13  O   UNL A   1      30.856  26.439  26.273  1.00  0.00    -0.492 OA
BRANCH  13  14
ATOM     14  C   UNL A   1      30.901  27.240  25.085  1.00  0.00     0.244 C 
BRANCH  14  15
ATOM     15  C   UNL A   1      30.328  26.449  23.886  1.00  0.00     0.094 C 
ATOM     16  C   UNL A   1      28.800  26.636  23.704  1.00  0.00     0.055 C 
ATOM     17  S   UNL A   1      31.018  27.215  22.375  1.00  0.00    -0.119 SA
ATOM     18  C   UNL A   1      28.639  28.024  23.139  1.00  0.00    -0.033 A 
ATOM     19  C   UNL A   1      29.771  28.470  22.445  1.00  0.00     0.011 A 
ATOM     20  C   UNL A   1      27.546  28.861  23.313  1.00  0.00     0.005 A 
ATOM     21  C   UNL A   1      29.891  29.782  22.033  1.00  0.00     0.015 A 
ATOM     22  C   UNL A   1      27.649  30.186  22.879  1.00  0.00     0.000 A 
ATOM     23  C   UNL A   1      28.826  30.650  22.272  1.00  0.00     0.001 A 
ENDBRANCH  14  15
ENDBRANCH  13  14
ENDBRANCH  12  13
ENDBRANCH   6   7
ENDBRANCH   4   6
ENDBRANCH   3   4
ENDBRANCH   2   3
ENDBRANCH   1   2
BRANCH   1  24
ATOM     24  O   UNL A   1      40.308  21.135  25.583  1.00  0.00    -0.374 OA
BRANCH  24  25
ATOM     25  C   UNL A   1      41.299  20.527  26.417  1.00  0.00     0.202 C 
BRANCH  25  26
ATOM     26  C   UNL A   1      42.775  20.698  26.043  1.00  0.00     0.261 C 
BRANCH  26  27
ATOM     27  O   UNL A   1      43.317  21.946  26.507  1.00  0.00    -0.460 OA
BRANCH  27  28
ATOM     28  C   UNL A   1      43.070  23.017  25.719  1.00  0.00     0.338 C 
ATOM     29  O   UNL A   1      43.032  23.053  24.497  1.00  0.00    -0.246 OA
BRANCH  28  30
ATOM     30  C   UNL A   1      42.640  24.140  26.564  1.00  0.00     0.060 A 
ATOM     31  C   UNL A   1      43.287  25.374  26.419  1.00  0.00     0.016 A 
ATOM     32  C   UNL A   1      41.640  23.962  27.520  1.00  0.00     0.016 A 
ATOM     33  C   UNL A   1      42.944  26.440  27.248  1.00  0.00     0.010 A 
ATOM     34  C   UNL A   1      41.308  25.026  28.358  1.00  0.00     0.010 A 
ATOM     35  C   UNL A   1      41.969  26.262  28.238  1.00  0.00    -0.014 A 
BRANCH  35  36
ATOM     36  C   UNL A   1      41.687  27.332  29.220  1.00  0.00     0.031 A 
ATOM     37  C   UNL A   1      42.477  27.370  30.495  1.00  0.00     0.074 A 
ATOM     38  C   UNL A   1      40.697  28.212  28.993  1.00  0.00     0.049 A 
ATOM     39  N   UNL A   1      42.290  28.099  31.564  1.00  0.00    -0.248 NA
ATOM     40  C   UNL A   1      43.629  26.458  30.583  1.00  0.00     0.031 C 
ATOM     41  C   UNL A   1      39.892  28.277  27.774  1.00  0.00     0.029 A 
ATOM     42  N   UNL A   1      40.176  29.195  29.794  1.00  0.00    -0.354 N 
ATOM     43  C   UNL A   1      43.280  27.715  32.459  1.00  0.00     0.074 A 
ATOM     44  C   UNL A   1      44.064  26.686  31.814  1.00  0.00     0.031 C 
ATOM     45  C   UNL A   1      38.951  29.225  27.923  1.00  0.00     0.029 A 
ATOM     46  C   UNL A   1      39.058  29.794  29.264  1.00  0.00     0.049 A 
ATOM     47  H   UNL A   1      40.564  29.447  30.664  1.00  0.00     0.167 HD
ATOM     48  C   UNL A   1      43.502  28.183  33.708  1.00  0.00     0.037 A 
ATOM     49  C   UNL A   1      38.193  30.661  29.825  1.00  0.00     0.037 A 
ATOM     50  C   UNL A   1      42.719  29.219  34.329  1.00  0.00     0.049 A 
ATOM     51  C   UNL A   1      38.431  31.115  31.244  1.00  0.00     0.074 A 
ATOM     52  C   UNL A   1      42.901  29.813  35.565  1.00  0.00     0.029 A 
ATOM     53  N   UNL A   1      41.596  29.805  33.764  1.00  0.00    -0.354 N 
ATOM     54  N   UNL A   1      39.401  30.793  32.065  1.00  0.00    -0.248 NA
ATOM     55  C   UNL A   1      37.450  32.048  31.815  1.00  0.00     0.031 C 
ATOM     56  C   UNL A   1      41.848  30.706  35.778  1.00  0.00     0.029 A 
ATOM     57  C   UNL A   1      41.046  30.718  34.647  1.00  0.00     0.049 A 
ATOM     58  H   UNL A   1      41.242  29.600  32.867  1.00  0.00     0.167 HD
ATOM     59  C   UNL A   1      39.160  31.499  33.237  1.00  0.00     0.074 A 
ATOM     60  C   UNL A   1      37.965  32.284  33.013  1.00  0.00     0.031 C 
ATOM     61  C   UNL A   1      39.859  31.494  34.399  1.00  0.00     0.037 A 
BRANCH  48  62
ATOM     62  C   UNL A   1      44.607  27.568  34.513  1.00  0.00     0.064 A 
ATOM     63  C   UNL A   1      45.891  28.129  34.559  1.00  0.00     0.173 A 
ATOM     64  C   UNL A   1      44.348  26.451  35.323  1.00  0.00     0.173 A 
ATOM     65  F   UNL A   1      46.195  29.189  33.796  1.00  0.00    -0.203 F 
ATOM     66  C   UNL A   1      46.877  27.590  35.384  1.00  0.00     0.198 A 
ATOM     67  C   UNL A   1      45.326  25.933  36.165  1.00  0.00     0.198 A 
ATOM     68  F   UNL A   1      43.134  25.879  35.316  1.00  0.00    -0.203 F 
ATOM     69  F   UNL A   1      48.104  28.127  35.396  1.00  0.00    -0.200 F 
ATOM     70  C   UNL A   1      46.590  26.501  36.195  1.00  0.00     0.200 A 
ATOM     71  F   UNL A   1      45.042  24.889  36.959  1.00  0.00    -0.200 F 
ATOM     72  F   UNL A   1      47.533  26.001  37.006  1.00  0.00    -0.200 F 
ENDBRANCH  48  62
BRANCH  49  73
ATOM     73  C   UNL A   1      36.991  31.114  29.075  1.00  0.00     0.064 A 
ATOM     74  C   UNL A   1      36.868  32.437  28.629  1.00  0.00     0.173 A 
ATOM     75  C   UNL A   1      35.914  30.246  28.834  1.00  0.00     0.173 A 
ATOM     76  F   UNL A   1      37.858  33.313  28.856  1.00  0.00    -0.203 F 
ATOM     77  C   UNL A   1      35.706  32.883  28.003  1.00  0.00     0.198 A 
ATOM     78  C   UNL A   1      34.766  30.684  28.176  1.00  0.00     0.198 A 
ATOM     79  F   UNL A   1      35.974  28.969  29.241  1.00  0.00    -0.203 F 
ATOM     80  F   UNL A   1      35.590  34.171  27.651  1.00  0.00    -0.200 F 
ATOM     81  C   UNL A   1      34.656  32.006  27.774  1.00  0.00     0.200 A 
ATOM     82  F   UNL A   1      33.761  29.828  27.944  1.00  0.00    -0.200 F 
ATOM     83  F   UNL A   1      33.536  32.437  27.179  1.00  0.00    -0.200 F 
ENDBRANCH  49  73
BRANCH  61  84
ATOM     84  C   UNL A   1      39.366  32.380  35.506  1.00  0.00     0.064 A 
ATOM     85  C   UNL A   1      38.438  31.923  36.453  1.00  0.00     0.173 A 
ATOM     86  C   UNL A   1      39.871  33.680  35.655  1.00  0.00     0.173 A 
ATOM     87  F   UNL A   1      37.913  30.693  36.345  1.00  0.00    -0.203 F 
ATOM     88  C   UNL A   1      38.018  32.743  37.496  1.00  0.00     0.198 A 
ATOM     89  C   UNL A   1      39.476  34.485  36.719  1.00  0.00     0.198 A 
ATOM     90  F   UNL A   1      40.768  34.162  34.780  1.00  0.00    -0.203 F 
ATOM     91  F   UNL A   1      37.097  32.303  38.364  1.00  0.00    -0.200 F 
ATOM     92  C   UNL A   1      38.545  34.019  37.635  1.00  0.00     0.200 A 
ATOM     93  F   UNL A   1      40.000  35.711  36.860  1.00  0.00    -0.200 F 
ATOM     94  F   UNL A   1      38.152  34.802  38.648  1.00  0.00    -0.200 F 
ENDBRANCH  61  84
ENDBRANCH  35  36
ENDBRANCH  28  30
ENDBRANCH  27  28
ENDBRANCH  26  27
ENDBRANCH  25  26
ENDBRANCH  24  25
ENDBRANCH   1  24
TORSDOF 18
ENDMDL
MODEL 3
REMARK VINA RESULT:     -10.6      5.319      9.730
REMARK SMILES O=C(Cc1ccc(OC[C@H]2Cc3ccccc3S2)cc1)OCCOCCOC(=O)c1ccc(-c2c3nc(c(-c4c(F)c(F)c(F)c(F)c4F)c4ccc([nH]4)c(-c4c(F)c(F)c(F)c(F)c4F)c4nc(c(-c5c(F)c(F)c(F)c(F)c5F)c5ccc2[nH]5)C=C4)C=C3)cc1
REMARK SMILES IDX 23 1 22 2 21 3 2 4 1 5 3 6 4 7 5 8 20 9 6 10 19 11 7 12 8 13
REMARK SMILES IDX 9 14 10 15 11 16 18 17 12 18 17 19 13 20 16 21 14 22 15 23
REMARK SMILES IDX 24 24 25 25 26 26 27 27 28 28 29 29 30 30 31 31 92 32 32 33
REMARK SMILES IDX 91 34 33 35 34 36 35 37 85 38 36 39 90 40 84 41 86 42 37 43
REMARK SMILES IDX 89 44 83 45 82 46 38 48 70 49 50 50 69 51 51 52 54 53 68 54
REMARK SMILES IDX 87 55 52 56 53 57 67 59 88 60 55 61 39 62 40 63 48 64 41 65
REMARK SMILES IDX 42 66 46 67 49 68 43 69 44 70 47 71 45 72 71 73 72 74 80 75
REMARK SMILES IDX 73 76 74 77 78 78 81 79 75 80 76 81 79 82 77 83 56 84 57 85
REMARK SMILES IDX 65 86 58 87 59 88 63 89 66 90 60 91 61 92 64 93 62 94
REMARK H PARENT 86 47 54 58
REMARK Flexibility Score: inf
ROOT
ATOM      1  C   UNL A   1      33.955  19.035  24.607  1.00  0.00     0.202 C 
ENDROOT
BRANCH   1   2
ATOM      2  C   UNL A   1      32.525  19.362  24.178  1.00  0.00     0.261 C 
BRANCH   2   3
ATOM      3  O   UNL A   1      31.819  20.325  24.974  1.00  0.00    -0.463 OA
BRANCH   3   4
ATOM      4  C   UNL A   1      32.076  21.653  25.055  1.00  0.00     0.310 C 
ATOM      5  O   UNL A   1      32.058  22.325  24.023  1.00  0.00    -0.252 OA
BRANCH   4   6
ATOM      6  C   UNL A   1      32.541  22.283  26.350  1.00  0.00     0.158 C 
BRANCH   6   7
ATOM      7  C   UNL A   1      33.014  23.709  26.294  1.00  0.00    -0.037 A 
ATOM      8  C   UNL A   1      34.318  24.040  25.891  1.00  0.00     0.008 A 
ATOM      9  C   UNL A   1      32.099  24.731  26.582  1.00  0.00     0.008 A 
ATOM     10  C   UNL A   1      34.652  25.374  25.644  1.00  0.00     0.047 A 
ATOM     11  C   UNL A   1      32.441  26.056  26.354  1.00  0.00     0.047 A 
ATOM     12  C   UNL A   1      33.705  26.370  25.863  1.00  0.00     0.119 A 
BRANCH  12  13
ATOM     13  O   UNL A   1      33.987  27.654  25.486  1.00  0.00    -0.492 OA
BRANCH  13  14
ATOM     14  C   UNL A   1      32.867  28.519  25.711  1.00  0.00     0.244 C 
BRANCH  14  15
ATOM     15  C   UNL A   1      32.570  29.349  24.441  1.00  0.00     0.094 C 
ATOM     16  C   UNL A   1      33.413  28.915  23.216  1.00  0.00     0.055 C 
ATOM     17  S   UNL A   1      30.862  28.933  23.932  1.00  0.00    -0.119 SA
ATOM     18  C   UNL A   1      32.807  27.611  22.763  1.00  0.00    -0.033 A 
ATOM     19  C   UNL A   1      31.461  27.476  23.124  1.00  0.00     0.011 A 
ATOM     20  C   UNL A   1      33.471  26.574  22.122  1.00  0.00     0.005 A 
ATOM     21  C   UNL A   1      30.794  26.276  22.978  1.00  0.00     0.015 A 
ATOM     22  C   UNL A   1      32.797  25.362  21.950  1.00  0.00     0.000 A 
ATOM     23  C   UNL A   1      31.478  25.206  22.404  1.00  0.00     0.001 A 
ENDBRANCH  14  15
ENDBRANCH  13  14
ENDBRANCH  12  13
ENDBRANCH   6   7
ENDBRANCH   4   6
ENDBRANCH   3   4
ENDBRANCH   2   3
ENDBRANCH   1   2
BRANCH   1  24
ATOM     24  O   UNL A   1      34.908  20.085  24.649  1.00  0.00    -0.374 OA
BRANCH  24  25
ATOM     25  C   UNL A   1      36.255  19.754  24.997  1.00  0.00     0.202 C 
BRANCH  25  26
ATOM     26  C   UNL A   1      37.370  20.737  24.625  1.00  0.00     0.261 C 
BRANCH  26  27
ATOM     27  O   UNL A   1      37.828  21.499  25.755  1.00  0.00    -0.460 OA
BRANCH  27  28
ATOM     28  C   UNL A   1      39.085  21.222  26.172  1.00  0.00     0.338 C 
ATOM     29  O   UNL A   1      39.718  20.189  26.005  1.00  0.00    -0.246 OA
BRANCH  28  30
ATOM     30  C   UNL A   1      39.691  22.451  26.705  1.00  0.00     0.060 A 
ATOM     31  C   UNL A   1      39.221  23.686  26.239  1.00  0.00     0.016 A 
ATOM     32  C   UNL A   1      40.741  22.383  27.620  1.00  0.00     0.016 A 
ATOM     33  C   UNL A   1      39.816  24.867  26.678  1.00  0.00     0.010 A 
ATOM     34  C   UNL A   1      41.345  23.565  28.048  1.00  0.00     0.010 A 
ATOM     35  C   UNL A   1      40.897  24.809  27.566  1.00  0.00    -0.014 A 
BRANCH  35  36
ATOM     36  C   UNL A   1      41.635  26.036  27.938  1.00  0.00     0.031 A 
ATOM     37  C   UNL A   1      40.910  27.122  28.675  1.00  0.00     0.074 A 
ATOM     38  C   UNL A   1      42.917  26.191  27.562  1.00  0.00     0.049 A 
ATOM     39  N   UNL A   1      41.298  28.341  28.948  1.00  0.00    -0.248 NA
ATOM     40  C   UNL A   1      39.560  26.797  29.164  1.00  0.00     0.031 C 
ATOM     41  C   UNL A   1      43.719  25.184  26.869  1.00  0.00     0.029 A 
ATOM     42  N   UNL A   1      43.756  27.269  27.678  1.00  0.00    -0.354 N 
ATOM     43  C   UNL A   1      40.234  28.933  29.614  1.00  0.00     0.074 A 
ATOM     44  C   UNL A   1      39.180  27.947  29.702  1.00  0.00     0.031 C 
ATOM     45  C   UNL A   1      44.924  25.705  26.586  1.00  0.00     0.029 A 
ATOM     46  C   UNL A   1      44.957  27.096  27.033  1.00  0.00     0.049 A 
ATOM     47  H   UNL A   1      43.521  28.087  28.175  1.00  0.00     0.167 HD
ATOM     48  C   UNL A   1      40.152  30.193  30.101  1.00  0.00     0.037 A 
ATOM     49  C   UNL A   1      45.943  27.981  26.788  1.00  0.00     0.037 A 
ATOM     50  C   UNL A   1      41.218  31.157  30.016  1.00  0.00     0.049 A 
ATOM     51  C   UNL A   1      45.794  29.396  27.286  1.00  0.00     0.074 A 
ATOM     52  C   UNL A   1      41.263  32.439  30.536  1.00  0.00     0.029 A 
ATOM     53  N   UNL A   1      42.421  30.948  29.358  1.00  0.00    -0.354 N 
ATOM     54  N   UNL A   1      44.811  29.937  27.966  1.00  0.00    -0.248 NA
ATOM     55  C   UNL A   1      46.888  30.327  26.978  1.00  0.00     0.031 C 
ATOM     56  C   UNL A   1      42.462  33.031  30.132  1.00  0.00     0.029 A 
ATOM     57  C   UNL A   1      43.193  32.095  29.416  1.00  0.00     0.049 A 
ATOM     58  H   UNL A   1      42.684  30.109  28.915  1.00  0.00     0.167 HD
ATOM     59  C   UNL A   1      45.178  31.258  28.185  1.00  0.00     0.074 A 
ATOM     60  C   UNL A   1      46.485  31.433  27.586  1.00  0.00     0.031 C 
ATOM     61  C   UNL A   1      44.495  32.243  28.818  1.00  0.00     0.037 A 
BRANCH  48  62
ATOM     62  C   UNL A   1      38.866  30.629  30.737  1.00  0.00     0.064 A 
ATOM     63  C   UNL A   1      38.677  30.592  32.126  1.00  0.00     0.173 A 
ATOM     64  C   UNL A   1      37.843  31.177  29.948  1.00  0.00     0.173 A 
ATOM     65  F   UNL A   1      39.619  30.068  32.924  1.00  0.00    -0.203 F 
ATOM     66  C   UNL A   1      37.507  31.086  32.701  1.00  0.00     0.198 A 
ATOM     67  C   UNL A   1      36.688  31.693  30.527  1.00  0.00     0.198 A 
ATOM     68  F   UNL A   1      37.977  31.236  28.614  1.00  0.00    -0.203 F 
ATOM     69  F   UNL A   1      37.336  31.021  34.028  1.00  0.00    -0.200 F 
ATOM     70  C   UNL A   1      36.520  31.646  31.902  1.00  0.00     0.200 A 
ATOM     71  F   UNL A   1      35.742  32.247  29.755  1.00  0.00    -0.200 F 
ATOM     72  F   UNL A   1      35.407  32.142  32.460  1.00  0.00    -0.200 F 
ENDBRANCH  48  62
BRANCH  49  73
ATOM     73  C   UNL A   1      47.129  27.580  25.984  1.00  0.00     0.064 A 
ATOM     74  C   UNL A   1      48.307  27.134  26.600  1.00  0.00     0.173 A 
ATOM     75  C   UNL A   1      47.130  27.685  24.584  1.00  0.00     0.173 A 
ATOM     76  F   UNL A   1      48.367  27.039  27.937  1.00  0.00    -0.203 F 
ATOM     77  C   UNL A   1      49.446  26.841  25.853  1.00  0.00     0.198 A 
ATOM     78  C   UNL A   1      48.258  27.358  23.835  1.00  0.00     0.198 A 
ATOM     79  F   UNL A   1      46.032  28.109  23.941  1.00  0.00    -0.203 F 
ATOM     80  F   UNL A   1      50.578  26.484  26.475  1.00  0.00    -0.200 F 
ATOM     81  C   UNL A   1      49.420  26.950  24.471  1.00  0.00     0.200 A 
ATOM     82  F   UNL A   1      48.223  27.451  22.498  1.00  0.00    -0.200 F 
ATOM     83  F   UNL A   1      50.518  26.676  23.753  1.00  0.00    -0.200 F 
ENDBRANCH  49  73
BRANCH  61  84
ATOM     84  C   UNL A   1      45.155  33.588  28.918  1.00  0.00     0.064 A 
ATOM     85  C   UNL A   1      44.921  34.592  27.967  1.00  0.00     0.173 A 
ATOM     86  C   UNL A   1      45.983  33.895  30.008  1.00  0.00     0.173 A 
ATOM     87  F   UNL A   1      44.150  34.343  26.898  1.00  0.00    -0.203 F 
ATOM     88  C   UNL A   1      45.511  35.847  28.093  1.00  0.00     0.198 A 
ATOM     89  C   UNL A   1      46.543  35.161  30.149  1.00  0.00     0.198 A 
ATOM     90  F   UNL A   1      46.231  32.972  30.950  1.00  0.00    -0.203 F 
ATOM     91  F   UNL A   1      45.311  36.777  27.149  1.00  0.00    -0.200 F 
ATOM     92  C   UNL A   1      46.311  36.134  29.189  1.00  0.00     0.200 A 
ATOM     93  F   UNL A   1      47.301  35.441  31.218  1.00  0.00    -0.200 F 
ATOM     94  F   UNL A   1      46.865  37.347  29.317  1.00  0.00    -0.200 F 
ENDBRANCH  61  84
ENDBRANCH  35  36
ENDBRANCH  28  30
ENDBRANCH  27  28
ENDBRANCH  26  27
ENDBRANCH  25  26
ENDBRANCH  24  25
ENDBRANCH   1  24
TORSDOF 18
ENDMDL
