MODEL 1
REMARK VINA RESULT:     -11.2      0.000      0.000
REMARK SMILES O=C(CN(CC(=O)OCCOCCOC(=O)c1ccc(-c2c3nc(c(-c4c(F)c(F)c(F)c(F)c4F)c4ccc([nH]4)c(-c4c(F)c(F)c(F)c(F)c4F)c4nc(c(-c5c(F)c(F)c(F)c(F)c5F)c5ccc2[nH]5)C=C4)C=C3)cc1)c1ccccc1)NCc1ccccc1
REMARK SMILES IDX 9 1 8 2 6 3 7 4 5 5 4 6 3 7 2 8 1 9 86 10 87 12 88 13 89 14
REMARK SMILES IDX 93 15 90 16 92 17 91 18 80 19 81 20 85 21 82 22 84 23 83 24
REMARK SMILES IDX 10 25 11 26 12 27 13 28 14 29 15 30 16 31 17 32 18 33 79 34
REMARK SMILES IDX 19 35 78 36 20 37 21 38 22 39 72 40 23 41 77 42 71 43 73 44
REMARK SMILES IDX 24 45 76 46 70 47 69 48 25 50 57 51 37 52 56 53 38 54 41 55
REMARK SMILES IDX 55 56 74 57 39 58 40 59 54 61 75 62 42 63 26 64 27 65 35 66
REMARK SMILES IDX 28 67 29 68 33 69 36 70 30 71 31 72 34 73 32 74 58 75 59 76
REMARK SMILES IDX 67 77 60 78 61 79 65 80 68 81 62 82 63 83 66 84 64 85 43 86
REMARK SMILES IDX 44 87 52 88 45 89 46 90 50 91 53 92 47 93 48 94 51 95 49 96
REMARK H PARENT 86 11 73 49 41 60
REMARK Flexibility Score: inf
ROOT
ATOM      1  C   UNL A   1      32.915  29.296  24.612  1.00  0.00     0.261 C 
ENDROOT
BRANCH   1   2
ATOM      2  O   UNL A   1      32.788  29.084  23.196  1.00  0.00    -0.462 OA
BRANCH   2   3
ATOM      3  C   UNL A   1      33.538  28.064  22.690  1.00  0.00     0.325 C 
ATOM      4  O   UNL A   1      34.226  28.140  21.675  1.00  0.00    -0.250 OA
BRANCH   3   5
ATOM      5  C   UNL A   1      33.530  26.821  23.575  1.00  0.00     0.239 C 
BRANCH   5   6
ATOM      6  N   UNL A   1      32.610  25.764  23.154  1.00  0.00    -0.351 N 
BRANCH   6   7
ATOM      7  C   UNL A   1      31.406  26.062  22.363  1.00  0.00     0.217 C 
BRANCH   7   8
ATOM      8  C   UNL A   1      30.315  26.782  23.176  1.00  0.00     0.239 C 
ATOM      9  O   UNL A   1      29.942  26.372  24.273  1.00  0.00    -0.273 OA
ATOM     10  N   UNL A   1      29.830  27.939  22.599  1.00  0.00    -0.350 N 
ATOM     11  H   UNL A   1      30.302  28.317  21.821  1.00  0.00     0.163 HD
BRANCH  10  12
ATOM     12  C   UNL A   1      28.657  28.617  23.101  1.00  0.00     0.151 C 
BRANCH  12  13
ATOM     13  C   UNL A   1      28.455  30.021  22.594  1.00  0.00    -0.029 A 
ATOM     14  C   UNL A   1      28.629  31.082  23.501  1.00  0.00     0.005 A 
ATOM     15  C   UNL A   1      28.156  30.326  21.259  1.00  0.00     0.005 A 
ATOM     16  C   UNL A   1      28.506  32.409  23.087  1.00  0.00     0.000 A 
ATOM     17  C   UNL A   1      28.028  31.655  20.847  1.00  0.00     0.000 A 
ATOM     18  C   UNL A   1      28.204  32.695  21.759  1.00  0.00     0.000 A 
ENDBRANCH  12  13
ENDBRANCH  10  12
ENDBRANCH   7   8
ENDBRANCH   6   7
BRANCH   6  19
ATOM     19  C   UNL A   1      32.933  24.448  23.433  1.00  0.00     0.038 A 
ATOM     20  C   UNL A   1      34.267  24.034  23.475  1.00  0.00     0.026 A 
ATOM     21  C   UNL A   1      31.941  23.487  23.663  1.00  0.00     0.026 A 
ATOM     22  C   UNL A   1      34.603  22.700  23.727  1.00  0.00     0.002 A 
ATOM     23  C   UNL A   1      32.269  22.158  23.943  1.00  0.00     0.002 A 
ATOM     24  C   UNL A   1      33.602  21.762  23.966  1.00  0.00     0.000 A 
ENDBRANCH   6  19
ENDBRANCH   5   6
ENDBRANCH   3   5
ENDBRANCH   2   3
ENDBRANCH   1   2
BRANCH   1  25
ATOM     25  C   UNL A   1      31.569  29.558  25.302  1.00  0.00     0.202 C 
BRANCH  25  26
ATOM     26  O   UNL A   1      31.269  30.921  25.602  1.00  0.00    -0.374 OA
BRANCH  26  27
ATOM     27  C   UNL A   1      31.771  31.452  26.836  1.00  0.00     0.202 C 
BRANCH  27  28
ATOM     28  C   UNL A   1      31.780  32.980  26.947  1.00  0.00     0.261 C 
BRANCH  28  29
ATOM     29  O   UNL A   1      33.133  33.460  26.978  1.00  0.00    -0.460 OA
BRANCH  29  30
ATOM     30  C   UNL A   1      33.524  34.000  28.147  1.00  0.00     0.338 C 
ATOM     31  O   UNL A   1      32.965  34.878  28.789  1.00  0.00    -0.246 OA
BRANCH  30  32
ATOM     32  C   UNL A   1      34.700  33.252  28.611  1.00  0.00     0.060 A 
ATOM     33  C   UNL A   1      34.512  31.963  29.124  1.00  0.00     0.016 A 
ATOM     34  C   UNL A   1      35.968  33.832  28.588  1.00  0.00     0.016 A 
ATOM     35  C   UNL A   1      35.597  31.261  29.653  1.00  0.00     0.010 A 
ATOM     36  C   UNL A   1      37.057  33.120  29.107  1.00  0.00     0.010 A 
ATOM     37  C   UNL A   1      36.874  31.843  29.668  1.00  0.00    -0.014 A 
BRANCH  37  38
ATOM     38  C   UNL A   1      37.994  31.153  30.355  1.00  0.00     0.031 A 
ATOM     39  C   UNL A   1      38.301  31.479  31.791  1.00  0.00     0.074 A 
ATOM     40  C   UNL A   1      38.723  30.220  29.715  1.00  0.00     0.049 A 
ATOM     41  N   UNL A   1      39.227  30.986  32.574  1.00  0.00    -0.248 NA
ATOM     42  C   UNL A   1      37.448  32.492  32.430  1.00  0.00     0.031 C 
ATOM     43  C   UNL A   1      38.514  29.789  28.336  1.00  0.00     0.029 A 
ATOM     44  N   UNL A   1      39.790  29.470  30.146  1.00  0.00    -0.354 N 
ATOM     45  C   UNL A   1      39.063  31.619  33.798  1.00  0.00     0.074 A 
ATOM     46  C   UNL A   1      37.973  32.559  33.645  1.00  0.00     0.031 C 
ATOM     47  C   UNL A   1      39.427  28.850  28.030  1.00  0.00     0.029 A 
ATOM     48  C   UNL A   1      40.301  28.637  29.183  1.00  0.00     0.049 A 
ATOM     49  H   UNL A   1      40.153  29.526  31.059  1.00  0.00     0.167 HD
ATOM     50  C   UNL A   1      39.747  31.424  34.950  1.00  0.00     0.037 A 
ATOM     51  C   UNL A   1      41.363  27.809  29.221  1.00  0.00     0.037 A 
ATOM     52  C   UNL A   1      40.835  30.495  35.111  1.00  0.00     0.049 A 
ATOM     53  C   UNL A   1      42.178  27.694  30.481  1.00  0.00     0.074 A 
ATOM     54  C   UNL A   1      41.550  30.192  36.257  1.00  0.00     0.029 A 
ATOM     55  N   UNL A   1      41.377  29.732  34.088  1.00  0.00    -0.354 N 
ATOM     56  N   UNL A   1      41.984  28.258  31.648  1.00  0.00    -0.248 NA
ATOM     57  C   UNL A   1      43.370  26.832  30.425  1.00  0.00     0.031 C 
ATOM     58  C   UNL A   1      42.559  29.284  35.916  1.00  0.00     0.029 A 
ATOM     59  C   UNL A   1      42.447  28.992  34.567  1.00  0.00     0.049 A 
ATOM     60  H   UNL A   1      41.051  29.718  33.160  1.00  0.00     0.167 HD
ATOM     61  C   UNL A   1      43.013  27.812  32.465  1.00  0.00     0.074 A 
ATOM     62  C   UNL A   1      43.826  26.919  31.667  1.00  0.00     0.031 C 
ATOM     63  C   UNL A   1      43.261  28.118  33.762  1.00  0.00     0.037 A 
BRANCH  50  64
ATOM     64  C   UNL A   1      39.346  32.247  36.138  1.00  0.00     0.064 A 
ATOM     65  C   UNL A   1      39.915  33.506  36.380  1.00  0.00     0.173 A 
ATOM     66  C   UNL A   1      38.355  31.790  37.017  1.00  0.00     0.173 A 
ATOM     67  F   UNL A   1      40.875  33.981  35.571  1.00  0.00    -0.203 F 
ATOM     68  C   UNL A   1      39.521  34.268  37.475  1.00  0.00     0.198 A 
ATOM     69  C   UNL A   1      37.947  32.565  38.099  1.00  0.00     0.198 A 
ATOM     70  F   UNL A   1      37.777  30.596  36.824  1.00  0.00    -0.203 F 
ATOM     71  F   UNL A   1      40.102  35.453  37.710  1.00  0.00    -0.200 F 
ATOM     72  C   UNL A   1      38.533  33.800  38.331  1.00  0.00     0.200 A 
ATOM     73  F   UNL A   1      36.988  32.116  38.919  1.00  0.00    -0.200 F 
ATOM     74  F   UNL A   1      38.151  34.538  39.382  1.00  0.00    -0.200 F 
ENDBRANCH  50  64
BRANCH  51  75
ATOM     75  C   UNL A   1      41.732  27.029  28.013  1.00  0.00     0.064 A 
ATOM     76  C   UNL A   1      42.615  27.552  27.059  1.00  0.00     0.173 A 
ATOM     77  C   UNL A   1      41.205  25.749  27.786  1.00  0.00     0.173 A 
ATOM     78  F   UNL A   1      43.122  28.783  27.221  1.00  0.00    -0.203 F 
ATOM     79  C   UNL A   1      42.953  26.825  25.919  1.00  0.00     0.198 A 
ATOM     80  C   UNL A   1      41.560  25.016  26.657  1.00  0.00     0.198 A 
ATOM     81  F   UNL A   1      40.349  25.210  28.667  1.00  0.00    -0.203 F 
ATOM     82  F   UNL A   1      43.774  27.360  25.006  1.00  0.00    -0.200 F 
ATOM     83  C   UNL A   1      42.431  25.555  25.723  1.00  0.00     0.200 A 
ATOM     84  F   UNL A   1      41.059  23.786  26.474  1.00  0.00    -0.200 F 
ATOM     85  F   UNL A   1      42.761  24.855  24.629  1.00  0.00    -0.200 F 
ENDBRANCH  51  75
BRANCH  63  86
ATOM     86  C   UNL A   1      44.459  27.487  34.406  1.00  0.00     0.064 A 
ATOM     87  C   UNL A   1      45.693  28.152  34.456  1.00  0.00     0.173 A 
ATOM     88  C   UNL A   1      44.365  26.230  35.021  1.00  0.00     0.173 A 
ATOM     89  F   UNL A   1      45.839  29.350  33.868  1.00  0.00    -0.203 F 
ATOM     90  C   UNL A   1      46.791  27.576  35.088  1.00  0.00     0.198 A 
ATOM     91  C   UNL A   1      45.459  25.666  35.672  1.00  0.00     0.198 A 
ATOM     92  F   UNL A   1      43.206  25.555  35.003  1.00  0.00    -0.203 F 
ATOM     93  F   UNL A   1      47.971  28.215  35.097  1.00  0.00    -0.200 F 
ATOM     94  C   UNL A   1      46.672  26.338  35.703  1.00  0.00     0.200 A 
ATOM     95  F   UNL A   1      45.340  24.474  36.272  1.00  0.00    -0.200 F 
ATOM     96  F   UNL A   1      47.729  25.789  36.318  1.00  0.00    -0.200 F 
ENDBRANCH  63  86
ENDBRANCH  37  38
ENDBRANCH  30  32
ENDBRANCH  29  30
ENDBRANCH  28  29
ENDBRANCH  27  28
ENDBRANCH  26  27
ENDBRANCH  25  26
ENDBRANCH   1  25
TORSDOF 20
ENDMDL
MODEL 2
REMARK VINA RESULT:     -11.0      1.623      8.049
REMARK SMILES O=C(CN(CC(=O)OCCOCCOC(=O)c1ccc(-c2c3nc(c(-c4c(F)c(F)c(F)c(F)c4F)c4ccc([nH]4)c(-c4c(F)c(F)c(F)c(F)c4F)c4nc(c(-c5c(F)c(F)c(F)c(F)c5F)c5ccc2[nH]5)C=C4)C=C3)cc1)c1ccccc1)NCc1ccccc1
REMARK SMILES IDX 9 1 8 2 6 3 7 4 5 5 4 6 3 7 2 8 1 9 86 10 87 12 88 13 89 14
REMARK SMILES IDX 93 15 90 16 92 17 91 18 80 19 81 20 85 21 82 22 84 23 83 24
REMARK SMILES IDX 10 25 11 26 12 27 13 28 14 29 15 30 16 31 17 32 18 33 79 34
REMARK SMILES IDX 19 35 78 36 20 37 21 38 22 39 72 40 23 41 77 42 71 43 73 44
REMARK SMILES IDX 24 45 76 46 70 47 69 48 25 50 57 51 37 52 56 53 38 54 41 55
REMARK SMILES IDX 55 56 74 57 39 58 40 59 54 61 75 62 42 63 26 64 27 65 35 66
REMARK SMILES IDX 28 67 29 68 33 69 36 70 30 71 31 72 34 73 32 74 58 75 59 76
REMARK SMILES IDX 67 77 60 78 61 79 65 80 68 81 62 82 63 83 66 84 64 85 43 86
REMARK SMILES IDX 44 87 52 88 45 89 46 90 50 91 53 92 47 93 48 94 51 95 49 96
REMARK H PARENT 86 11 73 49 41 60
REMARK Flexibility Score: inf
ROOT
ATOM      1  C   UNL A   1      32.665  28.734  27.211  1.00  0.00     0.261 C 
ENDROOT
BRANCH   1   2
ATOM      2  O   UNL A   1      33.387  27.954  26.244  1.00  0.00    -0.462 OA
BRANCH   2   3
ATOM      3  C   UNL A   1      32.890  27.993  24.975  1.00  0.00     0.325 C 
ATOM      4  O   UNL A   1      33.533  28.326  23.983  1.00  0.00    -0.250 OA
BRANCH   3   5
ATOM      5  C   UNL A   1      31.459  27.473  24.877  1.00  0.00     0.239 C 
BRANCH   5   6
ATOM      6  N   UNL A   1      30.832  27.618  23.563  1.00  0.00    -0.351 N 
BRANCH   6   7
ATOM      7  C   UNL A   1      31.222  26.767  22.427  1.00  0.00     0.217 C 
BRANCH   7   8
ATOM      8  C   UNL A   1      31.436  25.295  22.824  1.00  0.00     0.239 C 
ATOM      9  O   UNL A   1      30.495  24.534  23.036  1.00  0.00    -0.273 OA
ATOM     10  N   UNL A   1      32.756  24.893  22.872  1.00  0.00    -0.350 N 
ATOM     11  H   UNL A   1      33.449  25.490  22.506  1.00  0.00     0.163 HD
BRANCH  10  12
ATOM     12  C   UNL A   1      33.155  23.626  23.440  1.00  0.00     0.151 C 
BRANCH  12  13
ATOM     13  C   UNL A   1      34.568  23.566  23.959  1.00  0.00    -0.029 A 
ATOM     14  C   UNL A   1      34.848  24.197  25.185  1.00  0.00     0.005 A 
ATOM     15  C   UNL A   1      35.600  22.873  23.314  1.00  0.00     0.005 A 
ATOM     16  C   UNL A   1      36.123  24.138  25.749  1.00  0.00     0.000 A 
ATOM     17  C   UNL A   1      36.878  22.820  23.877  1.00  0.00     0.000 A 
ATOM     18  C   UNL A   1      37.139  23.450  25.093  1.00  0.00     0.000 A 
ENDBRANCH  12  13
ENDBRANCH  10  12
ENDBRANCH   7   8
ENDBRANCH   6   7
BRANCH   6  19
ATOM     19  C   UNL A   1      29.790  28.515  23.415  1.00  0.00     0.038 A 
ATOM     20  C   UNL A   1      29.996  29.885  23.600  1.00  0.00     0.026 A 
ATOM     21  C   UNL A   1      28.497  28.084  23.097  1.00  0.00     0.026 A 
ATOM     22  C   UNL A   1      28.942  30.797  23.481  1.00  0.00     0.002 A 
ATOM     23  C   UNL A   1      27.444  28.991  22.949  1.00  0.00     0.002 A 
ATOM     24  C   UNL A   1      27.666  30.349  23.150  1.00  0.00     0.000 A 
ENDBRANCH   6  19
ENDBRANCH   5   6
ENDBRANCH   3   5
ENDBRANCH   2   3
ENDBRANCH   1   2
BRANCH   1  25
ATOM     25  C   UNL A   1      32.874  30.245  27.040  1.00  0.00     0.202 C 
BRANCH  25  26
ATOM     26  O   UNL A   1      31.788  30.970  26.462  1.00  0.00    -0.374 OA
BRANCH  26  27
ATOM     27  C   UNL A   1      31.629  32.341  26.849  1.00  0.00     0.202 C 
BRANCH  27  28
ATOM     28  C   UNL A   1      32.673  32.879  27.833  1.00  0.00     0.261 C 
BRANCH  28  29
ATOM     29  O   UNL A   1      32.975  34.248  27.526  1.00  0.00    -0.460 OA
BRANCH  29  30
ATOM     30  C   UNL A   1      33.114  35.060  28.591  1.00  0.00     0.338 C 
ATOM     31  O   UNL A   1      32.383  35.980  28.930  1.00  0.00    -0.246 OA
BRANCH  30  32
ATOM     32  C   UNL A   1      34.248  34.565  29.383  1.00  0.00     0.060 A 
ATOM     33  C   UNL A   1      35.512  34.520  28.783  1.00  0.00     0.016 A 
ATOM     34  C   UNL A   1      34.059  34.102  30.685  1.00  0.00     0.016 A 
ATOM     35  C   UNL A   1      36.592  33.974  29.480  1.00  0.00     0.010 A 
ATOM     36  C   UNL A   1      35.147  33.566  31.386  1.00  0.00     0.010 A 
ATOM     37  C   UNL A   1      36.412  33.473  30.779  1.00  0.00    -0.014 A 
BRANCH  37  38
ATOM     38  C   UNL A   1      37.527  32.768  31.461  1.00  0.00     0.031 A 
ATOM     39  C   UNL A   1      38.140  31.553  30.823  1.00  0.00     0.074 A 
ATOM     40  C   UNL A   1      38.011  33.221  32.632  1.00  0.00     0.049 A 
ATOM     41  N   UNL A   1      39.124  30.800  31.247  1.00  0.00    -0.248 NA
ATOM     42  C   UNL A   1      37.572  31.132  29.533  1.00  0.00     0.031 C 
ATOM     43  C   UNL A   1      37.529  34.401  33.344  1.00  0.00     0.029 A 
ATOM     44  N   UNL A   1      39.018  32.732  33.429  1.00  0.00    -0.354 N 
ATOM     45  C   UNL A   1      39.300  29.825  30.275  1.00  0.00     0.074 A 
ATOM     46  C   UNL A   1      38.298  30.058  29.257  1.00  0.00     0.031 C 
ATOM     47  C   UNL A   1      38.239  34.547  34.476  1.00  0.00     0.029 A 
ATOM     48  C   UNL A   1      39.204  33.454  34.582  1.00  0.00     0.049 A 
ATOM     49  H   UNL A   1      39.554  31.941  33.196  1.00  0.00     0.167 HD
ATOM     50  C   UNL A   1      40.222  28.835  30.227  1.00  0.00     0.037 A 
ATOM     51  C   UNL A   1      40.045  33.246  35.614  1.00  0.00     0.037 A 
ATOM     52  C   UNL A   1      41.219  28.593  31.237  1.00  0.00     0.049 A 
ATOM     53  C   UNL A   1      40.985  32.070  35.589  1.00  0.00     0.074 A 
ATOM     54  C   UNL A   1      42.229  27.647  31.244  1.00  0.00     0.029 A 
ATOM     55  N   UNL A   1      41.319  29.293  32.429  1.00  0.00    -0.354 N 
ATOM     56  N   UNL A   1      41.179  31.185  34.643  1.00  0.00    -0.248 NA
ATOM     57  C   UNL A   1      41.818  31.860  36.784  1.00  0.00     0.031 C 
ATOM     58  C   UNL A   1      42.908  27.739  32.465  1.00  0.00     0.029 A 
ATOM     59  C   UNL A   1      42.346  28.769  33.200  1.00  0.00     0.049 A 
ATOM     60  H   UNL A   1      40.745  30.049  32.690  1.00  0.00     0.167 HD
ATOM     61  C   UNL A   1      42.159  30.325  35.118  1.00  0.00     0.074 A 
ATOM     62  C   UNL A   1      42.533  30.800  36.433  1.00  0.00     0.031 C 
ATOM     63  C   UNL A   1      42.700  29.238  34.515  1.00  0.00     0.037 A 
BRANCH  50  64
ATOM     64  C   UNL A   1      40.190  27.920  29.039  1.00  0.00     0.064 A 
ATOM     65  C   UNL A   1      40.875  28.236  27.856  1.00  0.00     0.173 A 
ATOM     66  C   UNL A   1      39.503  26.700  29.100  1.00  0.00     0.173 A 
ATOM     67  F   UNL A   1      41.538  29.397  27.748  1.00  0.00    -0.203 F 
ATOM     68  C   UNL A   1      40.853  27.370  26.767  1.00  0.00     0.198 A 
ATOM     69  C   UNL A   1      39.502  25.826  28.016  1.00  0.00     0.198 A 
ATOM     70  F   UNL A   1      38.839  26.352  30.211  1.00  0.00    -0.203 F 
ATOM     71  F   UNL A   1      41.483  27.706  25.633  1.00  0.00    -0.200 F 
ATOM     72  C   UNL A   1      40.171  26.164  26.849  1.00  0.00     0.200 A 
ATOM     73  F   UNL A   1      38.851  24.658  28.099  1.00  0.00    -0.200 F 
ATOM     74  F   UNL A   1      40.156  25.329  25.801  1.00  0.00    -0.200 F 
ENDBRANCH  50  64
BRANCH  51  75
ATOM     75  C   UNL A   1      40.026  34.169  36.777  1.00  0.00     0.064 A 
ATOM     76  C   UNL A   1      40.899  35.262  36.843  1.00  0.00     0.173 A 
ATOM     77  C   UNL A   1      39.140  33.972  37.845  1.00  0.00     0.173 A 
ATOM     78  F   UNL A   1      41.784  35.472  35.857  1.00  0.00    -0.203 F 
ATOM     79  C   UNL A   1      40.891  36.122  37.940  1.00  0.00     0.198 A 
ATOM     80  C   UNL A   1      39.117  34.845  38.930  1.00  0.00     0.198 A 
ATOM     81  F   UNL A   1      38.290  32.935  37.830  1.00  0.00    -0.203 F 
ATOM     82  F   UNL A   1      41.758  37.142  37.995  1.00  0.00    -0.200 F 
ATOM     83  C   UNL A   1      39.994  35.917  38.978  1.00  0.00     0.200 A 
ATOM     84  F   UNL A   1      38.245  34.647  39.928  1.00  0.00    -0.200 F 
ATOM     85  F   UNL A   1      39.983  36.748  40.029  1.00  0.00    -0.200 F 
ENDBRANCH  51  75
BRANCH  63  86
ATOM     86  C   UNL A   1      43.753  28.481  35.268  1.00  0.00     0.064 A 
ATOM     87  C   UNL A   1      45.113  28.789  35.124  1.00  0.00     0.173 A 
ATOM     88  C   UNL A   1      43.401  27.473  36.178  1.00  0.00     0.173 A 
ATOM     89  F   UNL A   1      45.503  29.734  34.253  1.00  0.00    -0.203 F 
ATOM     90  C   UNL A   1      46.083  28.107  35.854  1.00  0.00     0.198 A 
ATOM     91  C   UNL A   1      44.370  26.809  36.924  1.00  0.00     0.198 A 
ATOM     92  F   UNL A   1      42.112  27.144  36.355  1.00  0.00    -0.203 F 
ATOM     93  F   UNL A   1      47.381  28.396  35.677  1.00  0.00    -0.200 F 
ATOM     94  C   UNL A   1      45.711  27.124  36.759  1.00  0.00     0.200 A 
ATOM     95  F   UNL A   1      44.009  25.865  37.804  1.00  0.00    -0.200 F 
ATOM     96  F   UNL A   1      46.646  26.476  37.468  1.00  0.00    -0.200 F 
ENDBRANCH  63  86
ENDBRANCH  37  38
ENDBRANCH  30  32
ENDBRANCH  29  30
ENDBRANCH  28  29
ENDBRANCH  27  28
ENDBRANCH  26  27
ENDBRANCH  25  26
ENDBRANCH   1  25
TORSDOF 20
ENDMDL
MODEL 3
REMARK VINA RESULT:     -11.0      1.897      8.508
REMARK SMILES O=C(CN(CC(=O)OCCOCCOC(=O)c1ccc(-c2c3nc(c(-c4c(F)c(F)c(F)c(F)c4F)c4ccc([nH]4)c(-c4c(F)c(F)c(F)c(F)c4F)c4nc(c(-c5c(F)c(F)c(F)c(F)c5F)c5ccc2[nH]5)C=C4)C=C3)cc1)c1ccccc1)NCc1ccccc1
REMARK SMILES IDX 9 1 8 2 6 3 7 4 5 5 4 6 3 7 2 8 1 9 86 10 87 12 88 13 89 14
REMARK SMILES IDX 93 15 90 16 92 17 91 18 80 19 81 20 85 21 82 22 84 23 83 24
REMARK SMILES IDX 10 25 11 26 12 27 13 28 14 29 15 30 16 31 17 32 18 33 79 34
REMARK SMILES IDX 19 35 78 36 20 37 21 38 22 39 72 40 23 41 77 42 71 43 73 44
REMARK SMILES IDX 24 45 76 46 70 47 69 48 25 50 57 51 37 52 56 53 38 54 41 55
REMARK SMILES IDX 55 56 74 57 39 58 40 59 54 61 75 62 42 63 26 64 27 65 35 66
REMARK SMILES IDX 28 67 29 68 33 69 36 70 30 71 31 72 34 73 32 74 58 75 59 76
REMARK SMILES IDX 67 77 60 78 61 79 65 80 68 81 62 82 63 83 66 84 64 85 43 86
REMARK SMILES IDX 44 87 52 88 45 89 46 90 50 91 53 92 47 93 48 94 51 95 49 96
REMARK H PARENT 86 11 73 49 41 60
REMARK Flexibility Score: inf
ROOT
ATOM      1  C   UNL A   1      31.274  27.420  22.476  1.00  0.00     0.261 C 
ENDROOT
BRANCH   1   2
ATOM      2  O   UNL A   1      31.554  26.062  22.855  1.00  0.00    -0.462 OA
BRANCH   2   3
ATOM      3  C   UNL A   1      32.808  25.620  22.556  1.00  0.00     0.325 C 
ATOM      4  O   UNL A   1      33.285  25.585  21.424  1.00  0.00    -0.250 OA
BRANCH   3   5
ATOM      5  C   UNL A   1      33.627  25.261  23.792  1.00  0.00     0.239 C 
BRANCH   5   6
ATOM      6  N   UNL A   1      33.629  23.842  24.148  1.00  0.00    -0.351 N 
BRANCH   6   7
ATOM      7  C   UNL A   1      32.383  23.062  24.204  1.00  0.00     0.217 C 
BRANCH   7   8
ATOM      8  C   UNL A   1      32.395  21.840  23.268  1.00  0.00     0.239 C 
ATOM      9  O   UNL A   1      32.460  21.955  22.046  1.00  0.00    -0.273 OA
ATOM     10  N   UNL A   1      32.378  20.617  23.910  1.00  0.00    -0.350 N 
ATOM     11  H   UNL A   1      32.522  20.589  24.884  1.00  0.00     0.163 HD
BRANCH  10  12
ATOM     12  C   UNL A   1      32.158  19.378  23.200  1.00  0.00     0.151 C 
BRANCH  12  13
ATOM     13  C   UNL A   1      32.717  18.146  23.862  1.00  0.00    -0.029 A 
ATOM     14  C   UNL A   1      33.580  17.327  23.112  1.00  0.00     0.005 A 
ATOM     15  C   UNL A   1      32.465  17.803  25.198  1.00  0.00     0.005 A 
ATOM     16  C   UNL A   1      34.173  16.197  23.679  1.00  0.00     0.000 A 
ATOM     17  C   UNL A   1      33.055  16.669  25.762  1.00  0.00     0.000 A 
ATOM     18  C   UNL A   1      33.908  15.869  25.005  1.00  0.00     0.000 A 
ENDBRANCH  12  13
ENDBRANCH  10  12
ENDBRANCH   7   8
ENDBRANCH   6   7
BRANCH   6  19
ATOM     19  C   UNL A   1      34.840  23.205  24.346  1.00  0.00     0.038 A 
ATOM     20  C   UNL A   1      35.789  23.141  23.322  1.00  0.00     0.026 A 
ATOM     21  C   UNL A   1      35.150  22.590  25.565  1.00  0.00     0.026 A 
ATOM     22  C   UNL A   1      37.005  22.474  23.503  1.00  0.00     0.002 A 
ATOM     23  C   UNL A   1      36.374  21.945  25.763  1.00  0.00     0.002 A 
ATOM     24  C   UNL A   1      37.299  21.880  24.728  1.00  0.00     0.000 A 
ENDBRANCH   6  19
ENDBRANCH   5   6
ENDBRANCH   3   5
ENDBRANCH   2   3
ENDBRANCH   1   2
BRANCH   1  25
ATOM     25  C   UNL A   1      32.150  28.442  23.214  1.00  0.00     0.202 C 
BRANCH  25  26
ATOM     26  O   UNL A   1      31.466  29.353  24.074  1.00  0.00    -0.374 OA
BRANCH  26  27
ATOM     27  C   UNL A   1      31.530  29.105  25.484  1.00  0.00     0.202 C 
BRANCH  27  28
ATOM     28  C   UNL A   1      31.742  30.339  26.367  1.00  0.00     0.261 C 
BRANCH  28  29
ATOM     29  O   UNL A   1      33.101  30.791  26.257  1.00  0.00    -0.460 OA
BRANCH  29  30
ATOM     30  C   UNL A   1      33.460  31.751  27.130  1.00  0.00     0.338 C 
ATOM     31  O   UNL A   1      32.822  32.743  27.453  1.00  0.00    -0.246 OA
BRANCH  30  32
ATOM     32  C   UNL A   1      34.724  31.337  27.751  1.00  0.00     0.060 A 
ATOM     33  C   UNL A   1      34.865  30.004  28.154  1.00  0.00     0.016 A 
ATOM     34  C   UNL A   1      35.742  32.262  27.981  1.00  0.00     0.016 A 
ATOM     35  C   UNL A   1      36.021  29.600  28.826  1.00  0.00     0.010 A 
ATOM     36  C   UNL A   1      36.906  31.852  28.643  1.00  0.00     0.010 A 
ATOM     37  C   UNL A   1      37.041  30.527  29.095  1.00  0.00    -0.014 A 
BRANCH  37  38
ATOM     38  C   UNL A   1      38.202  30.128  29.929  1.00  0.00     0.031 A 
ATOM     39  C   UNL A   1      39.211  29.156  29.384  1.00  0.00     0.074 A 
ATOM     40  C   UNL A   1      38.375  30.648  31.159  1.00  0.00     0.049 A 
ATOM     41  N   UNL A   1      40.297  28.685  29.945  1.00  0.00    -0.248 NA
ATOM     42  C   UNL A   1      38.966  28.649  28.025  1.00  0.00     0.031 C 
ATOM     43  C   UNL A   1      37.491  31.619  31.795  1.00  0.00     0.029 A 
ATOM     44  N   UNL A   1      39.358  30.422  32.092  1.00  0.00    -0.354 N 
ATOM     45  C   UNL A   1      40.869  27.838  29.006  1.00  0.00     0.074 A 
ATOM     46  C   UNL A   1      39.993  27.828  27.855  1.00  0.00     0.031 C 
ATOM     47  C   UNL A   1      37.969  31.907  33.018  1.00  0.00     0.029 A 
ATOM     48  C   UNL A   1      39.176  31.118  33.260  1.00  0.00     0.049 A 
ATOM     49  H   UNL A   1      40.120  29.819  31.937  1.00  0.00     0.167 HD
ATOM     50  C   UNL A   1      42.028  27.142  29.090  1.00  0.00     0.037 A 
ATOM     51  C   UNL A   1      39.891  31.106  34.402  1.00  0.00     0.037 A 
ATOM     52  C   UNL A   1      42.904  27.141  30.233  1.00  0.00     0.049 A 
ATOM     53  C   UNL A   1      41.114  30.237  34.511  1.00  0.00     0.074 A 
ATOM     54  C   UNL A   1      44.126  26.510  30.383  1.00  0.00     0.029 A 
ATOM     55  N   UNL A   1      42.639  27.792  31.427  1.00  0.00    -0.354 N 
ATOM     56  N   UNL A   1      41.675  29.479  33.601  1.00  0.00    -0.248 NA
ATOM     57  C   UNL A   1      41.800  30.214  35.813  1.00  0.00     0.031 C 
ATOM     58  C   UNL A   1      44.577  26.735  31.689  1.00  0.00     0.029 A 
ATOM     59  C   UNL A   1      43.655  27.539  32.338  1.00  0.00     0.049 A 
ATOM     60  H   UNL A   1      41.848  28.349  31.605  1.00  0.00     0.167 HD
ATOM     61  C   UNL A   1      42.781  28.902  34.211  1.00  0.00     0.074 A 
ATOM     62  C   UNL A   1      42.822  29.407  35.567  1.00  0.00     0.031 C 
ATOM     63  C   UNL A   1      43.680  28.032  33.691  1.00  0.00     0.037 A 
BRANCH  50  64
ATOM     64  C   UNL A   1      42.415  26.304  27.909  1.00  0.00     0.064 A 
ATOM     65  C   UNL A   1      41.873  25.026  27.709  1.00  0.00     0.173 A 
ATOM     66  C   UNL A   1      43.306  26.801  26.946  1.00  0.00     0.173 A 
ATOM     67  F   UNL A   1      41.024  24.505  28.609  1.00  0.00    -0.203 F 
ATOM     68  C   UNL A   1      42.226  24.266  26.599  1.00  0.00     0.198 A 
ATOM     69  C   UNL A   1      43.640  26.046  25.825  1.00  0.00     0.198 A 
ATOM     70  F   UNL A   1      43.846  28.019  27.089  1.00  0.00    -0.203 F 
ATOM     71  F   UNL A   1      41.724  23.032  26.446  1.00  0.00    -0.200 F 
ATOM     72  C   UNL A   1      43.105  24.778  25.655  1.00  0.00     0.200 A 
ATOM     73  F   UNL A   1      44.481  26.545  24.910  1.00  0.00    -0.200 F 
ATOM     74  F   UNL A   1      43.440  24.046  24.583  1.00  0.00    -0.200 F 
ENDBRANCH  50  64
BRANCH  51  75
ATOM     75  C   UNL A   1      39.456  31.940  35.552  1.00  0.00     0.064 A 
ATOM     76  C   UNL A   1      38.508  31.465  36.467  1.00  0.00     0.173 A 
ATOM     77  C   UNL A   1      39.975  33.226  35.753  1.00  0.00     0.173 A 
ATOM     78  F   UNL A   1      37.963  30.251  36.298  1.00  0.00    -0.203 F 
ATOM     79  C   UNL A   1      38.090  32.250  37.540  1.00  0.00     0.198 A 
ATOM     80  C   UNL A   1      39.572  34.002  36.837  1.00  0.00     0.198 A 
ATOM     81  F   UNL A   1      40.879  33.726  34.898  1.00  0.00    -0.203 F 
ATOM     82  F   UNL A   1      37.158  31.787  38.384  1.00  0.00    -0.200 F 
ATOM     83  C   UNL A   1      38.628  33.515  37.728  1.00  0.00     0.200 A 
ATOM     84  F   UNL A   1      40.100  35.220  37.020  1.00  0.00    -0.200 F 
ATOM     85  F   UNL A   1      38.230  34.267  38.763  1.00  0.00    -0.200 F 
ENDBRANCH  51  75
BRANCH  63  86
ATOM     86  C   UNL A   1      44.788  27.563  34.586  1.00  0.00     0.064 A 
ATOM     87  C   UNL A   1      45.916  28.361  34.827  1.00  0.00     0.173 A 
ATOM     88  C   UNL A   1      44.702  26.330  35.249  1.00  0.00     0.173 A 
ATOM     89  F   UNL A   1      46.053  29.542  34.203  1.00  0.00    -0.203 F 
ATOM     90  C   UNL A   1      46.923  27.935  35.689  1.00  0.00     0.198 A 
ATOM     91  C   UNL A   1      45.699  25.917  36.128  1.00  0.00     0.198 A 
ATOM     92  F   UNL A   1      43.641  25.532  35.055  1.00  0.00    -0.203 F 
ATOM     93  F   UNL A   1      48.008  28.700  35.880  1.00  0.00    -0.200 F 
ATOM     94  C   UNL A   1      46.810  26.718  36.345  1.00  0.00     0.200 A 
ATOM     95  F   UNL A   1      45.585  24.745  36.768  1.00  0.00    -0.200 F 
ATOM     96  F   UNL A   1      47.777  26.315  37.181  1.00  0.00    -0.200 F 
ENDBRANCH  63  86
ENDBRANCH  37  38
ENDBRANCH  30  32
ENDBRANCH  29  30
ENDBRANCH  28  29
ENDBRANCH  27  28
ENDBRANCH  26  27
ENDBRANCH  25  26
ENDBRANCH   1  25
TORSDOF 20
ENDMDL
