MODEL 1
REMARK VINA RESULT:     -13.0      0.000      0.000
REMARK SMILES CC1=Nc2ncnn2[C@H](c2ccc(F)cc2)[C@@H]1C(=O)OCCOCCOC(=O)c1ccc(-c2c3nc(c(-c4c(F)c(F)c(F)c(F)c4F)c4ccc([nH]4)c(-c4c(F)c(F)c(F)c(F)c4F)c4nc(c(-c5c(F)c(F)c(F)c(F)c5F)c5ccc2[nH]5)C=C4)C=C3)cc1
REMARK SMILES IDX 24 1 23 2 22 3 21 4 20 5 18 6 19 7 17 8 1 9 2 10 3 11 4 12
REMARK SMILES IDX 9 13 5 14 8 15 6 16 7 17 10 18 11 19 16 20 12 21 15 22 13 23
REMARK SMILES IDX 14 24 25 25 26 26 27 27 28 28 29 29 30 30 91 31 31 32 90 33
REMARK SMILES IDX 32 34 33 35 34 36 84 37 35 38 89 39 83 40 85 41 36 42 88 43
REMARK SMILES IDX 82 44 81 45 37 47 69 48 49 49 68 50 50 51 53 52 67 53 86 54
REMARK SMILES IDX 51 55 52 56 66 58 87 59 54 60 38 61 39 62 47 63 40 64 41 65
REMARK SMILES IDX 45 66 48 67 42 68 43 69 46 70 44 71 70 72 71 73 79 74 72 75
REMARK SMILES IDX 73 76 77 77 80 78 74 79 75 80 78 81 76 82 55 83 56 84 64 85
REMARK SMILES IDX 57 86 58 87 62 88 65 89 59 90 60 91 63 92 61 93
REMARK H PARENT 85 46 53 57
REMARK Flexibility Score: inf
ROOT
ATOM      1  C   UNL A   1      40.231  20.119  26.140  1.00  0.00     0.202 C 
ENDROOT
BRANCH   1   2
ATOM      2  O   UNL A   1      39.440  21.538  26.157  1.00  0.00    -0.374 OA
BRANCH   2   3
ATOM      3  C   UNL A   1      38.106  21.933  25.772  1.00  0.00     0.202 C 
BRANCH   3   4
ATOM      4  C   UNL A   1      37.758  23.374  25.331  1.00  0.00     0.261 C 
BRANCH   4   5
ATOM      5  O   UNL A   1      36.497  23.883  25.779  1.00  0.00    -0.463 OA
BRANCH   5   6
ATOM      6  C   UNL A   1      35.426  23.532  25.029  1.00  0.00     0.317 C 
ATOM      7  O   UNL A   1      35.370  23.590  23.810  1.00  0.00    -0.251 OA
BRANCH   6   8
ATOM      8  C   UNL A   1      34.299  23.026  25.887  1.00  0.00     0.173 C 
ATOM      9  C   UNL A   1      34.697  20.595  25.050  1.00  0.00     0.063 C 
ATOM     10  C   UNL A   1      33.723  21.687  25.447  1.00  0.00     0.036 C 
ATOM     11  N   UNL A   1      32.469  21.362  25.504  1.00  0.00    -0.220 NA
ATOM     12  C   UNL A   1      31.584  22.251  26.008  1.00  0.00     0.248 A 
ATOM     13  C   UNL A   1      33.239  24.099  26.186  1.00  0.00     0.161 C 
ATOM     14  N   UNL A   1      30.317  22.079  26.319  1.00  0.00    -0.198 NA
ATOM     15  N   UNL A   1      31.917  23.537  26.330  1.00  0.00    -0.221 N 
ATOM     16  C   UNL A   1      29.947  23.269  26.879  1.00  0.00     0.248 A 
ATOM     17  N   UNL A   1      30.911  24.190  26.943  1.00  0.00    -0.157 NA
BRANCH  13  18
ATOM     18  C   UNL A   1      33.173  25.381  25.365  1.00  0.00    -0.022 A 
ATOM     19  C   UNL A   1      33.834  26.855  26.181  1.00  0.00     0.009 A 
ATOM     20  C   UNL A   1      32.770  25.476  23.617  1.00  0.00     0.009 A 
ATOM     21  C   UNL A   1      34.069  28.373  25.290  1.00  0.00     0.039 A 
ATOM     22  C   UNL A   1      33.067  27.052  22.691  1.00  0.00     0.039 A 
ATOM     23  C   UNL A   1      33.722  28.473  23.539  1.00  0.00     0.123 A 
ATOM     24  F   UNL A   1      33.801  29.654  22.916  1.00  0.00    -0.207 F 
ENDBRANCH  13  18
ENDBRANCH   6   8
ENDBRANCH   5   6
ENDBRANCH   4   5
ENDBRANCH   3   4
ENDBRANCH   2   3
ENDBRANCH   1   2
BRANCH   1  25
ATOM     25  C   UNL A   1      42.340  19.548  26.227  1.00  0.00     0.261 C 
BRANCH  25  26
ATOM     26  O   UNL A   1      43.597  20.474  25.939  1.00  0.00    -0.460 OA
BRANCH  26  27
ATOM     27  C   UNL A   1      43.489  21.620  25.215  1.00  0.00     0.338 C 
ATOM     28  O   UNL A   1      42.490  22.310  25.094  1.00  0.00    -0.246 OA
BRANCH  27  29
ATOM     29  C   UNL A   1      44.912  21.987  24.731  1.00  0.00     0.060 A 
ATOM     30  C   UNL A   1      45.755  21.984  25.832  1.00  0.00     0.016 A 
ATOM     31  C   UNL A   1      44.821  23.189  24.050  1.00  0.00     0.016 A 
ATOM     32  C   UNL A   1      45.542  23.021  26.710  1.00  0.00     0.010 A 
ATOM     33  C   UNL A   1      44.539  24.247  24.873  1.00  0.00     0.010 A 
ATOM     34  C   UNL A   1      44.747  24.077  26.250  1.00  0.00    -0.014 A 
BRANCH  34  35
ATOM     35  C   UNL A   1      44.367  25.145  27.144  1.00  0.00     0.031 A 
ATOM     36  C   UNL A   1      45.424  26.176  27.059  1.00  0.00     0.074 A 
ATOM     37  C   UNL A   1      43.204  25.207  27.826  1.00  0.00     0.049 A 
ATOM     38  N   UNL A   1      46.459  26.280  27.829  1.00  0.00    -0.248 NA
ATOM     39  C   UNL A   1      45.576  26.869  25.762  1.00  0.00     0.031 C 
ATOM     40  C   UNL A   1      42.030  24.330  27.802  1.00  0.00     0.029 A 
ATOM     41  N   UNL A   1      42.817  26.188  28.696  1.00  0.00    -0.354 N 
ATOM     42  C   UNL A   1      47.251  27.225  27.192  1.00  0.00     0.074 A 
ATOM     43  C   UNL A   1      46.866  27.199  25.815  1.00  0.00     0.031 C 
ATOM     44  C   UNL A   1      40.984  24.949  28.410  1.00  0.00     0.029 A 
ATOM     45  C   UNL A   1      41.444  26.199  28.983  1.00  0.00     0.049 A 
ATOM     46  H   UNL A   1      43.449  26.833  29.089  1.00  0.00     0.167 HD
ATOM     47  C   UNL A   1      47.823  28.245  27.886  1.00  0.00     0.037 A 
ATOM     48  C   UNL A   1      40.805  27.243  29.586  1.00  0.00     0.037 A 
ATOM     49  C   UNL A   1      47.823  27.946  29.295  1.00  0.00     0.049 A 
ATOM     50  C   UNL A   1      41.874  28.046  30.253  1.00  0.00     0.074 A 
ATOM     51  C   UNL A   1      48.441  26.988  30.073  1.00  0.00     0.029 A 
ATOM     52  N   UNL A   1      46.742  28.394  30.016  1.00  0.00    -0.354 N 
ATOM     53  N   UNL A   1      42.603  27.586  31.235  1.00  0.00    -0.248 NA
ATOM     54  C   UNL A   1      42.479  29.104  29.453  1.00  0.00     0.031 C 
ATOM     55  C   UNL A   1      47.456  26.590  31.022  1.00  0.00     0.029 A 
ATOM     56  C   UNL A   1      46.328  27.397  30.862  1.00  0.00     0.049 A 
ATOM     57  H   UNL A   1      46.331  29.285  29.938  1.00  0.00     0.167 HD
ATOM     58  C   UNL A   1      43.897  27.980  30.920  1.00  0.00     0.074 A 
ATOM     59  C   UNL A   1      43.754  28.923  29.811  1.00  0.00     0.031 C 
ATOM     60  C   UNL A   1      44.978  27.280  31.369  1.00  0.00     0.037 A 
BRANCH  47  61
ATOM     61  C   UNL A   1      47.993  29.644  27.337  1.00  0.00     0.064 A 
ATOM     62  C   UNL A   1      46.945  30.562  27.076  1.00  0.00     0.173 A 
ATOM     63  C   UNL A   1      49.286  30.187  27.280  1.00  0.00     0.173 A 
ATOM     64  F   UNL A   1      45.651  30.258  27.209  1.00  0.00    -0.203 F 
ATOM     65  C   UNL A   1      47.171  31.899  26.765  1.00  0.00     0.198 A 
ATOM     66  C   UNL A   1      49.507  31.545  27.025  1.00  0.00     0.198 A 
ATOM     67  F   UNL A   1      50.359  29.424  27.536  1.00  0.00    -0.203 F 
ATOM     68  F   UNL A   1      46.124  32.706  26.539  1.00  0.00    -0.200 F 
ATOM     69  C   UNL A   1      48.450  32.398  26.765  1.00  0.00     0.200 A 
ATOM     70  F   UNL A   1      50.751  32.035  27.082  1.00  0.00    -0.200 F 
ATOM     71  F   UNL A   1      48.656  33.705  26.561  1.00  0.00    -0.200 F 
ENDBRANCH  47  61
BRANCH  48  72
ATOM     72  C   UNL A   1      39.483  27.855  29.259  1.00  0.00     0.064 A 
ATOM     73  C   UNL A   1      39.274  28.497  28.025  1.00  0.00     0.173 A 
ATOM     74  C   UNL A   1      38.523  28.115  30.260  1.00  0.00     0.173 A 
ATOM     75  F   UNL A   1      40.166  28.376  27.033  1.00  0.00    -0.203 F 
ATOM     76  C   UNL A   1      38.200  29.367  27.812  1.00  0.00     0.198 A 
ATOM     77  C   UNL A   1      37.444  28.984  30.043  1.00  0.00     0.198 A 
ATOM     78  F   UNL A   1      38.668  27.589  31.485  1.00  0.00    -0.203 F 
ATOM     79  F   UNL A   1      38.091  30.013  26.642  1.00  0.00    -0.200 F 
ATOM     80  C   UNL A   1      37.293  29.622  28.824  1.00  0.00     0.200 A 
ATOM     81  F   UNL A   1      36.586  29.255  31.039  1.00  0.00    -0.200 F 
ATOM     82  F   UNL A   1      36.306  30.511  28.638  1.00  0.00    -0.200 F 
ENDBRANCH  48  72
BRANCH  60  83
ATOM     83  C   UNL A   1      44.748  26.173  32.367  1.00  0.00     0.064 A 
ATOM     84  C   UNL A   1      44.506  24.891  31.859  1.00  0.00     0.173 A 
ATOM     85  C   UNL A   1      44.522  26.379  33.740  1.00  0.00     0.173 A 
ATOM     86  F   UNL A   1      44.663  24.653  30.549  1.00  0.00    -0.203 F 
ATOM     87  C   UNL A   1      44.013  23.874  32.670  1.00  0.00     0.198 A 
ATOM     88  C   UNL A   1      44.062  25.345  34.560  1.00  0.00     0.198 A 
ATOM     89  F   UNL A   1      44.669  27.591  34.287  1.00  0.00    -0.203 F 
ATOM     90  F   UNL A   1      43.703  22.688  32.129  1.00  0.00    -0.200 F 
ATOM     91  C   UNL A   1      43.789  24.100  34.018  1.00  0.00     0.200 A 
ATOM     92  F   UNL A   1      43.828  25.567  35.862  1.00  0.00    -0.200 F 
ATOM     93  F   UNL A   1      43.278  23.126  34.785  1.00  0.00    -0.200 F 
ENDBRANCH  60  83
ENDBRANCH  34  35
ENDBRANCH  27  29
ENDBRANCH  26  27
ENDBRANCH  25  26
ENDBRANCH   1  25
TORSDOF 15
ENDMDL
MODEL 2
REMARK VINA RESULT:     -12.6      1.870      3.074
REMARK SMILES CC1=Nc2ncnn2[C@H](c2ccc(F)cc2)[C@@H]1C(=O)OCCOCCOC(=O)c1ccc(-c2c3nc(c(-c4c(F)c(F)c(F)c(F)c4F)c4ccc([nH]4)c(-c4c(F)c(F)c(F)c(F)c4F)c4nc(c(-c5c(F)c(F)c(F)c(F)c5F)c5ccc2[nH]5)C=C4)C=C3)cc1
REMARK SMILES IDX 24 1 23 2 22 3 21 4 20 5 18 6 19 7 17 8 1 9 2 10 3 11 4 12
REMARK SMILES IDX 9 13 5 14 8 15 6 16 7 17 10 18 11 19 16 20 12 21 15 22 13 23
REMARK SMILES IDX 14 24 25 25 26 26 27 27 28 28 29 29 30 30 91 31 31 32 90 33
REMARK SMILES IDX 32 34 33 35 34 36 84 37 35 38 89 39 83 40 85 41 36 42 88 43
REMARK SMILES IDX 82 44 81 45 37 47 69 48 49 49 68 50 50 51 53 52 67 53 86 54
REMARK SMILES IDX 51 55 52 56 66 58 87 59 54 60 38 61 39 62 47 63 40 64 41 65
REMARK SMILES IDX 45 66 48 67 42 68 43 69 46 70 44 71 70 72 71 73 79 74 72 75
REMARK SMILES IDX 73 76 77 77 80 78 74 79 75 80 78 81 76 82 55 83 56 84 64 85
REMARK SMILES IDX 57 86 58 87 62 88 65 89 59 90 60 91 63 92 61 93
REMARK H PARENT 85 46 53 57
REMARK Flexibility Score: inf
ROOT
ATOM      1  C   UNL A   1      38.648  22.186  26.003  1.00  0.00     0.202 C 
ENDROOT
BRANCH   1   2
ATOM      2  O   UNL A   1      37.452  22.169  24.903  1.00  0.00    -0.374 OA
BRANCH   2   3
ATOM      3  C   UNL A   1      37.022  23.106  23.894  1.00  0.00     0.202 C 
BRANCH   3   4
ATOM      4  C   UNL A   1      35.688  22.953  23.128  1.00  0.00     0.261 C 
BRANCH   4   5
ATOM      5  O   UNL A   1      34.837  24.104  23.105  1.00  0.00    -0.463 OA
BRANCH   5   6
ATOM      6  C   UNL A   1      33.631  23.928  22.515  1.00  0.00     0.317 C 
ATOM      7  O   UNL A   1      33.458  23.580  21.357  1.00  0.00    -0.251 OA
BRANCH   6   8
ATOM      8  C   UNL A   1      32.506  24.189  23.479  1.00  0.00     0.173 C 
ATOM      9  C   UNL A   1      33.646  26.387  24.280  1.00  0.00     0.063 C 
ATOM     10  C   UNL A   1      32.858  25.136  24.618  1.00  0.00     0.036 C 
ATOM     11  N   UNL A   1      32.431  25.025  25.837  1.00  0.00    -0.220 NA
ATOM     12  C   UNL A   1      31.590  24.013  26.147  1.00  0.00     0.248 A 
ATOM     13  C   UNL A   1      31.785  22.908  23.927  1.00  0.00     0.161 C 
ATOM     14  N   UNL A   1      30.904  23.808  27.251  1.00  0.00    -0.198 NA
ATOM     15  N   UNL A   1      31.275  23.009  25.274  1.00  0.00    -0.221 N 
ATOM     16  C   UNL A   1      30.148  22.705  26.974  1.00  0.00     0.248 A 
ATOM     17  N   UNL A   1      30.313  22.196  25.752  1.00  0.00    -0.157 NA
BRANCH  13  18
ATOM     18  C   UNL A   1      32.419  21.539  23.712  1.00  0.00    -0.022 A 
ATOM     19  C   UNL A   1      33.627  21.043  24.964  1.00  0.00     0.009 A 
ATOM     20  C   UNL A   1      31.869  20.315  22.518  1.00  0.00     0.009 A 
ATOM     21  C   UNL A   1      34.275  19.391  25.015  1.00  0.00     0.039 A 
ATOM     22  C   UNL A   1      32.517  18.583  22.615  1.00  0.00     0.039 A 
ATOM     23  C   UNL A   1      33.702  18.144  23.868  1.00  0.00     0.123 A 
ATOM     24  F   UNL A   1      34.285  16.941  23.855  1.00  0.00    -0.207 F 
ENDBRANCH  13  18
ENDBRANCH   6   8
ENDBRANCH   5   6
ENDBRANCH   4   5
ENDBRANCH   3   4
ENDBRANCH   2   3
ENDBRANCH   1   2
BRANCH   1  25
ATOM     25  C   UNL A   1      40.649  21.307  26.095  1.00  0.00     0.261 C 
BRANCH  25  26
ATOM     26  O   UNL A   1      41.981  21.887  25.455  1.00  0.00    -0.460 OA
BRANCH  26  27
ATOM     27  C   UNL A   1      43.180  21.786  26.088  1.00  0.00     0.338 C 
ATOM     28  O   UNL A   1      43.400  21.200  27.135  1.00  0.00    -0.246 OA
BRANCH  27  29
ATOM     29  C   UNL A   1      44.245  22.386  25.139  1.00  0.00     0.060 A 
ATOM     30  C   UNL A   1      45.340  22.761  25.903  1.00  0.00     0.016 A 
ATOM     31  C   UNL A   1      43.637  23.406  24.426  1.00  0.00     0.016 A 
ATOM     32  C   UNL A   1      45.119  23.851  26.713  1.00  0.00     0.010 A 
ATOM     33  C   UNL A   1      43.331  24.491  25.203  1.00  0.00     0.010 A 
ATOM     34  C   UNL A   1      43.969  24.604  26.448  1.00  0.00    -0.014 A 
BRANCH  34  35
ATOM     35  C   UNL A   1      43.591  25.687  27.324  1.00  0.00     0.031 A 
ATOM     36  C   UNL A   1      44.606  26.751  27.156  1.00  0.00     0.074 A 
ATOM     37  C   UNL A   1      42.458  25.733  28.056  1.00  0.00     0.049 A 
ATOM     38  N   UNL A   1      45.670  26.917  27.875  1.00  0.00    -0.248 NA
ATOM     39  C   UNL A   1      44.674  27.404  25.832  1.00  0.00     0.031 C 
ATOM     40  C   UNL A   1      41.317  24.815  28.115  1.00  0.00     0.029 A 
ATOM     41  N   UNL A   1      42.076  26.729  28.911  1.00  0.00    -0.354 N 
ATOM     42  C   UNL A   1      46.398  27.866  27.171  1.00  0.00     0.074 A 
ATOM     43  C   UNL A   1      45.953  27.779  25.815  1.00  0.00     0.031 C 
ATOM     44  C   UNL A   1      40.278  25.419  28.750  1.00  0.00     0.029 A 
ATOM     45  C   UNL A   1      40.718  26.703  29.260  1.00  0.00     0.049 A 
ATOM     46  H   UNL A   1      42.702  27.408  29.254  1.00  0.00     0.167 HD
ATOM     47  C   UNL A   1      46.964  28.928  27.804  1.00  0.00     0.037 A 
ATOM     48  C   UNL A   1      40.070  27.744  29.858  1.00  0.00     0.037 A 
ATOM     49  C   UNL A   1      47.038  28.677  29.221  1.00  0.00     0.049 A 
ATOM     50  C   UNL A   1      41.138  28.605  30.449  1.00  0.00     0.074 A 
ATOM     51  C   UNL A   1      47.724  27.768  30.000  1.00  0.00     0.029 A 
ATOM     52  N   UNL A   1      45.975  29.112  29.976  1.00  0.00    -0.354 N 
ATOM     53  N   UNL A   1      41.927  28.204  31.410  1.00  0.00    -0.248 NA
ATOM     54  C   UNL A   1      41.668  29.655  29.587  1.00  0.00     0.031 C 
ATOM     55  C   UNL A   1      46.798  27.369  31.006  1.00  0.00     0.029 A 
ATOM     56  C   UNL A   1      45.636  28.131  30.872  1.00  0.00     0.049 A 
ATOM     57  H   UNL A   1      45.529  29.985  29.889  1.00  0.00     0.167 HD
ATOM     58  C   UNL A   1      43.191  28.631  31.024  1.00  0.00     0.074 A 
ATOM     59  C   UNL A   1      42.964  29.531  29.892  1.00  0.00     0.031 C 
ATOM     60  C   UNL A   1      44.315  27.984  31.445  1.00  0.00     0.037 A 
BRANCH  47  61
ATOM     61  C   UNL A   1      47.058  30.312  27.203  1.00  0.00     0.064 A 
ATOM     62  C   UNL A   1      45.961  31.136  26.850  1.00  0.00     0.173 A 
ATOM     63  C   UNL A   1      48.309  30.949  27.186  1.00  0.00     0.173 A 
ATOM     64  F   UNL A   1      44.688  30.740  26.932  1.00  0.00    -0.203 F 
ATOM     65  C   UNL A   1      46.103  32.473  26.492  1.00  0.00     0.198 A 
ATOM     66  C   UNL A   1      48.442  32.309  26.883  1.00  0.00     0.198 A 
ATOM     67  F   UNL A   1      49.420  30.281  27.528  1.00  0.00    -0.203 F 
ATOM     68  F   UNL A   1      45.013  33.188  26.179  1.00  0.00    -0.200 F 
ATOM     69  C   UNL A   1      47.341  33.067  26.533  1.00  0.00     0.200 A 
ATOM     70  F   UNL A   1      49.642  32.894  26.980  1.00  0.00    -0.200 F 
ATOM     71  F   UNL A   1      47.460  34.377  26.282  1.00  0.00    -0.200 F 
ENDBRANCH  47  61
BRANCH  48  72
ATOM     72  C   UNL A   1      38.713  28.298  29.572  1.00  0.00     0.064 A 
ATOM     73  C   UNL A   1      38.398  28.806  28.299  1.00  0.00     0.173 A 
ATOM     74  C   UNL A   1      37.826  28.646  30.612  1.00  0.00     0.173 A 
ATOM     75  F   UNL A   1      39.216  28.597  27.259  1.00  0.00    -0.203 F 
ATOM     76  C   UNL A   1      37.291  29.633  28.081  1.00  0.00     0.198 A 
ATOM     77  C   UNL A   1      36.713  29.472  30.392  1.00  0.00     0.198 A 
ATOM     78  F   UNL A   1      38.074  28.251  31.870  1.00  0.00    -0.203 F 
ATOM     79  F   UNL A   1      37.081  30.152  26.864  1.00  0.00    -0.200 F 
ATOM     80  C   UNL A   1      36.457  29.978  29.129  1.00  0.00     0.200 A 
ATOM     81  F   UNL A   1      35.927  29.831  31.417  1.00  0.00    -0.200 F 
ATOM     82  F   UNL A   1      35.439  30.828  28.929  1.00  0.00    -0.200 F 
ENDBRANCH  48  72
BRANCH  60  83
ATOM     83  C   UNL A   1      44.170  26.905  32.487  1.00  0.00     0.064 A 
ATOM     84  C   UNL A   1      44.305  27.284  33.828  1.00  0.00     0.173 A 
ATOM     85  C   UNL A   1      44.151  25.527  32.203  1.00  0.00     0.173 A 
ATOM     86  F   UNL A   1      44.373  28.585  34.148  1.00  0.00    -0.203 F 
ATOM     87  C   UNL A   1      44.465  26.338  34.835  1.00  0.00     0.198 A 
ATOM     88  C   UNL A   1      44.275  24.577  33.221  1.00  0.00     0.198 A 
ATOM     89  F   UNL A   1      44.090  25.086  30.941  1.00  0.00    -0.203 F 
ATOM     90  F   UNL A   1      44.688  26.741  36.093  1.00  0.00    -0.200 F 
ATOM     91  C   UNL A   1      44.452  24.986  34.532  1.00  0.00     0.200 A 
ATOM     92  F   UNL A   1      44.281  23.268  32.928  1.00  0.00    -0.200 F 
ATOM     93  F   UNL A   1      44.645  24.081  35.502  1.00  0.00    -0.200 F 
ENDBRANCH  60  83
ENDBRANCH  34  35
ENDBRANCH  27  29
ENDBRANCH  26  27
ENDBRANCH  25  26
ENDBRANCH   1  25
TORSDOF 15
ENDMDL
MODEL 3
REMARK VINA RESULT:     -12.5      2.665      4.054
REMARK SMILES CC1=Nc2ncnn2[C@H](c2ccc(F)cc2)[C@@H]1C(=O)OCCOCCOC(=O)c1ccc(-c2c3nc(c(-c4c(F)c(F)c(F)c(F)c4F)c4ccc([nH]4)c(-c4c(F)c(F)c(F)c(F)c4F)c4nc(c(-c5c(F)c(F)c(F)c(F)c5F)c5ccc2[nH]5)C=C4)C=C3)cc1
REMARK SMILES IDX 24 1 23 2 22 3 21 4 20 5 18 6 19 7 17 8 1 9 2 10 3 11 4 12
REMARK SMILES IDX 9 13 5 14 8 15 6 16 7 17 10 18 11 19 16 20 12 21 15 22 13 23
REMARK SMILES IDX 14 24 25 25 26 26 27 27 28 28 29 29 30 30 91 31 31 32 90 33
REMARK SMILES IDX 32 34 33 35 34 36 84 37 35 38 89 39 83 40 85 41 36 42 88 43
REMARK SMILES IDX 82 44 81 45 37 47 69 48 49 49 68 50 50 51 53 52 67 53 86 54
REMARK SMILES IDX 51 55 52 56 66 58 87 59 54 60 38 61 39 62 47 63 40 64 41 65
REMARK SMILES IDX 45 66 48 67 42 68 43 69 46 70 44 71 70 72 71 73 79 74 72 75
REMARK SMILES IDX 73 76 77 77 80 78 74 79 75 80 78 81 76 82 55 83 56 84 64 85
REMARK SMILES IDX 57 86 58 87 62 88 65 89 59 90 60 91 63 92 61 93
REMARK H PARENT 85 46 53 57
REMARK Flexibility Score: inf
ROOT
ATOM      1  C   UNL A   1      38.184  21.643  25.598  1.00  0.00     0.202 C 
ENDROOT
BRANCH   1   2
ATOM      2  O   UNL A   1      36.688  22.266  25.489  1.00  0.00    -0.374 OA
BRANCH   2   3
ATOM      3  C   UNL A   1      36.020  23.359  26.153  1.00  0.00     0.202 C 
BRANCH   3   4
ATOM      4  C   UNL A   1      34.609  23.222  26.772  1.00  0.00     0.261 C 
BRANCH   4   5
ATOM      5  O   UNL A   1      33.620  24.140  26.296  1.00  0.00    -0.463 OA
BRANCH   5   6
ATOM      6  C   UNL A   1      32.397  23.609  26.057  1.00  0.00     0.317 C 
ATOM      7  O   UNL A   1      31.620  23.216  26.914  1.00  0.00    -0.251 OA
BRANCH   6   8
ATOM      8  C   UNL A   1      32.089  23.585  24.585  1.00  0.00     0.173 C 
ATOM      9  C   UNL A   1      33.456  21.391  24.291  1.00  0.00     0.063 C 
ATOM     10  C   UNL A   1      33.050  22.749  23.753  1.00  0.00     0.036 C 
ATOM     11  N   UNL A   1      33.455  23.050  22.558  1.00  0.00    -0.220 NA
ATOM     12  C   UNL A   1      32.987  24.174  21.972  1.00  0.00     0.248 A 
ATOM     13  C   UNL A   1      31.803  24.980  24.005  1.00  0.00     0.161 C 
ATOM     14  N   UNL A   1      33.118  24.581  20.727  1.00  0.00    -0.198 NA
ATOM     15  N   UNL A   1      32.218  25.095  22.627  1.00  0.00    -0.221 N 
ATOM     16  C   UNL A   1      32.362  25.718  20.666  1.00  0.00     0.248 A 
ATOM     17  N   UNL A   1      31.754  26.056  21.805  1.00  0.00    -0.157 NA
BRANCH  13  18
ATOM     18  C   UNL A   1      32.190  26.238  24.772  1.00  0.00    -0.022 A 
ATOM     19  C   UNL A   1      31.037  26.733  26.076  1.00  0.00     0.009 A 
ATOM     20  C   UNL A   1      33.782  27.066  24.674  1.00  0.00     0.009 A 
ATOM     21  C   UNL A   1      31.449  28.019  27.230  1.00  0.00     0.039 A 
ATOM     22  C   UNL A   1      34.215  28.370  25.916  1.00  0.00     0.039 A 
ATOM     23  C   UNL A   1      33.047  28.819  27.181  1.00  0.00     0.123 A 
ATOM     24  F   UNL A   1      33.291  29.858  27.988  1.00  0.00    -0.207 F 
ENDBRANCH  13  18
ENDBRANCH   6   8
ENDBRANCH   5   6
ENDBRANCH   4   5
ENDBRANCH   3   4
ENDBRANCH   2   3
ENDBRANCH   1   2
BRANCH   1  25
ATOM     25  C   UNL A   1      39.922  22.061  26.858  1.00  0.00     0.261 C 
BRANCH  25  26
ATOM     26  O   UNL A   1      40.550  23.483  27.185  1.00  0.00    -0.460 OA
BRANCH  26  27
ATOM     27  C   UNL A   1      41.750  23.606  27.813  1.00  0.00     0.338 C 
ATOM     28  O   UNL A   1      42.011  23.257  28.952  1.00  0.00    -0.246 OA
BRANCH  27  29
ATOM     29  C   UNL A   1      42.767  24.094  26.753  1.00  0.00     0.060 A 
ATOM     30  C   UNL A   1      43.884  24.576  27.419  1.00  0.00     0.016 A 
ATOM     31  C   UNL A   1      42.114  25.007  25.942  1.00  0.00     0.016 A 
ATOM     32  C   UNL A   1      43.676  25.757  28.092  1.00  0.00     0.010 A 
ATOM     33  C   UNL A   1      41.819  26.178  26.587  1.00  0.00     0.010 A 
ATOM     34  C   UNL A   1      42.503  26.456  27.780  1.00  0.00    -0.014 A 
BRANCH  34  35
ATOM     35  C   UNL A   1      42.141  27.637  28.527  1.00  0.00     0.031 A 
ATOM     36  C   UNL A   1      43.179  28.656  28.253  1.00  0.00     0.074 A 
ATOM     37  C   UNL A   1      41.003  27.787  29.237  1.00  0.00     0.049 A 
ATOM     38  N   UNL A   1      44.240  28.879  28.960  1.00  0.00    -0.248 NA
ATOM     39  C   UNL A   1      43.272  29.156  26.866  1.00  0.00     0.031 C 
ATOM     40  C   UNL A   1      39.842  26.905  29.385  1.00  0.00     0.029 A 
ATOM     41  N   UNL A   1      40.635  28.879  29.972  1.00  0.00    -0.354 N 
ATOM     42  C   UNL A   1      44.995  29.729  28.163  1.00  0.00     0.074 A 
ATOM     43  C   UNL A   1      44.559  29.501  26.820  1.00  0.00     0.031 C 
ATOM     44  C   UNL A   1      38.811  27.596  29.938  1.00  0.00     0.029 A 
ATOM     45  C   UNL A   1      39.273  28.919  30.308  1.00  0.00     0.049 A 
ATOM     46  H   UNL A   1      41.271  29.580  30.244  1.00  0.00     0.167 HD
ATOM     47  C   UNL A   1      45.577  30.843  28.681  1.00  0.00     0.037 A 
ATOM     48  C   UNL A   1      38.642  30.033  30.778  1.00  0.00     0.037 A 
ATOM     49  C   UNL A   1      45.633  30.751  30.117  1.00  0.00     0.049 A 
ATOM     50  C   UNL A   1      39.723  30.934  31.282  1.00  0.00     0.074 A 
ATOM     51  C   UNL A   1      46.294  29.920  31.000  1.00  0.00     0.029 A 
ATOM     52  N   UNL A   1      44.574  31.288  30.808  1.00  0.00    -0.354 N 
ATOM     53  N   UNL A   1      40.495  30.626  32.290  1.00  0.00    -0.248 NA
ATOM     54  C   UNL A   1      40.283  31.870  30.315  1.00  0.00     0.031 C 
ATOM     55  C   UNL A   1      45.351  29.654  32.034  1.00  0.00     0.029 A 
ATOM     56  C   UNL A   1      44.206  30.419  31.804  1.00  0.00     0.049 A 
ATOM     57  H   UNL A   1      44.147  32.155  30.620  1.00  0.00     0.167 HD
ATOM     58  C   UNL A   1      41.771  30.982  31.872  1.00  0.00     0.074 A 
ATOM     59  C   UNL A   1      41.573  31.754  30.646  1.00  0.00     0.031 C 
ATOM     60  C   UNL A   1      42.878  30.364  32.375  1.00  0.00     0.037 A 
BRANCH  47  61
ATOM     61  C   UNL A   1      45.705  32.150  27.931  1.00  0.00     0.064 A 
ATOM     62  C   UNL A   1      46.870  32.611  27.268  1.00  0.00     0.173 A 
ATOM     63  C   UNL A   1      44.539  32.884  27.661  1.00  0.00     0.173 A 
ATOM     64  F   UNL A   1      48.040  31.967  27.304  1.00  0.00    -0.203 F 
ATOM     65  C   UNL A   1      46.874  33.720  26.427  1.00  0.00     0.198 A 
ATOM     66  C   UNL A   1      44.534  33.962  26.769  1.00  0.00     0.198 A 
ATOM     67  F   UNL A   1      43.367  32.528  28.208  1.00  0.00    -0.203 F 
ATOM     68  F   UNL A   1      48.017  34.087  25.830  1.00  0.00    -0.200 F 
ATOM     69  C   UNL A   1      45.700  34.380  26.156  1.00  0.00     0.200 A 
ATOM     70  F   UNL A   1      43.377  34.565  26.466  1.00  0.00    -0.200 F 
ATOM     71  F   UNL A   1      45.690  35.385  25.271  1.00  0.00    -0.200 F 
ENDBRANCH  47  61
BRANCH  48  72
ATOM     72  C   UNL A   1      37.300  30.579  30.419  1.00  0.00     0.064 A 
ATOM     73  C   UNL A   1      37.011  30.960  29.096  1.00  0.00     0.173 A 
ATOM     74  C   UNL A   1      36.406  31.045  31.405  1.00  0.00     0.173 A 
ATOM     75  F   UNL A   1      37.838  30.633  28.095  1.00  0.00    -0.203 F 
ATOM     76  C   UNL A   1      35.922  31.781  28.780  1.00  0.00     0.198 A 
ATOM     77  C   UNL A   1      35.312  31.864  31.086  1.00  0.00     0.198 A 
ATOM     78  F   UNL A   1      36.630  30.776  32.700  1.00  0.00    -0.203 F 
ATOM     79  F   UNL A   1      35.738  32.178  27.514  1.00  0.00    -0.200 F 
ATOM     80  C   UNL A   1      35.081  32.244  29.775  1.00  0.00     0.200 A 
ATOM     81  F   UNL A   1      34.519  32.339  32.058  1.00  0.00    -0.200 F 
ATOM     82  F   UNL A   1      34.082  33.087  29.475  1.00  0.00    -0.200 F 
ENDBRANCH  48  72
BRANCH  60  83
ATOM     83  C   UNL A   1      42.701  29.410  33.529  1.00  0.00     0.064 A 
ATOM     84  C   UNL A   1      42.892  29.920  34.818  1.00  0.00     0.173 A 
ATOM     85  C   UNL A   1      42.599  28.013  33.394  1.00  0.00     0.173 A 
ATOM     86  F   UNL A   1      43.040  31.241  34.997  1.00  0.00    -0.203 F 
ATOM     87  C   UNL A   1      43.026  29.077  35.917  1.00  0.00     0.198 A 
ATOM     88  C   UNL A   1      42.698  27.170  34.504  1.00  0.00     0.198 A 
ATOM     89  F   UNL A   1      42.481  27.446  32.187  1.00  0.00    -0.203 F 
ATOM     90  F   UNL A   1      43.304  29.597  37.120  1.00  0.00    -0.200 F 
ATOM     91  C   UNL A   1      42.932  27.704  35.761  1.00  0.00     0.200 A 
ATOM     92  F   UNL A   1      42.623  25.839  34.352  1.00  0.00    -0.200 F 
ATOM     93  F   UNL A   1      43.100  26.896  36.817  1.00  0.00    -0.200 F 
ENDBRANCH  60  83
ENDBRANCH  34  35
ENDBRANCH  27  29
ENDBRANCH  26  27
ENDBRANCH  25  26
ENDBRANCH   1  25
TORSDOF 15
ENDMDL
