MODEL 1
REMARK VINA RESULT:     -12.0      0.000      0.000
REMARK SMILES C[C@@H](C(=O)OCCOCCOC(=O)c1ccc(-c2c3nc(c(-c4c(F)c(F)c(F)c(F)c4F)c4ccc([nH]4)c(-c4c(F)c(F)c(F)c(F)c4F)c4nc(c(-c5c(F)c(F)c(F)c(F)c5F)c5ccc2[nH]5)C=C4)C=C3)cc1)n1ccc(C(=O)N2CC[NH+](Cc3cccc(F)c3)CC2)n1
REMARK SMILES IDX 7 1 6 2 5 3 3 4 4 5 2 6 1 7 77 8 78 9 97 10 79 11 80 12
REMARK SMILES IDX 81 13 82 14 83 15 84 16 96 17 85 18 95 19 86 20 87 22 88 23
REMARK SMILES IDX 89 24 94 25 90 26 92 27 91 28 93 29 8 30 9 31 10 32 11 33
REMARK SMILES IDX 12 34 13 35 14 36 15 37 76 38 16 39 75 40 17 41 18 42 19 43
REMARK SMILES IDX 69 44 20 45 74 46 68 47 70 48 21 49 73 50 67 51 66 52 22 54
REMARK SMILES IDX 54 55 34 56 53 57 35 58 38 59 52 60 71 61 36 62 37 63 51 65
REMARK SMILES IDX 72 66 39 67 23 68 24 69 32 70 25 71 26 72 30 73 33 74 27 75
REMARK SMILES IDX 28 76 31 77 29 78 55 79 56 80 64 81 57 82 58 83 62 84 65 85
REMARK SMILES IDX 59 86 60 87 63 88 61 89 40 90 41 91 49 92 42 93 43 94 47 95
REMARK SMILES IDX 50 96 44 97 45 98 48 99 46 100
REMARK H PARENT 86 21 70 53 38 64
REMARK Flexibility Score: inf
ROOT
ATOM      1  C   UNL A   1      34.164  34.166  29.012  1.00  0.00     0.202 C 
ENDROOT
BRANCH   1   2
ATOM      2  C   UNL A   1      34.653  33.103  28.026  1.00  0.00     0.261 C 
BRANCH   2   3
ATOM      3  O   UNL A   1      34.420  31.786  28.562  1.00  0.00    -0.462 OA
BRANCH   3   4
ATOM      4  C   UNL A   1      33.820  30.899  27.720  1.00  0.00     0.330 C 
ATOM      5  O   UNL A   1      32.771  31.128  27.129  1.00  0.00    -0.250 OA
BRANCH   4   6
ATOM      6  C   UNL A   1      34.608  29.603  27.589  1.00  0.00     0.213 C 
ATOM      7  C   UNL A   1      36.107  29.732  27.333  1.00  0.00     0.046 C 
BRANCH   6   8
ATOM      8  N   UNL A   1      33.954  28.758  26.596  1.00  0.00    -0.258 N 
ATOM      9  C   UNL A   1      33.895  28.907  25.241  1.00  0.00     0.110 A 
ATOM     10  N   UNL A   1      33.282  27.687  27.032  1.00  0.00    -0.167 NA
ATOM     11  C   UNL A   1      33.022  27.944  24.791  1.00  0.00     0.056 A 
ATOM     12  C   UNL A   1      32.635  27.224  25.948  1.00  0.00     0.150 A 
BRANCH  12  13
ATOM     13  C   UNL A   1      31.745  26.057  26.017  1.00  0.00     0.274 C 
ATOM     14  O   UNL A   1      30.670  26.115  26.616  1.00  0.00    -0.267 OA
ATOM     15  N   UNL A   1      32.152  24.913  25.324  1.00  0.00    -0.326 N 
ATOM     16  C   UNL A   1      31.125  23.942  24.998  1.00  0.00     0.181 C 
ATOM     17  C   UNL A   1      33.531  24.419  25.421  1.00  0.00     0.181 C 
ATOM     18  C   UNL A   1      31.560  22.904  23.950  1.00  0.00     0.284 C 
ATOM     19  C   UNL A   1      33.897  23.371  24.356  1.00  0.00     0.284 C 
ATOM     20  N   UNL A   1      32.898  22.322  24.118  1.00  0.00    -0.328 N 
ATOM     21  H   UNL A   1      33.139  21.896  23.224  1.00  0.00     0.348 HD
BRANCH  20  22
ATOM     22  C   UNL A   1      32.988  21.133  24.971  1.00  0.00     0.299 C 
BRANCH  22  23
ATOM     23  C   UNL A   1      33.050  19.784  24.294  1.00  0.00     0.009 A 
ATOM     24  C   UNL A   1      32.258  19.509  23.166  1.00  0.00     0.010 A 
ATOM     25  C   UNL A   1      33.921  18.790  24.759  1.00  0.00     0.048 A 
ATOM     26  C   UNL A   1      32.404  18.306  22.468  1.00  0.00     0.004 A 
ATOM     27  C   UNL A   1      34.072  17.605  24.048  1.00  0.00     0.123 A 
ATOM     28  C   UNL A   1      33.331  17.360  22.899  1.00  0.00     0.039 A 
ATOM     29  F   UNL A   1      34.967  16.699  24.463  1.00  0.00    -0.207 F 
ENDBRANCH  22  23
ENDBRANCH  20  22
ENDBRANCH  12  13
ENDBRANCH   6   8
ENDBRANCH   4   6
ENDBRANCH   3   4
ENDBRANCH   2   3
ENDBRANCH   1   2
BRANCH   1  30
ATOM     30  O   UNL A   1      34.086  33.757  30.380  1.00  0.00    -0.374 OA
BRANCH  30  31
ATOM     31  C   UNL A   1      34.026  34.782  31.367  1.00  0.00     0.202 C 
BRANCH  31  32
ATOM     32  C   UNL A   1      34.837  34.543  32.646  1.00  0.00     0.261 C 
BRANCH  32  33
ATOM     33  O   UNL A   1      36.144  34.015  32.357  1.00  0.00    -0.460 OA
BRANCH  33  34
ATOM     34  C   UNL A   1      36.424  32.849  32.983  1.00  0.00     0.338 C 
ATOM     35  O   UNL A   1      35.919  32.417  34.012  1.00  0.00    -0.246 OA
BRANCH  34  36
ATOM     36  C   UNL A   1      37.329  32.030  32.158  1.00  0.00     0.060 A 
ATOM     37  C   UNL A   1      38.358  31.353  32.824  1.00  0.00     0.016 A 
ATOM     38  C   UNL A   1      37.230  31.984  30.766  1.00  0.00     0.016 A 
ATOM     39  C   UNL A   1      39.330  30.672  32.096  1.00  0.00     0.010 A 
ATOM     40  C   UNL A   1      38.213  31.307  30.035  1.00  0.00     0.010 A 
ATOM     41  C   UNL A   1      39.288  30.684  30.696  1.00  0.00    -0.014 A 
BRANCH  41  42
ATOM     42  C   UNL A   1      40.461  30.188  29.939  1.00  0.00     0.031 A 
ATOM     43  C   UNL A   1      41.622  31.115  29.712  1.00  0.00     0.074 A 
ATOM     44  C   UNL A   1      40.516  28.915  29.510  1.00  0.00     0.049 A 
ATOM     45  N   UNL A   1      42.753  30.895  29.093  1.00  0.00    -0.248 NA
ATOM     46  C   UNL A   1      41.491  32.475  30.260  1.00  0.00     0.031 C 
ATOM     47  C   UNL A   1      39.473  27.911  29.709  1.00  0.00     0.029 A 
ATOM     48  N   UNL A   1      41.498  28.251  28.819  1.00  0.00    -0.354 N 
ATOM     49  C   UNL A   1      43.466  32.084  29.175  1.00  0.00     0.074 A 
ATOM     50  C   UNL A   1      42.630  33.033  29.879  1.00  0.00     0.031 C 
ATOM     51  C   UNL A   1      39.868  26.756  29.145  1.00  0.00     0.029 A 
ATOM     52  C   UNL A   1      41.179  26.948  28.527  1.00  0.00     0.049 A 
ATOM     53  H   UNL A   1      42.351  28.670  28.558  1.00  0.00     0.167 HD
ATOM     54  C   UNL A   1      44.711  32.357  28.716  1.00  0.00     0.037 A 
ATOM     55  C   UNL A   1      41.865  26.023  27.827  1.00  0.00     0.037 A 
ATOM     56  C   UNL A   1      45.543  31.412  28.020  1.00  0.00     0.049 A 
ATOM     57  C   UNL A   1      43.219  26.374  27.267  1.00  0.00     0.074 A 
ATOM     58  C   UNL A   1      46.827  31.587  27.533  1.00  0.00     0.029 A 
ATOM     59  N   UNL A   1      45.168  30.114  27.707  1.00  0.00    -0.354 N 
ATOM     60  N   UNL A   1      43.897  27.490  27.374  1.00  0.00    -0.248 NA
ATOM     61  C   UNL A   1      43.905  25.331  26.489  1.00  0.00     0.031 C 
ATOM     62  C   UNL A   1      47.212  30.409  26.885  1.00  0.00     0.029 A 
ATOM     63  C   UNL A   1      46.187  29.485  27.008  1.00  0.00     0.049 A 
ATOM     64  H   UNL A   1      44.307  29.701  27.944  1.00  0.00     0.167 HD
ATOM     65  C   UNL A   1      45.094  27.279  26.705  1.00  0.00     0.074 A 
ATOM     66  C   UNL A   1      45.057  25.921  26.202  1.00  0.00     0.031 C 
ATOM     67  C   UNL A   1      46.134  28.130  26.522  1.00  0.00     0.037 A 
BRANCH  54  68
ATOM     68  C   UNL A   1      45.238  33.742  28.932  1.00  0.00     0.064 A 
ATOM     69  C   UNL A   1      45.010  34.771  28.006  1.00  0.00     0.173 A 
ATOM     70  C   UNL A   1      45.956  34.055  30.096  1.00  0.00     0.173 A 
ATOM     71  F   UNL A   1      44.343  34.518  26.869  1.00  0.00    -0.203 F 
ATOM     72  C   UNL A   1      45.499  36.056  28.227  1.00  0.00     0.198 A 
ATOM     73  C   UNL A   1      46.422  35.345  30.327  1.00  0.00     0.198 A 
ATOM     74  F   UNL A   1      46.200  33.107  31.014  1.00  0.00    -0.203 F 
ATOM     75  F   UNL A   1      45.305  37.013  27.309  1.00  0.00    -0.200 F 
ATOM     76  C   UNL A   1      46.199  36.343  29.389  1.00  0.00     0.200 A 
ATOM     77  F   UNL A   1      47.090  35.624  31.454  1.00  0.00    -0.200 F 
ATOM     78  F   UNL A   1      46.665  37.582  29.603  1.00  0.00    -0.200 F 
ENDBRANCH  54  68
BRANCH  55  79
ATOM     79  C   UNL A   1      41.280  24.676  27.609  1.00  0.00     0.064 A 
ATOM     80  C   UNL A   1      41.800  23.547  28.257  1.00  0.00     0.173 A 
ATOM     81  C   UNL A   1      40.200  24.488  26.733  1.00  0.00     0.173 A 
ATOM     82  F   UNL A   1      42.849  23.673  29.083  1.00  0.00    -0.203 F 
ATOM     83  C   UNL A   1      41.270  22.279  28.026  1.00  0.00     0.198 A 
ATOM     84  C   UNL A   1      39.656  23.224  26.523  1.00  0.00     0.198 A 
ATOM     85  F   UNL A   1      39.670  25.537  26.087  1.00  0.00    -0.203 F 
ATOM     86  F   UNL A   1      41.812  21.210  28.627  1.00  0.00    -0.200 F 
ATOM     87  C   UNL A   1      40.195  22.120  27.164  1.00  0.00     0.200 A 
ATOM     88  F   UNL A   1      38.611  23.075  25.698  1.00  0.00    -0.200 F 
ATOM     89  F   UNL A   1      39.685  20.899  26.945  1.00  0.00    -0.200 F 
ENDBRANCH  55  79
BRANCH  67  90
ATOM     90  C   UNL A   1      47.328  27.611  25.776  1.00  0.00     0.064 A 
ATOM     91  C   UNL A   1      47.435  27.737  24.384  1.00  0.00     0.173 A 
ATOM     92  C   UNL A   1      48.397  27.024  26.469  1.00  0.00     0.173 A 
ATOM     93  F   UNL A   1      46.432  28.279  23.675  1.00  0.00    -0.203 F 
ATOM     94  C   UNL A   1      48.560  27.271  23.709  1.00  0.00     0.198 A 
ATOM     95  C   UNL A   1      49.532  26.584  25.794  1.00  0.00     0.198 A 
ATOM     96  F   UNL A   1      48.346  26.886  27.803  1.00  0.00    -0.203 F 
ATOM     97  F   UNL A   1      48.624  27.364  22.374  1.00  0.00    -0.200 F 
ATOM     98  C   UNL A   1      49.611  26.702  24.415  1.00  0.00     0.200 A 
ATOM     99  F   UNL A   1      50.551  26.045  26.479  1.00  0.00    -0.200 F 
ATOM    100  F   UNL A   1      50.696  26.262  23.764  1.00  0.00    -0.200 F 
ENDBRANCH  67  90
ENDBRANCH  41  42
ENDBRANCH  34  36
ENDBRANCH  33  34
ENDBRANCH  32  33
ENDBRANCH  31  32
ENDBRANCH  30  31
ENDBRANCH   1  30
TORSDOF 18
ENDMDL
MODEL 2
REMARK VINA RESULT:     -11.8      4.420      6.828
REMARK SMILES C[C@@H](C(=O)OCCOCCOC(=O)c1ccc(-c2c3nc(c(-c4c(F)c(F)c(F)c(F)c4F)c4ccc([nH]4)c(-c4c(F)c(F)c(F)c(F)c4F)c4nc(c(-c5c(F)c(F)c(F)c(F)c5F)c5ccc2[nH]5)C=C4)C=C3)cc1)n1ccc(C(=O)N2CC[NH+](Cc3cccc(F)c3)CC2)n1
REMARK SMILES IDX 7 1 6 2 5 3 3 4 4 5 2 6 1 7 77 8 78 9 97 10 79 11 80 12
REMARK SMILES IDX 81 13 82 14 83 15 84 16 96 17 85 18 95 19 86 20 87 22 88 23
REMARK SMILES IDX 89 24 94 25 90 26 92 27 91 28 93 29 8 30 9 31 10 32 11 33
REMARK SMILES IDX 12 34 13 35 14 36 15 37 76 38 16 39 75 40 17 41 18 42 19 43
REMARK SMILES IDX 69 44 20 45 74 46 68 47 70 48 21 49 73 50 67 51 66 52 22 54
REMARK SMILES IDX 54 55 34 56 53 57 35 58 38 59 52 60 71 61 36 62 37 63 51 65
REMARK SMILES IDX 72 66 39 67 23 68 24 69 32 70 25 71 26 72 30 73 33 74 27 75
REMARK SMILES IDX 28 76 31 77 29 78 55 79 56 80 64 81 57 82 58 83 62 84 65 85
REMARK SMILES IDX 59 86 60 87 63 88 61 89 40 90 41 91 49 92 42 93 43 94 47 95
REMARK SMILES IDX 50 96 44 97 45 98 48 99 46 100
REMARK H PARENT 86 21 70 53 38 64
REMARK Flexibility Score: inf
ROOT
ATOM      1  C   UNL A   1      29.918  32.267  24.746  1.00  0.00     0.202 C 
ENDROOT
BRANCH   1   2
ATOM      2  C   UNL A   1      29.089  32.156  23.465  1.00  0.00     0.261 C 
BRANCH   2   3
ATOM      3  O   UNL A   1      28.269  30.971  23.506  1.00  0.00    -0.462 OA
BRANCH   3   4
ATOM      4  C   UNL A   1      28.203  30.254  22.349  1.00  0.00     0.330 C 
ATOM      5  O   UNL A   1      28.137  30.765  21.237  1.00  0.00    -0.250 OA
BRANCH   4   6
ATOM      6  C   UNL A   1      28.237  28.753  22.599  1.00  0.00     0.213 C 
ATOM      7  C   UNL A   1      27.140  28.178  23.491  1.00  0.00     0.046 C 
BRANCH   6   8
ATOM      8  N   UNL A   1      29.569  28.388  23.067  1.00  0.00    -0.258 N 
ATOM      9  C   UNL A   1      30.787  28.752  22.570  1.00  0.00     0.110 A 
ATOM     10  N   UNL A   1      29.660  27.559  24.113  1.00  0.00    -0.167 NA
ATOM     11  C   UNL A   1      31.715  28.007  23.260  1.00  0.00     0.056 A 
ATOM     12  C   UNL A   1      30.965  27.248  24.192  1.00  0.00     0.150 A 
BRANCH  12  13
ATOM     13  C   UNL A   1      31.479  26.318  25.207  1.00  0.00     0.274 C 
ATOM     14  O   UNL A   1      31.848  26.725  26.309  1.00  0.00    -0.267 OA
ATOM     15  N   UNL A   1      31.468  24.960  24.878  1.00  0.00    -0.326 N 
ATOM     16  C   UNL A   1      31.528  24.017  25.979  1.00  0.00     0.181 C 
ATOM     17  C   UNL A   1      31.949  24.492  23.572  1.00  0.00     0.181 C 
ATOM     18  C   UNL A   1      31.161  22.576  25.585  1.00  0.00     0.284 C 
ATOM     19  C   UNL A   1      31.564  23.039  23.247  1.00  0.00     0.284 C 
ATOM     20  N   UNL A   1      31.740  22.069  24.335  1.00  0.00    -0.328 N 
ATOM     21  H   UNL A   1      31.193  21.248  24.078  1.00  0.00     0.348 HD
BRANCH  20  22
ATOM     22  C   UNL A   1      33.061  21.441  24.437  1.00  0.00     0.299 C 
BRANCH  22  23
ATOM     23  C   UNL A   1      33.174  19.977  24.084  1.00  0.00     0.009 A 
ATOM     24  C   UNL A   1      32.300  19.392  23.151  1.00  0.00     0.010 A 
ATOM     25  C   UNL A   1      34.172  19.178  24.658  1.00  0.00     0.048 A 
ATOM     26  C   UNL A   1      32.482  18.070  22.735  1.00  0.00     0.004 A 
ATOM     27  C   UNL A   1      34.356  17.870  24.223  1.00  0.00     0.123 A 
ATOM     28  C   UNL A   1      33.527  17.313  23.258  1.00  0.00     0.039 A 
ATOM     29  F   UNL A   1      35.365  17.146  24.725  1.00  0.00    -0.207 F 
ENDBRANCH  22  23
ENDBRANCH  20  22
ENDBRANCH  12  13
ENDBRANCH   6   8
ENDBRANCH   4   6
ENDBRANCH   3   4
ENDBRANCH   2   3
ENDBRANCH   1   2
BRANCH   1  30
ATOM     30  O   UNL A   1      30.601  31.077  25.151  1.00  0.00    -0.374 OA
BRANCH  30  31
ATOM     31  C   UNL A   1      31.418  31.154  26.315  1.00  0.00     0.202 C 
BRANCH  31  32
ATOM     32  C   UNL A   1      31.682  32.559  26.867  1.00  0.00     0.261 C 
BRANCH  32  33
ATOM     33  O   UNL A   1      33.074  32.912  26.784  1.00  0.00    -0.460 OA
BRANCH  33  34
ATOM     34  C   UNL A   1      33.583  33.444  27.919  1.00  0.00     0.338 C 
ATOM     35  O   UNL A   1      33.041  34.238  28.676  1.00  0.00    -0.246 OA
BRANCH  34  36
ATOM     36  C   UNL A   1      34.865  32.800  28.255  1.00  0.00     0.060 A 
ATOM     37  C   UNL A   1      34.840  31.420  28.493  1.00  0.00     0.016 A 
ATOM     38  C   UNL A   1      36.046  33.528  28.411  1.00  0.00     0.016 A 
ATOM     39  C   UNL A   1      35.985  30.770  28.946  1.00  0.00     0.010 A 
ATOM     40  C   UNL A   1      37.193  32.876  28.877  1.00  0.00     0.010 A 
ATOM     41  C   UNL A   1      37.154  31.503  29.184  1.00  0.00    -0.014 A 
BRANCH  41  42
ATOM     42  C   UNL A   1      38.271  30.855  29.911  1.00  0.00     0.031 A 
ATOM     43  C   UNL A   1      38.494  31.203  31.356  1.00  0.00     0.074 A 
ATOM     44  C   UNL A   1      39.040  29.929  29.311  1.00  0.00     0.049 A 
ATOM     45  N   UNL A   1      39.396  30.754  32.191  1.00  0.00    -0.248 NA
ATOM     46  C   UNL A   1      37.573  32.192  31.941  1.00  0.00     0.031 C 
ATOM     47  C   UNL A   1      38.891  29.476  27.930  1.00  0.00     0.029 A 
ATOM     48  N   UNL A   1      40.097  29.201  29.795  1.00  0.00    -0.354 N 
ATOM     49  C   UNL A   1      39.153  31.402  33.395  1.00  0.00     0.074 A 
ATOM     50  C   UNL A   1      38.038  32.299  33.177  1.00  0.00     0.031 C 
ATOM     51  C   UNL A   1      39.831  28.550  27.674  1.00  0.00     0.029 A 
ATOM     52  C   UNL A   1      40.658  28.363  28.865  1.00  0.00     0.049 A 
ATOM     53  H   UNL A   1      40.422  29.274  30.722  1.00  0.00     0.167 HD
ATOM     54  C   UNL A   1      39.794  31.255  34.578  1.00  0.00     0.037 A 
ATOM     55  C   UNL A   1      41.728  27.550  28.963  1.00  0.00     0.037 A 
ATOM     56  C   UNL A   1      40.900  30.361  34.796  1.00  0.00     0.049 A 
ATOM     57  C   UNL A   1      42.468  27.456  30.273  1.00  0.00     0.074 A 
ATOM     58  C   UNL A   1      41.604  30.126  35.964  1.00  0.00     0.029 A 
ATOM     59  N   UNL A   1      41.468  29.559  33.816  1.00  0.00    -0.354 N 
ATOM     60  N   UNL A   1      42.214  28.051  31.412  1.00  0.00    -0.248 NA
ATOM     61  C   UNL A   1      43.643  26.573  30.308  1.00  0.00     0.031 C 
ATOM     62  C   UNL A   1      42.626  29.214  35.681  1.00  0.00     0.029 A 
ATOM     63  C   UNL A   1      42.531  28.847  34.349  1.00  0.00     0.049 A 
ATOM     64  H   UNL A   1      41.161  29.503  32.883  1.00  0.00     0.167 HD
ATOM     65  C   UNL A   1      43.175  27.597  32.305  1.00  0.00     0.074 A 
ATOM     66  C   UNL A   1      44.014  26.667  31.578  1.00  0.00     0.031 C 
ATOM     67  C   UNL A   1      43.349  27.919  33.610  1.00  0.00     0.037 A 
BRANCH  54  68
ATOM     68  C   UNL A   1      39.329  32.099  35.725  1.00  0.00     0.064 A 
ATOM     69  C   UNL A   1      39.796  33.408  35.915  1.00  0.00     0.173 A 
ATOM     70  C   UNL A   1      38.379  31.604  36.631  1.00  0.00     0.173 A 
ATOM     71  F   UNL A   1      40.718  33.921  35.085  1.00  0.00    -0.203 F 
ATOM     72  C   UNL A   1      39.346  34.183  36.981  1.00  0.00     0.198 A 
ATOM     73  C   UNL A   1      37.912  32.389  37.681  1.00  0.00     0.198 A 
ATOM     74  F   UNL A   1      37.899  30.359  36.493  1.00  0.00    -0.203 F 
ATOM     75  F   UNL A   1      39.837  35.416  37.167  1.00  0.00    -0.200 F 
ATOM     76  C   UNL A   1      38.400  33.675  37.859  1.00  0.00     0.200 A 
ATOM     77  F   UNL A   1      36.991  31.900  38.523  1.00  0.00    -0.200 F 
ATOM     78  F   UNL A   1      37.963  34.423  38.882  1.00  0.00    -0.200 F 
ENDBRANCH  54  68
BRANCH  55  79
ATOM     79  C   UNL A   1      42.171  26.764  27.784  1.00  0.00     0.064 A 
ATOM     80  C   UNL A   1      43.149  27.258  26.910  1.00  0.00     0.173 A 
ATOM     81  C   UNL A   1      41.612  25.509  27.498  1.00  0.00     0.173 A 
ATOM     82  F   UNL A   1      43.693  28.464  27.128  1.00  0.00    -0.203 F 
ATOM     83  C   UNL A   1      43.541  26.533  25.786  1.00  0.00     0.198 A 
ATOM     84  C   UNL A   1      42.023  24.775  26.388  1.00  0.00     0.198 A 
ATOM     85  F   UNL A   1      40.671  24.995  28.302  1.00  0.00    -0.203 F 
ATOM     86  F   UNL A   1      44.448  27.047  24.944  1.00  0.00    -0.200 F 
ATOM     87  C   UNL A   1      42.982  25.290  25.530  1.00  0.00     0.200 A 
ATOM     88  F   UNL A   1      41.489  23.570  26.150  1.00  0.00    -0.200 F 
ATOM     89  F   UNL A   1      43.362  24.593  24.450  1.00  0.00    -0.200 F 
ENDBRANCH  55  79
BRANCH  67  90
ATOM     90  C   UNL A   1      44.467  27.240  34.346  1.00  0.00     0.064 A 
ATOM     91  C   UNL A   1      44.287  25.998  34.971  1.00  0.00     0.173 A 
ATOM     92  C   UNL A   1      45.745  27.817  34.383  1.00  0.00     0.173 A 
ATOM     93  F   UNL A   1      43.079  25.413  34.974  1.00  0.00    -0.203 F 
ATOM     94  C   UNL A   1      45.341  25.370  35.629  1.00  0.00     0.198 A 
ATOM     95  C   UNL A   1      46.803  27.173  35.019  1.00  0.00     0.198 A 
ATOM     96  F   UNL A   1      45.971  29.001  33.794  1.00  0.00    -0.203 F 
ATOM     97  F   UNL A   1      45.137  24.203  36.256  1.00  0.00    -0.200 F 
ATOM     98  C   UNL A   1      46.599  25.954  35.645  1.00  0.00     0.200 A 
ATOM     99  F   UNL A   1      48.021  27.733  35.024  1.00  0.00    -0.200 F 
ATOM    100  F   UNL A   1      47.614  25.343  36.273  1.00  0.00    -0.200 F 
ENDBRANCH  67  90
ENDBRANCH  41  42
ENDBRANCH  34  36
ENDBRANCH  33  34
ENDBRANCH  32  33
ENDBRANCH  31  32
ENDBRANCH  30  31
ENDBRANCH   1  30
TORSDOF 18
ENDMDL
MODEL 3
REMARK VINA RESULT:     -11.6      4.629      9.146
REMARK SMILES C[C@@H](C(=O)OCCOCCOC(=O)c1ccc(-c2c3nc(c(-c4c(F)c(F)c(F)c(F)c4F)c4ccc([nH]4)c(-c4c(F)c(F)c(F)c(F)c4F)c4nc(c(-c5c(F)c(F)c(F)c(F)c5F)c5ccc2[nH]5)C=C4)C=C3)cc1)n1ccc(C(=O)N2CC[NH+](Cc3cccc(F)c3)CC2)n1
REMARK SMILES IDX 7 1 6 2 5 3 3 4 4 5 2 6 1 7 77 8 78 9 97 10 79 11 80 12
REMARK SMILES IDX 81 13 82 14 83 15 84 16 96 17 85 18 95 19 86 20 87 22 88 23
REMARK SMILES IDX 89 24 94 25 90 26 92 27 91 28 93 29 8 30 9 31 10 32 11 33
REMARK SMILES IDX 12 34 13 35 14 36 15 37 76 38 16 39 75 40 17 41 18 42 19 43
REMARK SMILES IDX 69 44 20 45 74 46 68 47 70 48 21 49 73 50 67 51 66 52 22 54
REMARK SMILES IDX 54 55 34 56 53 57 35 58 38 59 52 60 71 61 36 62 37 63 51 65
REMARK SMILES IDX 72 66 39 67 23 68 24 69 32 70 25 71 26 72 30 73 33 74 27 75
REMARK SMILES IDX 28 76 31 77 29 78 55 79 56 80 64 81 57 82 58 83 62 84 65 85
REMARK SMILES IDX 59 86 60 87 63 88 61 89 40 90 41 91 49 92 42 93 43 94 47 95
REMARK SMILES IDX 50 96 44 97 45 98 48 99 46 100
REMARK H PARENT 86 21 70 53 38 64
REMARK Flexibility Score: inf
ROOT
ATOM      1  C   UNL A   1      32.113  30.373  26.337  1.00  0.00     0.202 C 
ENDROOT
BRANCH   1   2
ATOM      2  C   UNL A   1      31.607  29.040  25.780  1.00  0.00     0.261 C 
BRANCH   2   3
ATOM      3  O   UNL A   1      31.710  29.035  24.342  1.00  0.00    -0.462 OA
BRANCH   3   4
ATOM      4  C   UNL A   1      30.546  28.820  23.665  1.00  0.00     0.330 C 
ATOM      5  O   UNL A   1      29.726  29.700  23.431  1.00  0.00    -0.250 OA
BRANCH   4   6
ATOM      6  C   UNL A   1      30.395  27.371  23.225  1.00  0.00     0.213 C 
ATOM      7  C   UNL A   1      29.461  26.493  24.053  1.00  0.00     0.046 C 
BRANCH   6   8
ATOM      8  N   UNL A   1      31.723  26.783  23.092  1.00  0.00    -0.258 N 
ATOM      9  C   UNL A   1      32.641  26.943  22.095  1.00  0.00     0.110 A 
ATOM     10  N   UNL A   1      32.132  25.941  24.046  1.00  0.00    -0.167 NA
ATOM     11  C   UNL A   1      33.649  26.046  22.361  1.00  0.00     0.056 A 
ATOM     12  C   UNL A   1      33.275  25.414  23.572  1.00  0.00     0.150 A 
BRANCH  12  13
ATOM     13  C   UNL A   1      34.030  24.401  24.322  1.00  0.00     0.274 C 
ATOM     14  O   UNL A   1      35.053  24.702  24.939  1.00  0.00    -0.267 OA
ATOM     15  N   UNL A   1      33.497  23.109  24.346  1.00  0.00    -0.326 N 
ATOM     16  C   UNL A   1      33.945  22.234  25.413  1.00  0.00     0.181 C 
ATOM     17  C   UNL A   1      33.004  22.470  23.119  1.00  0.00     0.181 C 
ATOM     18  C   UNL A   1      33.076  20.977  25.592  1.00  0.00     0.284 C 
ATOM     19  C   UNL A   1      32.158  21.210  23.368  1.00  0.00     0.284 C 
ATOM     20  N   UNL A   1      32.682  20.270  24.366  1.00  0.00    -0.328 N 
ATOM     21  H   UNL A   1      31.905  19.662  24.623  1.00  0.00     0.348 HD
BRANCH  20  22
ATOM     22  C   UNL A   1      33.616  19.252  23.874  1.00  0.00     0.299 C 
BRANCH  22  23
ATOM     23  C   UNL A   1      33.598  17.898  24.542  1.00  0.00     0.009 A 
ATOM     24  C   UNL A   1      32.393  17.339  25.002  1.00  0.00     0.010 A 
ATOM     25  C   UNL A   1      34.778  17.157  24.688  1.00  0.00     0.048 A 
ATOM     26  C   UNL A   1      32.358  16.037  25.509  1.00  0.00     0.004 A 
ATOM     27  C   UNL A   1      34.730  15.856  25.177  1.00  0.00     0.123 A 
ATOM     28  C   UNL A   1      33.529  15.285  25.576  1.00  0.00     0.039 A 
ATOM     29  F   UNL A   1      35.857  15.134  25.236  1.00  0.00    -0.207 F 
ENDBRANCH  22  23
ENDBRANCH  20  22
ENDBRANCH  12  13
ENDBRANCH   6   8
ENDBRANCH   4   6
ENDBRANCH   3   4
ENDBRANCH   2   3
ENDBRANCH   1   2
BRANCH   1  30
ATOM     30  O   UNL A   1      33.383  30.331  26.995  1.00  0.00    -0.374 OA
BRANCH  30  31
ATOM     31  C   UNL A   1      33.832  31.525  27.628  1.00  0.00     0.202 C 
BRANCH  31  32
ATOM     32  C   UNL A   1      32.805  32.656  27.753  1.00  0.00     0.261 C 
BRANCH  32  33
ATOM     33  O   UNL A   1      33.407  33.947  27.560  1.00  0.00    -0.460 OA
BRANCH  33  34
ATOM     34  C   UNL A   1      33.379  34.744  28.654  1.00  0.00     0.338 C 
ATOM     35  O   UNL A   1      32.529  35.574  28.947  1.00  0.00    -0.246 OA
BRANCH  34  36
ATOM     36  C   UNL A   1      34.452  34.364  29.590  1.00  0.00     0.060 A 
ATOM     37  C   UNL A   1      35.769  34.477  29.127  1.00  0.00     0.016 A 
ATOM     38  C   UNL A   1      34.184  33.839  30.855  1.00  0.00     0.016 A 
ATOM     39  C   UNL A   1      36.824  34.009  29.906  1.00  0.00     0.010 A 
ATOM     40  C   UNL A   1      35.245  33.360  31.633  1.00  0.00     0.010 A 
ATOM     41  C   UNL A   1      36.563  33.407  31.143  1.00  0.00    -0.014 A 
BRANCH  41  42
ATOM     42  C   UNL A   1      37.657  32.683  31.833  1.00  0.00     0.031 A 
ATOM     43  C   UNL A   1      38.310  31.522  31.136  1.00  0.00     0.074 A 
ATOM     44  C   UNL A   1      38.101  33.088  33.036  1.00  0.00     0.049 A 
ATOM     45  N   UNL A   1      39.289  30.754  31.539  1.00  0.00    -0.248 NA
ATOM     46  C   UNL A   1      37.789  31.183  29.802  1.00  0.00     0.031 C 
ATOM     47  C   UNL A   1      37.578  34.225  33.789  1.00  0.00     0.029 A 
ATOM     48  N   UNL A   1      39.098  32.584  33.832  1.00  0.00    -0.354 N 
ATOM     49  C   UNL A   1      39.501  29.843  30.513  1.00  0.00     0.074 A 
ATOM     50  C   UNL A   1      38.530  30.133  29.480  1.00  0.00     0.031 C 
ATOM     51  C   UNL A   1      38.256  34.330  34.945  1.00  0.00     0.029 A 
ATOM     52  C   UNL A   1      39.242  33.254  35.021  1.00  0.00     0.049 A 
ATOM     53  H   UNL A   1      39.657  31.815  33.574  1.00  0.00     0.167 HD
ATOM     54  C   UNL A   1      40.429  28.859  30.434  1.00  0.00     0.037 A 
ATOM     55  C   UNL A   1      40.069  33.013  36.057  1.00  0.00     0.037 A 
ATOM     56  C   UNL A   1      41.396  28.573  31.460  1.00  0.00     0.049 A 
ATOM     57  C   UNL A   1      41.046  31.868  35.974  1.00  0.00     0.074 A 
ATOM     58  C   UNL A   1      42.391  27.611  31.465  1.00  0.00     0.029 A 
ATOM     59  N   UNL A   1      41.484  29.248  32.669  1.00  0.00    -0.354 N 
ATOM     60  N   UNL A   1      41.259  31.031  34.989  1.00  0.00    -0.248 NA
ATOM     61  C   UNL A   1      41.901  31.640  37.147  1.00  0.00     0.031 C 
ATOM     62  C   UNL A   1      43.052  27.673  32.696  1.00  0.00     0.029 A 
ATOM     63  C   UNL A   1      42.499  28.704  33.439  1.00  0.00     0.049 A 
ATOM     64  H   UNL A   1      40.910  30.000  32.940  1.00  0.00     0.167 HD
ATOM     65  C   UNL A   1      42.284  30.195  35.409  1.00  0.00     0.074 A 
ATOM     66  C   UNL A   1      42.661  30.634  36.737  1.00  0.00     0.031 C 
ATOM     67  C   UNL A   1      42.865  29.159  34.756  1.00  0.00     0.037 A 
BRANCH  54  68
ATOM     68  C   UNL A   1      40.426  28.004  29.204  1.00  0.00     0.064 A 
ATOM     69  C   UNL A   1      39.647  26.840  29.117  1.00  0.00     0.173 A 
ATOM     70  C   UNL A   1      41.188  28.370  28.084  1.00  0.00     0.173 A 
ATOM     71  F   UNL A   1      38.914  26.440  30.167  1.00  0.00    -0.203 F 
ATOM     72  C   UNL A   1      39.649  26.062  27.962  1.00  0.00     0.198 A 
ATOM     73  C   UNL A   1      41.169  27.604  26.923  1.00  0.00     0.198 A 
ATOM     74  F   UNL A   1      41.949  29.474  28.116  1.00  0.00    -0.203 F 
ATOM     75  F   UNL A   1      38.930  24.933  27.916  1.00  0.00    -0.200 F 
ATOM     76  C   UNL A   1      40.404  26.448  26.864  1.00  0.00     0.200 A 
ATOM     77  F   UNL A   1      41.892  27.982  25.860  1.00  0.00    -0.200 F 
ATOM     78  F   UNL A   1      40.400  25.701  25.752  1.00  0.00    -0.200 F 
ENDBRANCH  54  68
BRANCH  55  79
ATOM     79  C   UNL A   1      40.005  33.867  37.270  1.00  0.00     0.064 A 
ATOM     80  C   UNL A   1      39.094  33.595  38.300  1.00  0.00     0.173 A 
ATOM     81  C   UNL A   1      40.841  34.984  37.415  1.00  0.00     0.173 A 
ATOM     82  F   UNL A   1      38.256  32.554  38.195  1.00  0.00    -0.203 F 
ATOM     83  C   UNL A   1      39.012  34.416  39.423  1.00  0.00     0.198 A 
ATOM     84  C   UNL A   1      40.776  35.790  38.549  1.00  0.00     0.198 A 
ATOM     85  F   UNL A   1      41.727  35.288  36.455  1.00  0.00    -0.203 F 
ATOM     86  F   UNL A   1      38.105  34.158  40.374  1.00  0.00    -0.200 F 
ATOM     87  C   UNL A   1      39.858  35.509  39.549  1.00  0.00     0.200 A 
ATOM     88  F   UNL A   1      41.601  36.838  38.672  1.00  0.00    -0.200 F 
ATOM     89  F   UNL A   1      39.780  36.297  40.630  1.00  0.00    -0.200 F 
ENDBRANCH  55  79
BRANCH  67  90
ATOM     90  C   UNL A   1      43.988  28.447  35.452  1.00  0.00     0.064 A 
ATOM     91  C   UNL A   1      43.759  27.318  36.251  1.00  0.00     0.173 A 
ATOM     92  C   UNL A   1      45.313  28.873  35.278  1.00  0.00     0.173 A 
ATOM     93  F   UNL A   1      42.507  26.880  36.458  1.00  0.00    -0.203 F 
ATOM     94  C   UNL A   1      44.814  26.654  36.870  1.00  0.00     0.198 A 
ATOM     95  C   UNL A   1      46.368  28.191  35.878  1.00  0.00     0.198 A 
ATOM     96  F   UNL A   1      45.586  29.945  34.518  1.00  0.00    -0.203 F 
ATOM     97  F   UNL A   1      44.569  25.602  37.663  1.00  0.00    -0.200 F 
ATOM     98  C   UNL A   1      46.118  27.087  36.677  1.00  0.00     0.200 A 
ATOM     99  F   UNL A   1      47.629  28.604  35.680  1.00  0.00    -0.200 F 
ATOM    100  F   UNL A   1      47.134  26.442  37.268  1.00  0.00    -0.200 F 
ENDBRANCH  67  90
ENDBRANCH  41  42
ENDBRANCH  34  36
ENDBRANCH  33  34
ENDBRANCH  32  33
ENDBRANCH  31  32
ENDBRANCH  30  31
ENDBRANCH   1  30
TORSDOF 18
ENDMDL
