MODEL 1
REMARK VINA RESULT:     -12.0      0.000      0.000
REMARK SMILES COc1ccc(NC(=O)[C@H]2[C@@H](C(=O)OCCOCCOC(=O)c3ccc(-c4c5nc(c(-c6c(F)c(F)c(F)c(F)c6F)c6ccc([nH]6)c(-c6c(F)c(F)c(F)c(F)c6F)c6nc(c(-c7c(F)c(F)c(F)c(F)c7F)c7ccc4[nH]7)C=C6)C=C5)cc3)[C@H]3C=C[C@@H]2C3)c(C)c1
REMARK SMILES IDX 16 1 15 2 14 3 12 4 13 5 11 6 10 7 89 8 86 9 88 10 90 11
REMARK SMILES IDX 87 12 8 13 7 14 9 16 6 17 3 18 4 19 93 20 5 21 91 22 92 23
REMARK SMILES IDX 2 24 1 25 17 26 18 27 19 28 20 29 21 30 22 31 23 32 24 33
REMARK SMILES IDX 85 34 25 35 84 36 26 37 27 38 28 39 78 40 29 41 83 42 77 43
REMARK SMILES IDX 79 44 30 45 82 46 76 47 75 48 31 50 63 51 43 52 62 53 44 54
REMARK SMILES IDX 47 55 61 56 80 57 45 58 46 59 60 61 81 62 48 63 32 64 33 65
REMARK SMILES IDX 41 66 34 67 35 68 39 69 42 70 36 71 37 72 40 73 38 74 64 75
REMARK SMILES IDX 65 76 73 77 66 78 67 79 71 80 74 81 68 82 69 83 72 84 70 85
REMARK SMILES IDX 49 86 50 87 58 88 51 89 52 90 56 91 59 92 53 93 54 94 57 95
REMARK SMILES IDX 55 96
REMARK H PARENT 7 15 79 49 47 60
REMARK Flexibility Score: inf
ROOT
ATOM      1  C   UNL A   1      33.644  28.108  25.832  1.00  0.00     0.202 C 
ENDROOT
BRANCH   1   2
ATOM      2  C   UNL A   1      33.471  26.681  26.226  1.00  0.00     0.261 C 
BRANCH   2   3
ATOM      3  O   UNL A   1      34.356  25.861  25.485  1.00  0.00    -0.463 OA
BRANCH   3   4
ATOM      4  C   UNL A   1      34.341  24.529  25.728  1.00  0.00     0.310 C 
ATOM      5  O   UNL A   1      33.903  23.963  26.729  1.00  0.00    -0.252 OA
BRANCH   4   6
ATOM      6  C   UNL A   1      34.917  23.788  24.555  1.00  0.00     0.119 C 
ATOM      7  C   UNL A   1      34.470  22.308  24.367  1.00  0.00     0.100 C 
ATOM      8  C   UNL A   1      35.834  21.568  24.341  1.00  0.00     0.025 C 
ATOM      9  C   UNL A   1      36.475  23.701  24.506  1.00  0.00     0.027 C 
ATOM     10  C   UNL A   1      36.577  21.713  25.649  1.00  0.00    -0.027 C 
ATOM     11  C   UNL A   1      36.655  22.564  23.501  1.00  0.00     0.017 C 
ATOM     12  C   UNL A   1      37.023  22.973  25.712  1.00  0.00    -0.027 C 
BRANCH   7  13
ATOM     13  C   UNL A   1      33.480  21.715  25.350  1.00  0.00     0.228 C 
ATOM     14  N   UNL A   1      32.121  21.900  25.297  1.00  0.00    -0.326 N 
ATOM     15  H   UNL A   1      31.578  21.216  25.752  1.00  0.00     0.169 HD
ATOM     16  O   UNL A   1      33.905  21.059  26.295  1.00  0.00    -0.274 OA
BRANCH  14  17
ATOM     17  C   UNL A   1      31.402  22.939  24.676  1.00  0.00     0.044 A 
ATOM     18  C   UNL A   1      30.737  25.413  23.563  1.00  0.00     0.119 A 
ATOM     19  C   UNL A   1      31.245  24.401  22.763  1.00  0.00     0.048 A 
ATOM     20  C   UNL A   1      30.435  25.141  24.894  1.00  0.00     0.052 A 
ATOM     21  C   UNL A   1      31.501  23.158  23.310  1.00  0.00     0.030 A 
ATOM     22  C   UNL A   1      30.704  23.880  25.453  1.00  0.00    -0.024 A 
ATOM     23  C   UNL A   1      30.275  23.649  26.870  1.00  0.00     0.047 C 
BRANCH  18  24
ATOM     24  O   UNL A   1      30.483  26.681  23.127  1.00  0.00    -0.497 OA
ATOM     25  C   UNL A   1      31.648  27.402  22.738  1.00  0.00     0.278 C 
ENDBRANCH  18  24
ENDBRANCH  14  17
ENDBRANCH   7  13
ENDBRANCH   4   6
ENDBRANCH   3   4
ENDBRANCH   2   3
ENDBRANCH   1   2
BRANCH   1  26
ATOM     26  O   UNL A   1      33.568  28.840  27.042  1.00  0.00    -0.374 OA
BRANCH  26  27
ATOM     27  C   UNL A   1      33.011  30.130  26.924  1.00  0.00     0.202 C 
BRANCH  27  28
ATOM     28  C   UNL A   1      33.832  31.182  27.675  1.00  0.00     0.261 C 
BRANCH  28  29
ATOM     29  O   UNL A   1      35.222  31.057  27.296  1.00  0.00    -0.460 OA
BRANCH  29  30
ATOM     30  C   UNL A   1      36.132  31.150  28.308  1.00  0.00     0.338 C 
ATOM     31  O   UNL A   1      36.423  32.174  28.901  1.00  0.00    -0.246 OA
BRANCH  30  32
ATOM     32  C   UNL A   1      36.956  29.902  28.365  1.00  0.00     0.060 A 
ATOM     33  C   UNL A   1      37.022  29.163  29.564  1.00  0.00     0.016 A 
ATOM     34  C   UNL A   1      37.915  29.696  27.378  1.00  0.00     0.016 A 
ATOM     35  C   UNL A   1      38.131  28.346  29.838  1.00  0.00     0.010 A 
ATOM     36  C   UNL A   1      39.051  28.979  27.699  1.00  0.00     0.010 A 
ATOM     37  C   UNL A   1      39.189  28.319  28.934  1.00  0.00    -0.014 A 
BRANCH  37  38
ATOM     38  C   UNL A   1      40.507  27.719  29.186  1.00  0.00     0.031 A 
ATOM     39  C   UNL A   1      40.762  26.359  28.633  1.00  0.00     0.074 A 
ATOM     40  C   UNL A   1      41.554  28.441  29.666  1.00  0.00     0.049 A 
ATOM     41  N   UNL A   1      41.699  25.563  29.023  1.00  0.00    -0.248 NA
ATOM     42  C   UNL A   1      39.967  25.775  27.554  1.00  0.00     0.031 C 
ATOM     43  C   UNL A   1      42.964  28.070  29.615  1.00  0.00     0.029 A 
ATOM     44  N   UNL A   1      41.623  29.716  30.264  1.00  0.00    -0.354 N 
ATOM     45  C   UNL A   1      41.876  24.619  28.031  1.00  0.00     0.074 A 
ATOM     46  C   UNL A   1      40.695  24.711  27.217  1.00  0.00     0.031 C 
ATOM     47  C   UNL A   1      43.694  28.886  30.395  1.00  0.00     0.029 A 
ATOM     48  C   UNL A   1      42.754  29.723  31.102  1.00  0.00     0.049 A 
ATOM     49  H   UNL A   1      40.997  30.463  30.123  1.00  0.00     0.167 HD
ATOM     50  C   UNL A   1      43.091  24.012  27.898  1.00  0.00     0.037 A 
ATOM     51  C   UNL A   1      42.666  29.864  32.448  1.00  0.00     0.037 A 
ATOM     52  C   UNL A   1      44.044  24.580  28.868  1.00  0.00     0.049 A 
ATOM     53  C   UNL A   1      43.245  28.625  33.069  1.00  0.00     0.074 A 
ATOM     54  C   UNL A   1      45.090  25.468  28.695  1.00  0.00     0.029 A 
ATOM     55  N   UNL A   1      43.779  24.576  30.241  1.00  0.00    -0.354 N 
ATOM     56  N   UNL A   1      43.180  27.451  32.485  1.00  0.00    -0.248 NA
ATOM     57  C   UNL A   1      44.158  28.641  34.205  1.00  0.00     0.031 C 
ATOM     58  C   UNL A   1      45.456  26.002  29.955  1.00  0.00     0.029 A 
ATOM     59  C   UNL A   1      44.609  25.463  30.913  1.00  0.00     0.049 A 
ATOM     60  H   UNL A   1      43.093  24.018  30.674  1.00  0.00     0.167 HD
ATOM     61  C   UNL A   1      44.180  26.662  32.980  1.00  0.00     0.074 A 
ATOM     62  C   UNL A   1      44.705  27.414  34.112  1.00  0.00     0.031 C 
ATOM     63  C   UNL A   1      44.644  25.529  32.370  1.00  0.00     0.037 A 
BRANCH  50  64
ATOM     64  C   UNL A   1      43.523  23.183  26.682  1.00  0.00     0.064 A 
ATOM     65  C   UNL A   1      43.150  21.824  26.555  1.00  0.00     0.173 A 
ATOM     66  C   UNL A   1      44.309  23.655  25.608  1.00  0.00     0.173 A 
ATOM     67  F   UNL A   1      42.315  21.241  27.424  1.00  0.00    -0.203 F 
ATOM     68  C   UNL A   1      43.604  21.000  25.515  1.00  0.00     0.198 A 
ATOM     69  C   UNL A   1      44.807  22.819  24.596  1.00  0.00     0.198 A 
ATOM     70  F   UNL A   1      44.561  24.955  25.436  1.00  0.00    -0.203 F 
ATOM     71  F   UNL A   1      43.204  19.721  25.459  1.00  0.00    -0.200 F 
ATOM     72  C   UNL A   1      44.457  21.489  24.551  1.00  0.00     0.200 A 
ATOM     73  F   UNL A   1      45.615  23.327  23.652  1.00  0.00    -0.200 F 
ATOM     74  F   UNL A   1      44.903  20.698  23.566  1.00  0.00    -0.200 F 
ENDBRANCH  50  64
BRANCH  51  75
ATOM     75  C   UNL A   1      41.573  30.797  32.835  1.00  0.00     0.064 A 
ATOM     76  C   UNL A   1      41.838  32.169  32.604  1.00  0.00     0.173 A 
ATOM     77  C   UNL A   1      40.228  30.401  32.814  1.00  0.00     0.173 A 
ATOM     78  F   UNL A   1      43.104  32.616  32.621  1.00  0.00    -0.203 F 
ATOM     79  C   UNL A   1      40.837  33.049  32.188  1.00  0.00     0.198 A 
ATOM     80  C   UNL A   1      39.224  31.294  32.409  1.00  0.00     0.198 A 
ATOM     81  F   UNL A   1      39.899  29.118  33.018  1.00  0.00    -0.203 F 
ATOM     82  F   UNL A   1      41.154  34.297  31.808  1.00  0.00    -0.200 F 
ATOM     83  C   UNL A   1      39.537  32.598  32.049  1.00  0.00     0.200 A 
ATOM     84  F   UNL A   1      37.963  30.861  32.262  1.00  0.00    -0.200 F 
ATOM     85  F   UNL A   1      38.608  33.392  31.493  1.00  0.00    -0.200 F 
ENDBRANCH  51  75
BRANCH  63  86
ATOM     86  C   UNL A   1      45.289  24.379  33.099  1.00  0.00     0.064 A 
ATOM     87  C   UNL A   1      46.575  24.451  33.650  1.00  0.00     0.173 A 
ATOM     88  C   UNL A   1      44.518  23.251  33.485  1.00  0.00     0.173 A 
ATOM     89  F   UNL A   1      47.382  25.496  33.426  1.00  0.00    -0.203 F 
ATOM     90  C   UNL A   1      47.059  23.470  34.513  1.00  0.00     0.198 A 
ATOM     91  C   UNL A   1      44.974  22.322  34.411  1.00  0.00     0.198 A 
ATOM     92  F   UNL A   1      43.281  23.033  33.018  1.00  0.00    -0.203 F 
ATOM     93  F   UNL A   1      48.308  23.571  34.986  1.00  0.00    -0.200 F 
ATOM     94  C   UNL A   1      46.249  22.427  34.919  1.00  0.00     0.200 A 
ATOM     95  F   UNL A   1      44.154  21.348  34.830  1.00  0.00    -0.200 F 
ATOM     96  F   UNL A   1      46.690  21.536  35.814  1.00  0.00    -0.200 F 
ENDBRANCH  63  86
ENDBRANCH  37  38
ENDBRANCH  30  32
ENDBRANCH  29  30
ENDBRANCH  28  29
ENDBRANCH  27  28
ENDBRANCH  26  27
ENDBRANCH   1  26
TORSDOF 17
ENDMDL
MODEL 2
REMARK VINA RESULT:     -11.9      1.382      2.139
REMARK SMILES COc1ccc(NC(=O)[C@H]2[C@@H](C(=O)OCCOCCOC(=O)c3ccc(-c4c5nc(c(-c6c(F)c(F)c(F)c(F)c6F)c6ccc([nH]6)c(-c6c(F)c(F)c(F)c(F)c6F)c6nc(c(-c7c(F)c(F)c(F)c(F)c7F)c7ccc4[nH]7)C=C6)C=C5)cc3)[C@H]3C=C[C@@H]2C3)c(C)c1
REMARK SMILES IDX 16 1 15 2 14 3 12 4 13 5 11 6 10 7 89 8 86 9 88 10 90 11
REMARK SMILES IDX 87 12 8 13 7 14 9 16 6 17 3 18 4 19 93 20 5 21 91 22 92 23
REMARK SMILES IDX 2 24 1 25 17 26 18 27 19 28 20 29 21 30 22 31 23 32 24 33
REMARK SMILES IDX 85 34 25 35 84 36 26 37 27 38 28 39 78 40 29 41 83 42 77 43
REMARK SMILES IDX 79 44 30 45 82 46 76 47 75 48 31 50 63 51 43 52 62 53 44 54
REMARK SMILES IDX 47 55 61 56 80 57 45 58 46 59 60 61 81 62 48 63 32 64 33 65
REMARK SMILES IDX 41 66 34 67 35 68 39 69 42 70 36 71 37 72 40 73 38 74 64 75
REMARK SMILES IDX 65 76 73 77 66 78 67 79 71 80 74 81 68 82 69 83 72 84 70 85
REMARK SMILES IDX 49 86 50 87 58 88 51 89 52 90 56 91 59 92 53 93 54 94 57 95
REMARK SMILES IDX 55 96
REMARK H PARENT 7 15 79 49 47 60
REMARK Flexibility Score: inf
ROOT
ATOM      1  C   UNL A   1      32.236  28.184  26.985  1.00  0.00     0.202 C 
ENDROOT
BRANCH   1   2
ATOM      2  C   UNL A   1      32.853  26.918  26.495  1.00  0.00     0.261 C 
BRANCH   2   3
ATOM      3  O   UNL A   1      31.849  25.954  26.242  1.00  0.00    -0.463 OA
BRANCH   3   4
ATOM      4  C   UNL A   1      32.089  24.674  26.617  1.00  0.00     0.310 C 
ATOM      5  O   UNL A   1      31.408  23.985  27.375  1.00  0.00    -0.252 OA
BRANCH   4   6
ATOM      6  C   UNL A   1      33.324  24.164  25.931  1.00  0.00     0.119 C 
ATOM      7  C   UNL A   1      33.114  23.288  24.660  1.00  0.00     0.100 C 
ATOM      8  C   UNL A   1      33.893  21.998  25.034  1.00  0.00     0.025 C 
ATOM      9  C   UNL A   1      34.279  23.296  26.810  1.00  0.00     0.027 C 
ATOM     10  C   UNL A   1      33.290  21.306  26.236  1.00  0.00    -0.027 C 
ATOM     11  C   UNL A   1      35.118  22.625  25.725  1.00  0.00     0.017 C 
ATOM     12  C   UNL A   1      33.585  22.048  27.309  1.00  0.00    -0.027 C 
BRANCH   7  13
ATOM     13  C   UNL A   1      31.700  23.021  24.183  1.00  0.00     0.228 C 
ATOM     14  N   UNL A   1      31.063  23.729  23.195  1.00  0.00    -0.326 N 
ATOM     15  H   UNL A   1      30.318  23.266  22.750  1.00  0.00     0.169 HD
ATOM     16  O   UNL A   1      31.043  22.148  24.739  1.00  0.00    -0.274 OA
BRANCH  14  17
ATOM     17  C   UNL A   1      31.338  25.031  22.734  1.00  0.00     0.044 A 
ATOM     18  C   UNL A   1      32.419  27.596  22.510  1.00  0.00     0.119 A 
ATOM     19  C   UNL A   1      33.006  26.531  21.846  1.00  0.00     0.048 A 
ATOM     20  C   UNL A   1      31.211  27.402  23.175  1.00  0.00     0.052 A 
ATOM     21  C   UNL A   1      32.420  25.280  21.904  1.00  0.00     0.030 A 
ATOM     22  C   UNL A   1      30.620  26.128  23.242  1.00  0.00    -0.024 A 
ATOM     23  C   UNL A   1      29.283  26.024  23.910  1.00  0.00     0.047 C 
BRANCH  18  24
ATOM     24  O   UNL A   1      32.934  28.860  22.542  1.00  0.00    -0.497 OA
ATOM     25  C   UNL A   1      34.230  28.938  23.128  1.00  0.00     0.278 C 
ENDBRANCH  18  24
ENDBRANCH  14  17
ENDBRANCH   7  13
ENDBRANCH   4   6
ENDBRANCH   3   4
ENDBRANCH   2   3
ENDBRANCH   1   2
BRANCH   1  26
ATOM     26  O   UNL A   1      33.172  29.200  26.674  1.00  0.00    -0.374 OA
BRANCH  26  27
ATOM     27  C   UNL A   1      32.649  30.509  26.662  1.00  0.00     0.202 C 
BRANCH  27  28
ATOM     28  C   UNL A   1      33.567  31.502  27.380  1.00  0.00     0.261 C 
BRANCH  28  29
ATOM     29  O   UNL A   1      34.505  30.770  28.202  1.00  0.00    -0.460 OA
BRANCH  29  30
ATOM     30  C   UNL A   1      35.794  31.218  28.188  1.00  0.00     0.338 C 
ATOM     31  O   UNL A   1      36.148  32.330  27.840  1.00  0.00    -0.246 OA
BRANCH  30  32
ATOM     32  C   UNL A   1      36.734  30.062  28.338  1.00  0.00     0.060 A 
ATOM     33  C   UNL A   1      36.745  29.323  29.538  1.00  0.00     0.016 A 
ATOM     34  C   UNL A   1      37.812  29.967  27.463  1.00  0.00     0.016 A 
ATOM     35  C   UNL A   1      37.897  28.624  29.934  1.00  0.00     0.010 A 
ATOM     36  C   UNL A   1      38.974  29.370  27.909  1.00  0.00     0.010 A 
ATOM     37  C   UNL A   1      39.044  28.717  29.153  1.00  0.00    -0.014 A 
BRANCH  37  38
ATOM     38  C   UNL A   1      40.383  28.256  29.550  1.00  0.00     0.031 A 
ATOM     39  C   UNL A   1      40.919  27.038  28.880  1.00  0.00     0.074 A 
ATOM     40  C   UNL A   1      41.224  29.023  30.293  1.00  0.00     0.049 A 
ATOM     41  N   UNL A   1      41.893  26.316  29.321  1.00  0.00    -0.248 NA
ATOM     42  C   UNL A   1      40.394  26.528  27.614  1.00  0.00     0.031 C 
ATOM     43  C   UNL A   1      42.665  28.844  30.439  1.00  0.00     0.029 A 
ATOM     44  N   UNL A   1      41.010  30.191  31.052  1.00  0.00    -0.354 N 
ATOM     45  C   UNL A   1      42.358  25.562  28.262  1.00  0.00     0.074 A 
ATOM     46  C   UNL A   1      41.316  25.627  27.274  1.00  0.00     0.031 C 
ATOM     47  C   UNL A   1      43.136  29.618  31.433  1.00  0.00     0.029 A 
ATOM     48  C   UNL A   1      41.985  30.213  32.067  1.00  0.00     0.049 A 
ATOM     49  H   UNL A   1      40.309  30.866  30.902  1.00  0.00     0.167 HD
ATOM     50  C   UNL A   1      43.656  25.139  28.264  1.00  0.00     0.037 A 
ATOM     51  C   UNL A   1      41.671  30.137  33.384  1.00  0.00     0.037 A 
ATOM     52  C   UNL A   1      44.353  25.670  29.449  1.00  0.00     0.049 A 
ATOM     53  C   UNL A   1      42.326  28.901  33.932  1.00  0.00     0.074 A 
ATOM     54  C   UNL A   1      45.270  26.698  29.575  1.00  0.00     0.029 A 
ATOM     55  N   UNL A   1      43.884  25.425  30.744  1.00  0.00    -0.354 N 
ATOM     56  N   UNL A   1      42.526  27.830  33.200  1.00  0.00    -0.248 NA
ATOM     57  C   UNL A   1      43.041  28.860  35.202  1.00  0.00     0.031 C 
ATOM     58  C   UNL A   1      45.354  27.078  30.937  1.00  0.00     0.029 A 
ATOM     59  C   UNL A   1      44.460  26.297  31.657  1.00  0.00     0.049 A 
ATOM     60  H   UNL A   1      43.231  24.727  30.977  1.00  0.00     0.167 HD
ATOM     61  C   UNL A   1      43.545  27.108  33.756  1.00  0.00     0.074 A 
ATOM     62  C   UNL A   1      43.772  27.740  35.048  1.00  0.00     0.031 C 
ATOM     63  C   UNL A   1      44.260  26.147  33.094  1.00  0.00     0.037 A 
BRANCH  50  64
ATOM     64  C   UNL A   1      44.388  24.565  27.045  1.00  0.00     0.064 A 
ATOM     65  C   UNL A   1      44.213  23.215  26.658  1.00  0.00     0.173 A 
ATOM     66  C   UNL A   1      45.281  25.278  26.216  1.00  0.00     0.173 A 
ATOM     67  F   UNL A   1      43.321  22.421  27.263  1.00  0.00    -0.203 F 
ATOM     68  C   UNL A   1      44.936  22.618  25.615  1.00  0.00     0.198 A 
ATOM     69  C   UNL A   1      46.044  24.670  25.207  1.00  0.00     0.198 A 
ATOM     70  F   UNL A   1      45.395  26.607  26.281  1.00  0.00    -0.203 F 
ATOM     71  F   UNL A   1      44.713  21.333  25.304  1.00  0.00    -0.200 F 
ATOM     72  C   UNL A   1      45.874  23.338  24.908  1.00  0.00     0.200 A 
ATOM     73  F   UNL A   1      46.931  25.399  24.514  1.00  0.00    -0.200 F 
ATOM     74  F   UNL A   1      46.575  22.763  23.921  1.00  0.00    -0.200 F 
ENDBRANCH  50  64
BRANCH  51  75
ATOM     75  C   UNL A   1      40.406  30.857  33.693  1.00  0.00     0.064 A 
ATOM     76  C   UNL A   1      40.503  32.269  33.719  1.00  0.00     0.173 A 
ATOM     77  C   UNL A   1      39.155  30.316  33.362  1.00  0.00     0.173 A 
ATOM     78  F   UNL A   1      41.670  32.851  34.038  1.00  0.00    -0.203 F 
ATOM     79  C   UNL A   1      39.467  33.084  33.257  1.00  0.00     0.198 A 
ATOM     80  C   UNL A   1      38.113  31.141  32.913  1.00  0.00     0.198 A 
ATOM     81  F   UNL A   1      38.986  28.987  33.311  1.00  0.00    -0.203 F 
ATOM     82  F   UNL A   1      39.658  34.407  33.131  1.00  0.00    -0.200 F 
ATOM     83  C   UNL A   1      38.288  32.515  32.813  1.00  0.00     0.200 A 
ATOM     84  F   UNL A   1      36.971  30.595  32.470  1.00  0.00    -0.200 F 
ATOM     85  F   UNL A   1      37.359  33.278  32.216  1.00  0.00    -0.200 F 
ENDBRANCH  51  75
BRANCH  63  86
ATOM     86  C   UNL A   1      44.949  24.990  33.770  1.00  0.00     0.064 A 
ATOM     87  C   UNL A   1      44.315  23.766  34.023  1.00  0.00     0.173 A 
ATOM     88  C   UNL A   1      46.357  25.000  33.952  1.00  0.00     0.173 A 
ATOM     89  F   UNL A   1      43.002  23.597  33.822  1.00  0.00    -0.203 F 
ATOM     90  C   UNL A   1      45.028  22.642  34.432  1.00  0.00     0.198 A 
ATOM     91  C   UNL A   1      47.072  23.856  34.278  1.00  0.00     0.198 A 
ATOM     92  F   UNL A   1      47.096  26.105  33.775  1.00  0.00    -0.203 F 
ATOM     93  F   UNL A   1      44.368  21.505  34.691  1.00  0.00    -0.200 F 
ATOM     94  C   UNL A   1      46.406  22.677  34.527  1.00  0.00     0.200 A 
ATOM     95  F   UNL A   1      48.411  23.899  34.314  1.00  0.00    -0.200 F 
ATOM     96  F   UNL A   1      47.091  21.571  34.838  1.00  0.00    -0.200 F 
ENDBRANCH  63  86
ENDBRANCH  37  38
ENDBRANCH  30  32
ENDBRANCH  29  30
ENDBRANCH  28  29
ENDBRANCH  27  28
ENDBRANCH  26  27
ENDBRANCH   1  26
TORSDOF 17
ENDMDL
MODEL 3
REMARK VINA RESULT:     -11.9      1.320      2.029
REMARK SMILES COc1ccc(NC(=O)[C@H]2[C@@H](C(=O)OCCOCCOC(=O)c3ccc(-c4c5nc(c(-c6c(F)c(F)c(F)c(F)c6F)c6ccc([nH]6)c(-c6c(F)c(F)c(F)c(F)c6F)c6nc(c(-c7c(F)c(F)c(F)c(F)c7F)c7ccc4[nH]7)C=C6)C=C5)cc3)[C@H]3C=C[C@@H]2C3)c(C)c1
REMARK SMILES IDX 16 1 15 2 14 3 12 4 13 5 11 6 10 7 89 8 86 9 88 10 90 11
REMARK SMILES IDX 87 12 8 13 7 14 9 16 6 17 3 18 4 19 93 20 5 21 91 22 92 23
REMARK SMILES IDX 2 24 1 25 17 26 18 27 19 28 20 29 21 30 22 31 23 32 24 33
REMARK SMILES IDX 85 34 25 35 84 36 26 37 27 38 28 39 78 40 29 41 83 42 77 43
REMARK SMILES IDX 79 44 30 45 82 46 76 47 75 48 31 50 63 51 43 52 62 53 44 54
REMARK SMILES IDX 47 55 61 56 80 57 45 58 46 59 60 61 81 62 48 63 32 64 33 65
REMARK SMILES IDX 41 66 34 67 35 68 39 69 42 70 36 71 37 72 40 73 38 74 64 75
REMARK SMILES IDX 65 76 73 77 66 78 67 79 71 80 74 81 68 82 69 83 72 84 70 85
REMARK SMILES IDX 49 86 50 87 58 88 51 89 52 90 56 91 59 92 53 93 54 94 57 95
REMARK SMILES IDX 55 96
REMARK H PARENT 7 15 79 49 47 60
REMARK Flexibility Score: inf
ROOT
ATOM      1  C   UNL A   1      32.853  27.711  25.339  1.00  0.00     0.202 C 
ENDROOT
BRANCH   1   2
ATOM      2  C   UNL A   1      33.454  26.597  26.126  1.00  0.00     0.261 C 
BRANCH   2   3
ATOM      3  O   UNL A   1      32.501  25.570  26.322  1.00  0.00    -0.463 OA
BRANCH   3   4
ATOM      4  C   UNL A   1      32.866  24.300  26.024  1.00  0.00     0.310 C 
ATOM      5  O   UNL A   1      32.355  23.264  26.448  1.00  0.00    -0.252 OA
BRANCH   4   6
ATOM      6  C   UNL A   1      33.999  24.311  25.038  1.00  0.00     0.119 C 
ATOM      7  C   UNL A   1      33.724  23.677  23.642  1.00  0.00     0.100 C 
ATOM      8  C   UNL A   1      34.857  22.620  23.547  1.00  0.00     0.025 C 
ATOM      9  C   UNL A   1      35.310  23.602  25.502  1.00  0.00     0.027 C 
ATOM     10  C   UNL A   1      34.730  21.563  24.620  1.00  0.00    -0.027 C 
ATOM     11  C   UNL A   1      36.017  23.427  24.159  1.00  0.00     0.017 C 
ATOM     12  C   UNL A   1      35.073  22.135  25.781  1.00  0.00    -0.027 C 
BRANCH   7  13
ATOM     13  C   UNL A   1      32.347  23.113  23.355  1.00  0.00     0.228 C 
ATOM     14  N   UNL A   1      31.265  23.858  22.956  1.00  0.00    -0.326 N 
ATOM     15  H   UNL A   1      30.557  23.364  22.484  1.00  0.00     0.169 HD
ATOM     16  O   UNL A   1      32.149  21.916  23.533  1.00  0.00    -0.274 OA
BRANCH  14  17
ATOM     17  C   UNL A   1      31.038  25.236  23.132  1.00  0.00     0.044 A 
ATOM     18  C   UNL A   1      29.896  27.780  22.983  1.00  0.00     0.119 A 
ATOM     19  C   UNL A   1      29.561  26.925  24.020  1.00  0.00     0.048 A 
ATOM     20  C   UNL A   1      30.905  27.413  22.097  1.00  0.00     0.052 A 
ATOM     21  C   UNL A   1      30.187  25.697  24.126  1.00  0.00     0.030 A 
ATOM     22  C   UNL A   1      31.536  26.161  22.198  1.00  0.00    -0.024 A 
ATOM     23  C   UNL A   1      32.665  25.880  21.254  1.00  0.00     0.047 C 
BRANCH  18  24
ATOM     24  O   UNL A   1      29.313  28.996  22.771  1.00  0.00    -0.497 OA
ATOM     25  C   UNL A   1      27.890  28.957  22.750  1.00  0.00     0.278 C 
ENDBRANCH  18  24
ENDBRANCH  14  17
ENDBRANCH   7  13
ENDBRANCH   4   6
ENDBRANCH   3   4
ENDBRANCH   2   3
ENDBRANCH   1   2
BRANCH   1  26
ATOM     26  O   UNL A   1      32.287  28.583  26.300  1.00  0.00    -0.374 OA
BRANCH  26  27
ATOM     27  C   UNL A   1      33.159  28.974  27.336  1.00  0.00     0.202 C 
BRANCH  27  28
ATOM     28  C   UNL A   1      33.993  30.200  26.955  1.00  0.00     0.261 C 
BRANCH  28  29
ATOM     29  O   UNL A   1      34.381  30.901  28.158  1.00  0.00    -0.460 OA
BRANCH  29  30
ATOM     30  C   UNL A   1      35.689  31.283  28.236  1.00  0.00     0.338 C 
ATOM     31  O   UNL A   1      36.111  32.402  28.005  1.00  0.00    -0.246 OA
BRANCH  30  32
ATOM     32  C   UNL A   1      36.566  30.072  28.317  1.00  0.00     0.060 A 
ATOM     33  C   UNL A   1      36.646  29.348  29.524  1.00  0.00     0.016 A 
ATOM     34  C   UNL A   1      37.549  29.900  27.347  1.00  0.00     0.016 A 
ATOM     35  C   UNL A   1      37.785  28.582  29.822  1.00  0.00     0.010 A 
ATOM     36  C   UNL A   1      38.709  29.236  27.692  1.00  0.00     0.010 A 
ATOM     37  C   UNL A   1      38.857  28.594  28.935  1.00  0.00    -0.014 A 
BRANCH  37  38
ATOM     38  C   UNL A   1      40.196  28.054  29.213  1.00  0.00     0.031 A 
ATOM     39  C   UNL A   1      40.509  26.690  28.700  1.00  0.00     0.074 A 
ATOM     40  C   UNL A   1      41.209  28.830  29.679  1.00  0.00     0.049 A 
ATOM     41  N   UNL A   1      41.474  25.943  29.120  1.00  0.00    -0.248 NA
ATOM     42  C   UNL A   1      39.746  26.044  27.634  1.00  0.00     0.031 C 
ATOM     43  C   UNL A   1      42.633  28.515  29.648  1.00  0.00     0.029 A 
ATOM     44  N   UNL A   1      41.223  30.124  30.241  1.00  0.00    -0.354 N 
ATOM     45  C   UNL A   1      41.695  24.979  28.156  1.00  0.00     0.074 A 
ATOM     46  C   UNL A   1      40.518  25.001  27.332  1.00  0.00     0.031 C 
ATOM     47  C   UNL A   1      43.324  29.381  30.409  1.00  0.00     0.029 A 
ATOM     48  C   UNL A   1      42.346  30.199  31.085  1.00  0.00     0.049 A 
ATOM     49  H   UNL A   1      40.568  30.840  30.074  1.00  0.00     0.167 HD
ATOM     50  C   UNL A   1      42.935  24.417  28.048  1.00  0.00     0.037 A 
ATOM     51  C   UNL A   1      42.242  30.375  32.426  1.00  0.00     0.037 A 
ATOM     52  C   UNL A   1      43.857  25.050  29.008  1.00  0.00     0.049 A 
ATOM     53  C   UNL A   1      42.865  29.177  33.087  1.00  0.00     0.074 A 
ATOM     54  C   UNL A   1      44.868  25.974  28.817  1.00  0.00     0.029 A 
ATOM     55  N   UNL A   1      43.581  25.075  30.379  1.00  0.00    -0.354 N 
ATOM     56  N   UNL A   1      42.851  27.986  32.536  1.00  0.00    -0.248 NA
ATOM     57  C   UNL A   1      43.768  29.262  34.228  1.00  0.00     0.031 C 
ATOM     58  C   UNL A   1      45.202  26.558  30.063  1.00  0.00     0.029 A 
ATOM     59  C   UNL A   1      44.370  26.012  31.031  1.00  0.00     0.049 A 
ATOM     60  H   UNL A   1      42.915  24.502  30.823  1.00  0.00     0.167 HD
ATOM     61  C   UNL A   1      43.878  27.252  33.060  1.00  0.00     0.074 A 
ATOM     62  C   UNL A   1      44.364  28.056  34.173  1.00  0.00     0.031 C 
ATOM     63  C   UNL A   1      44.391  26.121  32.485  1.00  0.00     0.037 A 
BRANCH  50  64
ATOM     64  C   UNL A   1      43.409  23.573  26.860  1.00  0.00     0.064 A 
ATOM     65  C   UNL A   1      43.063  22.205  26.752  1.00  0.00     0.173 A 
ATOM     66  C   UNL A   1      44.211  24.037  25.794  1.00  0.00     0.173 A 
ATOM     67  F   UNL A   1      42.218  21.624  27.614  1.00  0.00    -0.203 F 
ATOM     68  C   UNL A   1      43.554  21.368  25.739  1.00  0.00     0.198 A 
ATOM     69  C   UNL A   1      44.746  23.190  24.810  1.00  0.00     0.198 A 
ATOM     70  F   UNL A   1      44.443  25.338  25.601  1.00  0.00    -0.203 F 
ATOM     71  F   UNL A   1      43.179  20.081  25.701  1.00  0.00    -0.200 F 
ATOM     72  C   UNL A   1      44.421  21.854  24.785  1.00  0.00     0.200 A 
ATOM     73  F   UNL A   1      45.566  23.693  23.875  1.00  0.00    -0.200 F 
ATOM     74  F   UNL A   1      44.902  21.051  23.826  1.00  0.00    -0.200 F 
ENDBRANCH  50  64
BRANCH  51  75
ATOM     75  C   UNL A   1      41.110  31.274  32.779  1.00  0.00     0.064 A 
ATOM     76  C   UNL A   1      39.968  30.629  33.314  1.00  0.00     0.173 A 
ATOM     77  C   UNL A   1      41.323  32.605  33.167  1.00  0.00     0.173 A 
ATOM     78  F   UNL A   1      39.701  29.357  32.975  1.00  0.00    -0.203 F 
ATOM     79  C   UNL A   1      39.198  31.216  34.320  1.00  0.00     0.198 A 
ATOM     80  C   UNL A   1      40.537  33.194  34.169  1.00  0.00     0.198 A 
ATOM     81  F   UNL A   1      42.386  33.280  32.707  1.00  0.00    -0.203 F 
ATOM     82  F   UNL A   1      38.233  30.508  34.927  1.00  0.00    -0.200 F 
ATOM     83  C   UNL A   1      39.512  32.482  34.777  1.00  0.00     0.200 A 
ATOM     84  F   UNL A   1      40.842  34.418  34.625  1.00  0.00    -0.200 F 
ATOM     85  F   UNL A   1      38.883  32.981  35.853  1.00  0.00    -0.200 F 
ENDBRANCH  51  75
BRANCH  63  86
ATOM     86  C   UNL A   1      45.075  25.019  33.251  1.00  0.00     0.064 A 
ATOM     87  C   UNL A   1      46.467  24.940  33.395  1.00  0.00     0.173 A 
ATOM     88  C   UNL A   1      44.323  24.148  34.082  1.00  0.00     0.173 A 
ATOM     89  F   UNL A   1      47.293  25.755  32.725  1.00  0.00    -0.203 F 
ATOM     90  C   UNL A   1      47.063  24.057  34.292  1.00  0.00     0.198 A 
ATOM     91  C   UNL A   1      44.919  23.331  35.033  1.00  0.00     0.198 A 
ATOM     92  F   UNL A   1      42.984  24.091  34.037  1.00  0.00    -0.203 F 
ATOM     93  F   UNL A   1      48.399  23.999  34.366  1.00  0.00    -0.200 F 
ATOM     94  C   UNL A   1      46.291  23.279  35.132  1.00  0.00     0.200 A 
ATOM     95  F   UNL A   1      44.151  22.624  35.873  1.00  0.00    -0.200 F 
ATOM     96  F   UNL A   1      46.868  22.495  36.050  1.00  0.00    -0.200 F 
ENDBRANCH  63  86
ENDBRANCH  37  38
ENDBRANCH  30  32
ENDBRANCH  29  30
ENDBRANCH  28  29
ENDBRANCH  27  28
ENDBRANCH  26  27
ENDBRANCH   1  26
TORSDOF 17
ENDMDL
