MODEL 1
REMARK VINA RESULT:     -10.0      0.000      0.000
REMARK SMILES COC(=O)[C@H]1CC[C@]2(C)[C@H]3CC=C4[C@@H]5CC(C)(C)CC[C@@]5(C(=O)OCCOCCOC(=O)c5ccc(-c6c7nc(c(-c8c(F)c(F)c(F)c(F)c8F)c8ccc([nH]8)c(-c8c(F)c(F)c(F)c(F)c8F)c8nc(c(-c9c(F)c(F)c(F)c(F)c9F)c9ccc6[nH]9)C=C8)C=C7)cc5)CC[C@@]4(C)[C@@]3(C)CC[C@H]2C1(C)C
REMARK SMILES IDX 27 1 26 2 25 3 24 4 22 5 23 6 21 7 5 8 6 9 105 10 7 11
REMARK SMILES IDX 104 12 106 13 107 14 8 15 103 16 9 17 10 18 102 19 11 20
REMARK SMILES IDX 100 21 12 22 98 23 101 24 13 25 97 26 99 27 14 28 96 29
REMARK SMILES IDX 15 30 16 31 20 32 17 33 18 34 19 35 3 36 4 37 2 38 1 39
REMARK SMILES IDX 28 40 29 41 30 42 31 43 32 44 33 45 34 46 95 47 35 48 94 49
REMARK SMILES IDX 36 50 37 51 38 52 88 53 39 54 93 55 87 56 89 57 40 58 92 59
REMARK SMILES IDX 86 60 85 61 41 63 73 64 53 65 72 66 54 67 57 68 71 69 90 70
REMARK SMILES IDX 55 71 56 72 70 74 91 75 58 76 42 77 43 78 51 79 44 80 45 81
REMARK SMILES IDX 49 82 52 83 46 84 47 85 50 86 48 87 74 88 75 89 83 90 76 91
REMARK SMILES IDX 77 92 81 93 84 94 78 95 79 96 82 97 80 98 59 99 60 100
REMARK SMILES IDX 68 101 61 102 62 103 66 104 69 105 63 106 64 107 67 108
REMARK SMILES IDX 65 109
REMARK H PARENT 89 62 57 73
REMARK Flexibility Score: inf
ROOT
ATOM      1  O   UNL A   1      47.276  26.128  25.295  1.00  0.00    -0.374 OA
ENDROOT
BRANCH   1   2
ATOM      2  C   UNL A   1      46.978  27.298  26.031  1.00  0.00     0.202 C 
BRANCH   2   3
ATOM      3  C   UNL A   1      46.629  28.564  25.245  1.00  0.00     0.261 C 
BRANCH   3   4
ATOM      4  O   UNL A   1      45.683  29.502  25.806  1.00  0.00    -0.463 OA
BRANCH   4   5
ATOM      5  C   UNL A   1      45.929  30.688  26.414  1.00  0.00     0.312 C 
ATOM      6  O   UNL A   1      46.977  31.276  26.126  1.00  0.00    -0.252 OA
BRANCH   5   7
ATOM      7  C   UNL A   1      44.856  31.437  27.219  1.00  0.00     0.075 C 
ATOM      8  C   UNL A   1      43.222  36.201  33.136  1.00  0.00     0.105 C 
ATOM      9  C   UNL A   1      43.849  37.521  32.544  1.00  0.00     0.016 C 
ATOM     10  C   UNL A   1      43.244  34.908  32.229  1.00  0.00    -0.019 C 
ATOM     11  C   UNL A   1      44.153  37.622  31.016  1.00  0.00     0.008 C 
ATOM     12  C   UNL A   1      43.298  35.411  30.743  1.00  0.00     0.002 C 
ATOM     13  C   UNL A   1      44.367  33.888  32.580  1.00  0.00     0.012 C 
ATOM     14  C   UNL A   1      41.934  34.095  32.473  1.00  0.00     0.012 C 
ATOM     15  C   UNL A   1      44.583  36.250  30.405  1.00  0.00    -0.026 C 
ATOM     16  C   UNL A   1      42.859  34.394  29.718  1.00  0.00     0.005 C 
ATOM     17  C   UNL A   1      45.876  35.935  31.225  1.00  0.00     0.012 C 
ATOM     18  C   UNL A   1      44.966  36.378  28.820  1.00  0.00     0.006 C 
ATOM     19  C   UNL A   1      42.787  34.947  28.310  1.00  0.00     0.008 C 
ATOM     20  C   UNL A   1      46.491  36.042  28.548  1.00  0.00     0.032 C 
ATOM     21  C   UNL A   1      44.040  35.615  27.699  1.00  0.00    -0.020 C 
ATOM     22  C   UNL A   1      46.668  34.545  28.524  1.00  0.00    -0.027 C 
ATOM     23  C   UNL A   1      44.924  34.562  26.812  1.00  0.00    -0.006 C 
ATOM     24  C   UNL A   1      43.462  36.715  26.752  1.00  0.00     0.012 C 
ATOM     25  C   UNL A   1      45.757  33.805  27.861  1.00  0.00    -0.063 C 
ATOM     26  C   UNL A   1      44.234  33.561  25.829  1.00  0.00     0.013 C 
ATOM     27  C   UNL A   1      45.801  35.349  25.742  1.00  0.00     0.017 C 
ATOM     28  C   UNL A   1      45.314  32.390  28.315  1.00  0.00     0.033 C 
ATOM     29  C   UNL A   1      43.845  32.173  26.291  1.00  0.00     0.020 C 
ATOM     30  C   UNL A   1      45.993  31.680  29.531  1.00  0.00     0.015 C 
ATOM     31  C   UNL A   1      45.287  30.388  30.060  1.00  0.00    -0.035 C 
ATOM     32  C   UNL A   1      43.961  30.339  27.885  1.00  0.00     0.020 C 
ATOM     33  C   UNL A   1      46.315  29.508  30.802  1.00  0.00     0.011 C 
ATOM     34  C   UNL A   1      44.188  30.744  31.078  1.00  0.00     0.011 C 
ATOM     35  C   UNL A   1      44.685  29.527  28.935  1.00  0.00     0.007 C 
BRANCH   8  36
ATOM     36  C   UNL A   1      43.801  35.887  34.522  1.00  0.00     0.309 C 
ATOM     37  O   UNL A   1      43.208  35.315  35.426  1.00  0.00    -0.252 OA
BRANCH  36  38
ATOM     38  O   UNL A   1      45.034  36.456  34.649  1.00  0.00    -0.469 OA
ATOM     39  C   UNL A   1      45.228  37.178  35.865  1.00  0.00     0.282 C 
ENDBRANCH  36  38
ENDBRANCH   8  36
ENDBRANCH   5   7
ENDBRANCH   4   5
ENDBRANCH   3   4
ENDBRANCH   2   3
ENDBRANCH   1   2
BRANCH   1  40
ATOM     40  C   UNL A   1      47.157  24.884  25.978  1.00  0.00     0.202 C 
BRANCH  40  41
ATOM     41  C   UNL A   1      46.116  23.857  25.480  1.00  0.00     0.261 C 
BRANCH  41  42
ATOM     42  O   UNL A   1      44.886  23.815  26.241  1.00  0.00    -0.460 OA
BRANCH  42  43
ATOM     43  C   UNL A   1      43.733  23.974  25.544  1.00  0.00     0.338 C 
ATOM     44  O   UNL A   1      43.343  23.288  24.623  1.00  0.00    -0.246 OA
BRANCH  43  45
ATOM     45  C   UNL A   1      42.850  24.986  26.190  1.00  0.00     0.060 A 
ATOM     46  C   UNL A   1      43.367  26.283  26.335  1.00  0.00     0.016 A 
ATOM     47  C   UNL A   1      41.610  24.668  26.747  1.00  0.00     0.016 A 
ATOM     48  C   UNL A   1      42.701  27.232  27.114  1.00  0.00     0.010 A 
ATOM     49  C   UNL A   1      40.951  25.613  27.553  1.00  0.00     0.010 A 
ATOM     50  C   UNL A   1      41.526  26.878  27.789  1.00  0.00    -0.014 A 
BRANCH  50  51
ATOM     51  C   UNL A   1      41.099  27.711  28.949  1.00  0.00     0.031 A 
ATOM     52  C   UNL A   1      41.896  27.595  30.227  1.00  0.00     0.074 A 
ATOM     53  C   UNL A   1      40.101  28.609  28.870  1.00  0.00     0.049 A 
ATOM     54  N   UNL A   1      41.742  28.214  31.371  1.00  0.00    -0.248 NA
ATOM     55  C   UNL A   1      43.032  26.660  30.201  1.00  0.00     0.031 C 
ATOM     56  C   UNL A   1      39.300  28.880  27.680  1.00  0.00     0.029 A 
ATOM     57  N   UNL A   1      39.596  29.465  29.819  1.00  0.00    -0.354 N 
ATOM     58  C   UNL A   1      42.758  27.744  32.193  1.00  0.00     0.074 A 
ATOM     59  C   UNL A   1      43.507  26.771  31.431  1.00  0.00     0.031 C 
ATOM     60  C   UNL A   1      38.392  29.829  27.975  1.00  0.00     0.029 A 
ATOM     61  C   UNL A   1      38.529  30.211  29.381  1.00  0.00     0.049 A 
ATOM     62  H   UNL A   1      39.966  29.538  30.729  1.00  0.00     0.167 HD
ATOM     63  C   UNL A   1      43.052  28.095  33.467  1.00  0.00     0.037 A 
ATOM     64  C   UNL A   1      37.742  31.082  30.047  1.00  0.00     0.037 A 
ATOM     65  C   UNL A   1      42.307  29.054  34.237  1.00  0.00     0.049 A 
ATOM     66  C   UNL A   1      38.021  31.380  31.500  1.00  0.00     0.074 A 
ATOM     67  C   UNL A   1      42.522  29.472  35.538  1.00  0.00     0.029 A 
ATOM     68  N   UNL A   1      41.192  29.737  33.775  1.00  0.00    -0.354 N 
ATOM     69  N   UNL A   1      38.988  30.938  32.267  1.00  0.00    -0.248 NA
ATOM     70  C   UNL A   1      37.095  32.299  32.183  1.00  0.00     0.031 C 
ATOM     71  C   UNL A   1      41.506  30.370  35.881  1.00  0.00     0.029 A 
ATOM     72  C   UNL A   1      40.690  30.551  34.776  1.00  0.00     0.049 A 
ATOM     73  H   UNL A   1      40.815  29.655  32.870  1.00  0.00     0.167 HD
ATOM     74  C   UNL A   1      38.802  31.536  33.508  1.00  0.00     0.074 A 
ATOM     75  C   UNL A   1      37.635  32.386  33.391  1.00  0.00     0.031 C 
ATOM     76  C   UNL A   1      39.530  31.394  34.643  1.00  0.00     0.037 A 
BRANCH  63  77
ATOM     77  C   UNL A   1      44.212  27.405  34.120  1.00  0.00     0.064 A 
ATOM     78  C   UNL A   1      45.459  28.034  34.264  1.00  0.00     0.173 A 
ATOM     79  C   UNL A   1      44.072  26.102  34.620  1.00  0.00     0.173 A 
ATOM     80  F   UNL A   1      45.650  29.273  33.787  1.00  0.00    -0.203 F 
ATOM     81  C   UNL A   1      46.529  27.371  34.860  1.00  0.00     0.198 A 
ATOM     82  C   UNL A   1      45.136  25.453  35.239  1.00  0.00     0.198 A 
ATOM     83  F   UNL A   1      42.900  25.459  34.509  1.00  0.00    -0.203 F 
ATOM     84  F   UNL A   1      47.724  27.971  34.943  1.00  0.00    -0.200 F 
ATOM     85  C   UNL A   1      46.365  26.085  35.352  1.00  0.00     0.200 A 
ATOM     86  F   UNL A   1      44.973  24.213  35.723  1.00  0.00    -0.200 F 
ATOM     87  F   UNL A   1      47.396  25.448  35.927  1.00  0.00    -0.200 F 
ENDBRANCH  63  77
BRANCH  64  88
ATOM     88  C   UNL A   1      36.583  31.713  29.358  1.00  0.00     0.064 A 
ATOM     89  C   UNL A   1      35.468  30.962  28.963  1.00  0.00     0.173 A 
ATOM     90  C   UNL A   1      36.586  33.083  29.051  1.00  0.00     0.173 A 
ATOM     91  F   UNL A   1      35.430  29.643  29.202  1.00  0.00    -0.203 F 
ATOM     92  C   UNL A   1      34.405  31.553  28.281  1.00  0.00     0.198 A 
ATOM     93  C   UNL A   1      35.512  33.678  28.394  1.00  0.00     0.198 A 
ATOM     94  F   UNL A   1      37.634  33.846  29.393  1.00  0.00    -0.203 F 
ATOM     95  F   UNL A   1      33.371  30.803  27.875  1.00  0.00    -0.200 F 
ATOM     96  C   UNL A   1      34.425  32.911  28.004  1.00  0.00     0.200 A 
ATOM     97  F   UNL A   1      35.532  34.993  28.135  1.00  0.00    -0.200 F 
ATOM     98  F   UNL A   1      33.402  33.481  27.350  1.00  0.00    -0.200 F 
ENDBRANCH  64  88
BRANCH  76  99
ATOM     99  C   UNL A   1      39.108  32.186  35.847  1.00  0.00     0.064 A 
ATOM    100  C   UNL A   1      38.280  31.636  36.834  1.00  0.00     0.173 A 
ATOM    101  C   UNL A   1      39.596  33.487  36.047  1.00  0.00     0.173 A 
ATOM    102  F   UNL A   1      37.780  30.400  36.684  1.00  0.00    -0.203 F 
ATOM    103  C   UNL A   1      37.942  32.364  37.972  1.00  0.00     0.198 A 
ATOM    104  C   UNL A   1      39.276  34.202  37.198  1.00  0.00     0.198 A 
ATOM    105  F   UNL A   1      40.399  34.057  35.136  1.00  0.00    -0.203 F 
ATOM    106  F   UNL A   1      37.120  31.830  38.887  1.00  0.00    -0.200 F 
ATOM    107  C   UNL A   1      38.446  33.642  38.157  1.00  0.00     0.200 A 
ATOM    108  F   UNL A   1      39.777  35.432  37.383  1.00  0.00    -0.200 F 
ATOM    109  F   UNL A   1      38.129  34.337  39.259  1.00  0.00    -0.200 F 
ENDBRANCH  76  99
ENDBRANCH  50  51
ENDBRANCH  43  45
ENDBRANCH  42  43
ENDBRANCH  41  42
ENDBRANCH  40  41
ENDBRANCH   1  40
TORSDOF 16
ENDMDL
MODEL 2
REMARK VINA RESULT:      -9.6      1.707      2.356
REMARK SMILES COC(=O)[C@H]1CC[C@]2(C)[C@H]3CC=C4[C@@H]5CC(C)(C)CC[C@@]5(C(=O)OCCOCCOC(=O)c5ccc(-c6c7nc(c(-c8c(F)c(F)c(F)c(F)c8F)c8ccc([nH]8)c(-c8c(F)c(F)c(F)c(F)c8F)c8nc(c(-c9c(F)c(F)c(F)c(F)c9F)c9ccc6[nH]9)C=C8)C=C7)cc5)CC[C@@]4(C)[C@@]3(C)CC[C@H]2C1(C)C
REMARK SMILES IDX 27 1 26 2 25 3 24 4 22 5 23 6 21 7 5 8 6 9 105 10 7 11
REMARK SMILES IDX 104 12 106 13 107 14 8 15 103 16 9 17 10 18 102 19 11 20
REMARK SMILES IDX 100 21 12 22 98 23 101 24 13 25 97 26 99 27 14 28 96 29
REMARK SMILES IDX 15 30 16 31 20 32 17 33 18 34 19 35 3 36 4 37 2 38 1 39
REMARK SMILES IDX 28 40 29 41 30 42 31 43 32 44 33 45 34 46 95 47 35 48 94 49
REMARK SMILES IDX 36 50 37 51 38 52 88 53 39 54 93 55 87 56 89 57 40 58 92 59
REMARK SMILES IDX 86 60 85 61 41 63 73 64 53 65 72 66 54 67 57 68 71 69 90 70
REMARK SMILES IDX 55 71 56 72 70 74 91 75 58 76 42 77 43 78 51 79 44 80 45 81
REMARK SMILES IDX 49 82 52 83 46 84 47 85 50 86 48 87 74 88 75 89 83 90 76 91
REMARK SMILES IDX 77 92 81 93 84 94 78 95 79 96 82 97 80 98 59 99 60 100
REMARK SMILES IDX 68 101 61 102 62 103 66 104 69 105 63 106 64 107 67 108
REMARK SMILES IDX 65 109
REMARK H PARENT 89 62 57 73
REMARK Flexibility Score: inf
ROOT
ATOM      1  O   UNL A   1      46.816  25.584  24.422  1.00  0.00    -0.374 OA
ENDROOT
BRANCH   1   2
ATOM      2  C   UNL A   1      47.337  26.849  24.778  1.00  0.00     0.202 C 
BRANCH   2   3
ATOM      3  C   UNL A   1      46.480  28.081  24.481  1.00  0.00     0.261 C 
BRANCH   3   4
ATOM      4  O   UNL A   1      45.724  28.688  25.553  1.00  0.00    -0.463 OA
BRANCH   4   5
ATOM      5  C   UNL A   1      46.056  29.754  26.322  1.00  0.00     0.312 C 
ATOM      6  O   UNL A   1      46.410  30.790  25.749  1.00  0.00    -0.252 OA
BRANCH   5   7
ATOM      7  C   UNL A   1      45.755  29.806  27.828  1.00  0.00     0.075 C 
ATOM      8  C   UNL A   1      47.075  33.243  34.671  1.00  0.00     0.105 C 
ATOM      9  C   UNL A   1      46.362  34.619  34.374  1.00  0.00     0.016 C 
ATOM     10  C   UNL A   1      47.012  32.130  33.553  1.00  0.00    -0.019 C 
ATOM     11  C   UNL A   1      45.356  34.735  33.186  1.00  0.00     0.008 C 
ATOM     12  C   UNL A   1      45.726  32.428  32.703  1.00  0.00     0.002 C 
ATOM     13  C   UNL A   1      48.304  31.997  32.695  1.00  0.00     0.012 C 
ATOM     14  C   UNL A   1      46.891  30.732  34.236  1.00  0.00     0.012 C 
ATOM     15  C   UNL A   1      45.753  33.823  31.982  1.00  0.00    -0.026 C 
ATOM     16  C   UNL A   1      45.216  31.255  31.900  1.00  0.00     0.005 C 
ATOM     17  C   UNL A   1      47.155  34.402  31.601  1.00  0.00     0.012 C 
ATOM     18  C   UNL A   1      44.733  34.002  30.715  1.00  0.00     0.006 C 
ATOM     19  C   UNL A   1      43.901  31.527  31.202  1.00  0.00     0.008 C 
ATOM     20  C   UNL A   1      45.465  34.597  29.441  1.00  0.00     0.032 C 
ATOM     21  C   UNL A   1      43.790  32.740  30.251  1.00  0.00    -0.020 C 
ATOM     22  C   UNL A   1      46.220  33.492  28.746  1.00  0.00    -0.027 C 
ATOM     23  C   UNL A   1      44.072  32.325  28.694  1.00  0.00    -0.006 C 
ATOM     24  C   UNL A   1      42.303  33.201  30.391  1.00  0.00     0.012 C 
ATOM     25  C   UNL A   1      45.607  32.301  28.592  1.00  0.00    -0.063 C 
ATOM     26  C   UNL A   1      43.457  31.024  28.084  1.00  0.00     0.013 C 
ATOM     27  C   UNL A   1      43.380  33.372  27.715  1.00  0.00     0.017 C 
ATOM     28  C   UNL A   1      46.356  30.944  28.643  1.00  0.00     0.033 C 
ATOM     29  C   UNL A   1      44.228  29.721  28.117  1.00  0.00     0.020 C 
ATOM     30  C   UNL A   1      47.913  30.882  28.769  1.00  0.00     0.015 C 
ATOM     31  C   UNL A   1      48.527  29.478  29.082  1.00  0.00    -0.035 C 
ATOM     32  C   UNL A   1      46.284  28.460  28.428  1.00  0.00     0.020 C 
ATOM     33  C   UNL A   1      49.993  29.439  28.603  1.00  0.00     0.011 C 
ATOM     34  C   UNL A   1      48.547  29.218  30.600  1.00  0.00     0.011 C 
ATOM     35  C   UNL A   1      47.790  28.327  28.374  1.00  0.00     0.007 C 
BRANCH   8  36
ATOM     36  C   UNL A   1      48.524  33.459  35.125  1.00  0.00     0.309 C 
ATOM     37  O   UNL A   1      49.061  32.904  36.073  1.00  0.00    -0.252 OA
BRANCH  36  38
ATOM     38  O   UNL A   1      49.095  34.462  34.396  1.00  0.00    -0.469 OA
ATOM     39  C   UNL A   1      50.514  34.551  34.526  1.00  0.00     0.282 C 
ENDBRANCH  36  38
ENDBRANCH   8  36
ENDBRANCH   5   7
ENDBRANCH   4   5
ENDBRANCH   3   4
ENDBRANCH   2   3
ENDBRANCH   1   2
BRANCH   1  40
ATOM     40  C   UNL A   1      46.809  24.577  25.429  1.00  0.00     0.202 C 
BRANCH  40  41
ATOM     41  C   UNL A   1      46.104  23.234  25.136  1.00  0.00     0.261 C 
BRANCH  41  42
ATOM     42  O   UNL A   1      44.780  23.101  25.706  1.00  0.00    -0.460 OA
BRANCH  42  43
ATOM     43  C   UNL A   1      43.740  23.491  24.927  1.00  0.00     0.338 C 
ATOM     44  O   UNL A   1      43.398  22.995  23.876  1.00  0.00    -0.246 OA
BRANCH  43  45
ATOM     45  C   UNL A   1      42.890  24.494  25.629  1.00  0.00     0.060 A 
ATOM     46  C   UNL A   1      43.353  25.820  25.650  1.00  0.00     0.016 A 
ATOM     47  C   UNL A   1      41.745  24.149  26.349  1.00  0.00     0.016 A 
ATOM     48  C   UNL A   1      42.738  26.776  26.459  1.00  0.00     0.010 A 
ATOM     49  C   UNL A   1      41.140  25.105  27.185  1.00  0.00     0.010 A 
ATOM     50  C   UNL A   1      41.672  26.405  27.289  1.00  0.00    -0.014 A 
BRANCH  50  51
ATOM     51  C   UNL A   1      41.346  27.277  28.453  1.00  0.00     0.031 A 
ATOM     52  C   UNL A   1      42.238  27.188  29.668  1.00  0.00     0.074 A 
ATOM     53  C   UNL A   1      40.355  28.186  28.423  1.00  0.00     0.049 A 
ATOM     54  N   UNL A   1      42.179  27.843  30.801  1.00  0.00    -0.248 NA
ATOM     55  C   UNL A   1      43.358  26.238  29.584  1.00  0.00     0.031 C 
ATOM     56  C   UNL A   1      39.467  28.433  27.292  1.00  0.00     0.029 A 
ATOM     57  N   UNL A   1      39.935  29.077  29.383  1.00  0.00    -0.354 N 
ATOM     58  C   UNL A   1      43.251  27.384  31.557  1.00  0.00     0.074 A 
ATOM     59  C   UNL A   1      43.928  26.378  30.770  1.00  0.00     0.031 C 
ATOM     60  C   UNL A   1      38.595  29.402  27.626  1.00  0.00     0.029 A 
ATOM     61  C   UNL A   1      38.845  29.824  29.006  1.00  0.00     0.049 A 
ATOM     62  H   UNL A   1      40.374  29.171  30.259  1.00  0.00     0.167 HD
ATOM     63  C   UNL A   1      43.647  27.768  32.793  1.00  0.00     0.037 A 
ATOM     64  C   UNL A   1      38.121  30.724  29.703  1.00  0.00     0.037 A 
ATOM     65  C   UNL A   1      42.974  28.759  33.589  1.00  0.00     0.049 A 
ATOM     66  C   UNL A   1      38.516  31.061  31.121  1.00  0.00     0.074 A 
ATOM     67  C   UNL A   1      43.294  29.212  34.856  1.00  0.00     0.029 A 
ATOM     68  N   UNL A   1      41.834  29.442  33.194  1.00  0.00    -0.354 N 
ATOM     69  N   UNL A   1      39.534  30.628  31.824  1.00  0.00    -0.248 NA
ATOM     70  C   UNL A   1      37.656  32.011  31.845  1.00  0.00     0.031 C 
ATOM     71  C   UNL A   1      42.317  30.133  35.249  1.00  0.00     0.029 A 
ATOM     72  C   UNL A   1      41.420  30.292  34.206  1.00  0.00     0.049 A 
ATOM     73  H   UNL A   1      41.388  29.339  32.323  1.00  0.00     0.167 HD
ATOM     74  C   UNL A   1      39.451  31.265  33.057  1.00  0.00     0.074 A 
ATOM     75  C   UNL A   1      38.288  32.127  33.004  1.00  0.00     0.031 C 
ATOM     76  C   UNL A   1      40.263  31.147  34.136  1.00  0.00     0.037 A 
BRANCH  63  77
ATOM     77  C   UNL A   1      44.846  27.082  33.376  1.00  0.00     0.064 A 
ATOM     78  C   UNL A   1      46.153  27.460  33.030  1.00  0.00     0.173 A 
ATOM     79  C   UNL A   1      44.687  26.040  34.302  1.00  0.00     0.173 A 
ATOM     80  F   UNL A   1      46.359  28.438  32.136  1.00  0.00    -0.203 F 
ATOM     81  C   UNL A   1      47.255  26.800  33.570  1.00  0.00     0.198 A 
ATOM     82  C   UNL A   1      45.791  25.402  34.860  1.00  0.00     0.198 A 
ATOM     83  F   UNL A   1      43.459  25.643  34.667  1.00  0.00    -0.203 F 
ATOM     84  F   UNL A   1      48.492  27.144  33.189  1.00  0.00    -0.200 F 
ATOM     85  C   UNL A   1      47.073  25.777  34.488  1.00  0.00     0.200 A 
ATOM     86  F   UNL A   1      45.613  24.419  35.755  1.00  0.00    -0.200 F 
ATOM     87  F   UNL A   1      48.134  25.144  35.009  1.00  0.00    -0.200 F 
ENDBRANCH  63  77
BRANCH  64  88
ATOM     88  C   UNL A   1      36.920  31.350  29.086  1.00  0.00     0.064 A 
ATOM     89  C   UNL A   1      35.755  30.611  28.839  1.00  0.00     0.173 A 
ATOM     90  C   UNL A   1      36.928  32.700  28.701  1.00  0.00     0.173 A 
ATOM     91  F   UNL A   1      35.707  29.309  29.156  1.00  0.00    -0.203 F 
ATOM     92  C   UNL A   1      34.649  31.196  28.223  1.00  0.00     0.198 A 
ATOM     93  C   UNL A   1      35.813  33.289  28.112  1.00  0.00     0.198 A 
ATOM     94  F   UNL A   1      38.021  33.449  28.903  1.00  0.00    -0.203 F 
ATOM     95  F   UNL A   1      33.563  30.455  27.957  1.00  0.00    -0.200 F 
ATOM     96  C   UNL A   1      34.676  32.535  27.866  1.00  0.00     0.200 A 
ATOM     97  F   UNL A   1      35.841  34.586  27.776  1.00  0.00    -0.200 F 
ATOM     98  F   UNL A   1      33.611  33.097  27.277  1.00  0.00    -0.200 F 
ENDBRANCH  64  88
BRANCH  76  99
ATOM     99  C   UNL A   1      39.945  31.979  35.344  1.00  0.00     0.064 A 
ATOM    100  C   UNL A   1      38.983  31.577  36.281  1.00  0.00     0.173 A 
ATOM    101  C   UNL A   1      40.660  33.159  35.603  1.00  0.00     0.173 A 
ATOM    102  F   UNL A   1      38.265  30.463  36.074  1.00  0.00    -0.203 F 
ATOM    103  C   UNL A   1      38.737  32.332  37.425  1.00  0.00     0.198 A 
ATOM    104  C   UNL A   1      40.430  33.898  36.760  1.00  0.00     0.198 A 
ATOM    105  F   UNL A   1      41.598  33.584  34.742  1.00  0.00    -0.203 F 
ATOM    106  F   UNL A   1      37.788  31.946  38.289  1.00  0.00    -0.200 F 
ATOM    107  C   UNL A   1      39.465  33.486  37.667  1.00  0.00     0.200 A 
ATOM    108  F   UNL A   1      41.146  35.006  37.001  1.00  0.00    -0.200 F 
ATOM    109  F   UNL A   1      39.236  34.206  38.776  1.00  0.00    -0.200 F 
ENDBRANCH  76  99
ENDBRANCH  50  51
ENDBRANCH  43  45
ENDBRANCH  42  43
ENDBRANCH  41  42
ENDBRANCH  40  41
ENDBRANCH   1  40
TORSDOF 16
ENDMDL
MODEL 3
REMARK VINA RESULT:      -9.6      6.972     12.514
REMARK SMILES COC(=O)[C@H]1CC[C@]2(C)[C@H]3CC=C4[C@@H]5CC(C)(C)CC[C@@]5(C(=O)OCCOCCOC(=O)c5ccc(-c6c7nc(c(-c8c(F)c(F)c(F)c(F)c8F)c8ccc([nH]8)c(-c8c(F)c(F)c(F)c(F)c8F)c8nc(c(-c9c(F)c(F)c(F)c(F)c9F)c9ccc6[nH]9)C=C8)C=C7)cc5)CC[C@@]4(C)[C@@]3(C)CC[C@H]2C1(C)C
REMARK SMILES IDX 27 1 26 2 25 3 24 4 22 5 23 6 21 7 5 8 6 9 105 10 7 11
REMARK SMILES IDX 104 12 106 13 107 14 8 15 103 16 9 17 10 18 102 19 11 20
REMARK SMILES IDX 100 21 12 22 98 23 101 24 13 25 97 26 99 27 14 28 96 29
REMARK SMILES IDX 15 30 16 31 20 32 17 33 18 34 19 35 3 36 4 37 2 38 1 39
REMARK SMILES IDX 28 40 29 41 30 42 31 43 32 44 33 45 34 46 95 47 35 48 94 49
REMARK SMILES IDX 36 50 37 51 38 52 88 53 39 54 93 55 87 56 89 57 40 58 92 59
REMARK SMILES IDX 86 60 85 61 41 63 73 64 53 65 72 66 54 67 57 68 71 69 90 70
REMARK SMILES IDX 55 71 56 72 70 74 91 75 58 76 42 77 43 78 51 79 44 80 45 81
REMARK SMILES IDX 49 82 52 83 46 84 47 85 50 86 48 87 74 88 75 89 83 90 76 91
REMARK SMILES IDX 77 92 81 93 84 94 78 95 79 96 82 97 80 98 59 99 60 100
REMARK SMILES IDX 68 101 61 102 62 103 66 104 69 105 63 106 64 107 67 108
REMARK SMILES IDX 65 109
REMARK H PARENT 89 62 57 73
REMARK Flexibility Score: inf
ROOT
ATOM      1  O   UNL A   1      41.717  39.194  27.302  1.00  0.00    -0.374 OA
ENDROOT
BRANCH   1   2
ATOM      2  C   UNL A   1      41.185  40.433  26.878  1.00  0.00     0.202 C 
BRANCH   2   3
ATOM      3  C   UNL A   1      41.578  40.939  25.488  1.00  0.00     0.261 C 
BRANCH   3   4
ATOM      4  O   UNL A   1      42.459  42.080  25.378  1.00  0.00    -0.463 OA
BRANCH   4   5
ATOM      5  C   UNL A   1      43.781  42.099  25.080  1.00  0.00     0.312 C 
ATOM      6  O   UNL A   1      44.381  41.018  25.052  1.00  0.00    -0.252 OA
BRANCH   5   7
ATOM      7  C   UNL A   1      44.480  43.348  24.522  1.00  0.00     0.075 C 
ATOM      8  C   UNL A   1      50.550  46.311  20.680  1.00  0.00     0.105 C 
ATOM      9  C   UNL A   1      50.219  45.730  19.251  1.00  0.00     0.016 C 
ATOM     10  C   UNL A   1      49.520  46.027  21.843  1.00  0.00    -0.019 C 
ATOM     11  C   UNL A   1      48.781  45.209  18.936  1.00  0.00     0.008 C 
ATOM     12  C   UNL A   1      48.128  45.797  21.155  1.00  0.00     0.002 C 
ATOM     13  C   UNL A   1      49.931  44.877  22.809  1.00  0.00     0.012 C 
ATOM     14  C   UNL A   1      49.456  47.274  22.779  1.00  0.00     0.012 C 
ATOM     15  C   UNL A   1      48.098  44.563  20.183  1.00  0.00    -0.026 C 
ATOM     16  C   UNL A   1      46.938  45.976  22.066  1.00  0.00     0.005 C 
ATOM     17  C   UNL A   1      49.076  43.384  20.498  1.00  0.00     0.012 C 
ATOM     18  C   UNL A   1      46.620  43.958  19.828  1.00  0.00     0.006 C 
ATOM     19  C   UNL A   1      45.608  45.886  21.348  1.00  0.00     0.008 C 
ATOM     20  C   UNL A   1      46.562  42.384  20.009  1.00  0.00     0.032 C 
ATOM     21  C   UNL A   1      45.286  44.626  20.514  1.00  0.00    -0.020 C 
ATOM     22  C   UNL A   1      46.401  42.062  21.473  1.00  0.00    -0.027 C 
ATOM     23  C   UNL A   1      44.442  43.521  21.376  1.00  0.00    -0.006 C 
ATOM     24  C   UNL A   1      44.387  45.156  19.352  1.00  0.00     0.012 C 
ATOM     25  C   UNL A   1      45.521  42.786  22.191  1.00  0.00    -0.063 C 
ATOM     26  C   UNL A   1      43.254  43.954  22.295  1.00  0.00     0.013 C 
ATOM     27  C   UNL A   1      43.623  42.571  20.395  1.00  0.00     0.017 C 
ATOM     28  C   UNL A   1      45.736  43.155  23.682  1.00  0.00     0.033 C 
ATOM     29  C   UNL A   1      43.490  44.273  23.756  1.00  0.00     0.020 C 
ATOM     30  C   UNL A   1      46.959  42.604  24.484  1.00  0.00     0.015 C 
ATOM     31  C   UNL A   1      47.219  43.253  25.884  1.00  0.00    -0.035 C 
ATOM     32  C   UNL A   1      44.866  44.224  25.761  1.00  0.00     0.020 C 
ATOM     33  C   UNL A   1      48.015  42.270  26.767  1.00  0.00     0.011 C 
ATOM     34  C   UNL A   1      48.079  44.523  25.744  1.00  0.00     0.011 C 
ATOM     35  C   UNL A   1      45.923  43.592  26.640  1.00  0.00     0.007 C 
BRANCH   8  36
ATOM     36  C   UNL A   1      51.967  45.920  21.119  1.00  0.00     0.309 C 
ATOM     37  O   UNL A   1      52.487  44.826  20.951  1.00  0.00    -0.252 OA
BRANCH  36  38
ATOM     38  O   UNL A   1      52.524  46.934  21.844  1.00  0.00    -0.469 OA
ATOM     39  C   UNL A   1      53.261  46.504  22.989  1.00  0.00     0.282 C 
ENDBRANCH  36  38
ENDBRANCH   8  36
ENDBRANCH   5   7
ENDBRANCH   4   5
ENDBRANCH   3   4
ENDBRANCH   2   3
ENDBRANCH   1   2
BRANCH   1  40
ATOM     40  C   UNL A   1      43.056  39.195  27.788  1.00  0.00     0.202 C 
BRANCH  40  41
ATOM     41  C   UNL A   1      43.297  39.313  29.309  1.00  0.00     0.261 C 
BRANCH  41  42
ATOM     42  O   UNL A   1      43.513  38.056  29.993  1.00  0.00    -0.460 OA
BRANCH  42  43
ATOM     43  C   UNL A   1      44.804  37.680  30.181  1.00  0.00     0.338 C 
ATOM     44  O   UNL A   1      45.659  38.302  30.774  1.00  0.00    -0.246 OA
BRANCH  43  45
ATOM     45  C   UNL A   1      45.018  36.267  29.759  1.00  0.00     0.060 A 
ATOM     46  C   UNL A   1      44.579  35.912  28.474  1.00  0.00     0.016 A 
ATOM     47  C   UNL A   1      45.517  35.285  30.617  1.00  0.00     0.016 A 
ATOM     48  C   UNL A   1      44.543  34.574  28.078  1.00  0.00     0.010 A 
ATOM     49  C   UNL A   1      45.458  33.934  30.229  1.00  0.00     0.010 A 
ATOM     50  C   UNL A   1      44.913  33.570  28.982  1.00  0.00    -0.014 A 
BRANCH  50  51
ATOM     51  C   UNL A   1      44.438  32.180  28.728  1.00  0.00     0.031 A 
ATOM     52  C   UNL A   1      43.088  31.788  29.279  1.00  0.00     0.074 A 
ATOM     53  C   UNL A   1      45.121  31.308  27.965  1.00  0.00     0.049 A 
ATOM     54  N   UNL A   1      42.443  30.652  29.189  1.00  0.00    -0.248 NA
ATOM     55  C   UNL A   1      42.362  32.831  30.022  1.00  0.00     0.031 C 
ATOM     56  C   UNL A   1      46.396  31.577  27.308  1.00  0.00     0.029 A 
ATOM     57  N   UNL A   1      44.825  30.013  27.611  1.00  0.00    -0.354 N 
ATOM     58  C   UNL A   1      41.242  30.847  29.860  1.00  0.00     0.074 A 
ATOM     59  C   UNL A   1      41.255  32.197  30.375  1.00  0.00     0.031 C 
ATOM     60  C   UNL A   1      46.783  30.473  26.641  1.00  0.00     0.029 A 
ATOM     61  C   UNL A   1      45.797  29.412  26.848  1.00  0.00     0.049 A 
ATOM     62  H   UNL A   1      43.994  29.558  27.879  1.00  0.00     0.167 HD
ATOM     63  C   UNL A   1      40.212  29.984  30.028  1.00  0.00     0.037 A 
ATOM     64  C   UNL A   1      45.888  28.145  26.392  1.00  0.00     0.037 A 
ATOM     65  C   UNL A   1      40.193  28.636  29.530  1.00  0.00     0.049 A 
ATOM     66  C   UNL A   1      44.775  27.166  26.682  1.00  0.00     0.074 A 
ATOM     67  C   UNL A   1      39.199  27.683  29.654  1.00  0.00     0.029 A 
ATOM     68  N   UNL A   1      41.228  28.047  28.819  1.00  0.00    -0.354 N 
ATOM     69  N   UNL A   1      43.641  27.360  27.309  1.00  0.00    -0.248 NA
ATOM     70  C   UNL A   1      44.958  25.786  26.201  1.00  0.00     0.031 C 
ATOM     71  C   UNL A   1      39.653  26.499  29.063  1.00  0.00     0.029 A 
ATOM     72  C   UNL A   1      40.908  26.732  28.525  1.00  0.00     0.049 A 
ATOM     73  H   UNL A   1      42.064  28.497  28.562  1.00  0.00     0.167 HD
ATOM     74  C   UNL A   1      42.970  26.144  27.281  1.00  0.00     0.074 A 
ATOM     75  C   UNL A   1      43.817  25.216  26.561  1.00  0.00     0.031 C 
ATOM     76  C   UNL A   1      41.761  25.822  27.804  1.00  0.00     0.037 A 
BRANCH  63  77
ATOM     77  C   UNL A   1      39.033  30.467  30.819  1.00  0.00     0.064 A 
ATOM     78  C   UNL A   1      38.966  30.313  32.213  1.00  0.00     0.173 A 
ATOM     79  C   UNL A   1      37.961  31.104  30.176  1.00  0.00     0.173 A 
ATOM     80  F   UNL A   1      39.958  29.695  32.872  1.00  0.00    -0.203 F 
ATOM     81  C   UNL A   1      37.856  30.754  32.929  1.00  0.00     0.198 A 
ATOM     82  C   UNL A   1      36.865  31.567  30.899  1.00  0.00     0.198 A 
ATOM     83  F   UNL A   1      37.977  31.277  28.846  1.00  0.00    -0.203 F 
ATOM     84  F   UNL A   1      37.791  30.553  34.252  1.00  0.00    -0.200 F 
ATOM     85  C   UNL A   1      36.810  31.386  32.273  1.00  0.00     0.200 A 
ATOM     86  F   UNL A   1      35.860  32.186  30.264  1.00  0.00    -0.200 F 
ATOM     87  F   UNL A   1      35.743  31.812  32.963  1.00  0.00    -0.200 F 
ENDBRANCH  63  77
BRANCH  64  88
ATOM     88  C   UNL A   1      47.097  27.711  25.640  1.00  0.00     0.064 A 
ATOM     89  C   UNL A   1      48.247  27.262  26.301  1.00  0.00     0.173 A 
ATOM     90  C   UNL A   1      47.133  27.769  24.238  1.00  0.00     0.173 A 
ATOM     91  F   UNL A   1      48.277  27.220  27.642  1.00  0.00    -0.203 F 
ATOM     92  C   UNL A   1      49.391  26.896  25.591  1.00  0.00     0.198 A 
ATOM     93  C   UNL A   1      48.265  27.377  23.528  1.00  0.00     0.198 A 
ATOM     94  F   UNL A   1      46.064  28.203  23.556  1.00  0.00    -0.203 F 
ATOM     95  F   UNL A   1      50.494  26.513  26.250  1.00  0.00    -0.200 F 
ATOM     96  C   UNL A   1      49.396  26.947  24.205  1.00  0.00     0.200 A 
ATOM     97  F   UNL A   1      48.263  27.421  22.189  1.00  0.00    -0.200 F 
ATOM     98  F   UNL A   1      50.494  26.593  23.522  1.00  0.00    -0.200 F 
ENDBRANCH  64  88
BRANCH  76  99
ATOM     99  C   UNL A   1      41.264  24.420  27.604  1.00  0.00     0.064 A 
ATOM    100  C   UNL A   1      40.204  24.133  26.733  1.00  0.00     0.173 A 
ATOM    101  C   UNL A   1      41.902  23.343  28.240  1.00  0.00     0.173 A 
ATOM    102  F   UNL A   1      39.556  25.128  26.110  1.00  0.00    -0.203 F 
ATOM    103  C   UNL A   1      39.790  22.821  26.517  1.00  0.00     0.198 A 
ATOM    104  C   UNL A   1      41.501  22.031  28.002  1.00  0.00     0.198 A 
ATOM    105  F   UNL A   1      42.927  23.562  29.078  1.00  0.00    -0.203 F 
ATOM    106  F   UNL A   1      38.751  22.574  25.706  1.00  0.00    -0.200 F 
ATOM    107  C   UNL A   1      40.443  21.772  27.144  1.00  0.00     0.200 A 
ATOM    108  F   UNL A   1      42.144  21.016  28.598  1.00  0.00    -0.200 F 
ATOM    109  F   UNL A   1      40.051  20.508  26.925  1.00  0.00    -0.200 F 
ENDBRANCH  76  99
ENDBRANCH  50  51
ENDBRANCH  43  45
ENDBRANCH  42  43
ENDBRANCH  41  42
ENDBRANCH  40  41
ENDBRANCH   1  40
TORSDOF 16
ENDMDL
