MODEL 1
REMARK VINA RESULT:     -13.3      0.000      0.000
REMARK SMILES CC1CC[NH+]([C@H](c2ccc(F)cc2)c2ccc([C@@H](C)C(=O)OCCOCCOC(=O)c3ccc(-c4c5nc(c(-c6c(F)c(F)c(F)c(F)c6F)c6ccc([nH]6)c(-c6c(F)c(F)c(F)c(F)c6F)c6nc(c(-c7c(F)c(F)c(F)c(F)c7F)c7ccc4[nH]7)C=C6)C=C5)cc3)cc2-c2ccc(C(F)(F)F)cc2)CC1
REMARK SMILES IDX 24 1 23 2 22 3 20 4 21 5 18 6 19 7 17 8 14 9 15 10 95 11
REMARK SMILES IDX 16 12 94 13 6 14 5 15 1 16 2 17 3 18 107 19 4 20 106 21 7 23
REMARK SMILES IDX 8 24 13 25 9 26 12 27 10 28 11 29 96 30 97 31 105 32 98 33
REMARK SMILES IDX 104 34 99 35 100 36 101 37 102 38 103 39 25 40 26 41 27 42
REMARK SMILES IDX 28 43 29 44 30 45 31 46 32 47 93 48 33 49 92 50 34 51 35 52
REMARK SMILES IDX 36 53 86 54 37 55 91 56 85 57 87 58 38 59 90 60 84 61 83 62
REMARK SMILES IDX 39 64 71 65 51 66 70 67 52 68 55 69 69 70 88 71 53 72 54 73
REMARK SMILES IDX 68 75 89 76 56 77 40 78 41 79 49 80 42 81 43 82 47 83 50 84
REMARK SMILES IDX 44 85 45 86 48 87 46 88 72 89 73 90 81 91 74 92 75 93 79 94
REMARK SMILES IDX 82 95 76 96 77 97 80 98 78 99 57 100 58 101 66 102 59 103
REMARK SMILES IDX 60 104 64 105 67 106 61 107 62 108 65 109 63 110
REMARK H PARENT 5 22 87 63 55 74
REMARK Flexibility Score: inf
ROOT
ATOM      1  C   UNL A   1      42.940  19.428  25.721  1.00  0.00     0.202 C 
ENDROOT
BRANCH   1   2
ATOM      2  C   UNL A   1      41.502  19.796  26.094  1.00  0.00     0.261 C 
BRANCH   2   3
ATOM      3  O   UNL A   1      41.258  21.193  25.841  1.00  0.00    -0.463 OA
BRANCH   3   4
ATOM      4  C   UNL A   1      40.376  21.814  26.667  1.00  0.00     0.313 C 
ATOM      5  O   UNL A   1      40.315  21.627  27.878  1.00  0.00    -0.252 OA
BRANCH   4   6
ATOM      6  C   UNL A   1      39.407  22.739  25.940  1.00  0.00     0.126 C 
ATOM      7  C   UNL A   1      39.260  24.035  26.735  1.00  0.00     0.025 C 
BRANCH   6   8
ATOM      8  C   UNL A   1      38.054  22.166  25.530  1.00  0.00    -0.033 A 
ATOM      9  C   UNL A   1      35.415  21.211  24.876  1.00  0.00     0.022 A 
ATOM     10  C   UNL A   1      36.407  20.379  25.433  1.00  0.00     0.011 A 
ATOM     11  C   UNL A   1      35.789  22.557  24.598  1.00  0.00    -0.009 A 
ATOM     12  C   UNL A   1      37.684  20.846  25.776  1.00  0.00     0.005 A 
ATOM     13  C   UNL A   1      37.098  22.999  24.924  1.00  0.00     0.013 A 
BRANCH   9  14
ATOM     14  C   UNL A   1      33.961  20.704  24.611  1.00  0.00     0.247 C 
BRANCH  14  15
ATOM     15  N   UNL A   1      32.813  21.393  25.288  1.00  0.00    -0.325 N 
ATOM     16  C   UNL A   1      30.445  24.855  26.621  1.00  0.00     0.008 C 
ATOM     17  C   UNL A   1      31.456  23.882  26.025  1.00  0.00    -0.003 C 
ATOM     18  C   UNL A   1      30.818  22.943  25.002  1.00  0.00     0.065 C 
ATOM     19  C   UNL A   1      32.079  23.004  27.103  1.00  0.00     0.065 C 
ATOM     20  C   UNL A   1      31.866  22.022  24.363  1.00  0.00     0.263 C 
ATOM     21  C   UNL A   1      33.167  22.115  26.506  1.00  0.00     0.263 C 
ATOM     22  H   UNL A   1      32.237  20.651  25.685  1.00  0.00     0.348 HD
ENDBRANCH  14  15
BRANCH  14  23
ATOM     23  C   UNL A   1      33.821  19.173  24.706  1.00  0.00     0.014 A 
ATOM     24  C   UNL A   1      34.775  18.304  24.141  1.00  0.00     0.013 A 
ATOM     25  C   UNL A   1      32.727  18.612  25.393  1.00  0.00     0.013 A 
ATOM     26  C   UNL A   1      34.632  16.920  24.248  1.00  0.00     0.040 A 
ATOM     27  C   UNL A   1      32.576  17.226  25.482  1.00  0.00     0.040 A 
ATOM     28  C   UNL A   1      33.530  16.395  24.911  1.00  0.00     0.123 A 
ATOM     29  F   UNL A   1      33.391  15.067  25.007  1.00  0.00    -0.207 F 
ENDBRANCH  14  23
ENDBRANCH   9  14
BRANCH  11  30
ATOM     30  C   UNL A   1      34.889  23.540  23.963  1.00  0.00    -0.018 A 
ATOM     31  C   UNL A   1      34.351  23.286  22.690  1.00  0.00     0.009 A 
ATOM     32  C   UNL A   1      34.550  24.744  24.596  1.00  0.00     0.009 A 
ATOM     33  C   UNL A   1      33.465  24.184  22.089  1.00  0.00     0.014 A 
ATOM     34  C   UNL A   1      33.654  25.640  24.002  1.00  0.00     0.014 A 
ATOM     35  C   UNL A   1      33.091  25.362  22.749  1.00  0.00     0.056 A 
BRANCH  35  36
ATOM     36  C   UNL A   1      32.111  26.311  22.103  1.00  0.00     0.416 C 
ATOM     37  F   UNL A   1      30.947  26.412  22.803  1.00  0.00    -0.166 F 
ATOM     38  F   UNL A   1      32.597  27.579  21.998  1.00  0.00    -0.166 F 
ATOM     39  F   UNL A   1      31.757  25.945  20.838  1.00  0.00    -0.166 F 
ENDBRANCH  35  36
ENDBRANCH  11  30
ENDBRANCH   6   8
ENDBRANCH   4   6
ENDBRANCH   3   4
ENDBRANCH   2   3
ENDBRANCH   1   2
BRANCH   1  40
ATOM     40  O   UNL A   1      43.578  20.306  24.794  1.00  0.00    -0.374 OA
BRANCH  40  41
ATOM     41  C   UNL A   1      44.966  20.561  25.002  1.00  0.00     0.202 C 
BRANCH  41  42
ATOM     42  C   UNL A   1      45.305  21.905  25.653  1.00  0.00     0.261 C 
BRANCH  42  43
ATOM     43  O   UNL A   1      44.196  22.822  25.626  1.00  0.00    -0.460 OA
BRANCH  43  44
ATOM     44  C   UNL A   1      44.528  24.121  25.440  1.00  0.00     0.338 C 
ATOM     45  O   UNL A   1      45.283  24.581  24.594  1.00  0.00    -0.246 OA
BRANCH  44  46
ATOM     46  C   UNL A   1      43.731  24.979  26.338  1.00  0.00     0.060 A 
ATOM     47  C   UNL A   1      43.993  26.352  26.356  1.00  0.00     0.016 A 
ATOM     48  C   UNL A   1      42.779  24.438  27.200  1.00  0.00     0.016 A 
ATOM     49  C   UNL A   1      43.339  27.176  27.275  1.00  0.00     0.010 A 
ATOM     50  C   UNL A   1      42.113  25.261  28.110  1.00  0.00     0.010 A 
ATOM     51  C   UNL A   1      42.422  26.627  28.183  1.00  0.00    -0.014 A 
BRANCH  51  52
ATOM     52  C   UNL A   1      41.894  27.448  29.299  1.00  0.00     0.031 A 
ATOM     53  C   UNL A   1      42.595  27.415  30.630  1.00  0.00     0.074 A 
ATOM     54  C   UNL A   1      40.806  28.218  29.132  1.00  0.00     0.049 A 
ATOM     55  N   UNL A   1      42.303  28.046  31.739  1.00  0.00    -0.248 NA
ATOM     56  C   UNL A   1      43.780  26.547  30.727  1.00  0.00     0.031 C 
ATOM     57  C   UNL A   1      40.039  28.334  27.893  1.00  0.00     0.029 A 
ATOM     58  N   UNL A   1      40.154  29.047  30.011  1.00  0.00    -0.354 N 
ATOM     59  C   UNL A   1      43.262  27.650  32.661  1.00  0.00     0.074 A 
ATOM     60  C   UNL A   1      44.119  26.693  31.999  1.00  0.00     0.031 C 
ATOM     61  C   UNL A   1      39.023  29.190  28.090  1.00  0.00     0.029 A 
ATOM     62  C   UNL A   1      39.053  29.664  29.474  1.00  0.00     0.049 A 
ATOM     63  H   UNL A   1      40.450  29.184  30.941  1.00  0.00     0.167 HD
ATOM     64  C   UNL A   1      43.426  28.065  33.940  1.00  0.00     0.037 A 
ATOM     65  C   UNL A   1      38.167  30.510  30.035  1.00  0.00     0.037 A 
ATOM     66  C   UNL A   1      42.583  29.032  34.593  1.00  0.00     0.049 A 
ATOM     67  C   UNL A   1      38.345  30.929  31.469  1.00  0.00     0.074 A 
ATOM     68  C   UNL A   1      42.700  29.554  35.868  1.00  0.00     0.029 A 
ATOM     69  N   UNL A   1      41.462  29.616  34.021  1.00  0.00    -0.354 N 
ATOM     70  N   UNL A   1      39.282  30.587  32.319  1.00  0.00    -0.248 NA
ATOM     71  C   UNL A   1      37.346  31.857  32.021  1.00  0.00     0.031 C 
ATOM     72  C   UNL A   1      41.621  30.415  36.088  1.00  0.00     0.029 A 
ATOM     73  C   UNL A   1      40.861  30.471  34.930  1.00  0.00     0.049 A 
ATOM     74  H   UNL A   1      41.141  29.447  33.106  1.00  0.00     0.167 HD
ATOM     75  C   UNL A   1      39.000  31.267  33.496  1.00  0.00     0.074 A 
ATOM     76  C   UNL A   1      37.808  32.051  33.250  1.00  0.00     0.031 C 
ATOM     77  C   UNL A   1      39.672  31.245  34.674  1.00  0.00     0.037 A 
BRANCH  64  78
ATOM     78  C   UNL A   1      44.561  27.476  34.724  1.00  0.00     0.064 A 
ATOM     79  C   UNL A   1      44.370  26.318  35.491  1.00  0.00     0.173 A 
ATOM     80  C   UNL A   1      45.824  28.088  34.762  1.00  0.00     0.173 A 
ATOM     81  F   UNL A   1      43.180  25.698  35.494  1.00  0.00    -0.203 F 
ATOM     82  C   UNL A   1      45.398  25.797  36.272  1.00  0.00     0.198 A 
ATOM     83  C   UNL A   1      46.857  27.549  35.523  1.00  0.00     0.198 A 
ATOM     84  F   UNL A   1      46.060  29.191  34.037  1.00  0.00    -0.203 F 
ATOM     85  F   UNL A   1      45.183  24.704  37.017  1.00  0.00    -0.200 F 
ATOM     86  C   UNL A   1      46.641  26.410  36.284  1.00  0.00     0.200 A 
ATOM     87  F   UNL A   1      48.066  28.128  35.513  1.00  0.00    -0.200 F 
ATOM     88  F   UNL A   1      47.635  25.899  37.025  1.00  0.00    -0.200 F 
ENDBRANCH  64  78
BRANCH  65  89
ATOM     89  C   UNL A   1      37.046  31.032  29.215  1.00  0.00     0.064 A 
ATOM     90  C   UNL A   1      37.033  32.359  28.762  1.00  0.00     0.173 A 
ATOM     91  C   UNL A   1      35.941  30.226  28.909  1.00  0.00     0.173 A 
ATOM     92  F   UNL A   1      38.066  33.170  29.031  1.00  0.00    -0.203 F 
ATOM     93  C   UNL A   1      35.944  32.868  28.058  1.00  0.00     0.198 A 
ATOM     94  C   UNL A   1      34.862  30.730  28.185  1.00  0.00     0.198 A 
ATOM     95  F   UNL A   1      35.919  28.944  29.303  1.00  0.00    -0.203 F 
ATOM     96  F   UNL A   1      35.939  34.151  27.672  1.00  0.00    -0.200 F 
ATOM     97  C   UNL A   1      34.860  32.053  27.770  1.00  0.00     0.200 A 
ATOM     98  F   UNL A   1      33.825  29.934  27.892  1.00  0.00    -0.200 F 
ATOM     99  F   UNL A   1      33.813  32.543  27.092  1.00  0.00    -0.200 F 
ENDBRANCH  65  89
BRANCH  77 100
ATOM    100  C   UNL A   1      39.152  32.097  35.794  1.00  0.00     0.064 A 
ATOM    101  C   UNL A   1      39.618  33.410  35.964  1.00  0.00     0.173 A 
ATOM    102  C   UNL A   1      38.266  31.586  36.753  1.00  0.00     0.173 A 
ATOM    103  F   UNL A   1      40.475  33.943  35.079  1.00  0.00    -0.203 F 
ATOM    104  C   UNL A   1      39.231  34.173  37.062  1.00  0.00     0.198 A 
ATOM    105  C   UNL A   1      37.859  32.360  37.836  1.00  0.00     0.198 A 
ATOM    106  F   UNL A   1      37.785  30.340  36.628  1.00  0.00    -0.203 F 
ATOM    107  F   UNL A   1      39.718  35.410  37.223  1.00  0.00    -0.200 F 
ATOM    108  C   UNL A   1      38.350  33.648  37.996  1.00  0.00     0.200 A 
ATOM    109  F   UNL A   1      36.992  31.859  38.727  1.00  0.00    -0.200 F 
ATOM    110  F   UNL A   1      37.973  34.384  39.050  1.00  0.00    -0.200 F 
ENDBRANCH  77 100
ENDBRANCH  51  52
ENDBRANCH  44  46
ENDBRANCH  43  44
ENDBRANCH  42  43
ENDBRANCH  41  42
ENDBRANCH  40  41
ENDBRANCH   1  40
TORSDOF 20
ENDMDL
MODEL 2
REMARK VINA RESULT:     -12.3      7.188     13.355
REMARK SMILES CC1CC[NH+]([C@H](c2ccc(F)cc2)c2ccc([C@@H](C)C(=O)OCCOCCOC(=O)c3ccc(-c4c5nc(c(-c6c(F)c(F)c(F)c(F)c6F)c6ccc([nH]6)c(-c6c(F)c(F)c(F)c(F)c6F)c6nc(c(-c7c(F)c(F)c(F)c(F)c7F)c7ccc4[nH]7)C=C6)C=C5)cc3)cc2-c2ccc(C(F)(F)F)cc2)CC1
REMARK SMILES IDX 24 1 23 2 22 3 20 4 21 5 18 6 19 7 17 8 14 9 15 10 95 11
REMARK SMILES IDX 16 12 94 13 6 14 5 15 1 16 2 17 3 18 107 19 4 20 106 21 7 23
REMARK SMILES IDX 8 24 13 25 9 26 12 27 10 28 11 29 96 30 97 31 105 32 98 33
REMARK SMILES IDX 104 34 99 35 100 36 101 37 102 38 103 39 25 40 26 41 27 42
REMARK SMILES IDX 28 43 29 44 30 45 31 46 32 47 93 48 33 49 92 50 34 51 35 52
REMARK SMILES IDX 36 53 86 54 37 55 91 56 85 57 87 58 38 59 90 60 84 61 83 62
REMARK SMILES IDX 39 64 71 65 51 66 70 67 52 68 55 69 69 70 88 71 53 72 54 73
REMARK SMILES IDX 68 75 89 76 56 77 40 78 41 79 49 80 42 81 43 82 47 83 50 84
REMARK SMILES IDX 44 85 45 86 48 87 46 88 72 89 73 90 81 91 74 92 75 93 79 94
REMARK SMILES IDX 82 95 76 96 77 97 80 98 78 99 57 100 58 101 66 102 59 103
REMARK SMILES IDX 60 104 64 105 67 106 61 107 62 108 65 109 63 110
REMARK H PARENT 5 22 87 63 55 74
REMARK Flexibility Score: inf
ROOT
ATOM      1  C   UNL A   1      38.810  31.929  41.635  1.00  0.00     0.202 C 
ENDROOT
BRANCH   1   2
ATOM      2  C   UNL A   1      37.442  31.336  41.291  1.00  0.00     0.261 C 
BRANCH   2   3
ATOM      3  O   UNL A   1      36.889  31.983  40.130  1.00  0.00    -0.463 OA
BRANCH   3   4
ATOM      4  C   UNL A   1      37.210  31.446  38.924  1.00  0.00     0.313 C 
ATOM      5  O   UNL A   1      36.879  30.322  38.559  1.00  0.00    -0.252 OA
BRANCH   4   6
ATOM      6  C   UNL A   1      38.085  32.351  38.066  1.00  0.00     0.126 C 
ATOM      7  C   UNL A   1      37.725  33.808  38.347  1.00  0.00     0.025 C 
BRANCH   6   8
ATOM      8  C   UNL A   1      38.151  32.060  36.569  1.00  0.00    -0.033 A 
ATOM      9  C   UNL A   1      38.092  31.449  33.753  1.00  0.00     0.022 A 
ATOM     10  C   UNL A   1      38.993  30.831  34.645  1.00  0.00     0.011 A 
ATOM     11  C   UNL A   1      37.228  32.441  34.299  1.00  0.00    -0.009 A 
ATOM     12  C   UNL A   1      39.007  31.108  36.020  1.00  0.00     0.005 A 
ATOM     13  C   UNL A   1      37.283  32.726  35.688  1.00  0.00     0.013 A 
BRANCH   9  14
ATOM     14  C   UNL A   1      38.008  31.043  32.247  1.00  0.00     0.247 C 
BRANCH  14  15
ATOM     15  N   UNL A   1      38.654  29.765  31.798  1.00  0.00    -0.325 N 
ATOM     16  C   UNL A   1      40.510  27.021  28.902  1.00  0.00     0.008 C 
ATOM     17  C   UNL A   1      39.853  28.174  29.652  1.00  0.00    -0.003 C 
ATOM     18  C   UNL A   1      40.728  28.690  30.794  1.00  0.00     0.065 C 
ATOM     19  C   UNL A   1      38.527  27.749  30.268  1.00  0.00     0.065 C 
ATOM     20  C   UNL A   1      40.080  29.896  31.489  1.00  0.00     0.263 C 
ATOM     21  C   UNL A   1      37.832  28.942  30.918  1.00  0.00     0.263 C 
ATOM     22  H   UNL A   1      38.686  29.164  32.622  1.00  0.00     0.348 HD
ENDBRANCH  14  15
BRANCH  14  23
ATOM     23  C   UNL A   1      38.340  32.198  31.283  1.00  0.00     0.014 A 
ATOM     24  C   UNL A   1      37.606  32.411  30.100  1.00  0.00     0.013 A 
ATOM     25  C   UNL A   1      39.387  33.087  31.591  1.00  0.00     0.013 A 
ATOM     26  C   UNL A   1      37.919  33.470  29.247  1.00  0.00     0.040 A 
ATOM     27  C   UNL A   1      39.712  34.134  30.726  1.00  0.00     0.040 A 
ATOM     28  C   UNL A   1      38.973  34.316  29.565  1.00  0.00     0.123 A 
ATOM     29  F   UNL A   1      39.276  35.328  28.741  1.00  0.00    -0.207 F 
ENDBRANCH  14  23
ENDBRANCH   9  14
BRANCH  11  30
ATOM     30  C   UNL A   1      36.268  33.220  33.493  1.00  0.00    -0.018 A 
ATOM     31  C   UNL A   1      35.153  32.588  32.916  1.00  0.00     0.009 A 
ATOM     32  C   UNL A   1      36.435  34.595  33.275  1.00  0.00     0.009 A 
ATOM     33  C   UNL A   1      34.211  33.315  32.184  1.00  0.00     0.014 A 
ATOM     34  C   UNL A   1      35.487  35.328  32.552  1.00  0.00     0.014 A 
ATOM     35  C   UNL A   1      34.357  34.698  32.012  1.00  0.00     0.056 A 
BRANCH  35  36
ATOM     36  C   UNL A   1      33.317  35.477  31.244  1.00  0.00     0.416 C 
ATOM     37  F   UNL A   1      33.702  36.761  31.004  1.00  0.00    -0.166 F 
ATOM     38  F   UNL A   1      33.047  34.934  30.025  1.00  0.00    -0.166 F 
ATOM     39  F   UNL A   1      32.118  35.559  31.886  1.00  0.00    -0.166 F 
ENDBRANCH  35  36
ENDBRANCH  11  30
ENDBRANCH   6   8
ENDBRANCH   4   6
ENDBRANCH   3   4
ENDBRANCH   2   3
ENDBRANCH   1   2
BRANCH   1  40
ATOM     40  O   UNL A   1      38.890  33.354  41.585  1.00  0.00    -0.374 OA
BRANCH  40  41
ATOM     41  C   UNL A   1      40.114  33.911  41.111  1.00  0.00     0.202 C 
BRANCH  41  42
ATOM     42  C   UNL A   1      40.046  35.370  40.648  1.00  0.00     0.261 C 
BRANCH  42  43
ATOM     43  O   UNL A   1      40.986  35.655  39.596  1.00  0.00    -0.460 OA
BRANCH  43  44
ATOM     44  C   UNL A   1      40.462  36.265  38.507  1.00  0.00     0.338 C 
ATOM     45  O   UNL A   1      39.723  37.240  38.485  1.00  0.00    -0.246 OA
BRANCH  44  46
ATOM     46  C   UNL A   1      41.023  35.671  37.278  1.00  0.00     0.060 A 
ATOM     47  C   UNL A   1      40.139  35.217  36.293  1.00  0.00     0.016 A 
ATOM     48  C   UNL A   1      42.397  35.501  37.116  1.00  0.00     0.016 A 
ATOM     49  C   UNL A   1      40.630  34.546  35.171  1.00  0.00     0.010 A 
ATOM     50  C   UNL A   1      42.891  34.842  35.989  1.00  0.00     0.010 A 
ATOM     51  C   UNL A   1      42.007  34.321  35.032  1.00  0.00    -0.014 A 
BRANCH  51  52
ATOM     52  C   UNL A   1      42.514  33.423  33.966  1.00  0.00     0.031 A 
ATOM     53  C   UNL A   1      42.874  34.006  32.627  1.00  0.00     0.074 A 
ATOM     54  C   UNL A   1      42.658  32.106  34.187  1.00  0.00     0.049 A 
ATOM     55  N   UNL A   1      43.327  33.407  31.555  1.00  0.00    -0.248 NA
ATOM     56  C   UNL A   1      42.688  35.458  32.470  1.00  0.00     0.031 C 
ATOM     57  C   UNL A   1      42.344  31.424  35.440  1.00  0.00     0.029 A 
ATOM     58  N   UNL A   1      43.104  31.106  33.359  1.00  0.00    -0.354 N 
ATOM     59  C   UNL A   1      43.478  34.405  30.601  1.00  0.00     0.074 A 
ATOM     60  C   UNL A   1      43.027  35.640  31.203  1.00  0.00     0.031 C 
ATOM     61  C   UNL A   1      42.612  30.115  35.300  1.00  0.00     0.029 A 
ATOM     62  C   UNL A   1      43.094  29.864  33.942  1.00  0.00     0.049 A 
ATOM     63  H   UNL A   1      43.402  31.266  32.434  1.00  0.00     0.167 HD
ATOM     64  C   UNL A   1      43.969  34.303  29.344  1.00  0.00     0.037 A 
ATOM     65  C   UNL A   1      43.430  28.661  33.436  1.00  0.00     0.037 A 
ATOM     66  C   UNL A   1      44.435  33.077  28.751  1.00  0.00     0.049 A 
ATOM     67  C   UNL A   1      43.938  28.564  32.023  1.00  0.00     0.074 A 
ATOM     68  C   UNL A   1      44.997  32.883  27.503  1.00  0.00     0.029 A 
ATOM     69  N   UNL A   1      44.385  31.835  29.367  1.00  0.00    -0.354 N 
ATOM     70  N   UNL A   1      44.121  29.519  31.145  1.00  0.00    -0.248 NA
ATOM     71  C   UNL A   1      44.290  27.223  31.532  1.00  0.00     0.031 C 
ATOM     72  C   UNL A   1      45.241  31.516  27.341  1.00  0.00     0.029 A 
ATOM     73  C   UNL A   1      44.880  30.864  28.510  1.00  0.00     0.049 A 
ATOM     74  H   UNL A   1      44.048  31.667  30.277  1.00  0.00     0.167 HD
ATOM     75  C   UNL A   1      44.627  28.903  30.007  1.00  0.00     0.074 A 
ATOM     76  C   UNL A   1      44.730  27.490  30.309  1.00  0.00     0.031 C 
ATOM     77  C   UNL A   1      44.975  29.460  28.821  1.00  0.00     0.037 A 
BRANCH  64  78
ATOM     78  C   UNL A   1      44.030  35.552  28.515  1.00  0.00     0.064 A 
ATOM     79  C   UNL A   1      45.209  36.308  28.453  1.00  0.00     0.173 A 
ATOM     80  C   UNL A   1      42.906  36.033  27.827  1.00  0.00     0.173 A 
ATOM     81  F   UNL A   1      46.311  35.896  29.098  1.00  0.00    -0.203 F 
ATOM     82  C   UNL A   1      45.260  37.502  27.739  1.00  0.00     0.198 A 
ATOM     83  C   UNL A   1      42.966  37.213  27.091  1.00  0.00     0.198 A 
ATOM     84  F   UNL A   1      41.757  35.340  27.846  1.00  0.00    -0.203 F 
ATOM     85  F   UNL A   1      46.391  38.220  27.716  1.00  0.00    -0.200 F 
ATOM     86  C   UNL A   1      44.141  37.951  27.055  1.00  0.00     0.200 A 
ATOM     87  F   UNL A   1      41.891  37.632  26.409  1.00  0.00    -0.200 F 
ATOM     88  F   UNL A   1      44.194  39.093  26.355  1.00  0.00    -0.200 F 
ENDBRANCH  64  78
BRANCH  65  89
ATOM     89  C   UNL A   1      43.316  27.457  34.297  1.00  0.00     0.064 A 
ATOM     90  C   UNL A   1      44.451  26.861  34.866  1.00  0.00     0.173 A 
ATOM     91  C   UNL A   1      42.074  26.851  34.526  1.00  0.00     0.173 A 
ATOM     92  F   UNL A   1      45.662  27.402  34.673  1.00  0.00    -0.203 F 
ATOM     93  C   UNL A   1      44.350  25.687  35.609  1.00  0.00     0.198 A 
ATOM     94  C   UNL A   1      41.971  25.689  35.289  1.00  0.00     0.198 A 
ATOM     95  F   UNL A   1      40.960  27.398  34.019  1.00  0.00    -0.203 F 
ATOM     96  F   UNL A   1      45.454  25.116  36.109  1.00  0.00    -0.200 F 
ATOM     97  C   UNL A   1      43.110  25.103  35.821  1.00  0.00     0.200 A 
ATOM     98  F   UNL A   1      40.770  25.138  35.507  1.00  0.00    -0.200 F 
ATOM     99  F   UNL A   1      43.013  23.975  36.537  1.00  0.00    -0.200 F 
ENDBRANCH  65  89
BRANCH  77 100
ATOM    100  C   UNL A   1      45.514  28.555  27.753  1.00  0.00     0.064 A 
ATOM    101  C   UNL A   1      46.899  28.428  27.560  1.00  0.00     0.173 A 
ATOM    102  C   UNL A   1      44.664  27.888  26.861  1.00  0.00     0.173 A 
ATOM    103  F   UNL A   1      47.756  29.054  28.381  1.00  0.00    -0.203 F 
ATOM    104  C   UNL A   1      47.411  27.682  26.503  1.00  0.00     0.198 A 
ATOM    105  C   UNL A   1      45.179  27.120  25.820  1.00  0.00     0.198 A 
ATOM    106  F   UNL A   1      43.333  27.969  27.010  1.00  0.00    -0.203 F 
ATOM    107  F   UNL A   1      48.735  27.606  26.316  1.00  0.00    -0.200 F 
ATOM    108  C   UNL A   1      46.550  27.027  25.635  1.00  0.00     0.200 A 
ATOM    109  F   UNL A   1      44.346  26.470  24.993  1.00  0.00    -0.200 F 
ATOM    110  F   UNL A   1      47.043  26.304  24.620  1.00  0.00    -0.200 F 
ENDBRANCH  77 100
ENDBRANCH  51  52
ENDBRANCH  44  46
ENDBRANCH  43  44
ENDBRANCH  42  43
ENDBRANCH  41  42
ENDBRANCH  40  41
ENDBRANCH   1  40
TORSDOF 20
ENDMDL
MODEL 3
REMARK VINA RESULT:     -12.2      0.822      6.723
REMARK SMILES CC1CC[NH+]([C@H](c2ccc(F)cc2)c2ccc([C@@H](C)C(=O)OCCOCCOC(=O)c3ccc(-c4c5nc(c(-c6c(F)c(F)c(F)c(F)c6F)c6ccc([nH]6)c(-c6c(F)c(F)c(F)c(F)c6F)c6nc(c(-c7c(F)c(F)c(F)c(F)c7F)c7ccc4[nH]7)C=C6)C=C5)cc3)cc2-c2ccc(C(F)(F)F)cc2)CC1
REMARK SMILES IDX 24 1 23 2 22 3 20 4 21 5 18 6 19 7 17 8 14 9 15 10 95 11
REMARK SMILES IDX 16 12 94 13 6 14 5 15 1 16 2 17 3 18 107 19 4 20 106 21 7 23
REMARK SMILES IDX 8 24 13 25 9 26 12 27 10 28 11 29 96 30 97 31 105 32 98 33
REMARK SMILES IDX 104 34 99 35 100 36 101 37 102 38 103 39 25 40 26 41 27 42
REMARK SMILES IDX 28 43 29 44 30 45 31 46 32 47 93 48 33 49 92 50 34 51 35 52
REMARK SMILES IDX 36 53 86 54 37 55 91 56 85 57 87 58 38 59 90 60 84 61 83 62
REMARK SMILES IDX 39 64 71 65 51 66 70 67 52 68 55 69 69 70 88 71 53 72 54 73
REMARK SMILES IDX 68 75 89 76 56 77 40 78 41 79 49 80 42 81 43 82 47 83 50 84
REMARK SMILES IDX 44 85 45 86 48 87 46 88 72 89 73 90 81 91 74 92 75 93 79 94
REMARK SMILES IDX 82 95 76 96 77 97 80 98 78 99 57 100 58 101 66 102 59 103
REMARK SMILES IDX 60 104 64 105 67 106 61 107 62 108 65 109 63 110
REMARK H PARENT 5 22 87 63 55 74
REMARK Flexibility Score: inf
ROOT
ATOM      1  C   UNL A   1      43.066  19.832  26.125  1.00  0.00     0.202 C 
ENDROOT
BRANCH   1   2
ATOM      2  C   UNL A   1      41.537  19.898  26.130  1.00  0.00     0.261 C 
BRANCH   2   3
ATOM      3  O   UNL A   1      41.086  21.181  25.658  1.00  0.00    -0.463 OA
BRANCH   3   4
ATOM      4  C   UNL A   1      40.355  21.926  26.529  1.00  0.00     0.313 C 
ATOM      5  O   UNL A   1      40.439  21.839  27.749  1.00  0.00    -0.252 OA
BRANCH   4   6
ATOM      6  C   UNL A   1      39.359  22.857  25.849  1.00  0.00     0.126 C 
ATOM      7  C   UNL A   1      39.223  24.134  26.675  1.00  0.00     0.025 C 
BRANCH   6   8
ATOM      8  C   UNL A   1      38.000  22.281  25.463  1.00  0.00    -0.033 A 
ATOM      9  C   UNL A   1      35.352  21.322  24.853  1.00  0.00     0.022 A 
ATOM     10  C   UNL A   1      36.345  20.499  25.422  1.00  0.00     0.011 A 
ATOM     11  C   UNL A   1      35.729  22.659  24.540  1.00  0.00    -0.009 A 
ATOM     12  C   UNL A   1      37.627  20.969  25.743  1.00  0.00     0.005 A 
ATOM     13  C   UNL A   1      37.043  23.103  24.845  1.00  0.00     0.013 A 
BRANCH   9  14
ATOM     14  C   UNL A   1      33.893  20.816  24.612  1.00  0.00     0.247 C 
BRANCH  14  15
ATOM     15  N   UNL A   1      32.756  21.514  25.297  1.00  0.00    -0.325 N 
ATOM     16  C   UNL A   1      30.417  24.995  26.632  1.00  0.00     0.008 C 
ATOM     17  C   UNL A   1      31.418  24.014  26.032  1.00  0.00    -0.003 C 
ATOM     18  C   UNL A   1      30.765  23.071  25.021  1.00  0.00     0.065 C 
ATOM     19  C   UNL A   1      32.048  23.140  27.109  1.00  0.00     0.065 C 
ATOM     20  C   UNL A   1      31.802  22.141  24.377  1.00  0.00     0.263 C 
ATOM     21  C   UNL A   1      33.125  22.242  26.506  1.00  0.00     0.263 C 
ATOM     22  H   UNL A   1      32.180  20.777  25.704  1.00  0.00     0.348 HD
ENDBRANCH  14  15
BRANCH  14  23
ATOM     23  C   UNL A   1      33.751  19.286  24.725  1.00  0.00     0.014 A 
ATOM     24  C   UNL A   1      32.560  18.683  25.175  1.00  0.00     0.013 A 
ATOM     25  C   UNL A   1      34.823  18.453  24.351  1.00  0.00     0.013 A 
ATOM     26  C   UNL A   1      32.450  17.294  25.259  1.00  0.00     0.040 A 
ATOM     27  C   UNL A   1      34.719  17.065  24.455  1.00  0.00     0.040 A 
ATOM     28  C   UNL A   1      33.534  16.500  24.906  1.00  0.00     0.123 A 
ATOM     29  F   UNL A   1      33.429  15.167  24.995  1.00  0.00    -0.207 F 
ENDBRANCH  14  23
ENDBRANCH   9  14
BRANCH  11  30
ATOM     30  C   UNL A   1      34.828  23.631  23.890  1.00  0.00    -0.018 A 
ATOM     31  C   UNL A   1      34.238  23.327  22.652  1.00  0.00     0.009 A 
ATOM     32  C   UNL A   1      34.540  24.873  24.474  1.00  0.00     0.009 A 
ATOM     33  C   UNL A   1      33.349  24.216  22.039  1.00  0.00     0.014 A 
ATOM     34  C   UNL A   1      33.643  25.760  23.868  1.00  0.00     0.014 A 
ATOM     35  C   UNL A   1      33.027  25.434  22.652  1.00  0.00     0.056 A 
BRANCH  35  36
ATOM     36  C   UNL A   1      32.044  26.372  21.995  1.00  0.00     0.416 C 
ATOM     37  F   UNL A   1      31.929  26.150  20.656  1.00  0.00    -0.166 F 
ATOM     38  F   UNL A   1      30.786  26.257  22.503  1.00  0.00    -0.166 F 
ATOM     39  F   UNL A   1      32.378  27.687  22.130  1.00  0.00    -0.166 F 
ENDBRANCH  35  36
ENDBRANCH  11  30
ENDBRANCH   6   8
ENDBRANCH   4   6
ENDBRANCH   3   4
ENDBRANCH   2   3
ENDBRANCH   1   2
BRANCH   1  40
ATOM     40  O   UNL A   1      43.699  20.370  24.964  1.00  0.00    -0.374 OA
BRANCH  40  41
ATOM     41  C   UNL A   1      44.890  21.127  25.174  1.00  0.00     0.202 C 
BRANCH  41  42
ATOM     42  C   UNL A   1      44.881  22.551  24.611  1.00  0.00     0.261 C 
BRANCH  42  43
ATOM     43  O   UNL A   1      44.730  23.546  25.641  1.00  0.00    -0.460 OA
BRANCH  43  44
ATOM     44  C   UNL A   1      43.591  24.275  25.571  1.00  0.00     0.338 C 
ATOM     45  O   UNL A   1      42.721  24.214  24.713  1.00  0.00    -0.246 OA
BRANCH  44  46
ATOM     46  C   UNL A   1      43.448  25.102  26.785  1.00  0.00     0.060 A 
ATOM     47  C   UNL A   1      42.860  24.530  27.917  1.00  0.00     0.016 A 
ATOM     48  C   UNL A   1      43.828  26.443  26.797  1.00  0.00     0.016 A 
ATOM     49  C   UNL A   1      42.604  25.315  29.043  1.00  0.00     0.010 A 
ATOM     50  C   UNL A   1      43.585  27.228  27.926  1.00  0.00     0.010 A 
ATOM     51  C   UNL A   1      42.931  26.679  29.039  1.00  0.00    -0.014 A 
BRANCH  51  52
ATOM     52  C   UNL A   1      42.465  27.563  30.135  1.00  0.00     0.031 A 
ATOM     53  C   UNL A   1      41.195  28.348  29.953  1.00  0.00     0.074 A 
ATOM     54  C   UNL A   1      43.159  27.663  31.280  1.00  0.00     0.049 A 
ATOM     55  N   UNL A   1      40.609  29.183  30.774  1.00  0.00    -0.248 NA
ATOM     56  C   UNL A   1      40.495  28.178  28.669  1.00  0.00     0.031 C 
ATOM     57  C   UNL A   1      44.403  26.955  31.575  1.00  0.00     0.029 A 
ATOM     58  N   UNL A   1      42.917  28.406  32.409  1.00  0.00    -0.354 N 
ATOM     59  C   UNL A   1      39.479  29.636  30.108  1.00  0.00     0.074 A 
ATOM     60  C   UNL A   1      39.482  29.021  28.799  1.00  0.00     0.031 C 
ATOM     61  C   UNL A   1      44.813  27.294  32.809  1.00  0.00     0.029 A 
ATOM     62  C   UNL A   1      43.874  28.260  33.381  1.00  0.00     0.049 A 
ATOM     63  H   UNL A   1      42.130  28.990  32.510  1.00  0.00     0.167 HD
ATOM     64  C   UNL A   1      38.514  30.473  30.556  1.00  0.00     0.037 A 
ATOM     65  C   UNL A   1      43.984  28.842  34.591  1.00  0.00     0.037 A 
ATOM     66  C   UNL A   1      38.503  31.071  31.865  1.00  0.00     0.049 A 
ATOM     67  C   UNL A   1      42.920  29.799  35.055  1.00  0.00     0.074 A 
ATOM     68  C   UNL A   1      37.542  31.891  32.428  1.00  0.00     0.029 A 
ATOM     69  N   UNL A   1      39.504  30.916  32.812  1.00  0.00    -0.354 N 
ATOM     70  N   UNL A   1      41.831  30.186  34.437  1.00  0.00    -0.248 NA
ATOM     71  C   UNL A   1      43.098  30.398  36.387  1.00  0.00     0.031 C 
ATOM     72  C   UNL A   1      37.986  32.275  33.697  1.00  0.00     0.029 A 
ATOM     73  C   UNL A   1      39.198  31.652  33.946  1.00  0.00     0.049 A 
ATOM     74  H   UNL A   1      40.313  30.367  32.695  1.00  0.00     0.167 HD
ATOM     75  C   UNL A   1      41.184  31.054  35.306  1.00  0.00     0.074 A 
ATOM     76  C   UNL A   1      41.999  31.133  36.501  1.00  0.00     0.031 C 
ATOM     77  C   UNL A   1      40.019  31.724  35.129  1.00  0.00     0.037 A 
BRANCH  64  78
ATOM     78  C   UNL A   1      37.384  30.798  29.623  1.00  0.00     0.064 A 
ATOM     79  C   UNL A   1      36.404  29.839  29.332  1.00  0.00     0.173 A 
ATOM     80  C   UNL A   1      37.301  32.039  28.974  1.00  0.00     0.173 A 
ATOM     81  F   UNL A   1      36.440  28.635  29.923  1.00  0.00    -0.203 F 
ATOM     82  C   UNL A   1      35.386  30.107  28.421  1.00  0.00     0.198 A 
ATOM     83  C   UNL A   1      36.267  32.314  28.083  1.00  0.00     0.198 A 
ATOM     84  F   UNL A   1      38.209  32.995  29.226  1.00  0.00    -0.203 F 
ATOM     85  F   UNL A   1      34.475  29.165  28.140  1.00  0.00    -0.200 F 
ATOM     86  C   UNL A   1      35.316  31.345  27.802  1.00  0.00     0.200 A 
ATOM     87  F   UNL A   1      36.186  33.520  27.504  1.00  0.00    -0.200 F 
ATOM     88  F   UNL A   1      34.327  31.608  26.935  1.00  0.00    -0.200 F 
ENDBRANCH  64  78
BRANCH  65  89
ATOM     89  C   UNL A   1      45.144  28.503  35.454  1.00  0.00     0.064 A 
ATOM     90  C   UNL A   1      45.065  27.479  36.408  1.00  0.00     0.173 A 
ATOM     91  C   UNL A   1      46.338  29.232  35.373  1.00  0.00     0.173 A 
ATOM     92  F   UNL A   1      43.943  26.755  36.525  1.00  0.00    -0.203 F 
ATOM     93  C   UNL A   1      46.128  27.215  37.269  1.00  0.00     0.198 A 
ATOM     94  C   UNL A   1      47.409  28.952  36.219  1.00  0.00     0.198 A 
ATOM     95  F   UNL A   1      46.466  30.206  34.461  1.00  0.00    -0.203 F 
ATOM     96  F   UNL A   1      46.013  26.257  38.198  1.00  0.00    -0.200 F 
ATOM     97  C   UNL A   1      47.299  27.951  37.173  1.00  0.00     0.200 A 
ATOM     98  F   UNL A   1      48.546  29.652  36.111  1.00  0.00    -0.200 F 
ATOM     99  F   UNL A   1      48.322  27.696  38.000  1.00  0.00    -0.200 F 
ENDBRANCH  65  89
BRANCH  77 100
ATOM    100  C   UNL A   1      39.534  32.597  36.249  1.00  0.00     0.064 A 
ATOM    101  C   UNL A   1      40.089  33.870  36.449  1.00  0.00     0.173 A 
ATOM    102  C   UNL A   1      38.588  32.139  37.176  1.00  0.00     0.173 A 
ATOM    103  F   UNL A   1      41.005  34.350  35.595  1.00  0.00    -0.203 F 
ATOM    104  C   UNL A   1      39.730  34.644  37.549  1.00  0.00     0.198 A 
ATOM    105  C   UNL A   1      38.211  32.927  38.261  1.00  0.00     0.198 A 
ATOM    106  F   UNL A   1      38.020  30.933  37.021  1.00  0.00    -0.203 F 
ATOM    107  F   UNL A   1      40.302  35.840  37.741  1.00  0.00    -0.200 F 
ATOM    108  C   UNL A   1      38.790  34.173  38.453  1.00  0.00     0.200 A 
ATOM    109  F   UNL A   1      37.286  32.479  39.123  1.00  0.00    -0.200 F 
ATOM    110  F   UNL A   1      38.440  34.920  39.508  1.00  0.00    -0.200 F 
ENDBRANCH  77 100
ENDBRANCH  51  52
ENDBRANCH  44  46
ENDBRANCH  43  44
ENDBRANCH  42  43
ENDBRANCH  41  42
ENDBRANCH  40  41
ENDBRANCH   1  40
TORSDOF 20
ENDMDL
