MODEL 1
REMARK VINA RESULT:     -12.1      0.000      0.000
REMARK SMILES C[C@@H](C(=O)OCCOCCOC(=O)c1ccc(-c2c3nc(c(-c4c(F)c(F)c(F)c(F)c4F)c4ccc([nH]4)c(-c4c(F)c(F)c(F)c(F)c4F)c4nc(c(-c5c(F)c(F)c(F)c(F)c5F)c5ccc2[nH]5)C=C4)C=C3)cc1)c1ccc(-c2ccccc2)c(F)c1
REMARK SMILES IDX 8 1 7 2 6 3 5 4 3 5 4 6 2 7 1 8 77 9 78 10 89 11 79 12 87 13
REMARK SMILES IDX 80 14 88 15 81 16 82 17 86 18 83 19 85 20 84 21 9 22 10 23
REMARK SMILES IDX 11 24 12 25 13 26 14 27 15 28 76 29 16 30 75 31 17 32 18 33
REMARK SMILES IDX 19 34 69 35 20 36 74 37 68 38 70 39 21 40 73 41 67 42 66 43
REMARK SMILES IDX 22 45 54 46 34 47 53 48 35 49 38 50 52 51 71 52 36 53 37 54
REMARK SMILES IDX 51 56 72 57 39 58 23 59 24 60 32 61 25 62 26 63 30 64 33 65
REMARK SMILES IDX 27 66 28 67 31 68 29 69 55 70 56 71 64 72 57 73 58 74 62 75
REMARK SMILES IDX 65 76 59 77 60 78 63 79 61 80 40 81 41 82 49 83 42 84 43 85
REMARK SMILES IDX 47 86 50 87 44 88 45 89 48 90 46 91
REMARK H PARENT 70 44 38 55
REMARK Flexibility Score: inf
ROOT
ATOM      1  O   UNL A   1      32.859  27.958  26.856  1.00  0.00    -0.374 OA
ENDROOT
BRANCH   1   2
ATOM      2  C   UNL A   1      33.474  27.145  25.853  1.00  0.00     0.202 C 
BRANCH   2   3
ATOM      3  C   UNL A   1      33.479  25.638  26.125  1.00  0.00     0.261 C 
BRANCH   3   4
ATOM      4  O   UNL A   1      32.556  24.972  25.241  1.00  0.00    -0.463 OA
BRANCH   4   5
ATOM      5  C   UNL A   1      31.246  25.031  25.602  1.00  0.00     0.313 C 
ATOM      6  O   UNL A   1      30.861  25.257  26.745  1.00  0.00    -0.252 OA
BRANCH   5   7
ATOM      7  C   UNL A   1      30.290  24.803  24.422  1.00  0.00     0.126 C 
ATOM      8  C   UNL A   1      30.765  23.779  23.385  1.00  0.00     0.025 C 
BRANCH   7   9
ATOM      9  C   UNL A   1      29.905  26.143  23.800  1.00  0.00    -0.031 A 
ATOM     10  C   UNL A   1      30.850  27.019  23.247  1.00  0.00     0.005 A 
ATOM     11  C   UNL A   1      28.577  26.578  23.876  1.00  0.00     0.044 A 
ATOM     12  C   UNL A   1      30.486  28.306  22.831  1.00  0.00     0.012 A 
ATOM     13  C   UNL A   1      28.219  27.858  23.446  1.00  0.00     0.131 A 
ATOM     14  C   UNL A   1      29.162  28.761  22.935  1.00  0.00     0.017 A 
ATOM     15  F   UNL A   1      26.928  28.212  23.553  1.00  0.00    -0.206 F 
BRANCH  14  16
ATOM     16  C   UNL A   1      28.805  30.142  22.556  1.00  0.00    -0.015 A 
ATOM     17  C   UNL A   1      28.339  30.451  21.266  1.00  0.00     0.009 A 
ATOM     18  C   UNL A   1      28.946  31.204  23.468  1.00  0.00     0.009 A 
ATOM     19  C   UNL A   1      28.028  31.764  20.903  1.00  0.00     0.001 A 
ATOM     20  C   UNL A   1      28.633  32.517  23.108  1.00  0.00     0.001 A 
ATOM     21  C   UNL A   1      28.174  32.797  21.825  1.00  0.00     0.000 A 
ENDBRANCH  14  16
ENDBRANCH   7   9
ENDBRANCH   5   7
ENDBRANCH   4   5
ENDBRANCH   3   4
ENDBRANCH   2   3
ENDBRANCH   1   2
BRANCH   1  22
ATOM     22  C   UNL A   1      31.778  28.789  26.441  1.00  0.00     0.202 C 
BRANCH  22  23
ATOM     23  C   UNL A   1      31.910  30.282  26.763  1.00  0.00     0.261 C 
BRANCH  23  24
ATOM     24  O   UNL A   1      33.212  30.793  26.438  1.00  0.00    -0.460 OA
BRANCH  24  25
ATOM     25  C   UNL A   1      33.716  31.653  27.353  1.00  0.00     0.338 C 
ATOM     26  O   UNL A   1      33.142  32.595  27.886  1.00  0.00    -0.246 OA
BRANCH  25  27
ATOM     27  C   UNL A   1      35.053  31.212  27.784  1.00  0.00     0.060 A 
ATOM     28  C   UNL A   1      35.232  29.839  28.004  1.00  0.00     0.016 A 
ATOM     29  C   UNL A   1      36.088  32.114  28.038  1.00  0.00     0.016 A 
ATOM     30  C   UNL A   1      36.430  29.369  28.531  1.00  0.00     0.010 A 
ATOM     31  C   UNL A   1      37.290  31.640  28.577  1.00  0.00     0.010 A 
ATOM     32  C   UNL A   1      37.449  30.272  28.862  1.00  0.00    -0.014 A 
BRANCH  32  33
ATOM     33  C   UNL A   1      38.608  29.791  29.652  1.00  0.00     0.031 A 
ATOM     34  C   UNL A   1      38.797  30.312  31.050  1.00  0.00     0.074 A 
ATOM     35  C   UNL A   1      39.447  28.868  29.153  1.00  0.00     0.049 A 
ATOM     36  N   UNL A   1      39.729  30.031  31.924  1.00  0.00    -0.248 NA
ATOM     37  C   UNL A   1      37.796  31.280  31.529  1.00  0.00     0.031 C 
ATOM     38  C   UNL A   1      39.339  28.258  27.831  1.00  0.00     0.029 A 
ATOM     39  N   UNL A   1      40.557  28.282  29.708  1.00  0.00    -0.354 N 
ATOM     40  C   UNL A   1      39.431  30.787  33.050  1.00  0.00     0.074 A 
ATOM     41  C   UNL A   1      38.249  31.561  32.742  1.00  0.00     0.031 C 
ATOM     42  C   UNL A   1      40.349  27.383  27.672  1.00  0.00     0.029 A 
ATOM     43  C   UNL A   1      41.185  27.394  28.870  1.00  0.00     0.049 A 
ATOM     44  H   UNL A   1      40.873  28.479  30.620  1.00  0.00     0.167 HD
ATOM     45  C   UNL A   1      40.080  30.823  34.237  1.00  0.00     0.037 A 
ATOM     46  C   UNL A   1      42.317  26.686  29.051  1.00  0.00     0.037 A 
ATOM     47  C   UNL A   1      41.252  30.047  34.545  1.00  0.00     0.049 A 
ATOM     48  C   UNL A   1      43.059  26.797  30.357  1.00  0.00     0.074 A 
ATOM     49  C   UNL A   1      41.969  29.996  35.727  1.00  0.00     0.029 A 
ATOM     50  N   UNL A   1      41.885  29.191  33.656  1.00  0.00    -0.354 N 
ATOM     51  N   UNL A   1      42.755  27.492  31.426  1.00  0.00    -0.248 NA
ATOM     52  C   UNL A   1      44.303  26.023  30.480  1.00  0.00     0.031 C 
ATOM     53  C   UNL A   1      43.063  29.146  35.539  1.00  0.00     0.029 A 
ATOM     54  C   UNL A   1      43.000  28.628  34.255  1.00  0.00     0.049 A 
ATOM     55  H   UNL A   1      41.585  29.009  32.736  1.00  0.00     0.167 HD
ATOM     56  C   UNL A   1      43.749  27.217  32.357  1.00  0.00     0.074 A 
ATOM     57  C   UNL A   1      44.661  26.283  31.730  1.00  0.00     0.031 C 
ATOM     58  C   UNL A   1      43.893  27.693  33.618  1.00  0.00     0.037 A 
BRANCH  45  59
ATOM     59  C   UNL A   1      39.551  31.755  35.288  1.00  0.00     0.064 A 
ATOM     60  C   UNL A   1      38.623  31.331  36.250  1.00  0.00     0.173 A 
ATOM     61  C   UNL A   1      40.006  33.080  35.351  1.00  0.00     0.173 A 
ATOM     62  F   UNL A   1      38.146  30.078  36.222  1.00  0.00    -0.203 F 
ATOM     63  C   UNL A   1      38.152  32.207  37.225  1.00  0.00     0.198 A 
ATOM     64  C   UNL A   1      39.553  33.946  36.344  1.00  0.00     0.198 A 
ATOM     65  F   UNL A   1      40.895  33.535  34.456  1.00  0.00    -0.203 F 
ATOM     66  F   UNL A   1      37.234  31.794  38.109  1.00  0.00    -0.200 F 
ATOM     67  C   UNL A   1      38.623  33.511  37.276  1.00  0.00     0.200 A 
ATOM     68  F   UNL A   1      40.017  35.203  36.397  1.00  0.00    -0.200 F 
ATOM     69  F   UNL A   1      38.175  34.351  38.218  1.00  0.00    -0.200 F 
ENDBRANCH  45  59
BRANCH  46  70
ATOM     70  C   UNL A   1      42.826  25.809  27.963  1.00  0.00     0.064 A 
ATOM     71  C   UNL A   1      43.716  26.297  26.997  1.00  0.00     0.173 A 
ATOM     72  C   UNL A   1      42.414  24.473  27.855  1.00  0.00     0.173 A 
ATOM     73  F   UNL A   1      44.118  27.576  27.043  1.00  0.00    -0.203 F 
ATOM     74  C   UNL A   1      44.163  25.486  25.955  1.00  0.00     0.198 A 
ATOM     75  C   UNL A   1      42.881  23.656  26.828  1.00  0.00     0.198 A 
ATOM     76  F   UNL A   1      41.559  23.959  28.751  1.00  0.00    -0.203 F 
ATOM     77  F   UNL A   1      44.978  25.991  25.019  1.00  0.00    -0.200 F 
ATOM     78  C   UNL A   1      43.749  24.165  25.874  1.00  0.00     0.200 A 
ATOM     79  F   UNL A   1      42.487  22.377  26.760  1.00  0.00    -0.200 F 
ATOM     80  F   UNL A   1      44.179  23.385  24.873  1.00  0.00    -0.200 F 
ENDBRANCH  46  70
BRANCH  58  81
ATOM     81  C   UNL A   1      45.057  27.187  34.419  1.00  0.00     0.064 A 
ATOM     82  C   UNL A   1      46.281  27.873  34.452  1.00  0.00     0.173 A 
ATOM     83  C   UNL A   1      44.932  26.027  35.197  1.00  0.00     0.173 A 
ATOM     84  F   UNL A   1      46.454  28.980  33.714  1.00  0.00    -0.203 F 
ATOM     85  C   UNL A   1      47.344  27.401  35.217  1.00  0.00     0.198 A 
ATOM     86  C   UNL A   1      45.989  25.574  35.983  1.00  0.00     0.198 A 
ATOM     87  F   UNL A   1      43.780  25.339  35.207  1.00  0.00    -0.203 F 
ATOM     88  F   UNL A   1      48.518  28.048  35.199  1.00  0.00    -0.200 F 
ATOM     89  C   UNL A   1      47.195  26.257  35.987  1.00  0.00     0.200 A 
ATOM     90  F   UNL A   1      45.838  24.476  36.737  1.00  0.00    -0.200 F 
ATOM     91  F   UNL A   1      48.217  25.809  36.728  1.00  0.00    -0.200 F 
ENDBRANCH  58  81
ENDBRANCH  32  33
ENDBRANCH  25  27
ENDBRANCH  24  25
ENDBRANCH  23  24
ENDBRANCH  22  23
ENDBRANCH   1  22
TORSDOF 16
ENDMDL
MODEL 2
REMARK VINA RESULT:     -12.1      6.006     12.029
REMARK SMILES C[C@@H](C(=O)OCCOCCOC(=O)c1ccc(-c2c3nc(c(-c4c(F)c(F)c(F)c(F)c4F)c4ccc([nH]4)c(-c4c(F)c(F)c(F)c(F)c4F)c4nc(c(-c5c(F)c(F)c(F)c(F)c5F)c5ccc2[nH]5)C=C4)C=C3)cc1)c1ccc(-c2ccccc2)c(F)c1
REMARK SMILES IDX 8 1 7 2 6 3 5 4 3 5 4 6 2 7 1 8 77 9 78 10 89 11 79 12 87 13
REMARK SMILES IDX 80 14 88 15 81 16 82 17 86 18 83 19 85 20 84 21 9 22 10 23
REMARK SMILES IDX 11 24 12 25 13 26 14 27 15 28 76 29 16 30 75 31 17 32 18 33
REMARK SMILES IDX 19 34 69 35 20 36 74 37 68 38 70 39 21 40 73 41 67 42 66 43
REMARK SMILES IDX 22 45 54 46 34 47 53 48 35 49 38 50 52 51 71 52 36 53 37 54
REMARK SMILES IDX 51 56 72 57 39 58 23 59 24 60 32 61 25 62 26 63 30 64 33 65
REMARK SMILES IDX 27 66 28 67 31 68 29 69 55 70 56 71 64 72 57 73 58 74 62 75
REMARK SMILES IDX 65 76 59 77 60 78 63 79 61 80 40 81 41 82 49 83 42 84 43 85
REMARK SMILES IDX 47 86 50 87 44 88 45 89 48 90 46 91
REMARK H PARENT 70 44 38 55
REMARK Flexibility Score: inf
ROOT
ATOM      1  O   UNL A   1      42.374  19.029  25.392  1.00  0.00    -0.374 OA
ENDROOT
BRANCH   1   2
ATOM      2  C   UNL A   1      43.774  18.814  25.589  1.00  0.00     0.202 C 
BRANCH   2   3
ATOM      3  C   UNL A   1      44.684  19.235  24.431  1.00  0.00     0.261 C 
BRANCH   3   4
ATOM      4  O   UNL A   1      44.528  20.643  24.167  1.00  0.00    -0.463 OA
BRANCH   4   5
ATOM      5  C   UNL A   1      44.914  21.479  25.168  1.00  0.00     0.313 C 
ATOM      6  O   UNL A   1      46.022  21.449  25.695  1.00  0.00    -0.252 OA
BRANCH   5   7
ATOM      7  C   UNL A   1      43.822  22.483  25.562  1.00  0.00     0.126 C 
ATOM      8  C   UNL A   1      43.699  23.706  24.647  1.00  0.00     0.025 C 
BRANCH   7   9
ATOM      9  C   UNL A   1      43.966  22.856  27.035  1.00  0.00    -0.031 A 
ATOM     10  C   UNL A   1      42.910  22.738  27.950  1.00  0.00     0.005 A 
ATOM     11  C   UNL A   1      45.155  23.444  27.481  1.00  0.00     0.044 A 
ATOM     12  C   UNL A   1      43.025  23.238  29.255  1.00  0.00     0.012 A 
ATOM     13  C   UNL A   1      45.267  23.927  28.788  1.00  0.00     0.131 A 
ATOM     14  C   UNL A   1      44.203  23.858  29.699  1.00  0.00     0.017 A 
ATOM     15  F   UNL A   1      46.434  24.484  29.148  1.00  0.00    -0.206 F 
BRANCH  14  16
ATOM     16  C   UNL A   1      44.288  24.440  31.052  1.00  0.00    -0.015 A 
ATOM     17  C   UNL A   1      44.327  25.831  31.251  1.00  0.00     0.009 A 
ATOM     18  C   UNL A   1      44.361  23.619  32.192  1.00  0.00     0.009 A 
ATOM     19  C   UNL A   1      44.435  26.378  32.533  1.00  0.00     0.001 A 
ATOM     20  C   UNL A   1      44.466  24.163  33.475  1.00  0.00     0.001 A 
ATOM     21  C   UNL A   1      44.503  25.543  33.644  1.00  0.00     0.000 A 
ENDBRANCH  14  16
ENDBRANCH   7   9
ENDBRANCH   5   7
ENDBRANCH   4   5
ENDBRANCH   3   4
ENDBRANCH   2   3
ENDBRANCH   1   2
BRANCH   1  22
ATOM     22  C   UNL A   1      41.648  19.599  26.479  1.00  0.00     0.202 C 
BRANCH  22  23
ATOM     23  C   UNL A   1      40.346  20.324  26.118  1.00  0.00     0.261 C 
BRANCH  23  24
ATOM     24  O   UNL A   1      40.220  21.582  26.797  1.00  0.00    -0.460 OA
BRANCH  24  25
ATOM     25  C   UNL A   1      39.296  22.413  26.262  1.00  0.00     0.338 C 
ATOM     26  O   UNL A   1      38.330  22.108  25.575  1.00  0.00    -0.246 OA
BRANCH  25  27
ATOM     27  C   UNL A   1      39.498  23.785  26.757  1.00  0.00     0.060 A 
ATOM     28  C   UNL A   1      40.108  24.695  25.883  1.00  0.00     0.016 A 
ATOM     29  C   UNL A   1      39.170  24.161  28.061  1.00  0.00     0.016 A 
ATOM     30  C   UNL A   1      40.443  25.971  26.328  1.00  0.00     0.010 A 
ATOM     31  C   UNL A   1      39.515  25.442  28.509  1.00  0.00     0.010 A 
ATOM     32  C   UNL A   1      40.188  26.335  27.656  1.00  0.00    -0.014 A 
BRANCH  32  33
ATOM     33  C   UNL A   1      40.775  27.591  28.184  1.00  0.00     0.031 A 
ATOM     34  C   UNL A   1      42.269  27.756  28.163  1.00  0.00     0.074 A 
ATOM     35  C   UNL A   1      39.988  28.587  28.624  1.00  0.00     0.049 A 
ATOM     36  N   UNL A   1      43.001  28.764  28.564  1.00  0.00    -0.248 NA
ATOM     37  C   UNL A   1      43.045  26.632  27.613  1.00  0.00     0.031 C 
ATOM     38  C   UNL A   1      38.528  28.560  28.651  1.00  0.00     0.029 A 
ATOM     39  N   UNL A   1      40.314  29.820  29.133  1.00  0.00    -0.354 N 
ATOM     40  C   UNL A   1      44.317  28.396  28.320  1.00  0.00     0.074 A 
ATOM     41  C   UNL A   1      44.289  27.061  27.762  1.00  0.00     0.031 C 
ATOM     42  C   UNL A   1      38.081  29.723  29.156  1.00  0.00     0.029 A 
ATOM     43  C   UNL A   1      39.223  30.563  29.511  1.00  0.00     0.049 A 
ATOM     44  H   UNL A   1      41.241  30.140  29.217  1.00  0.00     0.167 HD
ATOM     45  C   UNL A   1      45.446  29.112  28.532  1.00  0.00     0.037 A 
ATOM     46  C   UNL A   1      39.162  31.776  30.094  1.00  0.00     0.037 A 
ATOM     47  C   UNL A   1      45.472  30.442  29.080  1.00  0.00     0.049 A 
ATOM     48  C   UNL A   1      40.438  32.523  30.383  1.00  0.00     0.074 A 
ATOM     49  C   UNL A   1      46.563  31.260  29.311  1.00  0.00     0.029 A 
ATOM     50  N   UNL A   1      44.349  31.145  29.492  1.00  0.00    -0.354 N 
ATOM     51  N   UNL A   1      41.676  32.180  30.122  1.00  0.00    -0.248 NA
ATOM     52  C   UNL A   1      40.306  33.827  31.047  1.00  0.00     0.031 C 
ATOM     53  C   UNL A   1      46.107  32.439  29.908  1.00  0.00     0.029 A 
ATOM     54  C   UNL A   1      44.726  32.377  30.002  1.00  0.00     0.049 A 
ATOM     55  H   UNL A   1      43.423  30.818  29.430  1.00  0.00     0.167 HD
ATOM     56  C   UNL A   1      42.466  33.235  30.561  1.00  0.00     0.074 A 
ATOM     57  C   UNL A   1      41.566  34.235  31.096  1.00  0.00     0.031 C 
ATOM     58  C   UNL A   1      43.815  33.365  30.523  1.00  0.00     0.037 A 
BRANCH  45  59
ATOM     59  C   UNL A   1      46.754  28.459  28.193  1.00  0.00     0.064 A 
ATOM     60  C   UNL A   1      47.457  27.687  29.129  1.00  0.00     0.173 A 
ATOM     61  C   UNL A   1      47.293  28.582  26.904  1.00  0.00     0.173 A 
ATOM     62  F   UNL A   1      46.991  27.552  30.380  1.00  0.00    -0.203 F 
ATOM     63  C   UNL A   1      48.664  27.078  28.793  1.00  0.00     0.198 A 
ATOM     64  C   UNL A   1      48.486  27.950  26.564  1.00  0.00     0.198 A 
ATOM     65  F   UNL A   1      46.659  29.308  25.971  1.00  0.00    -0.203 F 
ATOM     66  F   UNL A   1      49.340  26.379  29.715  1.00  0.00    -0.200 F 
ATOM     67  C   UNL A   1      49.174  27.204  27.509  1.00  0.00     0.200 A 
ATOM     68  F   UNL A   1      48.972  28.065  25.320  1.00  0.00    -0.200 F 
ATOM     69  F   UNL A   1      50.331  26.613  27.186  1.00  0.00    -0.200 F 
ENDBRANCH  45  59
BRANCH  46  70
ATOM     70  C   UNL A   1      37.843  32.362  30.451  1.00  0.00     0.064 A 
ATOM     71  C   UNL A   1      37.221  32.057  31.669  1.00  0.00     0.173 A 
ATOM     72  C   UNL A   1      37.169  33.221  29.571  1.00  0.00     0.173 A 
ATOM     73  F   UNL A   1      37.815  31.219  32.532  1.00  0.00    -0.203 F 
ATOM     74  C   UNL A   1      35.968  32.577  31.987  1.00  0.00     0.198 A 
ATOM     75  C   UNL A   1      35.928  33.760  29.901  1.00  0.00     0.198 A 
ATOM     76  F   UNL A   1      37.719  33.541  28.390  1.00  0.00    -0.203 F 
ATOM     77  F   UNL A   1      35.376  32.232  33.138  1.00  0.00    -0.200 F 
ATOM     78  C   UNL A   1      35.324  33.432  31.105  1.00  0.00     0.200 A 
ATOM     79  F   UNL A   1      35.314  34.595  29.050  1.00  0.00    -0.200 F 
ATOM     80  F   UNL A   1      34.119  33.932  31.411  1.00  0.00    -0.200 F 
ENDBRANCH  46  70
BRANCH  58  81
ATOM     81  C   UNL A   1      44.400  34.647  31.041  1.00  0.00     0.064 A 
ATOM     82  C   UNL A   1      44.803  34.785  32.377  1.00  0.00     0.173 A 
ATOM     83  C   UNL A   1      44.601  35.734  30.177  1.00  0.00     0.173 A 
ATOM     84  F   UNL A   1      44.620  33.778  33.244  1.00  0.00    -0.203 F 
ATOM     85  C   UNL A   1      45.364  35.974  32.835  1.00  0.00     0.198 A 
ATOM     86  C   UNL A   1      45.188  36.912  30.633  1.00  0.00     0.198 A 
ATOM     87  F   UNL A   1      44.240  35.651  28.888  1.00  0.00    -0.203 F 
ATOM     88  F   UNL A   1      45.701  36.098  34.127  1.00  0.00    -0.200 F 
ATOM     89  C   UNL A   1      45.563  37.033  31.963  1.00  0.00     0.200 A 
ATOM     90  F   UNL A   1      45.391  37.929  29.784  1.00  0.00    -0.200 F 
ATOM     91  F   UNL A   1      46.109  38.173  32.404  1.00  0.00    -0.200 F 
ENDBRANCH  58  81
ENDBRANCH  32  33
ENDBRANCH  25  27
ENDBRANCH  24  25
ENDBRANCH  23  24
ENDBRANCH  22  23
ENDBRANCH   1  22
TORSDOF 16
ENDMDL
MODEL 3
REMARK VINA RESULT:     -12.0      4.210      7.046
REMARK SMILES C[C@@H](C(=O)OCCOCCOC(=O)c1ccc(-c2c3nc(c(-c4c(F)c(F)c(F)c(F)c4F)c4ccc([nH]4)c(-c4c(F)c(F)c(F)c(F)c4F)c4nc(c(-c5c(F)c(F)c(F)c(F)c5F)c5ccc2[nH]5)C=C4)C=C3)cc1)c1ccc(-c2ccccc2)c(F)c1
REMARK SMILES IDX 8 1 7 2 6 3 5 4 3 5 4 6 2 7 1 8 77 9 78 10 89 11 79 12 87 13
REMARK SMILES IDX 80 14 88 15 81 16 82 17 86 18 83 19 85 20 84 21 9 22 10 23
REMARK SMILES IDX 11 24 12 25 13 26 14 27 15 28 76 29 16 30 75 31 17 32 18 33
REMARK SMILES IDX 19 34 69 35 20 36 74 37 68 38 70 39 21 40 73 41 67 42 66 43
REMARK SMILES IDX 22 45 54 46 34 47 53 48 35 49 38 50 52 51 71 52 36 53 37 54
REMARK SMILES IDX 51 56 72 57 39 58 23 59 24 60 32 61 25 62 26 63 30 64 33 65
REMARK SMILES IDX 27 66 28 67 31 68 29 69 55 70 56 71 64 72 57 73 58 74 62 75
REMARK SMILES IDX 65 76 59 77 60 78 63 79 61 80 40 81 41 82 49 83 42 84 43 85
REMARK SMILES IDX 47 86 50 87 44 88 45 89 48 90 46 91
REMARK H PARENT 70 44 38 55
REMARK Flexibility Score: inf
ROOT
ATOM      1  O   UNL A   1      34.184  35.899  28.745  1.00  0.00    -0.374 OA
ENDROOT
BRANCH   1   2
ATOM      2  C   UNL A   1      32.909  36.124  29.355  1.00  0.00     0.202 C 
BRANCH   2   3
ATOM      3  C   UNL A   1      32.901  36.172  30.886  1.00  0.00     0.261 C 
BRANCH   3   4
ATOM      4  O   UNL A   1      33.294  34.893  31.423  1.00  0.00    -0.463 OA
BRANCH   4   5
ATOM      5  C   UNL A   1      34.471  34.876  32.105  1.00  0.00     0.313 C 
ATOM      6  O   UNL A   1      34.855  35.788  32.830  1.00  0.00    -0.252 OA
BRANCH   5   7
ATOM      7  C   UNL A   1      35.267  33.580  31.889  1.00  0.00     0.126 C 
ATOM      8  C   UNL A   1      35.353  32.657  33.109  1.00  0.00     0.025 C 
BRANCH   7   9
ATOM      9  C   UNL A   1      36.633  33.903  31.291  1.00  0.00    -0.031 A 
ATOM     10  C   UNL A   1      36.940  33.676  29.942  1.00  0.00     0.005 A 
ATOM     11  C   UNL A   1      37.664  34.340  32.131  1.00  0.00     0.044 A 
ATOM     12  C   UNL A   1      38.247  33.832  29.462  1.00  0.00     0.012 A 
ATOM     13  C   UNL A   1      38.962  34.507  31.641  1.00  0.00     0.131 A 
ATOM     14  C   UNL A   1      39.293  34.237  30.306  1.00  0.00     0.017 A 
ATOM     15  F   UNL A   1      39.904  34.923  32.504  1.00  0.00    -0.206 F 
BRANCH  14  16
ATOM     16  C   UNL A   1      40.677  34.332  29.803  1.00  0.00    -0.015 A 
ATOM     17  C   UNL A   1      41.070  35.358  28.925  1.00  0.00     0.009 A 
ATOM     18  C   UNL A   1      41.647  33.379  30.164  1.00  0.00     0.009 A 
ATOM     19  C   UNL A   1      42.374  35.429  28.430  1.00  0.00     0.001 A 
ATOM     20  C   UNL A   1      42.953  33.449  29.673  1.00  0.00     0.001 A 
ATOM     21  C   UNL A   1      43.316  34.474  28.805  1.00  0.00     0.000 A 
ENDBRANCH  14  16
ENDBRANCH   7   9
ENDBRANCH   5   7
ENDBRANCH   4   5
ENDBRANCH   3   4
ENDBRANCH   2   3
ENDBRANCH   1   2
BRANCH   1  22
ATOM     22  C   UNL A   1      34.253  34.879  27.751  1.00  0.00     0.202 C 
BRANCH  22  23
ATOM     23  C   UNL A   1      33.979  33.448  28.230  1.00  0.00     0.261 C 
BRANCH  23  24
ATOM     24  O   UNL A   1      34.719  32.475  27.477  1.00  0.00    -0.460 OA
BRANCH  24  25
ATOM     25  C   UNL A   1      34.430  31.191  27.793  1.00  0.00     0.338 C 
ATOM     26  O   UNL A   1      33.355  30.618  27.669  1.00  0.00    -0.246 OA
BRANCH  25  27
ATOM     27  C   UNL A   1      35.657  30.471  28.171  1.00  0.00     0.060 A 
ATOM     28  C   UNL A   1      35.705  29.926  29.461  1.00  0.00     0.016 A 
ATOM     29  C   UNL A   1      36.763  30.389  27.322  1.00  0.00     0.016 A 
ATOM     30  C   UNL A   1      36.879  29.343  29.928  1.00  0.00     0.010 A 
ATOM     31  C   UNL A   1      37.946  29.810  27.796  1.00  0.00     0.010 A 
ATOM     32  C   UNL A   1      38.019  29.322  29.113  1.00  0.00    -0.014 A 
BRANCH  32  33
ATOM     33  C   UNL A   1      39.321  28.935  29.707  1.00  0.00     0.031 A 
ATOM     34  C   UNL A   1      39.814  29.677  30.919  1.00  0.00     0.074 A 
ATOM     35  C   UNL A   1      40.027  27.906  29.208  1.00  0.00     0.049 A 
ATOM     36  N   UNL A   1      40.914  29.509  31.607  1.00  0.00    -0.248 NA
ATOM     37  C   UNL A   1      38.946  30.753  31.425  1.00  0.00     0.031 C 
ATOM     38  C   UNL A   1      39.630  27.085  28.067  1.00  0.00     0.029 A 
ATOM     39  N   UNL A   1      41.230  27.377  29.605  1.00  0.00    -0.354 N 
ATOM     40  C   UNL A   1      40.873  30.458  32.620  1.00  0.00     0.074 A 
ATOM     41  C   UNL A   1      39.654  31.217  32.444  1.00  0.00     0.031 C 
ATOM     42  C   UNL A   1      40.577  26.155  27.850  1.00  0.00     0.029 A 
ATOM     43  C   UNL A   1      41.656  26.335  28.820  1.00  0.00     0.049 A 
ATOM     44  H   UNL A   1      41.738  27.713  30.378  1.00  0.00     0.167 HD
ATOM     45  C   UNL A   1      41.767  30.667  33.615  1.00  0.00     0.037 A 
ATOM     46  C   UNL A   1      42.797  25.621  28.873  1.00  0.00     0.037 A 
ATOM     47  C   UNL A   1      42.974  29.907  33.794  1.00  0.00     0.049 A 
ATOM     48  C   UNL A   1      43.808  25.921  29.949  1.00  0.00     0.074 A 
ATOM     49  C   UNL A   1      43.933  30.027  34.785  1.00  0.00     0.029 A 
ATOM     50  N   UNL A   1      43.394  28.886  32.953  1.00  0.00    -0.354 N 
ATOM     51  N   UNL A   1      43.749  26.799  30.921  1.00  0.00    -0.248 NA
ATOM     52  C   UNL A   1      45.046  25.128  29.935  1.00  0.00     0.031 C 
ATOM     53  C   UNL A   1      44.956  29.113  34.517  1.00  0.00     0.029 A 
ATOM     54  C   UNL A   1      44.612  28.388  33.388  1.00  0.00     0.049 A 
ATOM     55  H   UNL A   1      42.900  28.564  32.165  1.00  0.00     0.167 HD
ATOM     56  C   UNL A   1      44.921  26.645  31.649  1.00  0.00     0.074 A 
ATOM     57  C   UNL A   1      45.670  25.582  31.014  1.00  0.00     0.031 C 
ATOM     58  C   UNL A   1      45.339  27.322  32.747  1.00  0.00     0.037 A 
BRANCH  45  59
ATOM     59  C   UNL A   1      41.484  31.785  34.576  1.00  0.00     0.064 A 
ATOM     60  C   UNL A   1      41.989  33.078  34.373  1.00  0.00     0.173 A 
ATOM     61  C   UNL A   1      40.669  31.566  35.696  1.00  0.00     0.173 A 
ATOM     62  F   UNL A   1      42.786  33.334  33.325  1.00  0.00    -0.203 F 
ATOM     63  C   UNL A   1      41.705  34.106  35.269  1.00  0.00     0.198 A 
ATOM     64  C   UNL A   1      40.366  32.602  36.575  1.00  0.00     0.198 A 
ATOM     65  F   UNL A   1      40.159  30.348  35.935  1.00  0.00    -0.203 F 
ATOM     66  F   UNL A   1      42.233  35.323  35.079  1.00  0.00    -0.200 F 
ATOM     67  C   UNL A   1      40.888  33.869  36.365  1.00  0.00     0.200 A 
ATOM     68  F   UNL A   1      39.568  32.374  37.629  1.00  0.00    -0.200 F 
ATOM     69  F   UNL A   1      40.612  34.860  37.223  1.00  0.00    -0.200 F 
ENDBRANCH  45  59
BRANCH  46  70
ATOM     70  C   UNL A   1      43.052  24.552  27.872  1.00  0.00     0.064 A 
ATOM     71  C   UNL A   1      43.659  24.842  26.642  1.00  0.00     0.173 A 
ATOM     72  C   UNL A   1      42.674  23.224  28.115  1.00  0.00     0.173 A 
ATOM     73  F   UNL A   1      44.015  26.102  26.352  1.00  0.00    -0.203 F 
ATOM     74  C   UNL A   1      43.863  23.847  25.688  1.00  0.00     0.198 A 
ATOM     75  C   UNL A   1      42.902  22.226  27.171  1.00  0.00     0.198 A 
ATOM     76  F   UNL A   1      42.085  22.895  29.275  1.00  0.00    -0.203 F 
ATOM     77  F   UNL A   1      44.403  24.160  24.502  1.00  0.00    -0.200 F 
ATOM     78  C   UNL A   1      43.488  22.538  25.955  1.00  0.00     0.200 A 
ATOM     79  F   UNL A   1      42.548  20.960  27.438  1.00  0.00    -0.200 F 
ATOM     80  F   UNL A   1      43.685  21.582  25.038  1.00  0.00    -0.200 F 
ENDBRANCH  46  70
BRANCH  58  81
ATOM     81  C   UNL A   1      46.649  26.911  33.353  1.00  0.00     0.064 A 
ATOM     82  C   UNL A   1      46.724  25.919  34.342  1.00  0.00     0.173 A 
ATOM     83  C   UNL A   1      47.849  27.485  32.906  1.00  0.00     0.173 A 
ATOM     84  F   UNL A   1      45.604  25.350  34.812  1.00  0.00    -0.203 F 
ATOM     85  C   UNL A   1      47.950  25.535  34.879  1.00  0.00     0.198 A 
ATOM     86  C   UNL A   1      49.076  27.078  33.425  1.00  0.00     0.198 A 
ATOM     87  F   UNL A   1      47.833  28.433  31.957  1.00  0.00    -0.203 F 
ATOM     88  F   UNL A   1      47.993  24.617  35.854  1.00  0.00    -0.200 F 
ATOM     89  C   UNL A   1      49.124  26.108  34.415  1.00  0.00     0.200 A 
ATOM     90  F   UNL A   1      50.209  27.624  32.965  1.00  0.00    -0.200 F 
ATOM     91  F   UNL A   1      50.303  25.732  34.927  1.00  0.00    -0.200 F 
ENDBRANCH  58  81
ENDBRANCH  32  33
ENDBRANCH  25  27
ENDBRANCH  24  25
ENDBRANCH  23  24
ENDBRANCH  22  23
ENDBRANCH   1  22
TORSDOF 16
ENDMDL
