MODEL 1
REMARK VINA RESULT:     -11.2      0.000      0.000
REMARK SMILES COc1ccc([C@H]2C[NH2+]C[C@@H]2C(=O)OCCOCCOC(=O)c2ccc(-c3c4nc(c(-c5c(F)c(F)c(F)c(F)c5F)c5ccc([nH]5)c(-c5c(F)c(F)c(F)c(F)c5F)c5nc(c(-c6c(F)c(F)c(F)c(F)c6F)c6ccc3[nH]6)C=C5)C=C4)cc2)cc1OC
REMARK SMILES IDX 17 1 16 2 15 3 14 4 12 5 13 6 11 7 7 8 8 9 9 10 10 11 6 14
REMARK SMILES IDX 3 15 4 16 87 17 5 18 86 19 2 20 1 21 88 22 89 23 18 24 19 25
REMARK SMILES IDX 20 26 21 27 22 28 23 29 24 30 85 31 25 32 84 33 26 34 27 35
REMARK SMILES IDX 28 36 78 37 29 38 83 39 77 40 79 41 30 42 82 43 76 44 75 45
REMARK SMILES IDX 31 47 63 48 43 49 62 50 44 51 47 52 61 53 80 54 45 55 46 56
REMARK SMILES IDX 60 58 81 59 48 60 32 61 33 62 41 63 34 64 35 65 39 66 42 67
REMARK SMILES IDX 36 68 37 69 40 70 38 71 64 72 65 73 73 74 66 75 67 76 71 77
REMARK SMILES IDX 74 78 68 79 69 80 72 81 70 82 49 83 50 84 58 85 51 86 52 87
REMARK SMILES IDX 56 88 59 89 53 90 54 91 57 92 55 93
REMARK H PARENT 9 12 9 13 79 46 47 57
REMARK Flexibility Score: inf
ROOT
ATOM      1  O   UNL A   1      32.378  30.788  26.286  1.00  0.00    -0.374 OA
ENDROOT
BRANCH   1   2
ATOM      2  C   UNL A   1      32.001  29.534  25.719  1.00  0.00     0.202 C 
BRANCH   2   3
ATOM      3  C   UNL A   1      31.066  29.593  24.510  1.00  0.00     0.261 C 
BRANCH   3   4
ATOM      4  O   UNL A   1      30.477  28.304  24.274  1.00  0.00    -0.463 OA
BRANCH   4   5
ATOM      5  C   UNL A   1      30.579  27.837  23.007  1.00  0.00     0.315 C 
ATOM      6  O   UNL A   1      30.184  28.433  22.012  1.00  0.00    -0.252 OA
BRANCH   5   7
ATOM      7  C   UNL A   1      31.280  26.498  22.909  1.00  0.00     0.167 C 
ATOM      8  C   UNL A   1      32.669  26.600  23.560  1.00  0.00     0.094 C 
ATOM      9  C   UNL A   1      33.587  26.581  22.329  1.00  0.00     0.269 C 
ATOM     10  N   UNL A   1      32.958  25.622  21.412  1.00  0.00    -0.345 N 
ATOM     11  C   UNL A   1      31.525  25.927  21.509  1.00  0.00     0.276 C 
ATOM     12  H   UNL A   1      33.146  24.663  21.705  1.00  0.00     0.346 HD
ATOM     13  H   UNL A   1      33.313  25.700  20.458  1.00  0.00     0.346 HD
BRANCH   8  14
ATOM     14  C   UNL A   1      33.035  25.532  24.589  1.00  0.00    -0.034 A 
ATOM     15  C   UNL A   1      33.838  23.674  26.571  1.00  0.00     0.160 A 
ATOM     16  C   UNL A   1      34.771  24.205  25.672  1.00  0.00     0.051 A 
ATOM     17  C   UNL A   1      32.503  24.071  26.499  1.00  0.00     0.161 A 
ATOM     18  C   UNL A   1      34.373  25.123  24.695  1.00  0.00     0.008 A 
ATOM     19  C   UNL A   1      32.122  24.982  25.502  1.00  0.00     0.054 A 
BRANCH  15  20
ATOM     20  O   UNL A   1      34.290  22.855  27.568  1.00  0.00    -0.493 OA
ATOM     21  C   UNL A   1      33.995  21.486  27.296  1.00  0.00     0.278 C 
ENDBRANCH  15  20
BRANCH  17  22
ATOM     22  O   UNL A   1      31.452  23.714  27.299  1.00  0.00    -0.493 OA
ATOM     23  C   UNL A   1      30.286  23.176  26.697  1.00  0.00     0.278 C 
ENDBRANCH  17  22
ENDBRANCH   8  14
ENDBRANCH   5   7
ENDBRANCH   4   5
ENDBRANCH   3   4
ENDBRANCH   2   3
ENDBRANCH   1   2
BRANCH   1  24
ATOM     24  C   UNL A   1      31.354  31.751  26.533  1.00  0.00     0.202 C 
BRANCH  24  25
ATOM     25  C   UNL A   1      31.780  33.044  27.241  1.00  0.00     0.261 C 
BRANCH  25  26
ATOM     26  O   UNL A   1      33.189  33.307  27.098  1.00  0.00    -0.460 OA
BRANCH  26  27
ATOM     27  C   UNL A   1      33.812  33.674  28.241  1.00  0.00     0.338 C 
ATOM     28  O   UNL A   1      33.369  34.396  29.127  1.00  0.00    -0.246 OA
BRANCH  27  29
ATOM     29  C   UNL A   1      35.081  32.945  28.406  1.00  0.00     0.060 A 
ATOM     30  C   UNL A   1      34.996  31.584  28.728  1.00  0.00     0.016 A 
ATOM     31  C   UNL A   1      36.316  33.593  28.383  1.00  0.00     0.016 A 
ATOM     32  C   UNL A   1      36.137  30.884  29.107  1.00  0.00     0.010 A 
ATOM     33  C   UNL A   1      37.463  32.891  28.773  1.00  0.00     0.010 A 
ATOM     34  C   UNL A   1      37.368  31.549  29.188  1.00  0.00    -0.014 A 
BRANCH  34  35
ATOM     35  C   UNL A   1      38.486  30.887  29.907  1.00  0.00     0.031 A 
ATOM     36  C   UNL A   1      38.706  31.214  31.360  1.00  0.00     0.074 A 
ATOM     37  C   UNL A   1      39.240  29.948  29.308  1.00  0.00     0.049 A 
ATOM     38  N   UNL A   1      39.583  30.728  32.201  1.00  0.00    -0.248 NA
ATOM     39  C   UNL A   1      37.810  32.224  31.945  1.00  0.00     0.031 C 
ATOM     40  C   UNL A   1      39.099  29.511  27.922  1.00  0.00     0.029 A 
ATOM     41  N   UNL A   1      40.272  29.189  29.799  1.00  0.00    -0.354 N 
ATOM     42  C   UNL A   1      39.347  31.372  33.409  1.00  0.00     0.074 A 
ATOM     43  C   UNL A   1      38.266  32.307  33.186  1.00  0.00     0.031 C 
ATOM     44  C   UNL A   1      40.015  28.558  27.671  1.00  0.00     0.029 A 
ATOM     45  C   UNL A   1      40.816  28.335  28.873  1.00  0.00     0.049 A 
ATOM     46  H   UNL A   1      40.591  29.251  30.729  1.00  0.00     0.167 HD
ATOM     47  C   UNL A   1      39.964  31.192  34.601  1.00  0.00     0.037 A 
ATOM     48  C   UNL A   1      41.850  27.478  28.984  1.00  0.00     0.037 A 
ATOM     49  C   UNL A   1      41.033  30.257  34.828  1.00  0.00     0.049 A 
ATOM     50  C   UNL A   1      42.557  27.333  30.308  1.00  0.00     0.074 A 
ATOM     51  C   UNL A   1      41.718  29.996  36.002  1.00  0.00     0.029 A 
ATOM     52  N   UNL A   1      41.578  29.432  33.855  1.00  0.00    -0.354 N 
ATOM     53  N   UNL A   1      42.309  27.929  31.449  1.00  0.00    -0.248 NA
ATOM     54  C   UNL A   1      43.680  26.386  30.359  1.00  0.00     0.031 C 
ATOM     55  C   UNL A   1      42.704  29.041  35.730  1.00  0.00     0.029 A 
ATOM     56  C   UNL A   1      42.602  28.674  34.399  1.00  0.00     0.049 A 
ATOM     57  H   UNL A   1      41.280  29.391  32.917  1.00  0.00     0.167 HD
ATOM     58  C   UNL A   1      43.221  27.407  32.358  1.00  0.00     0.074 A 
ATOM     59  C   UNL A   1      44.021  26.440  31.639  1.00  0.00     0.031 C 
ATOM     60  C   UNL A   1      43.379  27.702  33.673  1.00  0.00     0.037 A 
BRANCH  47  61
ATOM     61  C   UNL A   1      39.508  32.042  35.749  1.00  0.00     0.064 A 
ATOM     62  C   UNL A   1      40.064  33.307  35.995  1.00  0.00     0.173 A 
ATOM     63  C   UNL A   1      38.483  31.597  36.597  1.00  0.00     0.173 A 
ATOM     64  F   UNL A   1      41.057  33.769  35.222  1.00  0.00    -0.203 F 
ATOM     65  C   UNL A   1      39.626  34.085  37.064  1.00  0.00     0.198 A 
ATOM     66  C   UNL A   1      38.029  32.390  37.648  1.00  0.00     0.198 A 
ATOM     67  F   UNL A   1      37.917  30.397  36.403  1.00  0.00    -0.203 F 
ATOM     68  F   UNL A   1      40.201  35.270  37.308  1.00  0.00    -0.200 F 
ATOM     69  C   UNL A   1      38.605  33.629  37.885  1.00  0.00     0.200 A 
ATOM     70  F   UNL A   1      37.035  31.953  38.434  1.00  0.00    -0.200 F 
ATOM     71  F   UNL A   1      38.181  34.381  38.909  1.00  0.00    -0.200 F 
ENDBRANCH  47  61
BRANCH  48  72
ATOM     72  C   UNL A   1      42.283  26.684  27.806  1.00  0.00     0.064 A 
ATOM     73  C   UNL A   1      43.264  27.165  26.928  1.00  0.00     0.173 A 
ATOM     74  C   UNL A   1      41.708  25.437  27.522  1.00  0.00     0.173 A 
ATOM     75  F   UNL A   1      43.824  28.365  27.141  1.00  0.00    -0.203 F 
ATOM     76  C   UNL A   1      43.640  26.436  25.800  1.00  0.00     0.198 A 
ATOM     77  C   UNL A   1      42.105  24.697  26.411  1.00  0.00     0.198 A 
ATOM     78  F   UNL A   1      40.763  24.933  28.331  1.00  0.00    -0.203 F 
ATOM     79  F   UNL A   1      44.547  26.940  24.953  1.00  0.00    -0.200 F 
ATOM     80  C   UNL A   1      43.065  25.200  25.546  1.00  0.00     0.200 A 
ATOM     81  F   UNL A   1      41.552  23.499  26.174  1.00  0.00    -0.200 F 
ATOM     82  F   UNL A   1      43.427  24.500  24.463  1.00  0.00    -0.200 F 
ENDBRANCH  48  72
BRANCH  60  83
ATOM     83  C   UNL A   1      44.426  26.939  34.432  1.00  0.00     0.064 A 
ATOM     84  C   UNL A   1      44.144  25.706  35.040  1.00  0.00     0.173 A 
ATOM     85  C   UNL A   1      45.738  27.428  34.515  1.00  0.00     0.173 A 
ATOM     86  F   UNL A   1      42.901  25.202  35.000  1.00  0.00    -0.203 F 
ATOM     87  C   UNL A   1      45.132  25.006  35.727  1.00  0.00     0.198 A 
ATOM     88  C   UNL A   1      46.730  26.712  35.179  1.00  0.00     0.198 A 
ATOM     89  F   UNL A   1      46.060  28.598  33.943  1.00  0.00    -0.203 F 
ATOM     90  F   UNL A   1      44.830  23.853  36.340  1.00  0.00    -0.200 F 
ATOM     91  C   UNL A   1      46.425  25.505  35.790  1.00  0.00     0.200 A 
ATOM     92  F   UNL A   1      47.980  27.190  35.228  1.00  0.00    -0.200 F 
ATOM     93  F   UNL A   1      47.376  24.827  36.447  1.00  0.00    -0.200 F 
ENDBRANCH  60  83
ENDBRANCH  34  35
ENDBRANCH  27  29
ENDBRANCH  26  27
ENDBRANCH  25  26
ENDBRANCH  24  25
ENDBRANCH   1  24
TORSDOF 17
ENDMDL
MODEL 2
REMARK VINA RESULT:     -11.2      1.602      7.576
REMARK SMILES COc1ccc([C@H]2C[NH2+]C[C@@H]2C(=O)OCCOCCOC(=O)c2ccc(-c3c4nc(c(-c5c(F)c(F)c(F)c(F)c5F)c5ccc([nH]5)c(-c5c(F)c(F)c(F)c(F)c5F)c5nc(c(-c6c(F)c(F)c(F)c(F)c6F)c6ccc3[nH]6)C=C5)C=C4)cc2)cc1OC
REMARK SMILES IDX 17 1 16 2 15 3 14 4 12 5 13 6 11 7 7 8 8 9 9 10 10 11 6 14
REMARK SMILES IDX 3 15 4 16 87 17 5 18 86 19 2 20 1 21 88 22 89 23 18 24 19 25
REMARK SMILES IDX 20 26 21 27 22 28 23 29 24 30 85 31 25 32 84 33 26 34 27 35
REMARK SMILES IDX 28 36 78 37 29 38 83 39 77 40 79 41 30 42 82 43 76 44 75 45
REMARK SMILES IDX 31 47 63 48 43 49 62 50 44 51 47 52 61 53 80 54 45 55 46 56
REMARK SMILES IDX 60 58 81 59 48 60 32 61 33 62 41 63 34 64 35 65 39 66 42 67
REMARK SMILES IDX 36 68 37 69 40 70 38 71 64 72 65 73 73 74 66 75 67 76 71 77
REMARK SMILES IDX 74 78 68 79 69 80 72 81 70 82 49 83 50 84 58 85 51 86 52 87
REMARK SMILES IDX 56 88 59 89 53 90 54 91 57 92 55 93
REMARK H PARENT 9 12 9 13 79 46 47 57
REMARK Flexibility Score: inf
ROOT
ATOM      1  O   UNL A   1      32.130  29.205  24.072  1.00  0.00    -0.374 OA
ENDROOT
BRANCH   1   2
ATOM      2  C   UNL A   1      33.506  28.997  23.752  1.00  0.00     0.202 C 
BRANCH   2   3
ATOM      3  C   UNL A   1      33.792  28.324  22.410  1.00  0.00     0.261 C 
BRANCH   3   4
ATOM      4  O   UNL A   1      32.689  27.485  22.029  1.00  0.00    -0.463 OA
BRANCH   4   5
ATOM      5  C   UNL A   1      32.987  26.180  21.829  1.00  0.00     0.315 C 
ATOM      6  O   UNL A   1      33.233  25.682  20.736  1.00  0.00    -0.252 OA
BRANCH   5   7
ATOM      7  C   UNL A   1      33.037  25.367  23.106  1.00  0.00     0.167 C 
ATOM      8  C   UNL A   1      32.950  23.871  22.762  1.00  0.00     0.094 C 
ATOM      9  C   UNL A   1      31.524  23.532  23.220  1.00  0.00     0.269 C 
ATOM     10  N   UNL A   1      31.336  24.309  24.452  1.00  0.00    -0.345 N 
ATOM     11  C   UNL A   1      31.939  25.612  24.145  1.00  0.00     0.276 C 
ATOM     12  H   UNL A   1      31.813  23.863  25.237  1.00  0.00     0.346 HD
ATOM     13  H   UNL A   1      30.355  24.383  24.724  1.00  0.00     0.346 HD
BRANCH   8  14
ATOM     14  C   UNL A   1      34.004  22.953  23.379  1.00  0.00    -0.034 A 
ATOM     15  C   UNL A   1      36.007  21.396  24.639  1.00  0.00     0.160 A 
ATOM     16  C   UNL A   1      36.336  22.596  23.997  1.00  0.00     0.051 A 
ATOM     17  C   UNL A   1      34.681  20.968  24.670  1.00  0.00     0.161 A 
ATOM     18  C   UNL A   1      35.346  23.364  23.376  1.00  0.00     0.008 A 
ATOM     19  C   UNL A   1      33.705  21.746  24.029  1.00  0.00     0.054 A 
BRANCH  15  20
ATOM     20  O   UNL A   1      36.993  20.730  25.313  1.00  0.00    -0.493 OA
ATOM     21  C   UNL A   1      38.156  21.540  25.475  1.00  0.00     0.278 C 
ENDBRANCH  15  20
BRANCH  17  22
ATOM     22  O   UNL A   1      34.144  19.864  25.274  1.00  0.00    -0.493 OA
ATOM     23  C   UNL A   1      34.109  18.641  24.558  1.00  0.00     0.278 C 
ENDBRANCH  17  22
ENDBRANCH   8  14
ENDBRANCH   5   7
ENDBRANCH   4   5
ENDBRANCH   3   4
ENDBRANCH   2   3
ENDBRANCH   1   2
BRANCH   1  24
ATOM     24  C   UNL A   1      31.771  29.339  25.446  1.00  0.00     0.202 C 
BRANCH  24  25
ATOM     25  C   UNL A   1      31.762  30.763  26.020  1.00  0.00     0.261 C 
BRANCH  25  26
ATOM     26  O   UNL A   1      32.424  30.842  27.297  1.00  0.00    -0.460 OA
BRANCH  26  27
ATOM     27  C   UNL A   1      33.239  31.911  27.443  1.00  0.00     0.338 C 
ATOM     28  O   UNL A   1      32.919  33.094  27.425  1.00  0.00    -0.246 OA
BRANCH  27  29
ATOM     29  C   UNL A   1      34.600  31.487  27.815  1.00  0.00     0.060 A 
ATOM     30  C   UNL A   1      34.797  30.123  28.060  1.00  0.00     0.016 A 
ATOM     31  C   UNL A   1      35.623  32.407  28.052  1.00  0.00     0.016 A 
ATOM     32  C   UNL A   1      35.992  29.680  28.620  1.00  0.00     0.010 A 
ATOM     33  C   UNL A   1      36.821  31.962  28.623  1.00  0.00     0.010 A 
ATOM     34  C   UNL A   1      36.988  30.605  28.958  1.00  0.00    -0.014 A 
BRANCH  34  35
ATOM     35  C   UNL A   1      38.093  30.164  29.848  1.00  0.00     0.031 A 
ATOM     36  C   UNL A   1      39.109  29.192  29.312  1.00  0.00     0.074 A 
ATOM     37  C   UNL A   1      38.241  30.680  31.081  1.00  0.00     0.049 A 
ATOM     38  N   UNL A   1      40.181  28.705  29.884  1.00  0.00    -0.248 NA
ATOM     39  C   UNL A   1      38.890  28.708  27.938  1.00  0.00     0.031 C 
ATOM     40  C   UNL A   1      37.351  31.659  31.699  1.00  0.00     0.029 A 
ATOM     41  N   UNL A   1      39.206  30.452  32.030  1.00  0.00    -0.354 N 
ATOM     42  C   UNL A   1      40.760  27.859  28.946  1.00  0.00     0.074 A 
ATOM     43  C   UNL A   1      39.905  27.873  27.779  1.00  0.00     0.031 C 
ATOM     44  C   UNL A   1      37.811  31.949  32.929  1.00  0.00     0.029 A 
ATOM     45  C   UNL A   1      39.015  31.160  33.190  1.00  0.00     0.049 A 
ATOM     46  H   UNL A   1      39.964  29.839  31.892  1.00  0.00     0.167 HD
ATOM     47  C   UNL A   1      41.906  27.146  29.042  1.00  0.00     0.037 A 
ATOM     48  C   UNL A   1      39.727  31.164  34.333  1.00  0.00     0.037 A 
ATOM     49  C   UNL A   1      42.762  27.136  30.197  1.00  0.00     0.049 A 
ATOM     50  C   UNL A   1      40.973  30.319  34.435  1.00  0.00     0.074 A 
ATOM     51  C   UNL A   1      43.950  26.451  30.387  1.00  0.00     0.029 A 
ATOM     52  N   UNL A   1      42.517  27.844  31.365  1.00  0.00    -0.354 N 
ATOM     53  N   UNL A   1      41.523  29.543  33.534  1.00  0.00    -0.248 NA
ATOM     54  C   UNL A   1      41.700  30.363  35.712  1.00  0.00     0.031 C 
ATOM     55  C   UNL A   1      44.403  26.713  31.685  1.00  0.00     0.029 A 
ATOM     56  C   UNL A   1      43.522  27.597  32.286  1.00  0.00     0.049 A 
ATOM     57  H   UNL A   1      41.743  28.433  31.516  1.00  0.00     0.167 HD
ATOM     58  C   UNL A   1      42.675  29.034  34.121  1.00  0.00     0.074 A 
ATOM     59  C   UNL A   1      42.749  29.596  35.453  1.00  0.00     0.031 C 
ATOM     60  C   UNL A   1      43.590  28.178  33.602  1.00  0.00     0.037 A 
BRANCH  47  61
ATOM     61  C   UNL A   1      42.291  26.297  27.866  1.00  0.00     0.064 A 
ATOM     62  C   UNL A   1      41.747  25.018  27.672  1.00  0.00     0.173 A 
ATOM     63  C   UNL A   1      43.194  26.781  26.908  1.00  0.00     0.173 A 
ATOM     64  F   UNL A   1      40.892  24.505  28.568  1.00  0.00    -0.203 F 
ATOM     65  C   UNL A   1      42.112  24.245  26.572  1.00  0.00     0.198 A 
ATOM     66  C   UNL A   1      43.536  26.015  25.796  1.00  0.00     0.198 A 
ATOM     67  F   UNL A   1      43.739  27.998  27.046  1.00  0.00    -0.203 F 
ATOM     68  F   UNL A   1      41.615  23.009  26.429  1.00  0.00    -0.200 F 
ATOM     69  C   UNL A   1      43.000  24.747  25.633  1.00  0.00     0.200 A 
ATOM     70  F   UNL A   1      44.386  26.506  24.883  1.00  0.00    -0.200 F 
ATOM     71  F   UNL A   1      43.346  24.004  24.572  1.00  0.00    -0.200 F 
ENDBRANCH  47  61
BRANCH  48  72
ATOM     72  C   UNL A   1      39.283  31.996  35.480  1.00  0.00     0.064 A 
ATOM     73  C   UNL A   1      39.688  33.332  35.607  1.00  0.00     0.173 A 
ATOM     74  C   UNL A   1      38.463  31.465  36.486  1.00  0.00     0.173 A 
ATOM     75  F   UNL A   1      40.494  33.878  34.685  1.00  0.00    -0.203 F 
ATOM     76  C   UNL A   1      39.302  34.100  36.705  1.00  0.00     0.198 A 
ATOM     77  C   UNL A   1      38.056  32.241  37.568  1.00  0.00     0.198 A 
ATOM     78  F   UNL A   1      38.051  30.190  36.413  1.00  0.00    -0.203 F 
ATOM     79  F   UNL A   1      39.740  35.360  36.824  1.00  0.00    -0.200 F 
ATOM     80  C   UNL A   1      38.482  33.555  37.682  1.00  0.00     0.200 A 
ATOM     81  F   UNL A   1      37.256  31.713  38.506  1.00  0.00    -0.200 F 
ATOM     82  F   UNL A   1      38.111  34.294  38.736  1.00  0.00    -0.200 F 
ENDBRANCH  48  72
BRANCH  60  83
ATOM     83  C   UNL A   1      44.776  27.832  34.456  1.00  0.00     0.064 A 
ATOM     84  C   UNL A   1      44.773  26.715  35.305  1.00  0.00     0.173 A 
ATOM     85  C   UNL A   1      45.944  28.605  34.392  1.00  0.00     0.173 A 
ATOM     86  F   UNL A   1      43.674  25.951  35.412  1.00  0.00    -0.203 F 
ATOM     87  C   UNL A   1      45.887  26.401  36.078  1.00  0.00     0.198 A 
ATOM     88  C   UNL A   1      47.067  28.272  35.145  1.00  0.00     0.198 A 
ATOM     89  F   UNL A   1      46.001  29.678  33.589  1.00  0.00    -0.203 F 
ATOM     90  F   UNL A   1      45.846  25.357  36.917  1.00  0.00    -0.200 F 
ATOM     91  C   UNL A   1      47.035  27.176  35.993  1.00  0.00     0.200 A 
ATOM     92  F   UNL A   1      48.179  29.014  35.051  1.00  0.00    -0.200 F 
ATOM     93  F   UNL A   1      48.109  26.869  36.733  1.00  0.00    -0.200 F 
ENDBRANCH  60  83
ENDBRANCH  34  35
ENDBRANCH  27  29
ENDBRANCH  26  27
ENDBRANCH  25  26
ENDBRANCH  24  25
ENDBRANCH   1  24
TORSDOF 17
ENDMDL
MODEL 3
REMARK VINA RESULT:     -11.2      3.050      8.748
REMARK SMILES COc1ccc([C@H]2C[NH2+]C[C@@H]2C(=O)OCCOCCOC(=O)c2ccc(-c3c4nc(c(-c5c(F)c(F)c(F)c(F)c5F)c5ccc([nH]5)c(-c5c(F)c(F)c(F)c(F)c5F)c5nc(c(-c6c(F)c(F)c(F)c(F)c6F)c6ccc3[nH]6)C=C5)C=C4)cc2)cc1OC
REMARK SMILES IDX 17 1 16 2 15 3 14 4 12 5 13 6 11 7 7 8 8 9 9 10 10 11 6 14
REMARK SMILES IDX 3 15 4 16 87 17 5 18 86 19 2 20 1 21 88 22 89 23 18 24 19 25
REMARK SMILES IDX 20 26 21 27 22 28 23 29 24 30 85 31 25 32 84 33 26 34 27 35
REMARK SMILES IDX 28 36 78 37 29 38 83 39 77 40 79 41 30 42 82 43 76 44 75 45
REMARK SMILES IDX 31 47 63 48 43 49 62 50 44 51 47 52 61 53 80 54 45 55 46 56
REMARK SMILES IDX 60 58 81 59 48 60 32 61 33 62 41 63 34 64 35 65 39 66 42 67
REMARK SMILES IDX 36 68 37 69 40 70 38 71 64 72 65 73 73 74 66 75 67 76 71 77
REMARK SMILES IDX 74 78 68 79 69 80 72 81 70 82 49 83 50 84 58 85 51 86 52 87
REMARK SMILES IDX 56 88 59 89 53 90 54 91 57 92 55 93
REMARK H PARENT 9 12 9 13 79 46 47 57
REMARK Flexibility Score: inf
ROOT
ATOM      1  O   UNL A   1      41.134  21.650  25.631  1.00  0.00    -0.374 OA
ENDROOT
BRANCH   1   2
ATOM      2  C   UNL A   1      40.042  21.286  26.474  1.00  0.00     0.202 C 
BRANCH   2   3
ATOM      3  C   UNL A   1      38.701  21.051  25.778  1.00  0.00     0.261 C 
BRANCH   3   4
ATOM      4  O   UNL A   1      38.294  22.234  25.071  1.00  0.00    -0.463 OA
BRANCH   4   5
ATOM      5  C   UNL A   1      37.435  23.045  25.733  1.00  0.00     0.315 C 
ATOM      6  O   UNL A   1      37.765  23.858  26.588  1.00  0.00    -0.252 OA
BRANCH   5   7
ATOM      7  C   UNL A   1      35.995  22.894  25.289  1.00  0.00     0.167 C 
ATOM      8  C   UNL A   1      35.062  23.200  26.472  1.00  0.00     0.094 C 
ATOM      9  C   UNL A   1      34.549  21.796  26.829  1.00  0.00     0.269 C 
ATOM     10  N   UNL A   1      34.371  21.126  25.535  1.00  0.00    -0.345 N 
ATOM     11  C   UNL A   1      35.554  21.525  24.762  1.00  0.00     0.276 C 
ATOM     12  H   UNL A   1      33.515  21.443  25.078  1.00  0.00     0.346 HD
ATOM     13  H   UNL A   1      34.283  20.113  25.625  1.00  0.00     0.346 HD
BRANCH   8  14
ATOM     14  C   UNL A   1      33.932  24.198  26.227  1.00  0.00    -0.034 A 
ATOM     15  C   UNL A   1      31.880  26.044  25.588  1.00  0.00     0.160 A 
ATOM     16  C   UNL A   1      33.216  26.327  25.278  1.00  0.00     0.051 A 
ATOM     17  C   UNL A   1      31.553  24.837  26.206  1.00  0.00     0.161 A 
ATOM     18  C   UNL A   1      34.227  25.414  25.593  1.00  0.00     0.008 A 
ATOM     19  C   UNL A   1      32.585  23.942  26.527  1.00  0.00     0.054 A 
BRANCH  15  20
ATOM     20  O   UNL A   1      30.918  26.923  25.174  1.00  0.00    -0.493 OA
ATOM     21  C   UNL A   1      31.444  28.240  25.016  1.00  0.00     0.278 C 
ENDBRANCH  15  20
BRANCH  17  22
ATOM     22  O   UNL A   1      30.322  24.350  26.550  1.00  0.00    -0.493 OA
ATOM     23  C   UNL A   1      30.195  22.973  26.863  1.00  0.00     0.278 C 
ENDBRANCH  17  22
ENDBRANCH   8  14
ENDBRANCH   5   7
ENDBRANCH   4   5
ENDBRANCH   3   4
ENDBRANCH   2   3
ENDBRANCH   1   2
BRANCH   1  24
ATOM     24  C   UNL A   1      42.450  21.265  26.029  1.00  0.00     0.202 C 
BRANCH  24  25
ATOM     25  C   UNL A   1      43.612  22.082  25.449  1.00  0.00     0.261 C 
BRANCH  25  26
ATOM     26  O   UNL A   1      43.157  23.220  24.694  1.00  0.00    -0.460 OA
BRANCH  26  27
ATOM     27  C   UNL A   1      43.838  24.364  24.933  1.00  0.00     0.338 C 
ATOM     28  O   UNL A   1      44.921  24.694  24.462  1.00  0.00    -0.246 OA
BRANCH  27  29
ATOM     29  C   UNL A   1      43.028  25.302  25.728  1.00  0.00     0.060 A 
ATOM     30  C   UNL A   1      43.619  26.526  26.066  1.00  0.00     0.016 A 
ATOM     31  C   UNL A   1      41.782  24.948  26.248  1.00  0.00     0.016 A 
ATOM     32  C   UNL A   1      43.003  27.368  26.987  1.00  0.00     0.010 A 
ATOM     33  C   UNL A   1      41.167  25.792  27.182  1.00  0.00     0.010 A 
ATOM     34  C   UNL A   1      41.802  26.978  27.594  1.00  0.00    -0.014 A 
BRANCH  34  35
ATOM     35  C   UNL A   1      41.346  27.715  28.800  1.00  0.00     0.031 A 
ATOM     36  C   UNL A   1      42.133  27.573  30.075  1.00  0.00     0.074 A 
ATOM     37  C   UNL A   1      40.302  28.561  28.745  1.00  0.00     0.049 A 
ATOM     38  N   UNL A   1      41.954  28.153  31.235  1.00  0.00    -0.248 NA
ATOM     39  C   UNL A   1      43.283  26.655  30.034  1.00  0.00     0.031 C 
ATOM     40  C   UNL A   1      39.486  28.819  27.562  1.00  0.00     0.029 A 
ATOM     41  N   UNL A   1      39.757  29.365  29.714  1.00  0.00    -0.354 N 
ATOM     42  C   UNL A   1      42.963  27.671  32.059  1.00  0.00     0.074 A 
ATOM     43  C   UNL A   1      43.733  26.726  31.279  1.00  0.00     0.031 C 
ATOM     44  C   UNL A   1      38.540  29.722  27.875  1.00  0.00     0.029 A 
ATOM     45  C   UNL A   1      38.673  30.087  29.284  1.00  0.00     0.049 A 
ATOM     46  H   UNL A   1      40.111  29.419  30.632  1.00  0.00     0.167 HD
ATOM     47  C   UNL A   1      43.235  27.994  33.345  1.00  0.00     0.037 A 
ATOM     48  C   UNL A   1      37.875  30.941  29.956  1.00  0.00     0.037 A 
ATOM     49  C   UNL A   1      42.477  28.938  34.122  1.00  0.00     0.049 A 
ATOM     50  C   UNL A   1      38.165  31.245  31.404  1.00  0.00     0.074 A 
ATOM     51  C   UNL A   1      42.678  29.340  35.431  1.00  0.00     0.029 A 
ATOM     52  N   UNL A   1      41.365  29.627  33.658  1.00  0.00    -0.354 N 
ATOM     53  N   UNL A   1      39.136  30.803  32.165  1.00  0.00    -0.248 NA
ATOM     54  C   UNL A   1      37.253  32.179  32.080  1.00  0.00     0.031 C 
ATOM     55  C   UNL A   1      41.664  30.241  35.773  1.00  0.00     0.029 A 
ATOM     56  C   UNL A   1      40.860  30.437  34.662  1.00  0.00     0.049 A 
ATOM     57  H   UNL A   1      40.992  29.551  32.750  1.00  0.00     0.167 HD
ATOM     58  C   UNL A   1      38.971  31.426  33.396  1.00  0.00     0.074 A 
ATOM     59  C   UNL A   1      37.812  32.285  33.277  1.00  0.00     0.031 C 
ATOM     60  C   UNL A   1      39.715  31.299  34.523  1.00  0.00     0.037 A 
BRANCH  47  61
ATOM     61  C   UNL A   1      44.393  27.302  34.002  1.00  0.00     0.064 A 
ATOM     62  C   UNL A   1      44.252  26.043  34.606  1.00  0.00     0.173 A 
ATOM     63  C   UNL A   1      45.664  27.894  34.001  1.00  0.00     0.173 A 
ATOM     64  F   UNL A   1      43.053  25.444  34.646  1.00  0.00    -0.203 F 
ATOM     65  C   UNL A   1      45.338  25.414  35.207  1.00  0.00     0.198 A 
ATOM     66  C   UNL A   1      46.754  27.248  34.579  1.00  0.00     0.198 A 
ATOM     67  F   UNL A   1      45.852  29.094  33.433  1.00  0.00    -0.203 F 
ATOM     68  F   UNL A   1      45.173  24.232  35.817  1.00  0.00    -0.200 F 
ATOM     69  C   UNL A   1      46.589  26.013  35.188  1.00  0.00     0.200 A 
ATOM     70  F   UNL A   1      47.964  27.824  34.550  1.00  0.00    -0.200 F 
ATOM     71  F   UNL A   1      47.635  25.403  35.761  1.00  0.00    -0.200 F 
ENDBRANCH  47  61
BRANCH  48  72
ATOM     72  C   UNL A   1      36.720  31.573  29.268  1.00  0.00     0.064 A 
ATOM     73  C   UNL A   1      36.712  32.943  28.973  1.00  0.00     0.173 A 
ATOM     74  C   UNL A   1      35.591  30.822  28.911  1.00  0.00     0.173 A 
ATOM     75  F   UNL A   1      37.758  33.709  29.319  1.00  0.00    -0.203 F 
ATOM     76  C   UNL A   1      35.611  33.542  28.363  1.00  0.00     0.198 A 
ATOM     77  C   UNL A   1      34.502  31.416  28.277  1.00  0.00     0.198 A 
ATOM     78  F   UNL A   1      35.548  29.507  29.173  1.00  0.00    -0.203 F 
ATOM     79  F   UNL A   1      35.611  34.861  28.135  1.00  0.00    -0.200 F 
ATOM     80  C   UNL A   1      34.509  32.776  28.010  1.00  0.00     0.200 A 
ATOM     81  F   UNL A   1      33.444  30.670  27.929  1.00  0.00    -0.200 F 
ATOM     82  F   UNL A   1      33.451  33.352  27.423  1.00  0.00    -0.200 F 
ENDBRANCH  48  72
BRANCH  60  83
ATOM     83  C   UNL A   1      39.329  32.142  35.705  1.00  0.00     0.064 A 
ATOM     84  C   UNL A   1      39.831  33.440  35.881  1.00  0.00     0.173 A 
ATOM     85  C   UNL A   1      38.412  31.658  36.650  1.00  0.00     0.173 A 
ATOM     86  F   UNL A   1      40.721  33.943  35.011  1.00  0.00    -0.203 F 
ATOM     87  C   UNL A   1      39.449  34.211  36.975  1.00  0.00     0.198 A 
ATOM     88  C   UNL A   1      38.011  32.443  37.728  1.00  0.00     0.198 A 
ATOM     89  F   UNL A   1      37.896  30.426  36.522  1.00  0.00    -0.203 F 
ATOM     90  F   UNL A   1      39.977  35.431  37.148  1.00  0.00    -0.200 F 
ATOM     91  C   UNL A   1      38.536  33.715  37.893  1.00  0.00     0.200 A 
ATOM     92  F   UNL A   1      37.119  31.966  38.606  1.00  0.00    -0.200 F 
ATOM     93  F   UNL A   1      38.165  34.462  38.943  1.00  0.00    -0.200 F 
ENDBRANCH  60  83
ENDBRANCH  34  35
ENDBRANCH  27  29
ENDBRANCH  26  27
ENDBRANCH  25  26
ENDBRANCH  24  25
ENDBRANCH   1  24
TORSDOF 17
ENDMDL
