MODEL 1
REMARK VINA RESULT:     -12.7      0.000      0.000
REMARK SMILES O=C(OCCOCCOC(=O)[C@@H]1CCCN1S(=O)(=O)c1ccc2c3c(cccc13)C(=O)N2)c1ccc(-c2c3nc(c(-c4c(F)c(F)c(F)c(F)c4F)c4ccc([nH]4)c(-c4c(F)c(F)c(F)c(F)c4F)c4nc(c(-c5c(F)c(F)c(F)c(F)c5F)c5ccc2[nH]5)C=C4)C=C3)cc1
REMARK SMILES IDX 6 1 5 2 4 3 3 4 2 5 1 6 33 7 34 8 95 9 35 10 94 11 36 12
REMARK SMILES IDX 37 13 38 14 88 15 39 16 93 17 87 18 89 19 40 20 92 21 86 22
REMARK SMILES IDX 85 23 41 25 73 26 53 27 72 28 54 29 57 30 71 31 90 32 55 33
REMARK SMILES IDX 56 34 70 36 91 37 58 38 42 39 43 40 51 41 44 42 45 43 49 44
REMARK SMILES IDX 52 45 46 46 47 47 50 48 48 49 74 50 75 51 83 52 76 53 77 54
REMARK SMILES IDX 81 55 84 56 78 57 79 58 82 59 80 60 59 61 60 62 68 63 61 64
REMARK SMILES IDX 62 65 66 66 69 67 63 68 64 69 67 70 65 71 7 72 8 73 9 74
REMARK SMILES IDX 10 75 11 76 12 77 13 78 16 79 14 80 15 81 17 82 18 83 19 84
REMARK SMILES IDX 20 85 21 86 29 87 22 88 24 89 28 90 23 91 25 92 27 93 32 94
REMARK SMILES IDX 26 95 30 96 31 98
REMARK H PARENT 89 24 57 35 32 97
REMARK Flexibility Score: inf
ROOT
ATOM      1  O   UNL A   1      31.828  30.374  26.939  1.00  0.00    -0.374 OA
ENDROOT
BRANCH   1   2
ATOM      2  C   UNL A   1      31.288  31.459  26.184  1.00  0.00     0.202 C 
BRANCH   2   3
ATOM      3  C   UNL A   1      31.777  32.861  26.528  1.00  0.00     0.261 C 
BRANCH   3   4
ATOM      4  O   UNL A   1      32.541  32.863  27.731  1.00  0.00    -0.460 OA
BRANCH   4   5
ATOM      5  C   UNL A   1      33.762  33.413  27.918  1.00  0.00     0.338 C 
ATOM      6  O   UNL A   1      33.896  34.603  27.634  1.00  0.00    -0.246 OA
BRANCH   5   7
ATOM      7  C   UNL A   1      34.975  32.678  28.427  1.00  0.00     0.060 A 
ATOM      8  C   UNL A   1      35.025  31.357  28.885  1.00  0.00     0.016 A 
ATOM      9  C   UNL A   1      36.192  33.383  28.372  1.00  0.00     0.016 A 
ATOM     10  C   UNL A   1      36.222  30.716  29.154  1.00  0.00     0.010 A 
ATOM     11  C   UNL A   1      37.398  32.783  28.745  1.00  0.00     0.010 A 
ATOM     12  C   UNL A   1      37.402  31.444  29.135  1.00  0.00    -0.014 A 
BRANCH  12  13
ATOM     13  C   UNL A   1      38.533  30.817  29.824  1.00  0.00     0.031 A 
ATOM     14  C   UNL A   1      38.717  31.183  31.267  1.00  0.00     0.074 A 
ATOM     15  C   UNL A   1      39.216  29.820  29.242  1.00  0.00     0.049 A 
ATOM     16  N   UNL A   1      39.551  30.697  32.142  1.00  0.00    -0.248 NA
ATOM     17  C   UNL A   1      37.791  32.196  31.814  1.00  0.00     0.031 C 
ATOM     18  C   UNL A   1      38.983  29.306  27.893  1.00  0.00     0.029 A 
ATOM     19  N   UNL A   1      40.236  29.049  29.728  1.00  0.00    -0.354 N 
ATOM     20  C   UNL A   1      39.234  31.325  33.338  1.00  0.00     0.074 A 
ATOM     21  C   UNL A   1      38.131  32.219  33.092  1.00  0.00     0.031 C 
ATOM     22  C   UNL A   1      39.860  28.317  27.649  1.00  0.00     0.029 A 
ATOM     23  C   UNL A   1      40.734  28.159  28.811  1.00  0.00     0.049 A 
ATOM     24  H   UNL A   1      40.578  29.125  30.648  1.00  0.00     0.167 HD
ATOM     25  C   UNL A   1      39.834  31.171  34.536  1.00  0.00     0.037 A 
ATOM     26  C   UNL A   1      41.807  27.352  28.906  1.00  0.00     0.037 A 
ATOM     27  C   UNL A   1      40.964  30.314  34.740  1.00  0.00     0.049 A 
ATOM     28  C   UNL A   1      42.574  27.339  30.207  1.00  0.00     0.074 A 
ATOM     29  C   UNL A   1      41.702  30.127  35.891  1.00  0.00     0.029 A 
ATOM     30  N   UNL A   1      41.530  29.521  33.753  1.00  0.00    -0.354 N 
ATOM     31  N   UNL A   1      42.301  27.957  31.334  1.00  0.00    -0.248 NA
ATOM     32  C   UNL A   1      43.804  26.538  30.250  1.00  0.00     0.031 C 
ATOM     33  C   UNL A   1      42.763  29.274  35.580  1.00  0.00     0.029 A 
ATOM     34  C   UNL A   1      42.646  28.880  34.255  1.00  0.00     0.049 A 
ATOM     35  H   UNL A   1      41.189  29.428  32.834  1.00  0.00     0.167 HD
ATOM     36  C   UNL A   1      43.311  27.606  32.220  1.00  0.00     0.074 A 
ATOM     37  C   UNL A   1      44.194  26.709  31.505  1.00  0.00     0.031 C 
ATOM     38  C   UNL A   1      43.500  27.995  33.505  1.00  0.00     0.037 A 
BRANCH  25  39
ATOM     39  C   UNL A   1      39.340  32.000  35.676  1.00  0.00     0.064 A 
ATOM     40  C   UNL A   1      38.380  31.521  36.578  1.00  0.00     0.173 A 
ATOM     41  C   UNL A   1      39.875  33.277  35.893  1.00  0.00     0.173 A 
ATOM     42  F   UNL A   1      37.811  30.321  36.387  1.00  0.00    -0.203 F 
ATOM     43  C   UNL A   1      37.982  32.290  37.668  1.00  0.00     0.198 A 
ATOM     44  C   UNL A   1      39.493  34.034  36.996  1.00  0.00     0.198 A 
ATOM     45  F   UNL A   1      40.779  33.785  35.042  1.00  0.00    -0.203 F 
ATOM     46  F   UNL A   1      37.047  31.827  38.508  1.00  0.00    -0.200 F 
ATOM     47  C   UNL A   1      38.549  33.539  37.884  1.00  0.00     0.200 A 
ATOM     48  F   UNL A   1      40.043  35.238  37.202  1.00  0.00    -0.200 F 
ATOM     49  F   UNL A   1      38.182  34.269  38.945  1.00  0.00    -0.200 F 
ENDBRANCH  25  39
BRANCH  26  50
ATOM     50  C   UNL A   1      42.262  26.565  27.728  1.00  0.00     0.064 A 
ATOM     51  C   UNL A   1      41.779  25.276  27.470  1.00  0.00     0.173 A 
ATOM     52  C   UNL A   1      43.226  27.083  26.846  1.00  0.00     0.173 A 
ATOM     53  F   UNL A   1      40.883  24.719  28.296  1.00  0.00    -0.203 F 
ATOM     54  C   UNL A   1      42.249  24.532  26.388  1.00  0.00     0.198 A 
ATOM     55  C   UNL A   1      43.671  26.351  25.747  1.00  0.00     0.198 A 
ATOM     56  F   UNL A   1      43.735  28.308  27.047  1.00  0.00    -0.203 F 
ATOM     57  F   UNL A   1      41.806  23.281  26.194  1.00  0.00    -0.200 F 
ATOM     58  C   UNL A   1      43.189  25.072  25.523  1.00  0.00     0.200 A 
ATOM     59  F   UNL A   1      44.571  26.885  24.909  1.00  0.00    -0.200 F 
ATOM     60  F   UNL A   1      43.638  24.358  24.483  1.00  0.00    -0.200 F 
ENDBRANCH  26  50
BRANCH  38  61
ATOM     61  C   UNL A   1      44.709  27.473  34.221  1.00  0.00     0.064 A 
ATOM     62  C   UNL A   1      45.872  28.247  34.333  1.00  0.00     0.173 A 
ATOM     63  C   UNL A   1      44.654  26.256  34.917  1.00  0.00     0.173 A 
ATOM     64  F   UNL A   1      45.972  29.416  33.681  1.00  0.00    -0.203 F 
ATOM     65  C   UNL A   1      46.940  27.818  35.114  1.00  0.00     0.198 A 
ATOM     66  C   UNL A   1      45.709  25.847  35.724  1.00  0.00     0.198 A 
ATOM     67  F   UNL A   1      43.553  25.491  34.856  1.00  0.00    -0.203 F 
ATOM     68  F   UNL A   1      48.051  28.564  35.192  1.00  0.00    -0.200 F 
ATOM     69  C   UNL A   1      46.851  26.628  35.821  1.00  0.00     0.200 A 
ATOM     70  F   UNL A   1      45.611  24.712  36.429  1.00  0.00    -0.200 F 
ATOM     71  F   UNL A   1      47.866  26.236  36.603  1.00  0.00    -0.200 F 
ENDBRANCH  38  61
ENDBRANCH  12  13
ENDBRANCH   5   7
ENDBRANCH   4   5
ENDBRANCH   3   4
ENDBRANCH   2   3
ENDBRANCH   1   2
BRANCH   1  72
ATOM     72  C   UNL A   1      32.081  29.189  26.183  1.00  0.00     0.202 C 
BRANCH  72  73
ATOM     73  C   UNL A   1      32.232  27.960  27.090  1.00  0.00     0.261 C 
BRANCH  73  74
ATOM     74  O   UNL A   1      31.078  27.104  26.927  1.00  0.00    -0.462 OA
BRANCH  74  75
ATOM     75  C   UNL A   1      31.296  25.829  26.504  1.00  0.00     0.324 C 
ATOM     76  O   UNL A   1      31.510  24.887  27.257  1.00  0.00    -0.250 OA
BRANCH  75  77
ATOM     77  C   UNL A   1      31.239  25.697  25.003  1.00  0.00     0.183 C 
ATOM     78  C   UNL A   1      30.388  24.567  24.427  1.00  0.00     0.034 C 
ATOM     79  N   UNL A   1      32.411  25.782  24.067  1.00  0.00    -0.184 NA
ATOM     80  C   UNL A   1      30.388  24.897  22.952  1.00  0.00     0.019 C 
ATOM     81  C   UNL A   1      31.773  25.495  22.697  1.00  0.00     0.103 C 
BRANCH  79  82
ATOM     82  S   UNL A   1      33.904  24.920  24.155  1.00  0.00     0.244 S 
ATOM     83  O   UNL A   1      34.382  24.776  22.794  1.00  0.00    -0.207 OA
ATOM     84  O   UNL A   1      34.687  25.715  25.082  1.00  0.00    -0.207 OA
BRANCH  82  85
ATOM     85  C   UNL A   1      33.817  23.265  24.842  1.00  0.00     0.090 A 
ATOM     86  C   UNL A   1      34.117  23.083  26.206  1.00  0.00     0.024 A 
ATOM     87  C   UNL A   1      33.233  22.165  24.118  1.00  0.00     0.005 A 
ATOM     88  C   UNL A   1      33.998  21.859  26.890  1.00  0.00     0.028 A 
ATOM     89  C   UNL A   1      33.133  20.994  24.827  1.00  0.00     0.019 A 
ATOM     90  C   UNL A   1      32.675  22.066  22.812  1.00  0.00     0.010 A 
ATOM     91  C   UNL A   1      33.498  20.824  26.142  1.00  0.00     0.050 A 
ATOM     92  C   UNL A   1      32.597  19.789  24.387  1.00  0.00     0.050 A 
ATOM     93  C   UNL A   1      32.117  20.860  22.327  1.00  0.00     0.002 A 
ATOM     94  N   UNL A   1      33.214  19.521  26.502  1.00  0.00    -0.321 N 
ATOM     95  C   UNL A   1      32.077  19.694  23.103  1.00  0.00     0.014 A 
ATOM     96  C   UNL A   1      32.660  18.799  25.444  1.00  0.00     0.256 C 
ATOM     97  H   UNL A   1      33.382  19.147  27.397  1.00  0.00     0.170 HD
ATOM     98  O   UNL A   1      32.341  17.616  25.501  1.00  0.00    -0.269 OA
ENDBRANCH  82  85
ENDBRANCH  79  82
ENDBRANCH  75  77
ENDBRANCH  74  75
ENDBRANCH  73  74
ENDBRANCH  72  73
ENDBRANCH   1  72
TORSDOF 16
ENDMDL
MODEL 2
REMARK VINA RESULT:     -12.6      1.972      7.510
REMARK SMILES O=C(OCCOCCOC(=O)[C@@H]1CCCN1S(=O)(=O)c1ccc2c3c(cccc13)C(=O)N2)c1ccc(-c2c3nc(c(-c4c(F)c(F)c(F)c(F)c4F)c4ccc([nH]4)c(-c4c(F)c(F)c(F)c(F)c4F)c4nc(c(-c5c(F)c(F)c(F)c(F)c5F)c5ccc2[nH]5)C=C4)C=C3)cc1
REMARK SMILES IDX 6 1 5 2 4 3 3 4 2 5 1 6 33 7 34 8 95 9 35 10 94 11 36 12
REMARK SMILES IDX 37 13 38 14 88 15 39 16 93 17 87 18 89 19 40 20 92 21 86 22
REMARK SMILES IDX 85 23 41 25 73 26 53 27 72 28 54 29 57 30 71 31 90 32 55 33
REMARK SMILES IDX 56 34 70 36 91 37 58 38 42 39 43 40 51 41 44 42 45 43 49 44
REMARK SMILES IDX 52 45 46 46 47 47 50 48 48 49 74 50 75 51 83 52 76 53 77 54
REMARK SMILES IDX 81 55 84 56 78 57 79 58 82 59 80 60 59 61 60 62 68 63 61 64
REMARK SMILES IDX 62 65 66 66 69 67 63 68 64 69 67 70 65 71 7 72 8 73 9 74
REMARK SMILES IDX 10 75 11 76 12 77 13 78 16 79 14 80 15 81 17 82 18 83 19 84
REMARK SMILES IDX 20 85 21 86 29 87 22 88 24 89 28 90 23 91 25 92 27 93 32 94
REMARK SMILES IDX 26 95 30 96 31 98
REMARK H PARENT 89 24 57 35 32 97
REMARK Flexibility Score: inf
ROOT
ATOM      1  O   UNL A   1      31.691  30.419  26.491  1.00  0.00    -0.374 OA
ENDROOT
BRANCH   1   2
ATOM      2  C   UNL A   1      31.602  31.833  26.670  1.00  0.00     0.202 C 
BRANCH   2   3
ATOM      3  C   UNL A   1      32.832  32.546  27.219  1.00  0.00     0.261 C 
BRANCH   3   4
ATOM      4  O   UNL A   1      32.509  33.856  27.678  1.00  0.00    -0.460 OA
BRANCH   4   5
ATOM      5  C   UNL A   1      33.182  34.585  28.597  1.00  0.00     0.338 C 
ATOM      6  O   UNL A   1      32.814  35.745  28.778  1.00  0.00    -0.246 OA
BRANCH   5   7
ATOM      7  C   UNL A   1      34.359  34.094  29.399  1.00  0.00     0.060 A 
ATOM      8  C   UNL A   1      35.709  34.169  29.041  1.00  0.00     0.016 A 
ATOM      9  C   UNL A   1      34.062  33.562  30.669  1.00  0.00     0.016 A 
ATOM     10  C   UNL A   1      36.724  33.860  29.929  1.00  0.00     0.010 A 
ATOM     11  C   UNL A   1      35.074  33.144  31.537  1.00  0.00     0.010 A 
ATOM     12  C   UNL A   1      36.407  33.298  31.156  1.00  0.00    -0.014 A 
BRANCH  12  13
ATOM     13  C   UNL A   1      37.515  32.627  31.841  1.00  0.00     0.031 A 
ATOM     14  C   UNL A   1      38.121  31.453  31.131  1.00  0.00     0.074 A 
ATOM     15  C   UNL A   1      38.074  33.176  32.930  1.00  0.00     0.049 A 
ATOM     16  N   UNL A   1      39.175  30.753  31.443  1.00  0.00    -0.248 NA
ATOM     17  C   UNL A   1      37.484  31.049  29.860  1.00  0.00     0.031 C 
ATOM     18  C   UNL A   1      37.631  34.408  33.582  1.00  0.00     0.029 A 
ATOM     19  N   UNL A   1      39.154  32.772  33.665  1.00  0.00    -0.354 N 
ATOM     20  C   UNL A   1      39.337  29.851  30.402  1.00  0.00     0.074 A 
ATOM     21  C   UNL A   1      38.288  30.088  29.442  1.00  0.00     0.031 C 
ATOM     22  C   UNL A   1      38.421  34.644  34.643  1.00  0.00     0.029 A 
ATOM     23  C   UNL A   1      39.396  33.560  34.761  1.00  0.00     0.049 A 
ATOM     24  H   UNL A   1      39.705  31.990  33.430  1.00  0.00     0.167 HD
ATOM     25  C   UNL A   1      40.281  28.896  30.276  1.00  0.00     0.037 A 
ATOM     26  C   UNL A   1      40.282  33.380  35.759  1.00  0.00     0.037 A 
ATOM     27  C   UNL A   1      41.280  28.648  31.272  1.00  0.00     0.049 A 
ATOM     28  C   UNL A   1      41.206  32.189  35.682  1.00  0.00     0.074 A 
ATOM     29  C   UNL A   1      42.246  27.664  31.292  1.00  0.00     0.029 A 
ATOM     30  N   UNL A   1      41.417  29.384  32.440  1.00  0.00    -0.354 N 
ATOM     31  N   UNL A   1      41.343  31.309  34.716  1.00  0.00    -0.248 NA
ATOM     32  C   UNL A   1      42.084  31.949  36.835  1.00  0.00     0.031 C 
ATOM     33  C   UNL A   1      42.924  27.758  32.509  1.00  0.00     0.029 A 
ATOM     34  C   UNL A   1      42.422  28.842  33.216  1.00  0.00     0.049 A 
ATOM     35  H   UNL A   1      40.881  30.174  32.679  1.00  0.00     0.167 HD
ATOM     36  C   UNL A   1      42.330  30.427  35.136  1.00  0.00     0.074 A 
ATOM     37  C   UNL A   1      42.769  30.886  36.436  1.00  0.00     0.031 C 
ATOM     38  C   UNL A   1      42.825  29.330  34.509  1.00  0.00     0.037 A 
BRANCH  25  39
ATOM     39  C   UNL A   1      40.220  28.007  29.077  1.00  0.00     0.064 A 
ATOM     40  C   UNL A   1      40.900  28.317  27.891  1.00  0.00     0.173 A 
ATOM     41  C   UNL A   1      39.505  26.803  29.137  1.00  0.00     0.173 A 
ATOM     42  F   UNL A   1      41.562  29.477  27.774  1.00  0.00    -0.203 F 
ATOM     43  C   UNL A   1      40.876  27.442  26.809  1.00  0.00     0.198 A 
ATOM     44  C   UNL A   1      39.504  25.919  28.062  1.00  0.00     0.198 A 
ATOM     45  F   UNL A   1      38.821  26.477  30.243  1.00  0.00    -0.203 F 
ATOM     46  F   UNL A   1      41.513  27.763  25.674  1.00  0.00    -0.200 F 
ATOM     47  C   UNL A   1      40.191  26.238  26.900  1.00  0.00     0.200 A 
ATOM     48  F   UNL A   1      38.842  24.758  28.155  1.00  0.00    -0.200 F 
ATOM     49  F   UNL A   1      40.188  25.385  25.867  1.00  0.00    -0.200 F 
ENDBRANCH  25  39
BRANCH  26  50
ATOM     50  C   UNL A   1      40.280  34.288  36.938  1.00  0.00     0.064 A 
ATOM     51  C   UNL A   1      39.418  34.088  38.023  1.00  0.00     0.173 A 
ATOM     52  C   UNL A   1      41.129  35.407  36.985  1.00  0.00     0.173 A 
ATOM     53  F   UNL A   1      38.563  33.055  38.017  1.00  0.00    -0.203 F 
ATOM     54  C   UNL A   1      39.394  34.973  39.100  1.00  0.00     0.198 A 
ATOM     55  C   UNL A   1      41.128  36.273  38.076  1.00  0.00     0.198 A 
ATOM     56  F   UNL A   1      41.970  35.659  35.970  1.00  0.00    -0.203 F 
ATOM     57  F   UNL A   1      38.524  34.785  40.102  1.00  0.00    -0.200 F 
ATOM     58  C   UNL A   1      40.254  36.061  39.130  1.00  0.00     0.200 A 
ATOM     59  F   UNL A   1      41.971  37.315  38.103  1.00  0.00    -0.200 F 
ATOM     60  F   UNL A   1      40.233  36.910  40.165  1.00  0.00    -0.200 F 
ENDBRANCH  26  50
BRANCH  38  61
ATOM     61  C   UNL A   1      43.881  28.539  35.220  1.00  0.00     0.064 A 
ATOM     62  C   UNL A   1      45.241  28.832  35.048  1.00  0.00     0.173 A 
ATOM     63  C   UNL A   1      43.527  27.580  36.180  1.00  0.00     0.173 A 
ATOM     64  F   UNL A   1      45.628  29.739  34.137  1.00  0.00    -0.203 F 
ATOM     65  C   UNL A   1      46.210  28.190  35.812  1.00  0.00     0.198 A 
ATOM     66  C   UNL A   1      44.495  26.966  36.966  1.00  0.00     0.198 A 
ATOM     67  F   UNL A   1      42.237  27.281  36.394  1.00  0.00    -0.203 F 
ATOM     68  F   UNL A   1      47.506  28.470  35.619  1.00  0.00    -0.200 F 
ATOM     69  C   UNL A   1      45.835  27.270  36.780  1.00  0.00     0.200 A 
ATOM     70  F   UNL A   1      44.130  26.099  37.921  1.00  0.00    -0.200 F 
ATOM     71  F   UNL A   1      46.768  26.680  37.541  1.00  0.00    -0.200 F 
ENDBRANCH  38  61
ENDBRANCH  12  13
ENDBRANCH   5   7
ENDBRANCH   4   5
ENDBRANCH   3   4
ENDBRANCH   2   3
ENDBRANCH   1   2
BRANCH   1  72
ATOM     72  C   UNL A   1      32.993  29.942  26.146  1.00  0.00     0.202 C 
BRANCH  72  73
ATOM     73  C   UNL A   1      33.414  28.757  27.026  1.00  0.00     0.261 C 
BRANCH  73  74
ATOM     74  O   UNL A   1      33.094  27.522  26.345  1.00  0.00    -0.462 OA
BRANCH  74  75
ATOM     75  C   UNL A   1      31.837  27.025  26.505  1.00  0.00     0.324 C 
ATOM     76  O   UNL A   1      31.148  27.216  27.499  1.00  0.00    -0.250 OA
BRANCH  75  77
ATOM     77  C   UNL A   1      31.378  26.216  25.317  1.00  0.00     0.183 C 
ATOM     78  C   UNL A   1      29.896  26.280  24.952  1.00  0.00     0.034 C 
ATOM     79  N   UNL A   1      31.764  24.796  25.018  1.00  0.00    -0.184 NA
ATOM     80  C   UNL A   1      29.871  25.562  23.623  1.00  0.00     0.019 C 
ATOM     81  C   UNL A   1      30.945  24.479  23.756  1.00  0.00     0.103 C 
BRANCH  79  82
ATOM     82  S   UNL A   1      31.681  23.429  26.069  1.00  0.00     0.244 S 
ATOM     83  O   UNL A   1      31.838  23.932  27.419  1.00  0.00    -0.207 OA
ATOM     84  O   UNL A   1      30.420  22.812  25.704  1.00  0.00    -0.207 OA
BRANCH  82  85
ATOM     85  C   UNL A   1      32.949  22.182  25.838  1.00  0.00     0.090 A 
ATOM     86  C   UNL A   1      32.558  20.880  25.469  1.00  0.00     0.024 A 
ATOM     87  C   UNL A   1      34.350  22.515  25.788  1.00  0.00     0.005 A 
ATOM     88  C   UNL A   1      33.453  19.836  25.168  1.00  0.00     0.028 A 
ATOM     89  C   UNL A   1      35.183  21.467  25.486  1.00  0.00     0.019 A 
ATOM     90  C   UNL A   1      35.048  23.748  25.933  1.00  0.00     0.010 A 
ATOM     91  C   UNL A   1      34.779  20.184  25.196  1.00  0.00     0.050 A 
ATOM     92  C   UNL A   1      36.567  21.505  25.353  1.00  0.00     0.050 A 
ATOM     93  C   UNL A   1      36.454  23.831  25.803  1.00  0.00     0.002 A 
ATOM     94  N   UNL A   1      35.903  19.433  24.912  1.00  0.00    -0.321 N 
ATOM     95  C   UNL A   1      37.242  22.707  25.520  1.00  0.00     0.014 A 
ATOM     96  C   UNL A   1      37.071  20.191  25.008  1.00  0.00     0.256 C 
ATOM     97  H   UNL A   1      35.882  18.480  24.672  1.00  0.00     0.170 HD
ATOM     98  O   UNL A   1      38.202  19.752  24.826  1.00  0.00    -0.269 OA
ENDBRANCH  82  85
ENDBRANCH  79  82
ENDBRANCH  75  77
ENDBRANCH  74  75
ENDBRANCH  73  74
ENDBRANCH  72  73
ENDBRANCH   1  72
TORSDOF 16
ENDMDL
MODEL 3
REMARK VINA RESULT:     -12.6      1.820      2.971
REMARK SMILES O=C(OCCOCCOC(=O)[C@@H]1CCCN1S(=O)(=O)c1ccc2c3c(cccc13)C(=O)N2)c1ccc(-c2c3nc(c(-c4c(F)c(F)c(F)c(F)c4F)c4ccc([nH]4)c(-c4c(F)c(F)c(F)c(F)c4F)c4nc(c(-c5c(F)c(F)c(F)c(F)c5F)c5ccc2[nH]5)C=C4)C=C3)cc1
REMARK SMILES IDX 6 1 5 2 4 3 3 4 2 5 1 6 33 7 34 8 95 9 35 10 94 11 36 12
REMARK SMILES IDX 37 13 38 14 88 15 39 16 93 17 87 18 89 19 40 20 92 21 86 22
REMARK SMILES IDX 85 23 41 25 73 26 53 27 72 28 54 29 57 30 71 31 90 32 55 33
REMARK SMILES IDX 56 34 70 36 91 37 58 38 42 39 43 40 51 41 44 42 45 43 49 44
REMARK SMILES IDX 52 45 46 46 47 47 50 48 48 49 74 50 75 51 83 52 76 53 77 54
REMARK SMILES IDX 81 55 84 56 78 57 79 58 82 59 80 60 59 61 60 62 68 63 61 64
REMARK SMILES IDX 62 65 66 66 69 67 63 68 64 69 67 70 65 71 7 72 8 73 9 74
REMARK SMILES IDX 10 75 11 76 12 77 13 78 16 79 14 80 15 81 17 82 18 83 19 84
REMARK SMILES IDX 20 85 21 86 29 87 22 88 24 89 28 90 23 91 25 92 27 93 32 94
REMARK SMILES IDX 26 95 30 96 31 98
REMARK H PARENT 89 24 57 35 32 97
REMARK Flexibility Score: inf
ROOT
ATOM      1  O   UNL A   1      31.278  30.935  25.779  1.00  0.00    -0.374 OA
ENDROOT
BRANCH   1   2
ATOM      2  C   UNL A   1      31.173  32.182  26.465  1.00  0.00     0.202 C 
BRANCH   2   3
ATOM      3  C   UNL A   1      32.412  32.680  27.202  1.00  0.00     0.261 C 
BRANCH   3   4
ATOM      4  O   UNL A   1      32.229  34.007  27.685  1.00  0.00    -0.460 OA
BRANCH   4   5
ATOM      5  C   UNL A   1      33.026  34.675  28.548  1.00  0.00     0.338 C 
ATOM      6  O   UNL A   1      32.716  35.834  28.825  1.00  0.00    -0.246 OA
BRANCH   5   7
ATOM      7  C   UNL A   1      34.276  34.120  29.181  1.00  0.00     0.060 A 
ATOM      8  C   UNL A   1      35.592  34.300  28.740  1.00  0.00     0.016 A 
ATOM      9  C   UNL A   1      34.094  33.397  30.376  1.00  0.00     0.016 A 
ATOM     10  C   UNL A   1      36.681  33.906  29.496  1.00  0.00     0.010 A 
ATOM     11  C   UNL A   1      35.183  32.897  31.096  1.00  0.00     0.010 A 
ATOM     12  C   UNL A   1      36.476  33.158  30.646  1.00  0.00    -0.014 A 
BRANCH  12  13
ATOM     13  C   UNL A   1      37.653  32.439  31.141  1.00  0.00     0.031 A 
ATOM     14  C   UNL A   1      38.142  32.824  32.506  1.00  0.00     0.074 A 
ATOM     15  C   UNL A   1      38.118  31.363  30.488  1.00  0.00     0.049 A 
ATOM     16  N   UNL A   1      39.078  32.281  33.232  1.00  0.00    -0.248 NA
ATOM     17  C   UNL A   1      37.436  33.941  33.169  1.00  0.00     0.031 C 
ATOM     18  C   UNL A   1      37.585  30.838  29.231  1.00  0.00     0.029 A 
ATOM     19  N   UNL A   1      39.134  30.506  30.811  1.00  0.00    -0.354 N 
ATOM     20  C   UNL A   1      39.054  32.970  34.435  1.00  0.00     0.074 A 
ATOM     21  C   UNL A   1      38.013  33.964  34.358  1.00  0.00     0.031 C 
ATOM     22  C   UNL A   1      38.303  29.759  28.874  1.00  0.00     0.029 A 
ATOM     23  C   UNL A   1      39.363  29.546  29.859  1.00  0.00     0.049 A 
ATOM     24  H   UNL A   1      39.650  30.573  31.646  1.00  0.00     0.167 HD
ATOM     25  C   UNL A   1      39.853  32.789  35.506  1.00  0.00     0.037 A 
ATOM     26  C   UNL A   1      40.354  28.637  29.789  1.00  0.00     0.037 A 
ATOM     27  C   UNL A   1      40.916  31.829  35.536  1.00  0.00     0.049 A 
ATOM     28  C   UNL A   1      41.349  28.584  30.924  1.00  0.00     0.074 A 
ATOM     29  C   UNL A   1      41.838  31.600  36.536  1.00  0.00     0.029 A 
ATOM     30  N   UNL A   1      41.207  30.956  34.498  1.00  0.00    -0.354 N 
ATOM     31  N   UNL A   1      41.354  29.256  32.053  1.00  0.00    -0.248 NA
ATOM     32  C   UNL A   1      42.484  27.664  30.774  1.00  0.00     0.031 C 
ATOM     33  C   UNL A   1      42.735  30.636  36.073  1.00  0.00     0.029 A 
ATOM     34  C   UNL A   1      42.333  30.219  34.812  1.00  0.00     0.049 A 
ATOM     35  H   UNL A   1      40.690  30.872  33.664  1.00  0.00     0.167 HD
ATOM     36  C   UNL A   1      42.477  28.830  32.750  1.00  0.00     0.074 A 
ATOM     37  C   UNL A   1      43.120  27.829  31.925  1.00  0.00     0.031 C 
ATOM     38  C   UNL A   1      42.942  29.233  33.958  1.00  0.00     0.037 A 
BRANCH  25  39
ATOM     39  C   UNL A   1      39.664  33.695  36.679  1.00  0.00     0.064 A 
ATOM     40  C   UNL A   1      40.242  34.970  36.730  1.00  0.00     0.173 A 
ATOM     41  C   UNL A   1      38.851  33.293  37.748  1.00  0.00     0.173 A 
ATOM     42  F   UNL A   1      41.060  35.382  35.749  1.00  0.00    -0.203 F 
ATOM     43  C   UNL A   1      40.001  35.818  37.807  1.00  0.00     0.198 A 
ATOM     44  C   UNL A   1      38.593  34.151  38.811  1.00  0.00     0.198 A 
ATOM     45  F   UNL A   1      38.296  32.071  37.753  1.00  0.00    -0.203 F 
ATOM     46  F   UNL A   1      40.580  37.026  37.851  1.00  0.00    -0.200 F 
ATOM     47  C   UNL A   1      39.165  35.414  38.839  1.00  0.00     0.200 A 
ATOM     48  F   UNL A   1      37.785  33.758  39.805  1.00  0.00    -0.200 F 
ATOM     49  F   UNL A   1      38.915  36.239  39.864  1.00  0.00    -0.200 F 
ENDBRANCH  25  39
BRANCH  26  50
ATOM     50  C   UNL A   1      40.501  27.776  28.584  1.00  0.00     0.064 A 
ATOM     51  C   UNL A   1      41.201  28.207  27.451  1.00  0.00     0.173 A 
ATOM     52  C   UNL A   1      39.907  26.504  28.534  1.00  0.00     0.173 A 
ATOM     53  F   UNL A   1      41.760  29.425  27.431  1.00  0.00    -0.203 F 
ATOM     54  C   UNL A   1      41.291  27.408  26.311  1.00  0.00     0.198 A 
ATOM     55  C   UNL A   1      40.025  25.693  27.407  1.00  0.00     0.198 A 
ATOM     56  F   UNL A   1      39.214  26.040  29.585  1.00  0.00    -0.203 F 
ATOM     57  F   UNL A   1      41.925  27.866  25.222  1.00  0.00    -0.200 F 
ATOM     58  C   UNL A   1      40.710  26.149  26.292  1.00  0.00     0.200 A 
ATOM     59  F   UNL A   1      39.471  24.473  27.401  1.00  0.00    -0.200 F 
ATOM     60  F   UNL A   1      40.799  25.381  25.199  1.00  0.00    -0.200 F 
ENDBRANCH  26  50
BRANCH  38  61
ATOM     61  C   UNL A   1      44.211  28.612  34.460  1.00  0.00     0.064 A 
ATOM     62  C   UNL A   1      45.447  29.246  34.277  1.00  0.00     0.173 A 
ATOM     63  C   UNL A   1      44.172  27.451  35.248  1.00  0.00     0.173 A 
ATOM     64  F   UNL A   1      45.533  30.355  33.526  1.00  0.00    -0.203 F 
ATOM     65  C   UNL A   1      46.601  28.738  34.863  1.00  0.00     0.198 A 
ATOM     66  C   UNL A   1      45.321  26.966  35.860  1.00  0.00     0.198 A 
ATOM     67  F   UNL A   1      43.008  26.821  35.468  1.00  0.00    -0.203 F 
ATOM     68  F   UNL A   1      47.777  29.348  34.659  1.00  0.00    -0.200 F 
ATOM     69  C   UNL A   1      46.535  27.609  35.666  1.00  0.00     0.200 A 
ATOM     70  F   UNL A   1      45.251  25.892  36.659  1.00  0.00    -0.200 F 
ATOM     71  F   UNL A   1      47.642  27.143  36.259  1.00  0.00    -0.200 F 
ENDBRANCH  38  61
ENDBRANCH  12  13
ENDBRANCH   5   7
ENDBRANCH   4   5
ENDBRANCH   3   4
ENDBRANCH   2   3
ENDBRANCH   1   2
BRANCH   1  72
ATOM     72  C   UNL A   1      32.249  30.036  26.317  1.00  0.00     0.202 C 
BRANCH  72  73
ATOM     73  C   UNL A   1      33.079  29.370  25.212  1.00  0.00     0.261 C 
BRANCH  73  74
ATOM     74  O   UNL A   1      32.241  29.149  24.056  1.00  0.00    -0.462 OA
BRANCH  74  75
ATOM     75  C   UNL A   1      31.553  27.976  23.994  1.00  0.00     0.324 C 
ATOM     76  O   UNL A   1      30.461  27.796  24.520  1.00  0.00    -0.250 OA
BRANCH  75  77
ATOM     77  C   UNL A   1      32.277  26.919  23.199  1.00  0.00     0.183 C 
ATOM     78  C   UNL A   1      31.571  26.359  21.965  1.00  0.00     0.034 C 
ATOM     79  N   UNL A   1      33.005  25.736  23.768  1.00  0.00    -0.184 NA
ATOM     80  C   UNL A   1      32.666  25.537  21.326  1.00  0.00     0.019 C 
ATOM     81  C   UNL A   1      33.462  24.979  22.509  1.00  0.00     0.103 C 
BRANCH  79  82
ATOM     82  S   UNL A   1      32.423  24.577  24.908  1.00  0.00     0.244 S 
ATOM     83  O   UNL A   1      32.516  25.197  26.214  1.00  0.00    -0.207 OA
ATOM     84  O   UNL A   1      31.109  24.243  24.392  1.00  0.00    -0.207 OA
BRANCH  82  85
ATOM     85  C   UNL A   1      33.343  23.040  25.005  1.00  0.00     0.090 A 
ATOM     86  C   UNL A   1      32.675  21.834  24.717  1.00  0.00     0.024 A 
ATOM     87  C   UNL A   1      34.777  23.014  25.137  1.00  0.00     0.005 A 
ATOM     88  C   UNL A   1      33.298  20.573  24.667  1.00  0.00     0.028 A 
ATOM     89  C   UNL A   1      35.340  21.763  25.077  1.00  0.00     0.019 A 
ATOM     90  C   UNL A   1      35.747  24.048  25.260  1.00  0.00     0.010 A 
ATOM     91  C   UNL A   1      34.655  20.589  24.863  1.00  0.00     0.050 A 
ATOM     92  C   UNL A   1      36.691  21.446  25.156  1.00  0.00     0.050 A 
ATOM     93  C   UNL A   1      37.132  23.769  25.340  1.00  0.00     0.002 A 
ATOM     94  N   UNL A   1      35.572  19.556  24.835  1.00  0.00    -0.321 N 
ATOM     95  C   UNL A   1      37.630  22.459  25.300  1.00  0.00     0.014 A 
ATOM     96  C   UNL A   1      36.876  20.014  25.031  1.00  0.00     0.256 C 
ATOM     97  H   UNL A   1      35.334  18.612  24.694  1.00  0.00     0.170 HD
ATOM     98  O   UNL A   1      37.868  19.292  25.072  1.00  0.00    -0.269 OA
ENDBRANCH  82  85
ENDBRANCH  79  82
ENDBRANCH  75  77
ENDBRANCH  74  75
ENDBRANCH  73  74
ENDBRANCH  72  73
ENDBRANCH   1  72
TORSDOF 16
ENDMDL
