MODEL 1
REMARK VINA RESULT:     -12.1      0.000      0.000
REMARK SMILES O=C(OCCOCCOC(=O)c1cc(-c2ccn(C(F)F)c(=O)c2)ccc1O)c1ccc(-c2c3nc(c(-c4c(F)c(F)c(F)c(F)c4F)c4ccc([nH]4)c(-c4c(F)c(F)c(F)c(F)c4F)c4nc(c(-c5c(F)c(F)c(F)c(F)c5F)c5ccc2[nH]5)C=C4)C=C3)cc1
REMARK SMILES IDX 6 1 5 2 4 3 3 4 2 5 1 6 29 7 30 8 91 9 31 10 90 11 32 12
REMARK SMILES IDX 33 13 34 14 84 15 35 16 89 17 83 18 85 19 36 20 88 21 82 22
REMARK SMILES IDX 81 23 37 25 69 26 49 27 68 28 50 29 53 30 67 31 86 32 51 33
REMARK SMILES IDX 52 34 66 36 87 37 54 38 38 39 39 40 47 41 40 42 41 43 45 44
REMARK SMILES IDX 48 45 42 46 43 47 46 48 44 49 70 50 71 51 79 52 72 53 73 54
REMARK SMILES IDX 77 55 80 56 74 57 75 58 78 59 76 60 55 61 56 62 64 63 57 64
REMARK SMILES IDX 58 65 62 66 65 67 59 68 60 69 63 70 61 71 7 72 8 73 9 74
REMARK SMILES IDX 10 75 11 76 12 77 13 78 27 79 14 80 26 81 25 82 28 83 15 85
REMARK SMILES IDX 16 86 24 87 17 88 22 89 18 90 23 91 19 92 20 93 21 94
REMARK H PARENT 85 24 53 35 28 84
REMARK Flexibility Score: inf
ROOT
ATOM      1  O   UNL A   1      40.926  21.660  25.648  1.00  0.00    -0.374 OA
ENDROOT
BRANCH   1   2
ATOM      2  C   UNL A   1      42.194  21.293  26.185  1.00  0.00     0.202 C 
BRANCH   2   3
ATOM      3  C   UNL A   1      43.415  22.026  25.630  1.00  0.00     0.261 C 
BRANCH   3   4
ATOM      4  O   UNL A   1      43.072  23.203  24.886  1.00  0.00    -0.460 OA
BRANCH   4   5
ATOM      5  C   UNL A   1      43.618  24.429  25.081  1.00  0.00     0.338 C 
ATOM      6  O   UNL A   1      44.724  24.687  24.612  1.00  0.00    -0.246 OA
BRANCH   5   7
ATOM      7  C   UNL A   1      43.025  25.374  26.072  1.00  0.00     0.060 A 
ATOM      8  C   UNL A   1      41.929  24.902  26.817  1.00  0.00     0.016 A 
ATOM      9  C   UNL A   1      43.489  26.667  26.321  1.00  0.00     0.016 A 
ATOM     10  C   UNL A   1      41.296  25.720  27.757  1.00  0.00     0.010 A 
ATOM     11  C   UNL A   1      42.820  27.511  27.197  1.00  0.00     0.010 A 
ATOM     12  C   UNL A   1      41.740  27.032  27.940  1.00  0.00    -0.014 A 
BRANCH  12  13
ATOM     13  C   UNL A   1      41.281  27.859  29.067  1.00  0.00     0.031 A 
ATOM     14  C   UNL A   1      40.121  28.787  28.935  1.00  0.00     0.074 A 
ATOM     15  C   UNL A   1      42.051  27.839  30.169  1.00  0.00     0.049 A 
ATOM     16  N   UNL A   1      39.568  29.529  29.858  1.00  0.00    -0.248 NA
ATOM     17  C   UNL A   1      39.509  28.917  27.604  1.00  0.00     0.031 C 
ATOM     18  C   UNL A   1      43.270  27.036  30.320  1.00  0.00     0.029 A 
ATOM     19  N   UNL A   1      41.961  28.531  31.343  1.00  0.00    -0.354 N 
ATOM     20  C   UNL A   1      38.514  30.181  29.235  1.00  0.00     0.074 A 
ATOM     21  C   UNL A   1      38.540  29.795  27.840  1.00  0.00     0.031 C 
ATOM     22  C   UNL A   1      43.827  27.301  31.508  1.00  0.00     0.029 A 
ATOM     23  C   UNL A   1      42.990  28.266  32.210  1.00  0.00     0.049 A 
ATOM     24  H   UNL A   1      41.231  29.159  31.546  1.00  0.00     0.167 HD
ATOM     25  C   UNL A   1      37.605  31.003  29.808  1.00  0.00     0.037 A 
ATOM     26  C   UNL A   1      43.215  28.730  33.451  1.00  0.00     0.037 A 
ATOM     27  C   UNL A   1      37.648  31.389  31.196  1.00  0.00     0.049 A 
ATOM     28  C   UNL A   1      42.183  29.629  34.064  1.00  0.00     0.074 A 
ATOM     29  C   UNL A   1      36.737  32.146  31.910  1.00  0.00     0.029 A 
ATOM     30  N   UNL A   1      38.674  31.065  32.074  1.00  0.00    -0.354 N 
ATOM     31  N   UNL A   1      41.086  30.103  33.526  1.00  0.00    -0.248 NA
ATOM     32  C   UNL A   1      42.394  30.028  35.459  1.00  0.00     0.031 C 
ATOM     33  C   UNL A   1      37.239  32.327  33.202  1.00  0.00     0.029 A 
ATOM     34  C   UNL A   1      38.435  31.634  33.312  1.00  0.00     0.049 A 
ATOM     35  H   UNL A   1      39.457  30.512  31.848  1.00  0.00     0.167 HD
ATOM     36  C   UNL A   1      40.455  30.827  34.523  1.00  0.00     0.074 A 
ATOM     37  C   UNL A   1      41.293  30.726  35.704  1.00  0.00     0.031 C 
ATOM     38  C   UNL A   1      39.286  31.510  34.469  1.00  0.00     0.037 A 
BRANCH  25  39
ATOM     39  C   UNL A   1      36.461  31.508  28.978  1.00  0.00     0.064 A 
ATOM     40  C   UNL A   1      35.390  30.666  28.643  1.00  0.00     0.173 A 
ATOM     41  C   UNL A   1      36.351  32.868  28.652  1.00  0.00     0.173 A 
ATOM     42  F   UNL A   1      35.442  29.357  28.933  1.00  0.00    -0.203 F 
ATOM     43  C   UNL A   1      34.249  31.168  28.022  1.00  0.00     0.198 A 
ATOM     44  C   UNL A   1      35.199  33.371  28.050  1.00  0.00     0.198 A 
ATOM     45  F   UNL A   1      37.340  33.720  28.960  1.00  0.00    -0.203 F 
ATOM     46  F   UNL A   1      33.237  30.343  27.715  1.00  0.00    -0.200 F 
ATOM     47  C   UNL A   1      34.148  32.522  27.739  1.00  0.00     0.200 A 
ATOM     48  F   UNL A   1      35.093  34.683  27.797  1.00  0.00    -0.200 F 
ATOM     49  F   UNL A   1      33.032  33.009  27.178  1.00  0.00    -0.200 F 
ENDBRANCH  25  39
BRANCH  26  50
ATOM     50  C   UNL A   1      44.394  28.240  34.202  1.00  0.00     0.064 A 
ATOM     51  C   UNL A   1      45.586  28.978  34.215  1.00  0.00     0.173 A 
ATOM     52  C   UNL A   1      44.332  27.084  34.993  1.00  0.00     0.173 A 
ATOM     53  F   UNL A   1      45.688  30.093  33.477  1.00  0.00    -0.203 F 
ATOM     54  C   UNL A   1      46.675  28.572  34.980  1.00  0.00     0.198 A 
ATOM     55  C   UNL A   1      45.416  26.691  35.777  1.00  0.00     0.198 A 
ATOM     56  F   UNL A   1      43.205  26.358  35.036  1.00  0.00    -0.203 F 
ATOM     57  F   UNL A   1      47.809  29.286  34.958  1.00  0.00    -0.200 F 
ATOM     58  C   UNL A   1      46.587  27.433  35.766  1.00  0.00     0.200 A 
ATOM     59  F   UNL A   1      45.319  25.604  36.555  1.00  0.00    -0.200 F 
ATOM     60  F   UNL A   1      47.630  27.053  36.516  1.00  0.00    -0.200 F 
ENDBRANCH  26  50
BRANCH  38  61
ATOM     61  C   UNL A   1      38.832  32.195  35.720  1.00  0.00     0.064 A 
ATOM     62  C   UNL A   1      38.168  31.491  36.735  1.00  0.00     0.173 A 
ATOM     63  C   UNL A   1      39.156  33.541  35.949  1.00  0.00     0.173 A 
ATOM     64  F   UNL A   1      37.826  30.207  36.554  1.00  0.00    -0.203 F 
ATOM     65  C   UNL A   1      37.843  32.113  37.936  1.00  0.00     0.198 A 
ATOM     66  C   UNL A   1      38.855  34.151  37.162  1.00  0.00     0.198 A 
ATOM     67  F   UNL A   1      39.798  34.252  35.009  1.00  0.00    -0.203 F 
ATOM     68  F   UNL A   1      37.190  31.429  38.886  1.00  0.00    -0.200 F 
ATOM     69  C   UNL A   1      38.199  33.437  38.153  1.00  0.00     0.200 A 
ATOM     70  F   UNL A   1      39.213  35.423  37.378  1.00  0.00    -0.200 F 
ATOM     71  F   UNL A   1      37.910  34.024  39.322  1.00  0.00    -0.200 F 
ENDBRANCH  38  61
ENDBRANCH  12  13
ENDBRANCH   5   7
ENDBRANCH   4   5
ENDBRANCH   3   4
ENDBRANCH   2   3
ENDBRANCH   1   2
BRANCH   1  72
ATOM     72  C   UNL A   1      39.838  21.591  26.578  1.00  0.00     0.202 C 
BRANCH  72  73
ATOM     73  C   UNL A   1      38.569  22.307  26.099  1.00  0.00     0.261 C 
BRANCH  73  74
ATOM     74  O   UNL A   1      37.671  21.400  25.442  1.00  0.00    -0.460 OA
BRANCH  74  75
ATOM     75  C   UNL A   1      36.877  21.938  24.473  1.00  0.00     0.342 C 
ATOM     76  O   UNL A   1      37.226  22.473  23.446  1.00  0.00    -0.246 OA
BRANCH  75  77
ATOM     77  C   UNL A   1      35.483  21.522  24.750  1.00  0.00     0.102 A 
ATOM     78  C   UNL A   1      34.496  22.525  24.780  1.00  0.00     0.028 A 
ATOM     79  C   UNL A   1      35.129  20.181  24.907  1.00  0.00     0.130 A 
ATOM     80  C   UNL A   1      33.149  22.174  24.897  1.00  0.00    -0.017 A 
ATOM     81  C   UNL A   1      33.791  19.832  25.071  1.00  0.00     0.048 A 
ATOM     82  C   UNL A   1      32.807  20.824  25.055  1.00  0.00     0.012 A 
BRANCH  79  83
ATOM     83  O   UNL A   1      36.090  19.211  24.913  1.00  0.00    -0.507 OA
ATOM     84  H   UNL A   1      35.937  18.398  24.472  1.00  0.00     0.293 HD
ENDBRANCH  79  83
BRANCH  80  85
ATOM     85  C   UNL A   1      32.069  23.176  24.848  1.00  0.00    -0.011 A 
ATOM     86  C   UNL A   1      31.232  23.359  23.681  1.00  0.00     0.027 A 
ATOM     87  C   UNL A   1      31.944  24.027  25.883  1.00  0.00     0.080 A 
ATOM     88  C   UNL A   1      30.413  24.412  23.590  1.00  0.00     0.095 A 
ATOM     89  C   UNL A   1      31.003  25.184  25.813  1.00  0.00     0.255 A 
ATOM     90  N   UNL A   1      30.312  25.329  24.621  1.00  0.00    -0.258 N 
ATOM     91  O   UNL A   1      30.927  25.932  26.782  1.00  0.00    -0.269 OA
BRANCH  90  92
ATOM     92  C   UNL A   1      29.499  26.511  24.472  1.00  0.00     0.451 C 
ATOM     93  F   UNL A   1      30.248  27.589  24.140  1.00  0.00    -0.185 F 
ATOM     94  F   UNL A   1      28.567  26.333  23.504  1.00  0.00    -0.185 F 
ENDBRANCH  90  92
ENDBRANCH  80  85
ENDBRANCH  75  77
ENDBRANCH  74  75
ENDBRANCH  73  74
ENDBRANCH  72  73
ENDBRANCH   1  72
TORSDOF 17
ENDMDL
MODEL 2
REMARK VINA RESULT:     -12.0      3.204      8.579
REMARK SMILES O=C(OCCOCCOC(=O)c1cc(-c2ccn(C(F)F)c(=O)c2)ccc1O)c1ccc(-c2c3nc(c(-c4c(F)c(F)c(F)c(F)c4F)c4ccc([nH]4)c(-c4c(F)c(F)c(F)c(F)c4F)c4nc(c(-c5c(F)c(F)c(F)c(F)c5F)c5ccc2[nH]5)C=C4)C=C3)cc1
REMARK SMILES IDX 6 1 5 2 4 3 3 4 2 5 1 6 29 7 30 8 91 9 31 10 90 11 32 12
REMARK SMILES IDX 33 13 34 14 84 15 35 16 89 17 83 18 85 19 36 20 88 21 82 22
REMARK SMILES IDX 81 23 37 25 69 26 49 27 68 28 50 29 53 30 67 31 86 32 51 33
REMARK SMILES IDX 52 34 66 36 87 37 54 38 38 39 39 40 47 41 40 42 41 43 45 44
REMARK SMILES IDX 48 45 42 46 43 47 46 48 44 49 70 50 71 51 79 52 72 53 73 54
REMARK SMILES IDX 77 55 80 56 74 57 75 58 78 59 76 60 55 61 56 62 64 63 57 64
REMARK SMILES IDX 58 65 62 66 65 67 59 68 60 69 63 70 61 71 7 72 8 73 9 74
REMARK SMILES IDX 10 75 11 76 12 77 13 78 27 79 14 80 26 81 25 82 28 83 15 85
REMARK SMILES IDX 16 86 24 87 17 88 22 89 18 90 23 91 19 92 20 93 21 94
REMARK H PARENT 85 24 53 35 28 84
REMARK Flexibility Score: inf
ROOT
ATOM      1  O   UNL A   1      31.573  30.821  26.127  1.00  0.00    -0.374 OA
ENDROOT
BRANCH   1   2
ATOM      2  C   UNL A   1      31.403  32.186  26.501  1.00  0.00     0.202 C 
BRANCH   2   3
ATOM      3  C   UNL A   1      32.535  32.826  27.303  1.00  0.00     0.261 C 
BRANCH   3   4
ATOM      4  O   UNL A   1      32.282  34.197  27.634  1.00  0.00    -0.460 OA
BRANCH   4   5
ATOM      5  C   UNL A   1      32.903  34.883  28.625  1.00  0.00     0.338 C 
ATOM      6  O   UNL A   1      32.615  36.060  28.828  1.00  0.00    -0.246 OA
BRANCH   5   7
ATOM      7  C   UNL A   1      34.112  34.319  29.294  1.00  0.00     0.060 A 
ATOM      8  C   UNL A   1      33.913  33.701  30.541  1.00  0.00     0.016 A 
ATOM      9  C   UNL A   1      35.404  34.346  28.765  1.00  0.00     0.016 A 
ATOM     10  C   UNL A   1      34.987  33.159  31.252  1.00  0.00     0.010 A 
ATOM     11  C   UNL A   1      36.487  33.879  29.498  1.00  0.00     0.010 A 
ATOM     12  C   UNL A   1      36.280  33.256  30.729  1.00  0.00    -0.014 A 
BRANCH  12  13
ATOM     13  C   UNL A   1      37.409  32.508  31.302  1.00  0.00     0.031 A 
ATOM     14  C   UNL A   1      37.978  31.307  30.624  1.00  0.00     0.074 A 
ATOM     15  C   UNL A   1      37.802  32.879  32.534  1.00  0.00     0.049 A 
ATOM     16  N   UNL A   1      39.009  30.588  30.980  1.00  0.00    -0.248 NA
ATOM     17  C   UNL A   1      37.303  30.839  29.404  1.00  0.00     0.031 C 
ATOM     18  C   UNL A   1      37.206  33.978  33.303  1.00  0.00     0.029 A 
ATOM     19  N   UNL A   1      38.747  32.360  33.372  1.00  0.00    -0.354 N 
ATOM     20  C   UNL A   1      39.139  29.609  30.007  1.00  0.00     0.074 A 
ATOM     21  C   UNL A   1      38.045  29.786  29.076  1.00  0.00     0.031 C 
ATOM     22  C   UNL A   1      37.784  34.034  34.509  1.00  0.00     0.029 A 
ATOM     23  C   UNL A   1      38.807  32.999  34.585  1.00  0.00     0.049 A 
ATOM     24  H   UNL A   1      39.328  31.604  33.130  1.00  0.00     0.167 HD
ATOM     25  C   UNL A   1      40.111  28.673  29.910  1.00  0.00     0.037 A 
ATOM     26  C   UNL A   1      39.622  32.787  35.632  1.00  0.00     0.037 A 
ATOM     27  C   UNL A   1      41.158  28.511  30.888  1.00  0.00     0.049 A 
ATOM     28  C   UNL A   1      40.697  31.752  35.490  1.00  0.00     0.074 A 
ATOM     29  C   UNL A   1      42.245  27.657  30.856  1.00  0.00     0.029 A 
ATOM     30  N   UNL A   1      41.230  29.207  32.088  1.00  0.00    -0.354 N 
ATOM     31  N   UNL A   1      40.929  30.944  34.484  1.00  0.00    -0.248 NA
ATOM     32  C   UNL A   1      41.645  31.622  36.601  1.00  0.00     0.031 C 
ATOM     33  C   UNL A   1      42.942  27.795  32.060  1.00  0.00     0.029 A 
ATOM     34  C   UNL A   1      42.324  28.777  32.819  1.00  0.00     0.049 A 
ATOM     35  H   UNL A   1      40.595  29.902  32.377  1.00  0.00     0.167 HD
ATOM     36  C   UNL A   1      42.068  30.233  34.822  1.00  0.00     0.074 A 
ATOM     37  C   UNL A   1      42.484  30.710  36.127  1.00  0.00     0.031 C 
ATOM     38  C   UNL A   1      42.714  29.276  34.114  1.00  0.00     0.037 A 
BRANCH  25  39
ATOM     39  C   UNL A   1      40.140  27.782  28.703  1.00  0.00     0.064 A 
ATOM     40  C   UNL A   1      40.860  28.150  27.555  1.00  0.00     0.173 A 
ATOM     41  C   UNL A   1      39.589  26.492  28.744  1.00  0.00     0.173 A 
ATOM     42  F   UNL A   1      41.410  29.370  27.465  1.00  0.00    -0.203 F 
ATOM     43  C   UNL A   1      41.033  27.258  26.500  1.00  0.00     0.198 A 
ATOM     44  C   UNL A   1      39.783  25.595  27.695  1.00  0.00     0.198 A 
ATOM     45  F   UNL A   1      38.903  26.084  29.821  1.00  0.00    -0.203 F 
ATOM     46  F   UNL A   1      41.727  27.633  25.415  1.00  0.00    -0.200 F 
ATOM     47  C   UNL A   1      40.508  25.978  26.576  1.00  0.00     0.200 A 
ATOM     48  F   UNL A   1      39.293  24.350  27.778  1.00  0.00    -0.200 F 
ATOM     49  F   UNL A   1      40.710  25.108  25.576  1.00  0.00    -0.200 F 
ENDBRANCH  25  39
BRANCH  26  50
ATOM     50  C   UNL A   1      39.507  33.662  36.822  1.00  0.00     0.064 A 
ATOM     51  C   UNL A   1      40.121  34.922  36.841  1.00  0.00     0.173 A 
ATOM     52  C   UNL A   1      38.713  33.305  37.922  1.00  0.00     0.173 A 
ATOM     53  F   UNL A   1      40.886  35.307  35.809  1.00  0.00    -0.203 F 
ATOM     54  C   UNL A   1      39.956  35.786  37.919  1.00  0.00     0.198 A 
ATOM     55  C   UNL A   1      38.529  34.181  38.990  1.00  0.00     0.198 A 
ATOM     56  F   UNL A   1      38.082  32.121  37.938  1.00  0.00    -0.203 F 
ATOM     57  F   UNL A   1      40.570  36.977  37.919  1.00  0.00    -0.200 F 
ATOM     58  C   UNL A   1      39.154  35.419  38.989  1.00  0.00     0.200 A 
ATOM     59  F   UNL A   1      37.734  33.833  40.011  1.00  0.00    -0.200 F 
ATOM     60  F   UNL A   1      38.982  36.259  40.018  1.00  0.00    -0.200 F 
ENDBRANCH  26  50
BRANCH  38  61
ATOM     61  C   UNL A   1      43.945  28.683  34.724  1.00  0.00     0.064 A 
ATOM     62  C   UNL A   1      45.200  29.287  34.565  1.00  0.00     0.173 A 
ATOM     63  C   UNL A   1      43.851  27.560  35.561  1.00  0.00     0.173 A 
ATOM     64  F   UNL A   1      45.339  30.354  33.764  1.00  0.00    -0.203 F 
ATOM     65  C   UNL A   1      46.319  28.786  35.222  1.00  0.00     0.198 A 
ATOM     66  C   UNL A   1      44.967  27.080  36.239  1.00  0.00     0.198 A 
ATOM     67  F   UNL A   1      42.669  26.953  35.749  1.00  0.00    -0.203 F 
ATOM     68  F   UNL A   1      47.514  29.366  35.040  1.00  0.00    -0.200 F 
ATOM     69  C   UNL A   1      46.199  27.693  36.068  1.00  0.00     0.200 A 
ATOM     70  F   UNL A   1      44.847  26.035  37.068  1.00  0.00    -0.200 F 
ATOM     71  F   UNL A   1      47.273  27.231  36.722  1.00  0.00    -0.200 F 
ENDBRANCH  38  61
ENDBRANCH  12  13
ENDBRANCH   5   7
ENDBRANCH   4   5
ENDBRANCH   3   4
ENDBRANCH   2   3
ENDBRANCH   1   2
BRANCH   1  72
ATOM     72  C   UNL A   1      31.796  29.923  27.221  1.00  0.00     0.202 C 
BRANCH  72  73
ATOM     73  C   UNL A   1      31.700  28.441  26.834  1.00  0.00     0.261 C 
BRANCH  73  74
ATOM     74  O   UNL A   1      32.964  27.777  26.985  1.00  0.00    -0.460 OA
BRANCH  74  75
ATOM     75  C   UNL A   1      33.976  28.226  26.190  1.00  0.00     0.342 C 
ATOM     76  O   UNL A   1      34.893  28.950  26.501  1.00  0.00    -0.246 OA
BRANCH  75  77
ATOM     77  C   UNL A   1      33.927  27.461  24.922  1.00  0.00     0.102 A 
ATOM     78  C   UNL A   1      34.028  26.060  25.002  1.00  0.00     0.028 A 
ATOM     79  C   UNL A   1      33.716  28.082  23.691  1.00  0.00     0.130 A 
ATOM     80  C   UNL A   1      33.848  25.281  23.856  1.00  0.00    -0.017 A 
ATOM     81  C   UNL A   1      33.583  27.312  22.539  1.00  0.00     0.048 A 
ATOM     82  C   UNL A   1      33.638  25.918  22.625  1.00  0.00     0.012 A 
BRANCH  79  83
ATOM     83  O   UNL A   1      33.653  29.444  23.608  1.00  0.00    -0.507 OA
ATOM     84  H   UNL A   1      34.364  29.923  23.231  1.00  0.00     0.293 HD
ENDBRANCH  79  83
BRANCH  80  85
ATOM     85  C   UNL A   1      33.860  23.808  23.898  1.00  0.00    -0.011 A 
ATOM     86  C   UNL A   1      32.871  23.005  23.208  1.00  0.00     0.027 A 
ATOM     87  C   UNL A   1      34.749  23.201  24.703  1.00  0.00     0.080 A 
ATOM     88  C   UNL A   1      32.781  21.690  23.441  1.00  0.00     0.095 A 
ATOM     89  C   UNL A   1      34.687  21.728  24.940  1.00  0.00     0.255 A 
ATOM     90  N   UNL A   1      33.652  21.059  24.310  1.00  0.00    -0.258 N 
ATOM     91  O   UNL A   1      35.520  21.223  25.686  1.00  0.00    -0.269 OA
BRANCH  90  92
ATOM     92  C   UNL A   1      33.483  19.661  24.626  1.00  0.00     0.451 C 
ATOM     93  F   UNL A   1      34.632  18.968  24.439  1.00  0.00    -0.185 F 
ATOM     94  F   UNL A   1      33.103  19.504  25.918  1.00  0.00    -0.185 F 
ENDBRANCH  90  92
ENDBRANCH  80  85
ENDBRANCH  75  77
ENDBRANCH  74  75
ENDBRANCH  73  74
ENDBRANCH  72  73
ENDBRANCH   1  72
TORSDOF 17
ENDMDL
MODEL 3
REMARK VINA RESULT:     -11.8      3.363      8.628
REMARK SMILES O=C(OCCOCCOC(=O)c1cc(-c2ccn(C(F)F)c(=O)c2)ccc1O)c1ccc(-c2c3nc(c(-c4c(F)c(F)c(F)c(F)c4F)c4ccc([nH]4)c(-c4c(F)c(F)c(F)c(F)c4F)c4nc(c(-c5c(F)c(F)c(F)c(F)c5F)c5ccc2[nH]5)C=C4)C=C3)cc1
REMARK SMILES IDX 6 1 5 2 4 3 3 4 2 5 1 6 29 7 30 8 91 9 31 10 90 11 32 12
REMARK SMILES IDX 33 13 34 14 84 15 35 16 89 17 83 18 85 19 36 20 88 21 82 22
REMARK SMILES IDX 81 23 37 25 69 26 49 27 68 28 50 29 53 30 67 31 86 32 51 33
REMARK SMILES IDX 52 34 66 36 87 37 54 38 38 39 39 40 47 41 40 42 41 43 45 44
REMARK SMILES IDX 48 45 42 46 43 47 46 48 44 49 70 50 71 51 79 52 72 53 73 54
REMARK SMILES IDX 77 55 80 56 74 57 75 58 78 59 76 60 55 61 56 62 64 63 57 64
REMARK SMILES IDX 58 65 62 66 65 67 59 68 60 69 63 70 61 71 7 72 8 73 9 74
REMARK SMILES IDX 10 75 11 76 12 77 13 78 27 79 14 80 26 81 25 82 28 83 15 85
REMARK SMILES IDX 16 86 24 87 17 88 22 89 18 90 23 91 19 92 20 93 21 94
REMARK H PARENT 85 24 53 35 28 84
REMARK Flexibility Score: inf
ROOT
ATOM      1  O   UNL A   1      32.223  27.936  25.815  1.00  0.00    -0.374 OA
ENDROOT
BRANCH   1   2
ATOM      2  C   UNL A   1      31.985  28.718  26.982  1.00  0.00     0.202 C 
BRANCH   2   3
ATOM      3  C   UNL A   1      31.839  30.225  26.782  1.00  0.00     0.261 C 
BRANCH   3   4
ATOM      4  O   UNL A   1      33.093  30.886  26.563  1.00  0.00    -0.460 OA
BRANCH   4   5
ATOM      5  C   UNL A   1      33.756  31.618  27.491  1.00  0.00     0.338 C 
ATOM      6  O   UNL A   1      33.469  32.802  27.656  1.00  0.00    -0.246 OA
BRANCH   5   7
ATOM      7  C   UNL A   1      35.000  31.091  28.125  1.00  0.00     0.060 A 
ATOM      8  C   UNL A   1      36.094  31.972  28.196  1.00  0.00     0.016 A 
ATOM      9  C   UNL A   1      35.144  29.810  28.661  1.00  0.00     0.016 A 
ATOM     10  C   UNL A   1      37.308  31.564  28.756  1.00  0.00     0.010 A 
ATOM     11  C   UNL A   1      36.367  29.372  29.149  1.00  0.00     0.010 A 
ATOM     12  C   UNL A   1      37.444  30.255  29.227  1.00  0.00    -0.014 A 
BRANCH  12  13
ATOM     13  C   UNL A   1      38.600  29.835  30.035  1.00  0.00     0.031 A 
ATOM     14  C   UNL A   1      38.883  30.436  31.370  1.00  0.00     0.074 A 
ATOM     15  C   UNL A   1      39.462  28.990  29.441  1.00  0.00     0.049 A 
ATOM     16  N   UNL A   1      39.827  30.120  32.217  1.00  0.00    -0.248 NA
ATOM     17  C   UNL A   1      38.014  31.537  31.812  1.00  0.00     0.031 C 
ATOM     18  C   UNL A   1      39.301  28.453  28.084  1.00  0.00     0.029 A 
ATOM     19  N   UNL A   1      40.651  28.472  29.866  1.00  0.00    -0.354 N 
ATOM     20  C   UNL A   1      39.641  30.950  33.313  1.00  0.00     0.074 A 
ATOM     21  C   UNL A   1      38.533  31.826  33.001  1.00  0.00     0.031 C 
ATOM     22  C   UNL A   1      40.366  27.701  27.781  1.00  0.00     0.029 A 
ATOM     23  C   UNL A   1      41.265  27.679  28.928  1.00  0.00     0.049 A 
ATOM     24  H   UNL A   1      41.032  28.648  30.756  1.00  0.00     0.167 HD
ATOM     25  C   UNL A   1      40.335  30.941  34.475  1.00  0.00     0.037 A 
ATOM     26  C   UNL A   1      42.413  26.987  29.002  1.00  0.00     0.037 A 
ATOM     27  C   UNL A   1      41.460  30.074  34.721  1.00  0.00     0.049 A 
ATOM     28  C   UNL A   1      43.153  26.986  30.306  1.00  0.00     0.074 A 
ATOM     29  C   UNL A   1      42.187  29.913  35.886  1.00  0.00     0.029 A 
ATOM     30  N   UNL A   1      42.034  29.238  33.772  1.00  0.00    -0.354 N 
ATOM     31  N   UNL A   1      42.873  27.639  31.408  1.00  0.00    -0.248 NA
ATOM     32  C   UNL A   1      44.341  26.131  30.396  1.00  0.00     0.031 C 
ATOM     33  C   UNL A   1      43.234  29.025  35.626  1.00  0.00     0.029 A 
ATOM     34  C   UNL A   1      43.127  28.585  34.316  1.00  0.00     0.049 A 
ATOM     35  H   UNL A   1      41.712  29.127  32.847  1.00  0.00     0.167 HD
ATOM     36  C   UNL A   1      43.824  27.249  32.334  1.00  0.00     0.074 A 
ATOM     37  C   UNL A   1      44.690  26.297  31.665  1.00  0.00     0.031 C 
ATOM     38  C   UNL A   1      43.965  27.639  33.624  1.00  0.00     0.037 A 
BRANCH  25  39
ATOM     39  C   UNL A   1      39.890  31.842  35.590  1.00  0.00     0.064 A 
ATOM     40  C   UNL A   1      40.424  33.133  35.727  1.00  0.00     0.173 A 
ATOM     41  C   UNL A   1      38.820  31.484  36.423  1.00  0.00     0.173 A 
ATOM     42  F   UNL A   1      41.446  33.527  34.954  1.00  0.00    -0.203 F 
ATOM     43  C   UNL A   1      39.897  34.033  36.650  1.00  0.00     0.198 A 
ATOM     44  C   UNL A   1      38.281  32.394  37.330  1.00  0.00     0.198 A 
ATOM     45  F   UNL A   1      38.264  30.268  36.326  1.00  0.00    -0.203 F 
ATOM     46  F   UNL A   1      40.422  35.262  36.760  1.00  0.00    -0.200 F 
ATOM     47  C   UNL A   1      38.817  33.669  37.440  1.00  0.00     0.200 A 
ATOM     48  F   UNL A   1      37.223  32.049  38.079  1.00  0.00    -0.200 F 
ATOM     49  F   UNL A   1      38.286  34.550  38.299  1.00  0.00    -0.200 F 
ENDBRANCH  25  39
BRANCH  26  50
ATOM     50  C   UNL A   1      42.833  26.160  27.846  1.00  0.00     0.064 A 
ATOM     51  C   UNL A   1      42.279  24.889  27.643  1.00  0.00     0.173 A 
ATOM     52  C   UNL A   1      43.716  26.652  26.874  1.00  0.00     0.173 A 
ATOM     53  F   UNL A   1      41.425  24.381  28.544  1.00  0.00    -0.203 F 
ATOM     54  C   UNL A   1      42.603  24.135  26.519  1.00  0.00     0.198 A 
ATOM     55  C   UNL A   1      44.021  25.906  25.737  1.00  0.00     0.198 A 
ATOM     56  F   UNL A   1      44.251  27.875  27.009  1.00  0.00    -0.203 F 
ATOM     57  F   UNL A   1      42.074  22.914  26.360  1.00  0.00    -0.200 F 
ATOM     58  C   UNL A   1      43.467  24.646  25.563  1.00  0.00     0.200 A 
ATOM     59  F   UNL A   1      44.838  26.413  24.804  1.00  0.00    -0.200 F 
ATOM     60  F   UNL A   1      43.764  23.927  24.473  1.00  0.00    -0.200 F 
ENDBRANCH  26  50
BRANCH  38  61
ATOM     61  C   UNL A   1      45.089  27.034  34.406  1.00  0.00     0.064 A 
ATOM     62  C   UNL A   1      46.345  27.653  34.473  1.00  0.00     0.173 A 
ATOM     63  C   UNL A   1      44.876  25.881  35.178  1.00  0.00     0.173 A 
ATOM     64  F   UNL A   1      46.598  28.749  33.742  1.00  0.00    -0.203 F 
ATOM     65  C   UNL A   1      47.349  27.138  35.286  1.00  0.00     0.198 A 
ATOM     66  C   UNL A   1      45.874  25.386  36.011  1.00  0.00     0.198 A 
ATOM     67  F   UNL A   1      43.687  25.259  35.150  1.00  0.00    -0.203 F 
ATOM     68  F   UNL A   1      48.550  27.733  35.321  1.00  0.00    -0.200 F 
ATOM     69  C   UNL A   1      47.108  26.014  36.063  1.00  0.00     0.200 A 
ATOM     70  F   UNL A   1      45.635  24.311  36.773  1.00  0.00    -0.200 F 
ATOM     71  F   UNL A   1      48.069  25.538  36.867  1.00  0.00    -0.200 F 
ENDBRANCH  38  61
ENDBRANCH  12  13
ENDBRANCH   5   7
ENDBRANCH   4   5
ENDBRANCH   3   4
ENDBRANCH   2   3
ENDBRANCH   1   2
BRANCH   1  72
ATOM     72  C   UNL A   1      31.646  28.461  24.613  1.00  0.00     0.202 C 
BRANCH  72  73
ATOM     73  C   UNL A   1      30.515  27.596  24.041  1.00  0.00     0.261 C 
BRANCH  73  74
ATOM     74  O   UNL A   1      30.388  26.359  24.757  1.00  0.00    -0.460 OA
BRANCH  74  75
ATOM     75  C   UNL A   1      30.835  25.244  24.113  1.00  0.00     0.342 C 
ATOM     76  O   UNL A   1      30.896  25.056  22.919  1.00  0.00    -0.246 OA
BRANCH  75  77
ATOM     77  C   UNL A   1      31.498  24.378  25.116  1.00  0.00     0.102 A 
ATOM     78  C   UNL A   1      32.817  23.966  24.852  1.00  0.00     0.028 A 
ATOM     79  C   UNL A   1      30.880  24.033  26.318  1.00  0.00     0.130 A 
ATOM     80  C   UNL A   1      33.537  23.267  25.824  1.00  0.00    -0.017 A 
ATOM     81  C   UNL A   1      31.579  23.296  27.271  1.00  0.00     0.048 A 
ATOM     82  C   UNL A   1      32.904  22.925  27.027  1.00  0.00     0.012 A 
BRANCH  79  83
ATOM     83  O   UNL A   1      29.587  24.403  26.560  1.00  0.00    -0.507 OA
ATOM     84  H   UNL A   1      28.894  23.785  26.440  1.00  0.00     0.293 HD
ENDBRANCH  79  83
BRANCH  80  85
ATOM     85  C   UNL A   1      34.948  22.885  25.633  1.00  0.00    -0.011 A 
ATOM     86  C   UNL A   1      35.348  21.532  25.309  1.00  0.00     0.027 A 
ATOM     87  C   UNL A   1      35.896  23.804  25.889  1.00  0.00     0.080 A 
ATOM     88  C   UNL A   1      36.636  21.173  25.356  1.00  0.00     0.095 A 
ATOM     89  C   UNL A   1      37.341  23.429  25.904  1.00  0.00     0.255 A 
ATOM     90  N   UNL A   1      37.620  22.092  25.673  1.00  0.00    -0.258 N 
ATOM     91  O   UNL A   1      38.167  24.303  26.146  1.00  0.00    -0.269 OA
BRANCH  90  92
ATOM     92  C   UNL A   1      38.993  21.673  25.815  1.00  0.00     0.451 C 
ATOM     93  F   UNL A   1      39.451  21.890  27.070  1.00  0.00    -0.185 F 
ATOM     94  F   UNL A   1      39.122  20.351  25.542  1.00  0.00    -0.185 F 
ENDBRANCH  90  92
ENDBRANCH  80  85
ENDBRANCH  75  77
ENDBRANCH  74  75
ENDBRANCH  73  74
ENDBRANCH  72  73
ENDBRANCH   1  72
TORSDOF 17
ENDMDL
