MODEL 1
REMARK VINA RESULT:     -11.4      0.000      0.000
REMARK SMILES O=C(C[C@H]1C[N@@H+](Cc2c(F)cccc2F)CCO1)OCCOCCOC(=O)c1ccc(-c2c3nc(c(-c4c(F)c(F)c(F)c(F)c4F)c4ccc([nH]4)c(-c4c(F)c(F)c(F)c(F)c4F)c4nc(c(-c5c(F)c(F)c(F)c(F)c5F)c5ccc2[nH]5)C=C4)C=C3)cc1
REMARK SMILES IDX 21 1 20 2 19 3 2 4 1 5 3 6 4 7 5 8 18 9 6 10 17 11 16 12
REMARK SMILES IDX 7 14 8 15 9 16 14 17 10 18 11 19 13 20 15 21 12 22 22 23
REMARK SMILES IDX 23 24 24 25 25 26 26 27 27 28 28 29 29 30 90 31 30 32 89 33
REMARK SMILES IDX 31 34 32 35 33 36 83 37 34 38 88 39 82 40 84 41 35 42 87 43
REMARK SMILES IDX 81 44 80 45 36 47 68 48 48 49 67 50 49 51 52 52 66 53 85 54
REMARK SMILES IDX 50 55 51 56 65 58 86 59 53 60 37 61 38 62 46 63 39 64 40 65
REMARK SMILES IDX 44 66 47 67 41 68 42 69 45 70 43 71 69 72 70 73 78 74 71 75
REMARK SMILES IDX 72 76 76 77 79 78 73 79 74 80 77 81 75 82 54 83 55 84 63 85
REMARK SMILES IDX 56 86 57 87 61 88 64 89 58 90 59 91 62 92 60 93
REMARK H PARENT 6 13 84 46 52 57
REMARK Flexibility Score: inf
ROOT
ATOM      1  C   UNL A   1      32.278  28.903  26.745  1.00  0.00     0.202 C 
ENDROOT
BRANCH   1   2
ATOM      2  C   UNL A   1      33.217  27.832  26.174  1.00  0.00     0.261 C 
BRANCH   2   3
ATOM      3  O   UNL A   1      32.836  26.496  26.554  1.00  0.00    -0.463 OA
BRANCH   3   4
ATOM      4  C   UNL A   1      33.473  25.466  25.956  1.00  0.00     0.308 C 
ATOM      5  O   UNL A   1      33.541  24.372  26.504  1.00  0.00    -0.252 OA
BRANCH   4   6
ATOM      6  C   UNL A   1      34.072  25.756  24.610  1.00  0.00     0.160 C 
BRANCH   6   7
ATOM      7  C   UNL A   1      33.509  24.983  23.432  1.00  0.00     0.184 C 
ATOM      8  C   UNL A   1      31.990  24.738  23.603  1.00  0.00     0.295 C 
ATOM      9  O   UNL A   1      33.860  25.488  22.139  1.00  0.00    -0.366 OA
ATOM     10  N   UNL A   1      31.127  25.800  23.098  1.00  0.00    -0.327 N 
ATOM     11  C   UNL A   1      33.031  26.567  21.687  1.00  0.00     0.222 C 
ATOM     12  C   UNL A   1      31.541  26.221  21.765  1.00  0.00     0.291 C 
ATOM     13  H   UNL A   1      30.212  25.368  22.975  1.00  0.00     0.348 HD
BRANCH  10  14
ATOM     14  C   UNL A   1      30.534  26.768  24.022  1.00  0.00     0.305 C 
BRANCH  14  15
ATOM     15  C   UNL A   1      29.592  27.851  23.550  1.00  0.00     0.078 A 
ATOM     16  C   UNL A   1      28.206  27.677  23.489  1.00  0.00     0.135 A 
ATOM     17  C   UNL A   1      30.059  29.146  23.288  1.00  0.00     0.135 A 
ATOM     18  F   UNL A   1      27.652  26.511  23.841  1.00  0.00    -0.206 F 
ATOM     19  C   UNL A   1      27.339  28.700  23.093  1.00  0.00     0.040 A 
ATOM     20  C   UNL A   1      29.204  30.193  22.923  1.00  0.00     0.040 A 
ATOM     21  F   UNL A   1      31.370  29.417  23.382  1.00  0.00    -0.206 F 
ATOM     22  C   UNL A   1      27.839  29.964  22.799  1.00  0.00     0.006 A 
ENDBRANCH  14  15
ENDBRANCH  10  14
ENDBRANCH   6   7
ENDBRANCH   4   6
ENDBRANCH   3   4
ENDBRANCH   2   3
ENDBRANCH   1   2
BRANCH   1  23
ATOM     23  O   UNL A   1      32.579  30.220  26.282  1.00  0.00    -0.374 OA
BRANCH  23  24
ATOM     24  C   UNL A   1      31.534  31.189  26.440  1.00  0.00     0.202 C 
BRANCH  24  25
ATOM     25  C   UNL A   1      31.953  32.607  26.833  1.00  0.00     0.261 C 
BRANCH  25  26
ATOM     26  O   UNL A   1      32.805  32.574  27.993  1.00  0.00    -0.460 OA
BRANCH  26  27
ATOM     27  C   UNL A   1      33.838  33.445  27.946  1.00  0.00     0.338 C 
ATOM     28  O   UNL A   1      33.776  34.662  27.930  1.00  0.00    -0.246 OA
BRANCH  27  29
ATOM     29  C   UNL A   1      35.109  32.730  28.160  1.00  0.00     0.060 A 
ATOM     30  C   UNL A   1      35.012  31.351  28.386  1.00  0.00     0.016 A 
ATOM     31  C   UNL A   1      36.339  33.385  28.246  1.00  0.00     0.016 A 
ATOM     32  C   UNL A   1      36.122  30.633  28.791  1.00  0.00     0.010 A 
ATOM     33  C   UNL A   1      37.456  32.667  28.691  1.00  0.00     0.010 A 
ATOM     34  C   UNL A   1      37.322  31.309  29.033  1.00  0.00    -0.014 A 
BRANCH  34  35
ATOM     35  C   UNL A   1      38.272  30.640  29.949  1.00  0.00     0.031 A 
ATOM     36  C   UNL A   1      39.230  29.643  29.352  1.00  0.00     0.074 A 
ATOM     37  C   UNL A   1      38.407  31.051  31.221  1.00  0.00     0.049 A 
ATOM     38  N   UNL A   1      40.222  29.003  29.913  1.00  0.00    -0.248 NA
ATOM     39  C   UNL A   1      39.060  29.339  27.918  1.00  0.00     0.031 C 
ATOM     40  C   UNL A   1      37.597  32.085  31.861  1.00  0.00     0.029 A 
ATOM     41  N   UNL A   1      39.302  30.671  32.187  1.00  0.00    -0.354 N 
ATOM     42  C   UNL A   1      40.785  28.228  28.907  1.00  0.00     0.074 A 
ATOM     43  C   UNL A   1      40.010  28.443  27.709  1.00  0.00     0.031 C 
ATOM     44  C   UNL A   1      38.037  32.264  33.118  1.00  0.00     0.029 A 
ATOM     45  C   UNL A   1      39.139  31.337  33.377  1.00  0.00     0.049 A 
ATOM     46  H   UNL A   1      39.995  29.986  32.042  1.00  0.00     0.167 HD
ATOM     47  C   UNL A   1      41.869  27.424  28.975  1.00  0.00     0.037 A 
ATOM     48  C   UNL A   1      39.799  31.197  34.542  1.00  0.00     0.037 A 
ATOM     49  C   UNL A   1      42.652  27.240  30.165  1.00  0.00     0.049 A 
ATOM     50  C   UNL A   1      40.940  30.215  34.620  1.00  0.00     0.074 A 
ATOM     51  C   UNL A   1      43.773  26.451  30.342  1.00  0.00     0.029 A 
ATOM     52  N   UNL A   1      42.393  27.857  31.380  1.00  0.00    -0.354 N 
ATOM     53  N   UNL A   1      41.467  29.482  33.667  1.00  0.00    -0.248 NA
ATOM     54  C   UNL A   1      41.578  30.033  35.932  1.00  0.00     0.031 C 
ATOM     55  C   UNL A   1      44.160  26.546  31.680  1.00  0.00     0.029 A 
ATOM     56  C   UNL A   1      43.313  27.436  32.323  1.00  0.00     0.049 A 
ATOM     57  H   UNL A   1      41.664  28.498  31.545  1.00  0.00     0.167 HD
ATOM     58  C   UNL A   1      42.501  28.768  34.257  1.00  0.00     0.074 A 
ATOM     59  C   UNL A   1      42.542  29.169  35.648  1.00  0.00     0.031 C 
ATOM     60  C   UNL A   1      43.336  27.857  33.701  1.00  0.00     0.037 A 
BRANCH  47  61
ATOM     61  C   UNL A   1      42.265  26.666  27.744  1.00  0.00     0.064 A 
ATOM     62  C   UNL A   1      41.705  25.407  27.482  1.00  0.00     0.173 A 
ATOM     63  C   UNL A   1      43.243  27.148  26.862  1.00  0.00     0.173 A 
ATOM     64  F   UNL A   1      40.765  24.901  28.294  1.00  0.00    -0.203 F 
ATOM     65  C   UNL A   1      42.128  24.647  26.394  1.00  0.00     0.198 A 
ATOM     66  C   UNL A   1      43.642  26.398  25.758  1.00  0.00     0.198 A 
ATOM     67  F   UNL A   1      43.793  28.356  27.058  1.00  0.00    -0.203 F 
ATOM     68  F   UNL A   1      41.605  23.430  26.185  1.00  0.00    -0.200 F 
ATOM     69  C   UNL A   1      43.094  25.144  25.532  1.00  0.00     0.200 A 
ATOM     70  F   UNL A   1      44.557  26.890  24.911  1.00  0.00    -0.200 F 
ATOM     71  F   UNL A   1      43.495  24.414  24.483  1.00  0.00    -0.200 F 
ENDBRANCH  47  61
BRANCH  48  72
ATOM     72  C   UNL A   1      39.381  31.992  35.726  1.00  0.00     0.064 A 
ATOM     73  C   UNL A   1      38.393  31.516  36.603  1.00  0.00     0.173 A 
ATOM     74  C   UNL A   1      39.948  33.243  36.004  1.00  0.00     0.173 A 
ATOM     75  F   UNL A   1      37.822  30.322  36.387  1.00  0.00    -0.203 F 
ATOM     76  C   UNL A   1      37.972  32.272  37.695  1.00  0.00     0.198 A 
ATOM     77  C   UNL A   1      39.547  33.984  37.114  1.00  0.00     0.198 A 
ATOM     78  F   UNL A   1      40.913  33.732  35.212  1.00  0.00    -0.203 F 
ATOM     79  F   UNL A   1      37.003  31.806  38.495  1.00  0.00    -0.200 F 
ATOM     80  C   UNL A   1      38.553  33.502  37.953  1.00  0.00     0.200 A 
ATOM     81  F   UNL A   1      40.131  35.161  37.378  1.00  0.00    -0.200 F 
ATOM     82  F   UNL A   1      38.161  34.221  39.014  1.00  0.00    -0.200 F 
ENDBRANCH  48  72
BRANCH  60  83
ATOM     83  C   UNL A   1      44.370  27.220  34.581  1.00  0.00     0.064 A 
ATOM     84  C   UNL A   1      44.091  26.020  35.254  1.00  0.00     0.173 A 
ATOM     85  C   UNL A   1      45.582  27.867  34.859  1.00  0.00     0.173 A 
ATOM     86  F   UNL A   1      42.938  25.372  35.032  1.00  0.00    -0.203 F 
ATOM     87  C   UNL A   1      44.978  25.507  36.197  1.00  0.00     0.198 A 
ATOM     88  C   UNL A   1      46.479  27.334  35.780  1.00  0.00     0.198 A 
ATOM     89  F   UNL A   1      45.895  29.011  34.233  1.00  0.00    -0.203 F 
ATOM     90  F   UNL A   1      44.667  24.390  36.868  1.00  0.00    -0.200 F 
ATOM     91  C   UNL A   1      46.170  26.165  36.458  1.00  0.00     0.200 A 
ATOM     92  F   UNL A   1      47.639  27.960  36.019  1.00  0.00    -0.200 F 
ATOM     93  F   UNL A   1      47.020  25.673  37.370  1.00  0.00    -0.200 F 
ENDBRANCH  60  83
ENDBRANCH  34  35
ENDBRANCH  27  29
ENDBRANCH  26  27
ENDBRANCH  25  26
ENDBRANCH  24  25
ENDBRANCH  23  24
ENDBRANCH   1  23
TORSDOF 17
ENDMDL
MODEL 2
REMARK VINA RESULT:     -11.3      4.544      7.275
REMARK SMILES O=C(C[C@H]1C[N@@H+](Cc2c(F)cccc2F)CCO1)OCCOCCOC(=O)c1ccc(-c2c3nc(c(-c4c(F)c(F)c(F)c(F)c4F)c4ccc([nH]4)c(-c4c(F)c(F)c(F)c(F)c4F)c4nc(c(-c5c(F)c(F)c(F)c(F)c5F)c5ccc2[nH]5)C=C4)C=C3)cc1
REMARK SMILES IDX 21 1 20 2 19 3 2 4 1 5 3 6 4 7 5 8 18 9 6 10 17 11 16 12
REMARK SMILES IDX 7 14 8 15 9 16 14 17 10 18 11 19 13 20 15 21 12 22 22 23
REMARK SMILES IDX 23 24 24 25 25 26 26 27 27 28 28 29 29 30 90 31 30 32 89 33
REMARK SMILES IDX 31 34 32 35 33 36 83 37 34 38 88 39 82 40 84 41 35 42 87 43
REMARK SMILES IDX 81 44 80 45 36 47 68 48 48 49 67 50 49 51 52 52 66 53 85 54
REMARK SMILES IDX 50 55 51 56 65 58 86 59 53 60 37 61 38 62 46 63 39 64 40 65
REMARK SMILES IDX 44 66 47 67 41 68 42 69 45 70 43 71 69 72 70 73 78 74 71 75
REMARK SMILES IDX 72 76 76 77 79 78 73 79 74 80 77 81 75 82 54 83 55 84 63 85
REMARK SMILES IDX 56 86 57 87 61 88 64 89 58 90 59 91 62 92 60 93
REMARK H PARENT 6 13 84 46 52 57
REMARK Flexibility Score: inf
ROOT
ATOM      1  C   UNL A   1      33.839  32.233  28.023  1.00  0.00     0.202 C 
ENDROOT
BRANCH   1   2
ATOM      2  C   UNL A   1      34.143  30.902  27.322  1.00  0.00     0.261 C 
BRANCH   2   3
ATOM      3  O   UNL A   1      33.063  29.955  27.431  1.00  0.00    -0.463 OA
BRANCH   3   4
ATOM      4  C   UNL A   1      33.127  28.836  26.678  1.00  0.00     0.308 C 
ATOM      5  O   UNL A   1      34.143  28.151  26.663  1.00  0.00    -0.252 OA
BRANCH   4   6
ATOM      6  C   UNL A   1      31.895  28.507  25.885  1.00  0.00     0.160 C 
BRANCH   6   7
ATOM      7  C   UNL A   1      31.891  28.926  24.426  1.00  0.00     0.184 C 
ATOM      8  C   UNL A   1      32.668  27.910  23.554  1.00  0.00     0.295 C 
ATOM      9  O   UNL A   1      30.610  29.272  23.889  1.00  0.00    -0.366 OA
ATOM     10  N   UNL A   1      31.883  26.788  23.056  1.00  0.00    -0.327 N 
ATOM     11  C   UNL A   1      29.833  28.147  23.455  1.00  0.00     0.222 C 
ATOM     12  C   UNL A   1      30.615  27.242  22.497  1.00  0.00     0.291 C 
ATOM     13  H   UNL A   1      32.411  26.418  22.266  1.00  0.00     0.348 HD
BRANCH  10  14
ATOM     14  C   UNL A   1      31.968  25.481  23.711  1.00  0.00     0.305 C 
BRANCH  14  15
ATOM     15  C   UNL A   1      33.295  24.842  24.050  1.00  0.00     0.078 A 
ATOM     16  C   UNL A   1      33.809  24.803  25.350  1.00  0.00     0.135 A 
ATOM     17  C   UNL A   1      34.011  24.119  23.087  1.00  0.00     0.135 A 
ATOM     18  F   UNL A   1      33.133  25.358  26.363  1.00  0.00    -0.206 F 
ATOM     19  C   UNL A   1      35.016  24.171  25.661  1.00  0.00     0.040 A 
ATOM     20  C   UNL A   1      35.204  23.450  23.384  1.00  0.00     0.040 A 
ATOM     21  F   UNL A   1      33.558  24.053  21.825  1.00  0.00    -0.206 F 
ATOM     22  C   UNL A   1      35.724  23.496  24.672  1.00  0.00     0.006 A 
ENDBRANCH  14  15
ENDBRANCH  10  14
ENDBRANCH   6   7
ENDBRANCH   4   6
ENDBRANCH   3   4
ENDBRANCH   2   3
ENDBRANCH   1   2
BRANCH   1  23
ATOM     23  O   UNL A   1      34.920  32.701  28.832  1.00  0.00    -0.374 OA
BRANCH  23  24
ATOM     24  C   UNL A   1      34.584  33.708  29.796  1.00  0.00     0.202 C 
BRANCH  24  25
ATOM     25  C   UNL A   1      34.754  33.342  31.272  1.00  0.00     0.261 C 
BRANCH  25  26
ATOM     26  O   UNL A   1      34.983  31.928  31.415  1.00  0.00    -0.460 OA
BRANCH  26  27
ATOM     27  C   UNL A   1      36.002  31.613  32.244  1.00  0.00     0.338 C 
ATOM     28  O   UNL A   1      36.105  31.891  33.426  1.00  0.00    -0.246 OA
BRANCH  27  29
ATOM     29  C   UNL A   1      36.907  30.653  31.586  1.00  0.00     0.060 A 
ATOM     30  C   UNL A   1      37.959  30.159  32.368  1.00  0.00     0.016 A 
ATOM     31  C   UNL A   1      36.807  30.326  30.233  1.00  0.00     0.016 A 
ATOM     32  C   UNL A   1      38.968  29.413  31.787  1.00  0.00     0.010 A 
ATOM     33  C   UNL A   1      37.846  29.601  29.635  1.00  0.00     0.010 A 
ATOM     34  C   UNL A   1      38.959  29.214  30.403  1.00  0.00    -0.014 A 
BRANCH  34  35
ATOM     35  C   UNL A   1      40.267  28.914  29.781  1.00  0.00     0.031 A 
ATOM     36  C   UNL A   1      40.447  27.554  29.158  1.00  0.00     0.074 A 
ATOM     37  C   UNL A   1      41.183  29.880  29.604  1.00  0.00     0.049 A 
ATOM     38  N   UNL A   1      41.448  27.082  28.464  1.00  0.00    -0.248 NA
ATOM     39  C   UNL A   1      39.334  26.599  29.323  1.00  0.00     0.031 C 
ATOM     40  C   UNL A   1      41.056  31.256  30.078  1.00  0.00     0.029 A 
ATOM     41  N   UNL A   1      42.385  29.856  28.944  1.00  0.00    -0.354 N 
ATOM     42  C   UNL A   1      41.087  25.787  28.117  1.00  0.00     0.074 A 
ATOM     43  C   UNL A   1      39.793  25.526  28.701  1.00  0.00     0.031 C 
ATOM     44  C   UNL A   1      42.138  31.951  29.686  1.00  0.00     0.029 A 
ATOM     45  C   UNL A   1      43.043  31.060  28.961  1.00  0.00     0.049 A 
ATOM     46  H   UNL A   1      42.741  29.052  28.501  1.00  0.00     0.167 HD
ATOM     47  C   UNL A   1      41.768  24.901  27.356  1.00  0.00     0.037 A 
ATOM     48  C   UNL A   1      44.248  31.392  28.459  1.00  0.00     0.037 A 
ATOM     49  C   UNL A   1      43.040  25.181  26.753  1.00  0.00     0.049 A 
ATOM     50  C   UNL A   1      45.034  30.352  27.702  1.00  0.00     0.074 A 
ATOM     51  C   UNL A   1      43.815  24.355  25.960  1.00  0.00     0.029 A 
ATOM     52  N   UNL A   1      43.722  26.382  26.879  1.00  0.00    -0.354 N 
ATOM     53  N   UNL A   1      44.689  29.129  27.379  1.00  0.00    -0.248 NA
ATOM     54  C   UNL A   1      46.378  30.733  27.244  1.00  0.00     0.031 C 
ATOM     55  C   UNL A   1      44.994  25.037  25.651  1.00  0.00     0.029 A 
ATOM     56  C   UNL A   1      44.929  26.306  26.206  1.00  0.00     0.049 A 
ATOM     57  H   UNL A   1      43.397  27.170  27.371  1.00  0.00     0.167 HD
ATOM     58  C   UNL A   1      45.761  28.601  26.671  1.00  0.00     0.074 A 
ATOM     59  C   UNL A   1      46.762  29.644  26.593  1.00  0.00     0.031 C 
ATOM     60  C   UNL A   1      45.906  27.363  26.139  1.00  0.00     0.037 A 
BRANCH  47  61
ATOM     61  C   UNL A   1      41.168  23.543  27.145  1.00  0.00     0.064 A 
ATOM     62  C   UNL A   1      41.769  22.412  27.720  1.00  0.00     0.173 A 
ATOM     63  C   UNL A   1      40.048  23.348  26.325  1.00  0.00     0.173 A 
ATOM     64  F   UNL A   1      42.842  22.544  28.513  1.00  0.00    -0.203 F 
ATOM     65  C   UNL A   1      41.282  21.134  27.460  1.00  0.00     0.198 A 
ATOM     66  C   UNL A   1      39.547  22.070  26.092  1.00  0.00     0.198 A 
ATOM     67  F   UNL A   1      39.427  24.400  25.770  1.00  0.00    -0.203 F 
ATOM     68  F   UNL A   1      41.895  20.065  27.990  1.00  0.00    -0.200 F 
ATOM     69  C   UNL A   1      40.171  20.964  26.649  1.00  0.00     0.200 A 
ATOM     70  F   UNL A   1      38.457  21.908  25.329  1.00  0.00    -0.200 F 
ATOM     71  F   UNL A   1      39.701  19.733  26.405  1.00  0.00    -0.200 F 
ENDBRANCH  47  61
BRANCH  48  72
ATOM     72  C   UNL A   1      44.784  32.762  28.675  1.00  0.00     0.064 A 
ATOM     73  C   UNL A   1      45.512  33.077  29.833  1.00  0.00     0.173 A 
ATOM     74  C   UNL A   1      44.575  33.784  27.740  1.00  0.00     0.173 A 
ATOM     75  F   UNL A   1      45.747  32.134  30.756  1.00  0.00    -0.203 F 
ATOM     76  C   UNL A   1      45.988  34.368  30.057  1.00  0.00     0.198 A 
ATOM     77  C   UNL A   1      45.077  35.068  27.953  1.00  0.00     0.198 A 
ATOM     78  F   UNL A   1      43.906  33.529  26.606  1.00  0.00    -0.203 F 
ATOM     79  F   UNL A   1      46.651  34.647  31.188  1.00  0.00    -0.200 F 
ATOM     80  C   UNL A   1      45.775  35.360  29.115  1.00  0.00     0.200 A 
ATOM     81  F   UNL A   1      44.894  36.018  27.026  1.00  0.00    -0.200 F 
ATOM     82  F   UNL A   1      46.248  36.597  29.323  1.00  0.00    -0.200 F 
ENDBRANCH  48  72
BRANCH  60  83
ATOM     83  C   UNL A   1      47.188  27.049  25.425  1.00  0.00     0.064 A 
ATOM     84  C   UNL A   1      48.240  26.409  26.098  1.00  0.00     0.173 A 
ATOM     85  C   UNL A   1      47.418  27.502  24.119  1.00  0.00     0.173 A 
ATOM     86  F   UNL A   1      48.072  25.970  27.355  1.00  0.00    -0.203 F 
ATOM     87  C   UNL A   1      49.486  26.260  25.497  1.00  0.00     0.198 A 
ATOM     88  C   UNL A   1      48.656  27.324  23.511  1.00  0.00     0.198 A 
ATOM     89  F   UNL A   1      46.439  28.112  23.434  1.00  0.00    -0.203 F 
ATOM     90  F   UNL A   1      50.493  25.695  26.177  1.00  0.00    -0.200 F 
ATOM     91  C   UNL A   1      49.693  26.718  24.205  1.00  0.00     0.200 A 
ATOM     92  F   UNL A   1      48.850  27.750  22.255  1.00  0.00    -0.200 F 
ATOM     93  F   UNL A   1      50.896  26.579  23.629  1.00  0.00    -0.200 F 
ENDBRANCH  60  83
ENDBRANCH  34  35
ENDBRANCH  27  29
ENDBRANCH  26  27
ENDBRANCH  25  26
ENDBRANCH  24  25
ENDBRANCH  23  24
ENDBRANCH   1  23
TORSDOF 17
ENDMDL
MODEL 3
REMARK VINA RESULT:     -11.2      4.783     10.275
REMARK SMILES O=C(C[C@H]1C[N@@H+](Cc2c(F)cccc2F)CCO1)OCCOCCOC(=O)c1ccc(-c2c3nc(c(-c4c(F)c(F)c(F)c(F)c4F)c4ccc([nH]4)c(-c4c(F)c(F)c(F)c(F)c4F)c4nc(c(-c5c(F)c(F)c(F)c(F)c5F)c5ccc2[nH]5)C=C4)C=C3)cc1
REMARK SMILES IDX 21 1 20 2 19 3 2 4 1 5 3 6 4 7 5 8 18 9 6 10 17 11 16 12
REMARK SMILES IDX 7 14 8 15 9 16 14 17 10 18 11 19 13 20 15 21 12 22 22 23
REMARK SMILES IDX 23 24 24 25 25 26 26 27 27 28 28 29 29 30 90 31 30 32 89 33
REMARK SMILES IDX 31 34 32 35 33 36 83 37 34 38 88 39 82 40 84 41 35 42 87 43
REMARK SMILES IDX 81 44 80 45 36 47 68 48 48 49 67 50 49 51 52 52 66 53 85 54
REMARK SMILES IDX 50 55 51 56 65 58 86 59 53 60 37 61 38 62 46 63 39 64 40 65
REMARK SMILES IDX 44 66 47 67 41 68 42 69 45 70 43 71 69 72 70 73 78 74 71 75
REMARK SMILES IDX 72 76 76 77 79 78 73 79 74 80 77 81 75 82 54 83 55 84 63 85
REMARK SMILES IDX 56 86 57 87 61 88 64 89 58 90 59 91 62 92 60 93
REMARK H PARENT 6 13 84 46 52 57
REMARK Flexibility Score: inf
ROOT
ATOM      1  C   UNL A   1      36.797  23.553  24.462  1.00  0.00     0.202 C 
ENDROOT
BRANCH   1   2
ATOM      2  C   UNL A   1      35.542  24.114  25.146  1.00  0.00     0.261 C 
BRANCH   2   3
ATOM      3  O   UNL A   1      34.679  24.821  24.235  1.00  0.00    -0.463 OA
BRANCH   3   4
ATOM      4  C   UNL A   1      33.868  25.772  24.746  1.00  0.00     0.308 C 
ATOM      5  O   UNL A   1      33.800  26.879  24.225  1.00  0.00    -0.252 OA
BRANCH   4   6
ATOM      6  C   UNL A   1      33.081  25.380  25.962  1.00  0.00     0.160 C 
BRANCH   6   7
ATOM      7  C   UNL A   1      31.608  25.081  25.754  1.00  0.00     0.184 C 
ATOM      8  C   UNL A   1      31.387  24.242  24.472  1.00  0.00     0.295 C 
ATOM      9  O   UNL A   1      30.916  24.565  26.896  1.00  0.00    -0.366 OA
ATOM     10  N   UNL A   1      31.478  22.797  24.650  1.00  0.00    -0.327 N 
ATOM     11  C   UNL A   1      31.064  23.151  27.081  1.00  0.00     0.222 C 
ATOM     12  C   UNL A   1      30.714  22.364  25.814  1.00  0.00     0.291 C 
ATOM     13  H   UNL A   1      30.998  22.396  23.845  1.00  0.00     0.348 HD
BRANCH  10  14
ATOM     14  C   UNL A   1      32.697  22.084  24.266  1.00  0.00     0.305 C 
BRANCH  14  15
ATOM     15  C   UNL A   1      32.747  20.576  24.177  1.00  0.00     0.078 A 
ATOM     16  C   UNL A   1      33.089  19.763  25.262  1.00  0.00     0.135 A 
ATOM     17  C   UNL A   1      32.305  19.910  23.027  1.00  0.00     0.135 A 
ATOM     18  F   UNL A   1      33.405  20.305  26.443  1.00  0.00    -0.206 F 
ATOM     19  C   UNL A   1      33.089  18.367  25.181  1.00  0.00     0.040 A 
ATOM     20  C   UNL A   1      32.264  18.513  22.937  1.00  0.00     0.040 A 
ATOM     21  F   UNL A   1      31.901  20.614  21.958  1.00  0.00    -0.206 F 
ATOM     22  C   UNL A   1      32.683  17.736  24.010  1.00  0.00     0.006 A 
ENDBRANCH  14  15
ENDBRANCH  10  14
ENDBRANCH   6   7
ENDBRANCH   4   6
ENDBRANCH   3   4
ENDBRANCH   2   3
ENDBRANCH   1   2
BRANCH   1  23
ATOM     23  O   UNL A   1      36.653  22.190  24.057  1.00  0.00    -0.374 OA
BRANCH  23  24
ATOM     24  C   UNL A   1      36.636  21.225  25.117  1.00  0.00     0.202 C 
BRANCH  24  25
ATOM     25  C   UNL A   1      37.913  20.411  25.338  1.00  0.00     0.261 C 
BRANCH  25  26
ATOM     26  O   UNL A   1      39.061  21.278  25.373  1.00  0.00    -0.460 OA
BRANCH  26  27
ATOM     27  C   UNL A   1      39.899  21.045  26.407  1.00  0.00     0.338 C 
ATOM     28  O   UNL A   1      40.484  20.007  26.664  1.00  0.00    -0.246 OA
BRANCH  27  29
ATOM     29  C   UNL A   1      40.221  22.312  27.088  1.00  0.00     0.060 A 
ATOM     30  C   UNL A   1      39.491  23.436  26.682  1.00  0.00     0.016 A 
ATOM     31  C   UNL A   1      41.264  22.431  28.009  1.00  0.00     0.016 A 
ATOM     32  C   UNL A   1      39.854  24.697  27.117  1.00  0.00     0.010 A 
ATOM     33  C   UNL A   1      41.656  23.710  28.422  1.00  0.00     0.010 A 
ATOM     34  C   UNL A   1      40.995  24.842  27.913  1.00  0.00    -0.014 A 
BRANCH  34  35
ATOM     35  C   UNL A   1      41.636  26.175  27.893  1.00  0.00     0.031 A 
ATOM     36  C   UNL A   1      40.951  27.289  28.641  1.00  0.00     0.074 A 
ATOM     37  C   UNL A   1      42.875  26.336  27.398  1.00  0.00     0.049 A 
ATOM     38  N   UNL A   1      41.354  28.512  28.865  1.00  0.00    -0.248 NA
ATOM     39  C   UNL A   1      39.638  26.975  29.237  1.00  0.00     0.031 C 
ATOM     40  C   UNL A   1      43.663  25.291  26.749  1.00  0.00     0.029 A 
ATOM     41  N   UNL A   1      43.697  27.432  27.400  1.00  0.00    -0.354 N 
ATOM     42  C   UNL A   1      40.350  29.105  29.620  1.00  0.00     0.074 A 
ATOM     43  C   UNL A   1      39.301  28.129  29.789  1.00  0.00     0.031 C 
ATOM     44  C   UNL A   1      44.863  25.796  26.419  1.00  0.00     0.029 A 
ATOM     45  C   UNL A   1      44.914  27.205  26.808  1.00  0.00     0.049 A 
ATOM     46  H   UNL A   1      43.439  28.300  27.788  1.00  0.00     0.167 HD
ATOM     47  C   UNL A   1      40.319  30.351  30.144  1.00  0.00     0.037 A 
ATOM     48  C   UNL A   1      45.942  28.049  26.594  1.00  0.00     0.037 A 
ATOM     49  C   UNL A   1      41.382  31.304  29.996  1.00  0.00     0.049 A 
ATOM     50  C   UNL A   1      45.838  29.466  27.099  1.00  0.00     0.074 A 
ATOM     51  C   UNL A   1      41.455  32.593  30.490  1.00  0.00     0.029 A 
ATOM     52  N   UNL A   1      42.559  31.068  29.301  1.00  0.00    -0.354 N 
ATOM     53  N   UNL A   1      44.886  30.022  27.809  1.00  0.00    -0.248 NA
ATOM     54  C   UNL A   1      46.947  30.375  26.772  1.00  0.00     0.031 C 
ATOM     55  C   UNL A   1      42.653  33.158  30.047  1.00  0.00     0.029 A 
ATOM     56  C   UNL A   1      43.350  32.203  29.322  1.00  0.00     0.049 A 
ATOM     57  H   UNL A   1      42.796  30.220  28.860  1.00  0.00     0.167 HD
ATOM     58  C   UNL A   1      45.284  31.335  28.025  1.00  0.00     0.074 A 
ATOM     59  C   UNL A   1      46.575  31.488  27.388  1.00  0.00     0.031 C 
ATOM     60  C   UNL A   1      44.636  32.327  28.684  1.00  0.00     0.037 A 
BRANCH  47  61
ATOM     61  C   UNL A   1      39.098  30.766  30.907  1.00  0.00     0.064 A 
ATOM     62  C   UNL A   1      39.026  30.552  32.292  1.00  0.00     0.173 A 
ATOM     63  C   UNL A   1      37.975  31.309  30.267  1.00  0.00     0.173 A 
ATOM     64  F   UNL A   1      40.073  30.036  32.952  1.00  0.00    -0.203 F 
ATOM     65  C   UNL A   1      37.866  30.845  33.003  1.00  0.00     0.198 A 
ATOM     66  C   UNL A   1      36.826  31.628  30.987  1.00  0.00     0.198 A 
ATOM     67  F   UNL A   1      38.002  31.552  28.948  1.00  0.00    -0.203 F 
ATOM     68  F   UNL A   1      37.808  30.597  34.320  1.00  0.00    -0.200 F 
ATOM     69  C   UNL A   1      36.768  31.385  32.351  1.00  0.00     0.200 A 
ATOM     70  F   UNL A   1      35.775  32.175  30.360  1.00  0.00    -0.200 F 
ATOM     71  F   UNL A   1      35.654  31.671  33.038  1.00  0.00    -0.200 F 
ENDBRANCH  47  61
BRANCH  48  72
ATOM     72  C   UNL A   1      47.141  27.577  25.854  1.00  0.00     0.064 A 
ATOM     73  C   UNL A   1      48.233  27.013  26.533  1.00  0.00     0.173 A 
ATOM     74  C   UNL A   1      47.229  27.686  24.460  1.00  0.00     0.173 A 
ATOM     75  F   UNL A   1      48.198  26.879  27.866  1.00  0.00    -0.203 F 
ATOM     76  C   UNL A   1      49.373  26.599  25.848  1.00  0.00     0.198 A 
ATOM     77  C   UNL A   1      48.359  27.245  23.773  1.00  0.00     0.198 A 
ATOM     78  F   UNL A   1      46.204  28.196  23.762  1.00  0.00    -0.203 F 
ATOM     79  F   UNL A   1      50.413  26.095  26.526  1.00  0.00    -0.200 F 
ATOM     80  C   UNL A   1      49.434  26.710  24.469  1.00  0.00     0.200 A 
ATOM     81  F   UNL A   1      48.403  27.327  22.436  1.00  0.00    -0.200 F 
ATOM     82  F   UNL A   1      50.524  26.297  23.808  1.00  0.00    -0.200 F 
ENDBRANCH  48  72
BRANCH  60  83
ATOM     83  C   UNL A   1      45.297  33.671  28.758  1.00  0.00     0.064 A 
ATOM     84  C   UNL A   1      45.112  34.613  27.735  1.00  0.00     0.173 A 
ATOM     85  C   UNL A   1      46.214  33.972  29.775  1.00  0.00     0.173 A 
ATOM     86  F   UNL A   1      44.255  34.364  26.733  1.00  0.00    -0.203 F 
ATOM     87  C   UNL A   1      45.845  35.796  27.711  1.00  0.00     0.198 A 
ATOM     88  C   UNL A   1      46.923  35.169  29.764  1.00  0.00     0.198 A 
ATOM     89  F   UNL A   1      46.417  33.106  30.778  1.00  0.00    -0.203 F 
ATOM     90  F   UNL A   1      45.693  36.656  26.696  1.00  0.00    -0.200 F 
ATOM     91  C   UNL A   1      46.750  36.072  28.725  1.00  0.00     0.200 A 
ATOM     92  F   UNL A   1      47.783  35.444  30.754  1.00  0.00    -0.200 F 
ATOM     93  F   UNL A   1      47.459  37.209  28.699  1.00  0.00    -0.200 F 
ENDBRANCH  60  83
ENDBRANCH  34  35
ENDBRANCH  27  29
ENDBRANCH  26  27
ENDBRANCH  25  26
ENDBRANCH  24  25
ENDBRANCH  23  24
ENDBRANCH   1  23
TORSDOF 17
ENDMDL
