MODEL 1
REMARK VINA RESULT:     -12.6      0.000      0.000
REMARK SMILES O=C(OCCOCCOC(=O)[C@H]1[C@@H](C(=O)Nc2ccccc2-c2ccccc2)[C@@H]2C=C[C@H]1O2)c1ccc(-c2c3nc(c(-c4c(F)c(F)c(F)c(F)c4F)c4ccc([nH]4)c(-c4c(F)c(F)c(F)c(F)c4F)c4nc(c(-c5c(F)c(F)c(F)c(F)c5F)c5ccc2[nH]5)C=C4)C=C3)cc1
REMARK SMILES IDX 7 1 6 2 5 3 4 4 3 5 2 6 1 7 34 8 35 9 96 10 36 11 95 12
REMARK SMILES IDX 37 13 38 14 39 15 89 16 40 17 94 18 88 19 90 20 41 21 93 22
REMARK SMILES IDX 87 23 86 24 42 26 74 27 54 28 73 29 55 30 58 31 72 32 91 33
REMARK SMILES IDX 56 34 57 35 71 37 92 38 59 39 43 40 44 41 52 42 45 43 46 44
REMARK SMILES IDX 50 45 53 46 47 47 48 48 51 49 49 50 75 51 76 52 84 53 77 54
REMARK SMILES IDX 78 55 82 56 85 57 79 58 80 59 83 60 81 61 60 62 61 63 69 64
REMARK SMILES IDX 62 65 63 66 67 67 70 68 64 69 65 70 68 71 66 72 8 73 9 74
REMARK SMILES IDX 10 75 11 76 12 77 13 78 32 79 29 80 31 81 33 82 30 83 14 84
REMARK SMILES IDX 15 85 16 86 17 88 18 89 22 90 19 91 21 92 20 93 23 94 24 95
REMARK SMILES IDX 28 96 25 97 27 98 26 99
REMARK H PARENT 90 25 58 36 16 87
REMARK Flexibility Score: inf
ROOT
ATOM      1  C   UNL A   1      32.760  29.969  26.127  1.00  0.00     0.202 C 
ENDROOT
BRANCH   1   2
ATOM      2  O   UNL A   1      31.513  30.613  25.900  1.00  0.00    -0.374 OA
BRANCH   2   3
ATOM      3  C   UNL A   1      31.322  31.882  26.520  1.00  0.00     0.202 C 
BRANCH   3   4
ATOM      4  C   UNL A   1      32.498  32.566  27.218  1.00  0.00     0.261 C 
BRANCH   4   5
ATOM      5  O   UNL A   1      32.193  33.901  27.643  1.00  0.00    -0.460 OA
BRANCH   5   6
ATOM      6  C   UNL A   1      32.925  34.628  28.529  1.00  0.00     0.338 C 
ATOM      7  O   UNL A   1      32.577  35.757  28.839  1.00  0.00    -0.246 OA
BRANCH   6   8
ATOM      8  C   UNL A   1      34.137  34.046  29.166  1.00  0.00     0.060 A 
ATOM      9  C   UNL A   1      34.061  33.020  30.094  1.00  0.00     0.016 A 
ATOM     10  C   UNL A   1      35.405  34.484  28.788  1.00  0.00     0.016 A 
ATOM     11  C   UNL A   1      35.140  32.553  30.785  1.00  0.00     0.010 A 
ATOM     12  C   UNL A   1      36.541  33.890  29.357  1.00  0.00     0.010 A 
ATOM     13  C   UNL A   1      36.399  32.924  30.364  1.00  0.00    -0.014 A 
BRANCH  13  14
ATOM     14  C   UNL A   1      37.503  32.284  31.089  1.00  0.00     0.031 A 
ATOM     15  C   UNL A   1      38.313  31.268  30.365  1.00  0.00     0.074 A 
ATOM     16  C   UNL A   1      37.876  32.792  32.282  1.00  0.00     0.049 A 
ATOM     17  N   UNL A   1      39.291  30.532  30.807  1.00  0.00    -0.248 NA
ATOM     18  C   UNL A   1      37.986  31.056  28.943  1.00  0.00     0.031 C 
ATOM     19  C   UNL A   1      37.230  33.923  32.967  1.00  0.00     0.029 A 
ATOM     20  N   UNL A   1      38.922  32.473  33.104  1.00  0.00    -0.354 N 
ATOM     21  C   UNL A   1      39.664  29.737  29.735  1.00  0.00     0.074 A 
ATOM     22  C   UNL A   1      38.809  30.072  28.621  1.00  0.00     0.031 C 
ATOM     23  C   UNL A   1      37.919  34.225  34.076  1.00  0.00     0.029 A 
ATOM     24  C   UNL A   1      38.974  33.241  34.243  1.00  0.00     0.049 A 
ATOM     25  H   UNL A   1      39.572  31.764  32.900  1.00  0.00     0.167 HD
ATOM     26  C   UNL A   1      40.639  28.803  29.710  1.00  0.00     0.037 A 
ATOM     27  C   UNL A   1      39.756  33.108  35.330  1.00  0.00     0.037 A 
ATOM     28  C   UNL A   1      41.468  28.517  30.849  1.00  0.00     0.049 A 
ATOM     29  C   UNL A   1      40.750  31.982  35.315  1.00  0.00     0.074 A 
ATOM     30  C   UNL A   1      42.423  27.532  31.002  1.00  0.00     0.029 A 
ATOM     31  N   UNL A   1      41.437  29.241  32.036  1.00  0.00    -0.354 N 
ATOM     32  N   UNL A   1      41.025  31.134  34.349  1.00  0.00    -0.248 NA
ATOM     33  C   UNL A   1      41.528  31.774  36.539  1.00  0.00     0.031 C 
ATOM     34  C   UNL A   1      42.938  27.633  32.299  1.00  0.00     0.029 A 
ATOM     35  C   UNL A   1      42.349  28.719  32.934  1.00  0.00     0.049 A 
ATOM     36  H   UNL A   1      40.850  30.013  32.212  1.00  0.00     0.167 HD
ATOM     37  C   UNL A   1      42.014  30.300  34.841  1.00  0.00     0.074 A 
ATOM     38  C   UNL A   1      42.316  30.771  36.180  1.00  0.00     0.031 C 
ATOM     39  C   UNL A   1      42.613  29.233  34.255  1.00  0.00     0.037 A 
BRANCH  26  40
ATOM     40  C   UNL A   1      40.780  28.001  28.454  1.00  0.00     0.064 A 
ATOM     41  C   UNL A   1      40.116  26.778  28.274  1.00  0.00     0.173 A 
ATOM     42  C   UNL A   1      41.634  28.441  27.434  1.00  0.00     0.173 A 
ATOM     43  F   UNL A   1      39.322  26.291  29.240  1.00  0.00    -0.203 F 
ATOM     44  C   UNL A   1      40.322  26.015  27.127  1.00  0.00     0.198 A 
ATOM     45  C   UNL A   1      41.814  27.690  26.275  1.00  0.00     0.198 A 
ATOM     46  F   UNL A   1      42.309  29.593  27.565  1.00  0.00    -0.203 F 
ATOM     47  F   UNL A   1      39.728  24.819  27.004  1.00  0.00    -0.200 F 
ATOM     48  C   UNL A   1      41.166  26.474  26.126  1.00  0.00     0.200 A 
ATOM     49  F   UNL A   1      42.632  28.136  25.311  1.00  0.00    -0.200 F 
ATOM     50  F   UNL A   1      41.366  25.737  25.025  1.00  0.00    -0.200 F 
ENDBRANCH  26  40
BRANCH  27  51
ATOM     51  C   UNL A   1      39.560  33.975  36.525  1.00  0.00     0.064 A 
ATOM     52  C   UNL A   1      40.184  35.226  36.636  1.00  0.00     0.173 A 
ATOM     53  C   UNL A   1      38.776  33.549  37.611  1.00  0.00     0.173 A 
ATOM     54  F   UNL A   1      40.961  35.677  35.640  1.00  0.00    -0.203 F 
ATOM     55  C   UNL A   1      40.061  35.995  37.794  1.00  0.00     0.198 A 
ATOM     56  C   UNL A   1      38.621  34.335  38.750  1.00  0.00     0.198 A 
ATOM     57  F   UNL A   1      38.156  32.360  37.568  1.00  0.00    -0.203 F 
ATOM     58  F   UNL A   1      40.728  37.152  37.899  1.00  0.00    -0.200 F 
ATOM     59  C   UNL A   1      39.277  35.551  38.848  1.00  0.00     0.200 A 
ATOM     60  F   UNL A   1      37.848  33.906  39.758  1.00  0.00    -0.200 F 
ATOM     61  F   UNL A   1      39.167  36.286  39.963  1.00  0.00    -0.200 F 
ENDBRANCH  27  51
BRANCH  39  62
ATOM     62  C   UNL A   1      43.674  28.545  35.058  1.00  0.00     0.064 A 
ATOM     63  C   UNL A   1      45.022  28.919  34.971  1.00  0.00     0.173 A 
ATOM     64  C   UNL A   1      43.328  27.513  35.942  1.00  0.00     0.173 A 
ATOM     65  F   UNL A   1      45.402  29.890  34.126  1.00  0.00    -0.203 F 
ATOM     66  C   UNL A   1      45.993  28.254  35.712  1.00  0.00     0.198 A 
ATOM     67  C   UNL A   1      44.296  26.878  36.710  1.00  0.00     0.198 A 
ATOM     68  F   UNL A   1      42.047  27.128  36.065  1.00  0.00    -0.203 F 
ATOM     69  F   UNL A   1      47.285  28.581  35.563  1.00  0.00    -0.200 F 
ATOM     70  C   UNL A   1      45.628  27.241  36.586  1.00  0.00     0.200 A 
ATOM     71  F   UNL A   1      43.940  25.913  37.569  1.00  0.00    -0.200 F 
ATOM     72  F   UNL A   1      46.565  26.606  37.303  1.00  0.00    -0.200 F 
ENDBRANCH  39  62
ENDBRANCH  13  14
ENDBRANCH   6   8
ENDBRANCH   5   6
ENDBRANCH   4   5
ENDBRANCH   3   4
ENDBRANCH   2   3
ENDBRANCH   1   2
BRANCH   1  73
ATOM     73  C   UNL A   1      32.569  28.931  27.223  1.00  0.00     0.261 C 
BRANCH  73  74
ATOM     74  O   UNL A   1      32.011  27.773  26.577  1.00  0.00    -0.463 OA
BRANCH  74  75
ATOM     75  C   UNL A   1      32.907  26.888  26.064  1.00  0.00     0.312 C 
ATOM     76  O   UNL A   1      34.105  26.892  26.330  1.00  0.00    -0.252 OA
BRANCH  75  77
ATOM     77  C   UNL A   1      32.280  26.049  24.972  1.00  0.00     0.147 C 
ATOM     78  C   UNL A   1      32.186  24.502  25.139  1.00  0.00     0.129 C 
ATOM     79  C   UNL A   1      30.817  26.392  24.615  1.00  0.00     0.157 C 
ATOM     80  C   UNL A   1      30.742  24.219  24.698  1.00  0.00     0.155 C 
ATOM     81  C   UNL A   1      30.563  25.938  23.208  1.00  0.00     0.004 C 
ATOM     82  O   UNL A   1      30.066  25.343  25.289  1.00  0.00    -0.365 OA
ATOM     83  C   UNL A   1      30.541  24.597  23.255  1.00  0.00     0.004 C 
BRANCH  78  84
ATOM     84  C   UNL A   1      32.496  23.851  26.485  1.00  0.00     0.231 C 
ATOM     85  O   UNL A   1      31.820  24.030  27.496  1.00  0.00    -0.274 OA
ATOM     86  N   UNL A   1      33.502  22.932  26.611  1.00  0.00    -0.325 N 
ATOM     87  H   UNL A   1      33.338  22.266  27.317  1.00  0.00     0.169 HD
BRANCH  86  88
ATOM     88  C   UNL A   1      34.724  22.745  25.937  1.00  0.00     0.049 A 
ATOM     89  C   UNL A   1      35.661  23.776  26.135  1.00  0.00     0.027 A 
ATOM     90  C   UNL A   1      35.012  21.695  25.028  1.00  0.00     0.005 A 
ATOM     91  C   UNL A   1      36.916  23.729  25.536  1.00  0.00     0.002 A 
ATOM     92  C   UNL A   1      36.298  21.663  24.454  1.00  0.00     0.011 A 
ATOM     93  C   UNL A   1      37.243  22.660  24.711  1.00  0.00     0.001 A 
BRANCH  90  94
ATOM     94  C   UNL A   1      34.012  20.701  24.580  1.00  0.00    -0.016 A 
ATOM     95  C   UNL A   1      32.920  21.090  23.778  1.00  0.00     0.009 A 
ATOM     96  C   UNL A   1      34.215  19.326  24.798  1.00  0.00     0.009 A 
ATOM     97  C   UNL A   1      32.162  20.133  23.096  1.00  0.00     0.001 A 
ATOM     98  C   UNL A   1      33.454  18.373  24.119  1.00  0.00     0.001 A 
ATOM     99  C   UNL A   1      32.448  18.778  23.246  1.00  0.00     0.000 A 
ENDBRANCH  90  94
ENDBRANCH  86  88
ENDBRANCH  78  84
ENDBRANCH  75  77
ENDBRANCH  74  75
ENDBRANCH  73  74
ENDBRANCH   1  73
TORSDOF 17
ENDMDL
MODEL 2
REMARK VINA RESULT:     -12.5      0.712      7.216
REMARK SMILES O=C(OCCOCCOC(=O)[C@H]1[C@@H](C(=O)Nc2ccccc2-c2ccccc2)[C@@H]2C=C[C@H]1O2)c1ccc(-c2c3nc(c(-c4c(F)c(F)c(F)c(F)c4F)c4ccc([nH]4)c(-c4c(F)c(F)c(F)c(F)c4F)c4nc(c(-c5c(F)c(F)c(F)c(F)c5F)c5ccc2[nH]5)C=C4)C=C3)cc1
REMARK SMILES IDX 7 1 6 2 5 3 4 4 3 5 2 6 1 7 34 8 35 9 96 10 36 11 95 12
REMARK SMILES IDX 37 13 38 14 39 15 89 16 40 17 94 18 88 19 90 20 41 21 93 22
REMARK SMILES IDX 87 23 86 24 42 26 74 27 54 28 73 29 55 30 58 31 72 32 91 33
REMARK SMILES IDX 56 34 57 35 71 37 92 38 59 39 43 40 44 41 52 42 45 43 46 44
REMARK SMILES IDX 50 45 53 46 47 47 48 48 51 49 49 50 75 51 76 52 84 53 77 54
REMARK SMILES IDX 78 55 82 56 85 57 79 58 80 59 83 60 81 61 60 62 61 63 69 64
REMARK SMILES IDX 62 65 63 66 67 67 70 68 64 69 65 70 68 71 66 72 8 73 9 74
REMARK SMILES IDX 10 75 11 76 12 77 13 78 32 79 29 80 31 81 33 82 30 83 14 84
REMARK SMILES IDX 15 85 16 86 17 88 18 89 22 90 19 91 21 92 20 93 23 94 24 95
REMARK SMILES IDX 28 96 25 97 27 98 26 99
REMARK H PARENT 90 25 58 36 16 87
REMARK Flexibility Score: inf
ROOT
ATOM      1  C   UNL A   1      32.692  29.956  26.844  1.00  0.00     0.202 C 
ENDROOT
BRANCH   1   2
ATOM      2  O   UNL A   1      31.502  30.589  26.395  1.00  0.00    -0.374 OA
BRANCH   2   3
ATOM      3  C   UNL A   1      31.382  31.987  26.647  1.00  0.00     0.202 C 
BRANCH   3   4
ATOM      4  C   UNL A   1      32.606  32.777  27.114  1.00  0.00     0.261 C 
BRANCH   4   5
ATOM      5  O   UNL A   1      32.258  33.983  27.808  1.00  0.00    -0.460 OA
BRANCH   5   6
ATOM      6  C   UNL A   1      33.061  34.641  28.686  1.00  0.00     0.338 C 
ATOM      7  O   UNL A   1      32.757  35.754  29.086  1.00  0.00    -0.246 OA
BRANCH   6   8
ATOM      8  C   UNL A   1      34.300  34.000  29.204  1.00  0.00     0.060 A 
ATOM      9  C   UNL A   1      34.268  32.845  29.968  1.00  0.00     0.016 A 
ATOM     10  C   UNL A   1      35.548  34.522  28.871  1.00  0.00     0.016 A 
ATOM     11  C   UNL A   1      35.372  32.307  30.560  1.00  0.00     0.010 A 
ATOM     12  C   UNL A   1      36.710  33.879  29.323  1.00  0.00     0.010 A 
ATOM     13  C   UNL A   1      36.613  32.769  30.175  1.00  0.00    -0.014 A 
BRANCH  13  14
ATOM     14  C   UNL A   1      37.747  32.056  30.774  1.00  0.00     0.031 A 
ATOM     15  C   UNL A   1      38.043  32.304  32.211  1.00  0.00     0.074 A 
ATOM     16  C   UNL A   1      38.325  31.056  30.078  1.00  0.00     0.049 A 
ATOM     17  N   UNL A   1      39.018  31.842  32.940  1.00  0.00    -0.248 NA
ATOM     18  C   UNL A   1      37.108  33.185  32.934  1.00  0.00     0.031 C 
ATOM     19  C   UNL A   1      37.951  30.637  28.717  1.00  0.00     0.029 A 
ATOM     20  N   UNL A   1      39.304  30.168  30.429  1.00  0.00    -0.354 N 
ATOM     21  C   UNL A   1      38.843  32.413  34.189  1.00  0.00     0.074 A 
ATOM     22  C   UNL A   1      37.674  33.258  34.126  1.00  0.00     0.031 C 
ATOM     23  C   UNL A   1      38.659  29.552  28.374  1.00  0.00     0.029 A 
ATOM     24  C   UNL A   1      39.616  29.275  29.432  1.00  0.00     0.049 A 
ATOM     25  H   UNL A   1      39.741  30.167  31.311  1.00  0.00     0.167 HD
ATOM     26  C   UNL A   1      39.614  32.235  35.284  1.00  0.00     0.037 A 
ATOM     27  C   UNL A   1      40.615  28.377  29.368  1.00  0.00     0.037 A 
ATOM     28  C   UNL A   1      40.762  31.372  35.292  1.00  0.00     0.049 A 
ATOM     29  C   UNL A   1      41.527  28.293  30.559  1.00  0.00     0.074 A 
ATOM     30  C   UNL A   1      41.693  31.175  36.292  1.00  0.00     0.029 A 
ATOM     31  N   UNL A   1      41.125  30.548  34.231  1.00  0.00    -0.354 N 
ATOM     32  N   UNL A   1      41.448  28.927  31.707  1.00  0.00    -0.248 NA
ATOM     33  C   UNL A   1      42.676  27.391  30.447  1.00  0.00     0.031 C 
ATOM     34  C   UNL A   1      42.644  30.264  35.819  1.00  0.00     0.029 A 
ATOM     35  C   UNL A   1      42.273  29.847  34.547  1.00  0.00     0.049 A 
ATOM     36  H   UNL A   1      40.636  30.476  33.379  1.00  0.00     0.167 HD
ATOM     37  C   UNL A   1      42.526  28.495  32.459  1.00  0.00     0.074 A 
ATOM     38  C   UNL A   1      43.223  27.514  31.647  1.00  0.00     0.031 C 
ATOM     39  C   UNL A   1      42.921  28.876  33.700  1.00  0.00     0.037 A 
BRANCH  26  40
ATOM     40  C   UNL A   1      39.273  33.049  36.494  1.00  0.00     0.064 A 
ATOM     41  C   UNL A   1      39.822  34.320  36.715  1.00  0.00     0.173 A 
ATOM     42  C   UNL A   1      38.419  32.523  37.473  1.00  0.00     0.173 A 
ATOM     43  F   UNL A   1      40.680  34.850  35.829  1.00  0.00    -0.203 F 
ATOM     44  C   UNL A   1      39.547  35.025  37.884  1.00  0.00     0.198 A 
ATOM     45  C   UNL A   1      38.121  33.243  38.627  1.00  0.00     0.198 A 
ATOM     46  F   UNL A   1      37.883  31.302  37.320  1.00  0.00    -0.203 F 
ATOM     47  F   UNL A   1      40.134  36.210  38.105  1.00  0.00    -0.200 F 
ATOM     48  C   UNL A   1      38.692  34.488  38.837  1.00  0.00     0.200 A 
ATOM     49  F   UNL A   1      37.297  32.721  39.546  1.00  0.00    -0.200 F 
ATOM     50  F   UNL A   1      38.432  35.166  39.963  1.00  0.00    -0.200 F 
ENDBRANCH  26  40
BRANCH  27  51
ATOM     51  C   UNL A   1      40.860  27.591  28.126  1.00  0.00     0.064 A 
ATOM     52  C   UNL A   1      40.303  26.317  27.943  1.00  0.00     0.173 A 
ATOM     53  C   UNL A   1      41.700  28.079  27.111  1.00  0.00     0.173 A 
ATOM     54  F   UNL A   1      39.510  25.790  28.886  1.00  0.00    -0.203 F 
ATOM     55  C   UNL A   1      40.604  25.553  26.814  1.00  0.00     0.198 A 
ATOM     56  C   UNL A   1      41.967  27.332  25.966  1.00  0.00     0.198 A 
ATOM     57  F   UNL A   1      42.267  29.289  27.229  1.00  0.00    -0.203 F 
ATOM     58  F   UNL A   1      40.115  24.311  26.701  1.00  0.00    -0.200 F 
ATOM     59  C   UNL A   1      41.432  26.062  25.825  1.00  0.00     0.200 A 
ATOM     60  F   UNL A   1      42.756  27.839  25.007  1.00  0.00    -0.200 F 
ATOM     61  F   UNL A   1      41.728  25.324  24.746  1.00  0.00    -0.200 F 
ENDBRANCH  27  51
BRANCH  39  62
ATOM     62  C   UNL A   1      44.137  28.194  34.246  1.00  0.00     0.064 A 
ATOM     63  C   UNL A   1      45.420  28.740  34.091  1.00  0.00     0.173 A 
ATOM     64  C   UNL A   1      44.011  26.989  34.952  1.00  0.00     0.173 A 
ATOM     65  F   UNL A   1      45.591  29.881  33.408  1.00  0.00    -0.203 F 
ATOM     66  C   UNL A   1      46.538  28.080  34.590  1.00  0.00     0.198 A 
ATOM     67  C   UNL A   1      45.126  26.354  35.484  1.00  0.00     0.198 A 
ATOM     68  F   UNL A   1      42.801  26.434  35.134  1.00  0.00    -0.203 F 
ATOM     69  F   UNL A   1      47.761  28.583  34.373  1.00  0.00    -0.200 F 
ATOM     70  C   UNL A   1      46.389  26.894  35.293  1.00  0.00     0.200 A 
ATOM     71  F   UNL A   1      44.979  25.218  36.180  1.00  0.00    -0.200 F 
ATOM     72  F   UNL A   1      47.467  26.263  35.778  1.00  0.00    -0.200 F 
ENDBRANCH  39  62
ENDBRANCH  13  14
ENDBRANCH   6   8
ENDBRANCH   5   6
ENDBRANCH   4   5
ENDBRANCH   3   4
ENDBRANCH   2   3
ENDBRANCH   1   2
BRANCH   1  73
ATOM     73  C   UNL A   1      32.337  28.557  27.324  1.00  0.00     0.261 C 
BRANCH  73  74
ATOM     74  O   UNL A   1      32.003  27.807  26.143  1.00  0.00    -0.463 OA
BRANCH  74  75
ATOM     75  C   UNL A   1      32.886  26.837  25.783  1.00  0.00     0.312 C 
ATOM     76  O   UNL A   1      34.070  26.833  26.109  1.00  0.00    -0.252 OA
BRANCH  75  77
ATOM     77  C   UNL A   1      32.280  25.898  24.765  1.00  0.00     0.147 C 
ATOM     78  C   UNL A   1      32.211  24.369  25.063  1.00  0.00     0.129 C 
ATOM     79  C   UNL A   1      30.812  26.183  24.375  1.00  0.00     0.157 C 
ATOM     80  C   UNL A   1      30.775  24.023  24.643  1.00  0.00     0.155 C 
ATOM     81  C   UNL A   1      30.572  25.605  23.011  1.00  0.00     0.004 C 
ATOM     82  O   UNL A   1      30.076  25.181  25.134  1.00  0.00    -0.365 OA
ATOM     83  C   UNL A   1      30.574  24.273  23.172  1.00  0.00     0.004 C 
BRANCH  78  84
ATOM     84  C   UNL A   1      32.527  23.841  26.460  1.00  0.00     0.231 C 
ATOM     85  O   UNL A   1      31.850  24.103  27.453  1.00  0.00    -0.274 OA
ATOM     86  N   UNL A   1      33.539  22.944  26.666  1.00  0.00    -0.325 N 
ATOM     87  H   UNL A   1      33.381  22.341  27.428  1.00  0.00     0.169 HD
BRANCH  86  88
ATOM     88  C   UNL A   1      34.763  22.708  26.009  1.00  0.00     0.049 A 
ATOM     89  C   UNL A   1      35.746  23.687  26.242  1.00  0.00     0.027 A 
ATOM     90  C   UNL A   1      35.015  21.660  25.087  1.00  0.00     0.005 A 
ATOM     91  C   UNL A   1      37.009  23.587  25.664  1.00  0.00     0.002 A 
ATOM     92  C   UNL A   1      36.308  21.574  24.534  1.00  0.00     0.011 A 
ATOM     93  C   UNL A   1      37.296  22.517  24.825  1.00  0.00     0.001 A 
BRANCH  90  94
ATOM     94  C   UNL A   1      33.975  20.725  24.604  1.00  0.00    -0.016 A 
ATOM     95  C   UNL A   1      32.982  21.157  23.701  1.00  0.00     0.009 A 
ATOM     96  C   UNL A   1      34.048  19.351  24.897  1.00  0.00     0.009 A 
ATOM     97  C   UNL A   1      32.204  20.229  23.002  1.00  0.00     0.001 A 
ATOM     98  C   UNL A   1      33.267  18.428  24.202  1.00  0.00     0.001 A 
ATOM     99  C   UNL A   1      32.367  18.865  23.234  1.00  0.00     0.000 A 
ENDBRANCH  90  94
ENDBRANCH  86  88
ENDBRANCH  78  84
ENDBRANCH  75  77
ENDBRANCH  74  75
ENDBRANCH  73  74
ENDBRANCH   1  73
TORSDOF 17
ENDMDL
MODEL 3
REMARK VINA RESULT:     -12.5      0.518      1.646
REMARK SMILES O=C(OCCOCCOC(=O)[C@H]1[C@@H](C(=O)Nc2ccccc2-c2ccccc2)[C@@H]2C=C[C@H]1O2)c1ccc(-c2c3nc(c(-c4c(F)c(F)c(F)c(F)c4F)c4ccc([nH]4)c(-c4c(F)c(F)c(F)c(F)c4F)c4nc(c(-c5c(F)c(F)c(F)c(F)c5F)c5ccc2[nH]5)C=C4)C=C3)cc1
REMARK SMILES IDX 7 1 6 2 5 3 4 4 3 5 2 6 1 7 34 8 35 9 96 10 36 11 95 12
REMARK SMILES IDX 37 13 38 14 39 15 89 16 40 17 94 18 88 19 90 20 41 21 93 22
REMARK SMILES IDX 87 23 86 24 42 26 74 27 54 28 73 29 55 30 58 31 72 32 91 33
REMARK SMILES IDX 56 34 57 35 71 37 92 38 59 39 43 40 44 41 52 42 45 43 46 44
REMARK SMILES IDX 50 45 53 46 47 47 48 48 51 49 49 50 75 51 76 52 84 53 77 54
REMARK SMILES IDX 78 55 82 56 85 57 79 58 80 59 83 60 81 61 60 62 61 63 69 64
REMARK SMILES IDX 62 65 63 66 67 67 70 68 64 69 65 70 68 71 66 72 8 73 9 74
REMARK SMILES IDX 10 75 11 76 12 77 13 78 32 79 29 80 31 81 33 82 30 83 14 84
REMARK SMILES IDX 15 85 16 86 17 88 18 89 22 90 19 91 21 92 20 93 23 94 24 95
REMARK SMILES IDX 28 96 25 97 27 98 26 99
REMARK H PARENT 90 25 58 36 16 87
REMARK Flexibility Score: inf
ROOT
ATOM      1  C   UNL A   1      33.001  30.169  27.180  1.00  0.00     0.202 C 
ENDROOT
BRANCH   1   2
ATOM      2  O   UNL A   1      31.703  30.668  26.886  1.00  0.00    -0.374 OA
BRANCH   2   3
ATOM      3  C   UNL A   1      31.559  32.085  26.820  1.00  0.00     0.202 C 
BRANCH   3   4
ATOM      4  C   UNL A   1      32.720  32.982  27.249  1.00  0.00     0.261 C 
BRANCH   4   5
ATOM      5  O   UNL A   1      32.284  34.196  27.877  1.00  0.00    -0.460 OA
BRANCH   5   6
ATOM      6  C   UNL A   1      32.964  34.866  28.844  1.00  0.00     0.338 C 
ATOM      7  O   UNL A   1      32.576  35.960  29.228  1.00  0.00    -0.246 OA
BRANCH   6   8
ATOM      8  C   UNL A   1      34.167  34.264  29.479  1.00  0.00     0.060 A 
ATOM      9  C   UNL A   1      34.072  33.297  30.467  1.00  0.00     0.016 A 
ATOM     10  C   UNL A   1      35.441  34.618  29.040  1.00  0.00     0.016 A 
ATOM     11  C   UNL A   1      35.149  32.818  31.153  1.00  0.00     0.010 A 
ATOM     12  C   UNL A   1      36.566  34.003  29.611  1.00  0.00     0.010 A 
ATOM     13  C   UNL A   1      36.411  33.104  30.676  1.00  0.00    -0.014 A 
BRANCH  13  14
ATOM     14  C   UNL A   1      37.505  32.454  31.405  1.00  0.00     0.031 A 
ATOM     15  C   UNL A   1      38.298  31.417  30.689  1.00  0.00     0.074 A 
ATOM     16  C   UNL A   1      37.889  32.967  32.592  1.00  0.00     0.049 A 
ATOM     17  N   UNL A   1      39.265  30.670  31.137  1.00  0.00    -0.248 NA
ATOM     18  C   UNL A   1      37.965  31.197  29.270  1.00  0.00     0.031 C 
ATOM     19  C   UNL A   1      37.262  34.115  33.267  1.00  0.00     0.029 A 
ATOM     20  N   UNL A   1      38.931  32.640  33.416  1.00  0.00    -0.354 N 
ATOM     21  C   UNL A   1      39.623  29.859  30.073  1.00  0.00     0.074 A 
ATOM     22  C   UNL A   1      38.771  30.196  28.957  1.00  0.00     0.031 C 
ATOM     23  C   UNL A   1      37.958  34.418  34.372  1.00  0.00     0.029 A 
ATOM     24  C   UNL A   1      38.998  33.418  34.547  1.00  0.00     0.049 A 
ATOM     25  H   UNL A   1      39.570  31.919  33.217  1.00  0.00     0.167 HD
ATOM     26  C   UNL A   1      40.583  28.910  30.056  1.00  0.00     0.037 A 
ATOM     27  C   UNL A   1      39.780  33.284  35.633  1.00  0.00     0.037 A 
ATOM     28  C   UNL A   1      41.409  28.622  31.195  1.00  0.00     0.049 A 
ATOM     29  C   UNL A   1      40.756  32.141  35.628  1.00  0.00     0.074 A 
ATOM     30  C   UNL A   1      42.348  27.623  31.357  1.00  0.00     0.029 A 
ATOM     31  N   UNL A   1      41.392  29.358  32.376  1.00  0.00    -0.354 N 
ATOM     32  N   UNL A   1      41.015  31.280  34.670  1.00  0.00    -0.248 NA
ATOM     33  C   UNL A   1      41.533  31.933  36.852  1.00  0.00     0.031 C 
ATOM     34  C   UNL A   1      42.868  27.728  32.651  1.00  0.00     0.029 A 
ATOM     35  C   UNL A   1      42.298  28.830  33.276  1.00  0.00     0.049 A 
ATOM     36  H   UNL A   1      40.818  30.140  32.545  1.00  0.00     0.167 HD
ATOM     37  C   UNL A   1      41.992  30.435  35.169  1.00  0.00     0.074 A 
ATOM     38  C   UNL A   1      42.304  30.914  36.502  1.00  0.00     0.031 C 
ATOM     39  C   UNL A   1      42.572  29.353  34.592  1.00  0.00     0.037 A 
BRANCH  26  40
ATOM     40  C   UNL A   1      40.708  28.093  28.807  1.00  0.00     0.064 A 
ATOM     41  C   UNL A   1      41.510  28.497  27.730  1.00  0.00     0.173 A 
ATOM     42  C   UNL A   1      39.971  26.908  28.668  1.00  0.00     0.173 A 
ATOM     43  F   UNL A   1      42.201  29.646  27.795  1.00  0.00    -0.203 F 
ATOM     44  C   UNL A   1      41.551  27.757  26.551  1.00  0.00     0.198 A 
ATOM     45  C   UNL A   1      40.037  26.155  27.500  1.00  0.00     0.198 A 
ATOM     46  F   UNL A   1      39.172  26.488  29.661  1.00  0.00    -0.203 F 
ATOM     47  F   UNL A   1      42.273  28.196  25.510  1.00  0.00    -0.200 F 
ATOM     48  C   UNL A   1      40.819  26.584  26.439  1.00  0.00     0.200 A 
ATOM     49  F   UNL A   1      39.327  25.022  27.394  1.00  0.00    -0.200 F 
ATOM     50  F   UNL A   1      40.856  25.875  25.302  1.00  0.00    -0.200 F 
ENDBRANCH  26  40
BRANCH  27  51
ATOM     51  C   UNL A   1      39.600  34.166  36.820  1.00  0.00     0.064 A 
ATOM     52  C   UNL A   1      40.251  35.403  36.921  1.00  0.00     0.173 A 
ATOM     53  C   UNL A   1      38.804  33.766  37.908  1.00  0.00     0.173 A 
ATOM     54  F   UNL A   1      41.039  35.829  35.923  1.00  0.00    -0.203 F 
ATOM     55  C   UNL A   1      40.142  36.185  38.072  1.00  0.00     0.198 A 
ATOM     56  C   UNL A   1      38.664  34.566  39.039  1.00  0.00     0.198 A 
ATOM     57  F   UNL A   1      38.159  32.591  37.875  1.00  0.00    -0.203 F 
ATOM     58  F   UNL A   1      40.834  37.329  38.168  1.00  0.00    -0.200 F 
ATOM     59  C   UNL A   1      39.346  35.768  39.128  1.00  0.00     0.200 A 
ATOM     60  F   UNL A   1      37.880  34.163  40.049  1.00  0.00    -0.200 F 
ATOM     61  F   UNL A   1      39.250  36.516  40.236  1.00  0.00    -0.200 F 
ENDBRANCH  27  51
BRANCH  39  62
ATOM     62  C   UNL A   1      43.623  28.656  35.400  1.00  0.00     0.064 A 
ATOM     63  C   UNL A   1      43.295  27.665  36.337  1.00  0.00     0.173 A 
ATOM     64  C   UNL A   1      44.977  28.973  35.217  1.00  0.00     0.173 A 
ATOM     65  F   UNL A   1      42.012  27.341  36.558  1.00  0.00    -0.203 F 
ATOM     66  C   UNL A   1      44.285  27.044  37.090  1.00  0.00     0.198 A 
ATOM     67  C   UNL A   1      45.966  28.322  35.943  1.00  0.00     0.198 A 
ATOM     68  F   UNL A   1      45.339  29.909  34.325  1.00  0.00    -0.203 F 
ATOM     69  F   UNL A   1      43.946  26.148  38.027  1.00  0.00    -0.200 F 
ATOM     70  C   UNL A   1      45.618  27.367  36.887  1.00  0.00     0.200 A 
ATOM     71  F   UNL A   1      47.255  28.620  35.733  1.00  0.00    -0.200 F 
ATOM     72  F   UNL A   1      46.571  26.762  37.610  1.00  0.00    -0.200 F 
ENDBRANCH  39  62
ENDBRANCH  13  14
ENDBRANCH   6   8
ENDBRANCH   5   6
ENDBRANCH   4   5
ENDBRANCH   3   4
ENDBRANCH   2   3
ENDBRANCH   1   2
BRANCH   1  73
ATOM     73  C   UNL A   1      33.368  29.141  26.120  1.00  0.00     0.261 C 
BRANCH  73  74
ATOM     74  O   UNL A   1      33.171  27.855  26.732  1.00  0.00    -0.463 OA
BRANCH  74  75
ATOM     75  C   UNL A   1      31.936  27.306  26.581  1.00  0.00     0.312 C 
ATOM     76  O   UNL A   1      31.103  27.236  27.480  1.00  0.00    -0.252 OA
BRANCH  75  77
ATOM     77  C   UNL A   1      31.808  26.608  25.245  1.00  0.00     0.147 C 
ATOM     78  C   UNL A   1      32.087  25.079  25.138  1.00  0.00     0.129 C 
ATOM     79  C   UNL A   1      30.422  26.698  24.568  1.00  0.00     0.157 C 
ATOM     80  C   UNL A   1      30.902  24.594  24.290  1.00  0.00     0.155 C 
ATOM     81  C   UNL A   1      30.614  26.515  23.091  1.00  0.00     0.004 C 
ATOM     82  O   UNL A   1      29.842  25.392  24.845  1.00  0.00    -0.365 OA
ATOM     83  C   UNL A   1      30.934  25.222  22.922  1.00  0.00     0.004 C 
BRANCH  78  84
ATOM     84  C   UNL A   1      32.251  24.234  26.400  1.00  0.00     0.231 C 
ATOM     85  O   UNL A   1      31.526  24.341  27.387  1.00  0.00    -0.274 OA
ATOM     86  N   UNL A   1      33.168  23.220  26.459  1.00  0.00    -0.325 N 
ATOM     87  H   UNL A   1      32.903  22.486  27.059  1.00  0.00     0.169 HD
BRANCH  86  88
ATOM     88  C   UNL A   1      34.414  23.013  25.836  1.00  0.00     0.049 A 
ATOM     89  C   UNL A   1      35.389  23.977  26.150  1.00  0.00     0.027 A 
ATOM     90  C   UNL A   1      34.698  22.011  24.873  1.00  0.00     0.005 A 
ATOM     91  C   UNL A   1      36.671  23.903  25.613  1.00  0.00     0.002 A 
ATOM     92  C   UNL A   1      36.010  21.948  24.364  1.00  0.00     0.011 A 
ATOM     93  C   UNL A   1      36.988  22.874  24.735  1.00  0.00     0.001 A 
BRANCH  90  94
ATOM     94  C   UNL A   1      33.676  21.103  24.309  1.00  0.00    -0.016 A 
ATOM     95  C   UNL A   1      32.809  21.541  23.286  1.00  0.00     0.009 A 
ATOM     96  C   UNL A   1      33.652  19.740  24.654  1.00  0.00     0.009 A 
ATOM     97  C   UNL A   1      32.071  20.621  22.536  1.00  0.00     0.001 A 
ATOM     98  C   UNL A   1      32.910  18.824  23.907  1.00  0.00     0.001 A 
ATOM     99  C   UNL A   1      32.144  19.261  22.831  1.00  0.00     0.000 A 
ENDBRANCH  90  94
ENDBRANCH  86  88
ENDBRANCH  78  84
ENDBRANCH  75  77
ENDBRANCH  74  75
ENDBRANCH  73  74
ENDBRANCH   1  73
TORSDOF 17
ENDMDL
