MODEL 1
REMARK VINA RESULT:     -11.2      0.000      0.000
REMARK SMILES CCOc1ccccc1NC(=O)N[C@@](C)(CC)C(=O)OCCOCCOC(=O)c1ccc(-c2c3nc(c(-c4c(F)c(F)c(F)c(F)c4F)c4ccc([nH]4)c(-c4c(F)c(F)c(F)c(F)c4F)c4nc(c(-c5c(F)c(F)c(F)c(F)c5F)c5ccc2[nH]5)C=C4)C=C3)cc1
REMARK SMILES IDX 22 1 21 2 20 3 18 4 19 5 14 6 15 7 13 8 10 9 11 10 12 12
REMARK SMILES IDX 9 14 4 15 5 16 6 17 8 18 7 19 3 20 2 21 1 22 16 23 17 24
REMARK SMILES IDX 23 25 24 26 25 27 26 28 27 29 28 30 29 31 30 32 91 33 31 34
REMARK SMILES IDX 90 35 32 36 33 37 34 38 84 39 35 40 89 41 83 42 85 43 36 44
REMARK SMILES IDX 88 45 82 46 81 47 37 49 69 50 49 51 68 52 50 53 53 54 67 55
REMARK SMILES IDX 86 56 51 57 52 58 66 60 87 61 54 62 38 63 39 64 47 65 40 66
REMARK SMILES IDX 41 67 45 68 48 69 42 70 43 71 46 72 44 73 70 74 71 75 79 76
REMARK SMILES IDX 72 77 73 78 77 79 80 80 74 81 75 82 78 83 76 84 55 85 56 86
REMARK SMILES IDX 64 87 57 88 58 89 62 90 65 91 59 92 60 93 63 94 61 95
REMARK H PARENT 10 11 13 13 85 48 53 59
REMARK Flexibility Score: inf
ROOT
ATOM      1  C   UNL A   1      30.996  27.860  24.709  1.00  0.00     0.202 C 
ENDROOT
BRANCH   1   2
ATOM      2  C   UNL A   1      30.174  26.976  23.776  1.00  0.00     0.261 C 
BRANCH   2   3
ATOM      3  O   UNL A   1      30.697  26.329  22.615  1.00  0.00    -0.462 OA
BRANCH   3   4
ATOM      4  C   UNL A   1      31.080  25.063  22.933  1.00  0.00     0.331 C 
ATOM      5  O   UNL A   1      30.278  24.225  23.338  1.00  0.00    -0.249 OA
BRANCH   4   6
ATOM      6  C   UNL A   1      32.567  24.709  22.725  1.00  0.00     0.136 C 
ATOM      7  C   UNL A   1      33.566  24.785  23.883  1.00  0.00     0.047 C 
BRANCH   6   8
ATOM      8  N   UNL A   1      32.545  23.293  22.231  1.00  0.00    -0.322 N 
ATOM      9  N   UNL A   1      31.916  21.855  24.041  1.00  0.00    -0.305 N 
ATOM     10  C   UNL A   1      32.294  22.081  22.771  1.00  0.00     0.320 C 
ATOM     11  H   UNL A   1      31.092  21.316  24.067  1.00  0.00     0.172 HD
ATOM     12  O   UNL A   1      32.165  21.152  21.962  1.00  0.00    -0.248 OA
ATOM     13  H   UNL A   1      32.769  23.231  21.275  1.00  0.00     0.166 HD
BRANCH   9  14
ATOM     14  C   UNL A   1      32.351  22.161  25.346  1.00  0.00     0.085 A 
ATOM     15  C   UNL A   1      33.590  21.606  25.752  1.00  0.00     0.142 A 
ATOM     16  C   UNL A   1      34.040  21.704  27.072  1.00  0.00     0.048 A 
ATOM     17  C   UNL A   1      33.264  22.392  28.001  1.00  0.00     0.004 A 
ATOM     18  C   UNL A   1      31.660  22.947  26.255  1.00  0.00     0.030 A 
ATOM     19  C   UNL A   1      32.089  23.024  27.589  1.00  0.00     0.002 A 
BRANCH  15  20
ATOM     20  O   UNL A   1      34.136  20.633  24.948  1.00  0.00    -0.492 OA
BRANCH  20  21
ATOM     21  C   UNL A   1      35.556  20.600  24.910  1.00  0.00     0.226 C 
ATOM     22  C   UNL A   1      35.983  21.901  24.250  1.00  0.00     0.049 C 
ENDBRANCH  20  21
ENDBRANCH  15  20
ENDBRANCH   9  14
ENDBRANCH   6   8
BRANCH   6  23
ATOM     23  C   UNL A   1      33.129  25.666  21.607  1.00  0.00     0.037 C 
ATOM     24  C   UNL A   1      32.560  25.540  20.197  1.00  0.00     0.007 C 
ENDBRANCH   6  23
ENDBRANCH   4   6
ENDBRANCH   3   4
ENDBRANCH   2   3
ENDBRANCH   1   2
BRANCH   1  25
ATOM     25  O   UNL A   1      32.268  28.357  24.344  1.00  0.00    -0.374 OA
BRANCH  25  26
ATOM     26  C   UNL A   1      32.855  29.454  25.013  1.00  0.00     0.202 C 
BRANCH  26  27
ATOM     27  C   UNL A   1      32.091  30.278  26.066  1.00  0.00     0.261 C 
BRANCH  27  28
ATOM     28  O   UNL A   1      32.707  30.420  27.351  1.00  0.00    -0.460 OA
BRANCH  28  29
ATOM     29  C   UNL A   1      33.396  31.576  27.524  1.00  0.00     0.338 C 
ATOM     30  O   UNL A   1      32.944  32.703  27.602  1.00  0.00    -0.246 OA
BRANCH  29  31
ATOM     31  C   UNL A   1      34.815  31.265  27.799  1.00  0.00     0.060 A 
ATOM     32  C   UNL A   1      35.184  29.920  27.965  1.00  0.00     0.016 A 
ATOM     33  C   UNL A   1      35.748  32.284  27.982  1.00  0.00     0.016 A 
ATOM     34  C   UNL A   1      36.474  29.588  28.369  1.00  0.00     0.010 A 
ATOM     35  C   UNL A   1      37.029  31.955  28.432  1.00  0.00     0.010 A 
ATOM     36  C   UNL A   1      37.377  30.611  28.675  1.00  0.00    -0.014 A 
BRANCH  36  37
ATOM     37  C   UNL A   1      38.555  30.311  29.521  1.00  0.00     0.031 A 
ATOM     38  C   UNL A   1      39.568  29.339  28.980  1.00  0.00     0.074 A 
ATOM     39  C   UNL A   1      38.725  30.867  30.732  1.00  0.00     0.049 A 
ATOM     40  N   UNL A   1      40.586  28.777  29.578  1.00  0.00    -0.248 NA
ATOM     41  C   UNL A   1      39.405  28.942  27.569  1.00  0.00     0.031 C 
ATOM     42  C   UNL A   1      37.858  31.876  31.332  1.00  0.00     0.029 A 
ATOM     43  N   UNL A   1      39.684  30.631  31.687  1.00  0.00    -0.354 N 
ATOM     44  C   UNL A   1      41.160  27.940  28.629  1.00  0.00     0.074 A 
ATOM     45  C   UNL A   1      40.386  28.067  27.416  1.00  0.00     0.031 C 
ATOM     46  C   UNL A   1      38.300  32.144  32.575  1.00  0.00     0.029 A 
ATOM     47  C   UNL A   1      39.452  31.290  32.868  1.00  0.00     0.049 A 
ATOM     48  H   UNL A   1      40.462  30.045  31.537  1.00  0.00     0.167 HD
ATOM     49  C   UNL A   1      42.236  27.132  28.764  1.00  0.00     0.037 A 
ATOM     50  C   UNL A   1      40.071  31.175  34.059  1.00  0.00     0.037 A 
ATOM     51  C   UNL A   1      43.015  27.021  29.967  1.00  0.00     0.049 A 
ATOM     52  C   UNL A   1      41.225  30.212  34.205  1.00  0.00     0.074 A 
ATOM     53  C   UNL A   1      44.139  26.250  30.196  1.00  0.00     0.029 A 
ATOM     54  N   UNL A   1      42.745  27.702  31.143  1.00  0.00    -0.354 N 
ATOM     55  N   UNL A   1      41.771  29.429  33.307  1.00  0.00    -0.248 NA
ATOM     56  C   UNL A   1      41.846  30.113  35.535  1.00  0.00     0.031 C 
ATOM     57  C   UNL A   1      44.521  26.424  31.528  1.00  0.00     0.029 A 
ATOM     58  C   UNL A   1      43.666  27.347  32.111  1.00  0.00     0.049 A 
ATOM     59  H   UNL A   1      42.007  28.342  31.270  1.00  0.00     0.167 HD
ATOM     60  C   UNL A   1      42.815  28.775  33.950  1.00  0.00     0.074 A 
ATOM     61  C   UNL A   1      42.832  29.254  35.315  1.00  0.00     0.031 C 
ATOM     62  C   UNL A   1      43.684  27.859  33.456  1.00  0.00     0.037 A 
BRANCH  49  63
ATOM     63  C   UNL A   1      42.614  26.269  27.600  1.00  0.00     0.064 A 
ATOM     64  C   UNL A   1      43.612  26.648  26.691  1.00  0.00     0.173 A 
ATOM     65  C   UNL A   1      42.009  25.015  27.432  1.00  0.00     0.173 A 
ATOM     66  F   UNL A   1      44.206  27.846  26.800  1.00  0.00    -0.203 F 
ATOM     67  C   UNL A   1      43.986  25.803  25.650  1.00  0.00     0.198 A 
ATOM     68  C   UNL A   1      42.403  24.162  26.405  1.00  0.00     0.198 A 
ATOM     69  F   UNL A   1      41.049  24.609  28.276  1.00  0.00    -0.203 F 
ATOM     70  F   UNL A   1      44.923  26.194  24.775  1.00  0.00    -0.200 F 
ATOM     71  C   UNL A   1      43.389  24.557  25.514  1.00  0.00     0.200 A 
ATOM     72  F   UNL A   1      41.833  22.955  26.284  1.00  0.00    -0.200 F 
ATOM     73  F   UNL A   1      43.764  23.737  24.523  1.00  0.00    -0.200 F 
ENDBRANCH  49  63
BRANCH  50  74
ATOM     74  C   UNL A   1      39.581  31.942  35.235  1.00  0.00     0.064 A 
ATOM     75  C   UNL A   1      38.673  31.380  36.143  1.00  0.00     0.173 A 
ATOM     76  C   UNL A   1      39.971  33.274  35.444  1.00  0.00     0.173 A 
ATOM     77  F   UNL A   1      38.248  30.120  35.971  1.00  0.00    -0.203 F 
ATOM     78  C   UNL A   1      38.153  32.128  37.197  1.00  0.00     0.198 A 
ATOM     79  C   UNL A   1      39.473  34.011  36.517  1.00  0.00     0.198 A 
ATOM     80  F   UNL A   1      40.833  33.863  34.603  1.00  0.00    -0.203 F 
ATOM     81  F   UNL A   1      37.241  31.584  38.015  1.00  0.00    -0.200 F 
ATOM     82  C   UNL A   1      38.557  33.441  37.386  1.00  0.00     0.200 A 
ATOM     83  F   UNL A   1      39.875  35.276  36.701  1.00  0.00    -0.200 F 
ATOM     84  F   UNL A   1      38.051  34.161  38.397  1.00  0.00    -0.200 F 
ENDBRANCH  50  74
BRANCH  62  85
ATOM     85  C   UNL A   1      44.763  27.354  34.368  1.00  0.00     0.064 A 
ATOM     86  C   UNL A   1      44.603  26.185  35.124  1.00  0.00     0.173 A 
ATOM     87  C   UNL A   1      46.004  28.008  34.420  1.00  0.00     0.173 A 
ATOM     88  F   UNL A   1      43.430  25.532  35.117  1.00  0.00    -0.203 F 
ATOM     89  C   UNL A   1      45.641  25.696  35.912  1.00  0.00     0.198 A 
ATOM     90  C   UNL A   1      47.050  27.500  35.185  1.00  0.00     0.198 A 
ATOM     91  F   UNL A   1      46.211  29.124  33.705  1.00  0.00    -0.203 F 
ATOM     92  F   UNL A   1      45.456  24.595  36.653  1.00  0.00    -0.200 F 
ATOM     93  C   UNL A   1      46.867  26.347  35.933  1.00  0.00     0.200 A 
ATOM     94  F   UNL A   1      48.237  28.122  35.191  1.00  0.00    -0.200 F 
ATOM     95  F   UNL A   1      47.871  25.864  36.677  1.00  0.00    -0.200 F 
ENDBRANCH  62  85
ENDBRANCH  36  37
ENDBRANCH  29  31
ENDBRANCH  28  29
ENDBRANCH  27  28
ENDBRANCH  26  27
ENDBRANCH  25  26
ENDBRANCH   1  25
TORSDOF 19
ENDMDL
MODEL 2
REMARK VINA RESULT:     -11.1      4.201      9.765
REMARK SMILES CCOc1ccccc1NC(=O)N[C@@](C)(CC)C(=O)OCCOCCOC(=O)c1ccc(-c2c3nc(c(-c4c(F)c(F)c(F)c(F)c4F)c4ccc([nH]4)c(-c4c(F)c(F)c(F)c(F)c4F)c4nc(c(-c5c(F)c(F)c(F)c(F)c5F)c5ccc2[nH]5)C=C4)C=C3)cc1
REMARK SMILES IDX 22 1 21 2 20 3 18 4 19 5 14 6 15 7 13 8 10 9 11 10 12 12
REMARK SMILES IDX 9 14 4 15 5 16 6 17 8 18 7 19 3 20 2 21 1 22 16 23 17 24
REMARK SMILES IDX 23 25 24 26 25 27 26 28 27 29 28 30 29 31 30 32 91 33 31 34
REMARK SMILES IDX 90 35 32 36 33 37 34 38 84 39 35 40 89 41 83 42 85 43 36 44
REMARK SMILES IDX 88 45 82 46 81 47 37 49 69 50 49 51 68 52 50 53 53 54 67 55
REMARK SMILES IDX 86 56 51 57 52 58 66 60 87 61 54 62 38 63 39 64 47 65 40 66
REMARK SMILES IDX 41 67 45 68 48 69 42 70 43 71 46 72 44 73 70 74 71 75 79 76
REMARK SMILES IDX 72 77 73 78 77 79 80 80 74 81 75 82 78 83 76 84 55 85 56 86
REMARK SMILES IDX 64 87 57 88 58 89 62 90 65 91 59 92 60 93 63 94 61 95
REMARK H PARENT 10 11 13 13 85 48 53 59
REMARK Flexibility Score: inf
ROOT
ATOM      1  C   UNL A   1      34.898  23.648  25.901  1.00  0.00     0.202 C 
ENDROOT
BRANCH   1   2
ATOM      2  C   UNL A   1      33.859  24.762  25.975  1.00  0.00     0.261 C 
BRANCH   2   3
ATOM      3  O   UNL A   1      34.116  26.125  25.632  1.00  0.00    -0.462 OA
BRANCH   3   4
ATOM      4  C   UNL A   1      33.126  26.915  26.129  1.00  0.00     0.331 C 
ATOM      5  O   UNL A   1      32.149  26.444  26.705  1.00  0.00    -0.249 OA
BRANCH   4   6
ATOM      6  C   UNL A   1      33.303  28.439  25.973  1.00  0.00     0.136 C 
ATOM      7  C   UNL A   1      34.153  29.240  26.964  1.00  0.00     0.047 C 
BRANCH   6   8
ATOM      8  N   UNL A   1      33.907  28.605  24.611  1.00  0.00    -0.322 N 
ATOM      9  N   UNL A   1      32.144  28.699  22.991  1.00  0.00    -0.305 N 
ATOM     10  C   UNL A   1      33.441  28.696  23.347  1.00  0.00     0.320 C 
ATOM     11  H   UNL A   1      31.940  29.483  22.432  1.00  0.00     0.172 HD
ATOM     12  O   UNL A   1      34.267  29.052  22.497  1.00  0.00    -0.248 OA
ATOM     13  H   UNL A   1      34.890  28.661  24.646  1.00  0.00     0.166 HD
BRANCH   9  14
ATOM     14  C   UNL A   1      30.992  27.910  23.182  1.00  0.00     0.085 A 
ATOM     15  C   UNL A   1      29.742  28.558  23.023  1.00  0.00     0.142 A 
ATOM     16  C   UNL A   1      28.540  27.922  23.347  1.00  0.00     0.048 A 
ATOM     17  C   UNL A   1      28.573  26.608  23.809  1.00  0.00     0.004 A 
ATOM     18  C   UNL A   1      30.991  26.566  23.521  1.00  0.00     0.030 A 
ATOM     19  C   UNL A   1      29.793  25.930  23.878  1.00  0.00     0.002 A 
BRANCH  15  20
ATOM     20  O   UNL A   1      29.751  29.931  22.942  1.00  0.00    -0.492 OA
BRANCH  20  21
ATOM     21  C   UNL A   1      28.560  30.519  22.437  1.00  0.00     0.226 C 
ATOM     22  C   UNL A   1      27.884  31.174  23.630  1.00  0.00     0.049 C 
ENDBRANCH  20  21
ENDBRANCH  15  20
ENDBRANCH   9  14
ENDBRANCH   6   8
BRANCH   6  23
ATOM     23  C   UNL A   1      31.868  29.088  26.014  1.00  0.00     0.037 C 
ATOM     24  C   UNL A   1      31.764  30.594  26.240  1.00  0.00     0.007 C 
ENDBRANCH   6  23
ENDBRANCH   4   6
ENDBRANCH   3   4
ENDBRANCH   2   3
ENDBRANCH   1   2
BRANCH   1  25
ATOM     25  O   UNL A   1      35.782  23.519  24.805  1.00  0.00    -0.374 OA
BRANCH  25  26
ATOM     26  C   UNL A   1      36.075  22.260  24.234  1.00  0.00     0.202 C 
BRANCH  26  27
ATOM     27  C   UNL A   1      37.374  21.497  24.554  1.00  0.00     0.261 C 
BRANCH  27  28
ATOM     28  O   UNL A   1      37.804  21.494  25.920  1.00  0.00    -0.460 OA
BRANCH  28  29
ATOM     29  C   UNL A   1      39.148  21.422  26.090  1.00  0.00     0.338 C 
ATOM     30  O   UNL A   1      39.917  20.621  25.591  1.00  0.00    -0.246 OA
BRANCH  29  31
ATOM     31  C   UNL A   1      39.611  22.603  26.850  1.00  0.00     0.060 A 
ATOM     32  C   UNL A   1      39.042  23.853  26.553  1.00  0.00     0.016 A 
ATOM     33  C   UNL A   1      40.650  22.499  27.773  1.00  0.00     0.016 A 
ATOM     34  C   UNL A   1      39.546  25.013  27.135  1.00  0.00     0.010 A 
ATOM     35  C   UNL A   1      41.186  23.666  28.322  1.00  0.00     0.010 A 
ATOM     36  C   UNL A   1      40.668  24.927  27.964  1.00  0.00    -0.014 A 
BRANCH  36  37
ATOM     37  C   UNL A   1      41.482  26.139  28.214  1.00  0.00     0.031 A 
ATOM     38  C   UNL A   1      40.820  27.281  28.936  1.00  0.00     0.074 A 
ATOM     39  C   UNL A   1      42.758  26.239  27.810  1.00  0.00     0.049 A 
ATOM     40  N   UNL A   1      41.242  28.504  29.127  1.00  0.00    -0.248 NA
ATOM     41  C   UNL A   1      39.494  27.006  29.519  1.00  0.00     0.031 C 
ATOM     42  C   UNL A   1      43.532  25.178  27.172  1.00  0.00     0.029 A 
ATOM     43  N   UNL A   1      43.621  27.307  27.858  1.00  0.00    -0.354 N 
ATOM     44  C   UNL A   1      40.225  29.147  29.819  1.00  0.00     0.074 A 
ATOM     45  C   UNL A   1      39.165  28.185  30.021  1.00  0.00     0.031 C 
ATOM     46  C   UNL A   1      44.745  25.661  26.847  1.00  0.00     0.029 A 
ATOM     47  C   UNL A   1      44.812  27.076  27.216  1.00  0.00     0.049 A 
ATOM     48  H   UNL A   1      43.405  28.155  28.310  1.00  0.00     0.167 HD
ATOM     49  C   UNL A   1      40.177  30.431  30.242  1.00  0.00     0.037 A 
ATOM     50  C   UNL A   1      45.813  27.928  26.918  1.00  0.00     0.037 A 
ATOM     51  C   UNL A   1      41.240  31.380  30.056  1.00  0.00     0.049 A 
ATOM     52  C   UNL A   1      45.706  29.374  27.338  1.00  0.00     0.074 A 
ATOM     53  C   UNL A   1      41.300  32.697  30.470  1.00  0.00     0.029 A 
ATOM     54  N   UNL A   1      42.428  31.109  29.395  1.00  0.00    -0.354 N 
ATOM     55  N   UNL A   1      44.747  29.978  27.998  1.00  0.00    -0.248 NA
ATOM     56  C   UNL A   1      46.819  30.260  26.964  1.00  0.00     0.031 C 
ATOM     57  C   UNL A   1      42.504  33.241  30.016  1.00  0.00     0.029 A 
ATOM     58  C   UNL A   1      43.216  32.245  29.367  1.00  0.00     0.049 A 
ATOM     59  H   UNL A   1      42.673  30.239  29.004  1.00  0.00     0.167 HD
ATOM     60  C   UNL A   1      45.157  31.297  28.149  1.00  0.00     0.074 A 
ATOM     61  C   UNL A   1      46.453  31.409  27.516  1.00  0.00     0.031 C 
ATOM     62  C   UNL A   1      44.518  32.326  28.758  1.00  0.00     0.037 A 
BRANCH  49  63
ATOM     63  C   UNL A   1      38.923  30.902  30.911  1.00  0.00     0.064 A 
ATOM     64  C   UNL A   1      37.822  31.362  30.176  1.00  0.00     0.173 A 
ATOM     65  C   UNL A   1      38.803  30.832  32.306  1.00  0.00     0.173 A 
ATOM     66  F   UNL A   1      37.895  31.464  28.841  1.00  0.00    -0.203 F 
ATOM     67  C   UNL A   1      36.645  31.741  30.817  1.00  0.00     0.198 A 
ATOM     68  C   UNL A   1      37.618  31.188  32.942  1.00  0.00     0.198 A 
ATOM     69  F   UNL A   1      39.832  30.400  33.052  1.00  0.00    -0.203 F 
ATOM     70  F   UNL A   1      35.612  32.203  30.100  1.00  0.00    -0.200 F 
ATOM     71  C   UNL A   1      36.541  31.643  32.198  1.00  0.00     0.200 A 
ATOM     72  F   UNL A   1      37.516  31.081  34.274  1.00  0.00    -0.200 F 
ATOM     73  F   UNL A   1      35.402  31.990  32.812  1.00  0.00    -0.200 F 
ENDBRANCH  49  63
BRANCH  50  74
ATOM     74  C   UNL A   1      46.983  27.460  26.129  1.00  0.00     0.064 A 
ATOM     75  C   UNL A   1      48.107  26.906  26.755  1.00  0.00     0.173 A 
ATOM     76  C   UNL A   1      47.022  27.608  24.734  1.00  0.00     0.173 A 
ATOM     77  F   UNL A   1      48.131  26.769  28.089  1.00  0.00    -0.203 F 
ATOM     78  C   UNL A   1      49.235  26.544  26.021  1.00  0.00     0.198 A 
ATOM     79  C   UNL A   1      48.138  27.217  23.998  1.00  0.00     0.198 A 
ATOM     80  F   UNL A   1      45.975  28.138  24.084  1.00  0.00    -0.203 F 
ATOM     81  F   UNL A   1      50.319  26.072  26.652  1.00  0.00    -0.200 F 
ATOM     82  C   UNL A   1      49.248  26.695  24.642  1.00  0.00     0.200 A 
ATOM     83  F   UNL A   1      48.141  27.355  22.665  1.00  0.00    -0.200 F 
ATOM     84  F   UNL A   1      50.335  26.352  23.938  1.00  0.00    -0.200 F 
ENDBRANCH  50  74
BRANCH  62  85
ATOM     85  C   UNL A   1      45.225  33.649  28.826  1.00  0.00     0.064 A 
ATOM     86  C   UNL A   1      46.130  33.949  29.852  1.00  0.00     0.173 A 
ATOM     87  C   UNL A   1      45.052  34.593  27.801  1.00  0.00     0.173 A 
ATOM     88  F   UNL A   1      46.319  33.083  30.860  1.00  0.00    -0.203 F 
ATOM     89  C   UNL A   1      46.827  35.154  29.860  1.00  0.00     0.198 A 
ATOM     90  C   UNL A   1      45.772  35.784  27.796  1.00  0.00     0.198 A 
ATOM     91  F   UNL A   1      44.205  34.347  26.790  1.00  0.00    -0.203 F 
ATOM     92  F   UNL A   1      47.663  35.437  30.868  1.00  0.00    -0.200 F 
ATOM     93  C   UNL A   1      46.656  36.065  28.826  1.00  0.00     0.200 A 
ATOM     94  F   UNL A   1      45.616  36.654  26.789  1.00  0.00    -0.200 F 
ATOM     95  F   UNL A   1      47.341  37.216  28.826  1.00  0.00    -0.200 F 
ENDBRANCH  62  85
ENDBRANCH  36  37
ENDBRANCH  29  31
ENDBRANCH  28  29
ENDBRANCH  27  28
ENDBRANCH  26  27
ENDBRANCH  25  26
ENDBRANCH   1  25
TORSDOF 19
ENDMDL
MODEL 3
REMARK VINA RESULT:     -11.0      2.096      3.241
REMARK SMILES CCOc1ccccc1NC(=O)N[C@@](C)(CC)C(=O)OCCOCCOC(=O)c1ccc(-c2c3nc(c(-c4c(F)c(F)c(F)c(F)c4F)c4ccc([nH]4)c(-c4c(F)c(F)c(F)c(F)c4F)c4nc(c(-c5c(F)c(F)c(F)c(F)c5F)c5ccc2[nH]5)C=C4)C=C3)cc1
REMARK SMILES IDX 22 1 21 2 20 3 18 4 19 5 14 6 15 7 13 8 10 9 11 10 12 12
REMARK SMILES IDX 9 14 4 15 5 16 6 17 8 18 7 19 3 20 2 21 1 22 16 23 17 24
REMARK SMILES IDX 23 25 24 26 25 27 26 28 27 29 28 30 29 31 30 32 91 33 31 34
REMARK SMILES IDX 90 35 32 36 33 37 34 38 84 39 35 40 89 41 83 42 85 43 36 44
REMARK SMILES IDX 88 45 82 46 81 47 37 49 69 50 49 51 68 52 50 53 53 54 67 55
REMARK SMILES IDX 86 56 51 57 52 58 66 60 87 61 54 62 38 63 39 64 47 65 40 66
REMARK SMILES IDX 41 67 45 68 48 69 42 70 43 71 46 72 44 73 70 74 71 75 79 76
REMARK SMILES IDX 72 77 73 78 77 79 80 80 74 81 75 82 78 83 76 84 55 85 56 86
REMARK SMILES IDX 64 87 57 88 58 89 62 90 65 91 59 92 60 93 63 94 61 95
REMARK H PARENT 10 11 13 13 85 48 53 59
REMARK Flexibility Score: inf
ROOT
ATOM      1  C   UNL A   1      31.941  28.708  27.601  1.00  0.00     0.202 C 
ENDROOT
BRANCH   1   2
ATOM      2  C   UNL A   1      31.941  27.539  26.621  1.00  0.00     0.261 C 
BRANCH   2   3
ATOM      3  O   UNL A   1      31.142  27.483  25.438  1.00  0.00    -0.462 OA
BRANCH   3   4
ATOM      4  C   UNL A   1      31.881  27.883  24.369  1.00  0.00     0.331 C 
ATOM      5  O   UNL A   1      33.069  28.180  24.477  1.00  0.00    -0.249 OA
BRANCH   4   6
ATOM      6  C   UNL A   1      31.173  27.910  22.999  1.00  0.00     0.136 C 
ATOM      7  C   UNL A   1      30.786  29.236  22.337  1.00  0.00     0.047 C 
BRANCH   6   8
ATOM      8  N   UNL A   1      32.119  27.197  22.079  1.00  0.00    -0.322 N 
ATOM      9  N   UNL A   1      32.175  24.878  22.679  1.00  0.00    -0.305 N 
ATOM     10  C   UNL A   1      32.568  25.931  21.940  1.00  0.00     0.320 C 
ATOM     11  H   UNL A   1      31.870  24.143  22.099  1.00  0.00     0.172 HD
ATOM     12  O   UNL A   1      33.192  25.697  20.897  1.00  0.00    -0.248 OA
ATOM     13  H   UNL A   1      32.510  27.802  21.409  1.00  0.00     0.166 HD
BRANCH   9  14
ATOM     14  C   UNL A   1      32.074  24.516  24.037  1.00  0.00     0.085 A 
ATOM     15  C   UNL A   1      33.242  24.663  24.825  1.00  0.00     0.142 A 
ATOM     16  C   UNL A   1      33.307  24.183  26.136  1.00  0.00     0.048 A 
ATOM     17  C   UNL A   1      32.183  23.574  26.690  1.00  0.00     0.004 A 
ATOM     18  C   UNL A   1      30.933  24.023  24.649  1.00  0.00     0.030 A 
ATOM     19  C   UNL A   1      30.998  23.510  25.953  1.00  0.00     0.002 A 
BRANCH  15  20
ATOM     20  O   UNL A   1      34.422  24.905  24.161  1.00  0.00    -0.492 OA
BRANCH  20  21
ATOM     21  C   UNL A   1      35.458  23.961  24.397  1.00  0.00     0.226 C 
ATOM     22  C   UNL A   1      35.331  22.923  23.293  1.00  0.00     0.049 C 
ENDBRANCH  20  21
ENDBRANCH  15  20
ENDBRANCH   9  14
ENDBRANCH   6   8
BRANCH   6  23
ATOM     23  C   UNL A   1      29.834  27.093  23.142  1.00  0.00     0.037 C 
ATOM     24  C   UNL A   1      28.519  27.866  23.194  1.00  0.00     0.007 C 
ENDBRANCH   6  23
ENDBRANCH   4   6
ENDBRANCH   3   4
ENDBRANCH   2   3
ENDBRANCH   1   2
BRANCH   1  25
ATOM     25  O   UNL A   1      32.518  29.957  27.280  1.00  0.00    -0.374 OA
BRANCH  25  26
ATOM     26  C   UNL A   1      31.758  30.999  26.704  1.00  0.00     0.202 C 
BRANCH  26  27
ATOM     27  C   UNL A   1      31.964  32.475  27.092  1.00  0.00     0.261 C 
BRANCH  27  28
ATOM     28  O   UNL A   1      33.263  32.844  27.571  1.00  0.00    -0.460 OA
BRANCH  28  29
ATOM     29  C   UNL A   1      33.287  33.964  28.336  1.00  0.00     0.338 C 
ATOM     30  O   UNL A   1      32.438  34.834  28.404  1.00  0.00    -0.246 OA
BRANCH  29  31
ATOM     31  C   UNL A   1      34.443  33.905  29.257  1.00  0.00     0.060 A 
ATOM     32  C   UNL A   1      35.695  34.333  28.784  1.00  0.00     0.016 A 
ATOM     33  C   UNL A   1      34.316  33.354  30.530  1.00  0.00     0.016 A 
ATOM     34  C   UNL A   1      36.837  34.161  29.561  1.00  0.00     0.010 A 
ATOM     35  C   UNL A   1      35.468  33.139  31.291  1.00  0.00     0.010 A 
ATOM     36  C   UNL A   1      36.735  33.494  30.786  1.00  0.00    -0.014 A 
BRANCH  36  37
ATOM     37  C   UNL A   1      37.948  32.903  31.396  1.00  0.00     0.031 A 
ATOM     38  C   UNL A   1      38.568  31.722  30.699  1.00  0.00     0.074 A 
ATOM     39  C   UNL A   1      38.481  33.379  32.532  1.00  0.00     0.049 A 
ATOM     40  N   UNL A   1      39.517  30.919  31.104  1.00  0.00    -0.248 NA
ATOM     41  C   UNL A   1      38.041  31.402  29.360  1.00  0.00     0.031 C 
ATOM     42  C   UNL A   1      38.019  34.559  33.257  1.00  0.00     0.029 A 
ATOM     43  N   UNL A   1      39.522  32.901  33.289  1.00  0.00    -0.354 N 
ATOM     44  C   UNL A   1      39.674  29.985  30.089  1.00  0.00     0.074 A 
ATOM     45  C   UNL A   1      38.731  30.317  29.047  1.00  0.00     0.031 C 
ATOM     46  C   UNL A   1      38.747  34.690  34.381  1.00  0.00     0.029 A 
ATOM     47  C   UNL A   1      39.693  33.577  34.472  1.00  0.00     0.049 A 
ATOM     48  H   UNL A   1      40.090  32.146  33.010  1.00  0.00     0.167 HD
ATOM     49  C   UNL A   1      40.528  28.937  30.037  1.00  0.00     0.037 A 
ATOM     50  C   UNL A   1      40.487  33.293  35.523  1.00  0.00     0.037 A 
ATOM     51  C   UNL A   1      41.477  28.619  31.068  1.00  0.00     0.049 A 
ATOM     52  C   UNL A   1      41.380  32.076  35.472  1.00  0.00     0.074 A 
ATOM     53  C   UNL A   1      42.403  27.593  31.099  1.00  0.00     0.029 A 
ATOM     54  N   UNL A   1      41.615  29.325  32.253  1.00  0.00    -0.354 N 
ATOM     55  N   UNL A   1      41.532  31.199  34.509  1.00  0.00    -0.248 NA
ATOM     56  C   UNL A   1      42.206  31.806  36.658  1.00  0.00     0.031 C 
ATOM     57  C   UNL A   1      43.069  27.647  32.325  1.00  0.00     0.029 A 
ATOM     58  C   UNL A   1      42.595  28.739  33.034  1.00  0.00     0.049 A 
ATOM     59  H   UNL A   1      41.095  30.123  32.501  1.00  0.00     0.167 HD
ATOM     60  C   UNL A   1      42.493  30.300  34.957  1.00  0.00     0.074 A 
ATOM     61  C   UNL A   1      42.893  30.737  36.277  1.00  0.00     0.031 C 
ATOM     62  C   UNL A   1      42.999  29.209  34.333  1.00  0.00     0.037 A 
BRANCH  49  63
ATOM     63  C   UNL A   1      40.449  28.028  28.850  1.00  0.00     0.064 A 
ATOM     64  C   UNL A   1      41.181  28.275  27.680  1.00  0.00     0.173 A 
ATOM     65  C   UNL A   1      39.677  26.858  28.912  1.00  0.00     0.173 A 
ATOM     66  F   UNL A   1      41.919  29.389  27.567  1.00  0.00    -0.203 F 
ATOM     67  C   UNL A   1      41.136  27.384  26.610  1.00  0.00     0.198 A 
ATOM     68  C   UNL A   1      39.655  25.959  27.851  1.00  0.00     0.198 A 
ATOM     69  F   UNL A   1      38.959  26.580  30.010  1.00  0.00    -0.203 F 
ATOM     70  F   UNL A   1      41.821  27.651  25.490  1.00  0.00    -0.200 F 
ATOM     71  C   UNL A   1      40.383  26.223  26.701  1.00  0.00     0.200 A 
ATOM     72  F   UNL A   1      38.935  24.832  27.946  1.00  0.00    -0.200 F 
ATOM     73  F   UNL A   1      40.356  25.358  25.678  1.00  0.00    -0.200 F 
ENDBRANCH  49  63
BRANCH  50  74
ATOM     74  C   UNL A   1      40.438  34.137  36.746  1.00  0.00     0.064 A 
ATOM     75  C   UNL A   1      39.529  33.867  37.779  1.00  0.00     0.173 A 
ATOM     76  C   UNL A   1      41.264  35.262  36.884  1.00  0.00     0.173 A 
ATOM     77  F   UNL A   1      38.698  32.819  37.683  1.00  0.00    -0.203 F 
ATOM     78  C   UNL A   1      39.429  34.706  38.887  1.00  0.00     0.198 A 
ATOM     79  C   UNL A   1      41.184  36.083  38.007  1.00  0.00     0.198 A 
ATOM     80  F   UNL A   1      42.148  35.570  35.924  1.00  0.00    -0.203 F 
ATOM     81  F   UNL A   1      38.510  34.458  39.830  1.00  0.00    -0.200 F 
ATOM     82  C   UNL A   1      40.259  35.811  39.003  1.00  0.00     0.200 A 
ATOM     83  F   UNL A   1      41.997  37.143  38.119  1.00  0.00    -0.200 F 
ATOM     84  F   UNL A   1      40.158  36.620  40.066  1.00  0.00    -0.200 F 
ENDBRANCH  50  74
BRANCH  62  85
ATOM     85  C   UNL A   1      44.082  28.440  35.033  1.00  0.00     0.064 A 
ATOM     86  C   UNL A   1      45.436  28.763  34.876  1.00  0.00     0.173 A 
ATOM     87  C   UNL A   1      43.748  27.419  35.937  1.00  0.00     0.173 A 
ATOM     88  F   UNL A   1      45.805  29.723  34.014  1.00  0.00    -0.203 F 
ATOM     89  C   UNL A   1      46.420  28.082  35.587  1.00  0.00     0.198 A 
ATOM     90  C   UNL A   1      44.731  26.760  36.668  1.00  0.00     0.198 A 
ATOM     91  F   UNL A   1      42.464  27.080  36.131  1.00  0.00    -0.203 F 
ATOM     92  F   UNL A   1      47.712  28.384  35.398  1.00  0.00    -0.200 F 
ATOM     93  C   UNL A   1      46.066  27.089  36.491  1.00  0.00     0.200 A 
ATOM     94  F   UNL A   1      44.386  25.813  37.552  1.00  0.00    -0.200 F 
ATOM     95  F   UNL A   1      47.014  26.448  37.188  1.00  0.00    -0.200 F 
ENDBRANCH  62  85
ENDBRANCH  36  37
ENDBRANCH  29  31
ENDBRANCH  28  29
ENDBRANCH  27  28
ENDBRANCH  26  27
ENDBRANCH  25  26
ENDBRANCH   1  25
TORSDOF 19
ENDMDL
