MODEL 1
REMARK VINA RESULT:     -13.5      0.000      0.000
REMARK SMILES O=C(OCCOCCOC(=O)[C@H]1[C@H]2CC[C@H](C2)[C@@H]1C(=O)Nc1sc2c(c1C(=O)NC1CCCCC1)CCCC2)c1ccc(-c2c3nc(c(-c4c(F)c(F)c(F)c(F)c4F)c4ccc([nH]4)c(-c4c(F)c(F)c(F)c(F)c4F)c4nc(c(-c5c(F)c(F)c(F)c(F)c5F)c5ccc2[nH]5)C=C4)C=C3)cc1
REMARK SMILES IDX 7 1 6 2 5 3 4 4 3 5 2 6 1 7 40 8 41 9 102 10 42 11 101 12
REMARK SMILES IDX 43 13 44 14 45 15 95 16 46 17 100 18 94 19 96 20 47 21 99 22
REMARK SMILES IDX 93 23 92 24 48 26 80 27 60 28 79 29 61 30 64 31 78 32 97 33
REMARK SMILES IDX 62 34 63 35 77 37 98 38 65 39 49 40 50 41 58 42 51 43 52 44
REMARK SMILES IDX 56 45 59 46 53 47 54 48 57 49 55 50 81 51 82 52 90 53 83 54
REMARK SMILES IDX 84 55 88 56 91 57 85 58 86 59 89 60 87 61 66 62 67 63 75 64
REMARK SMILES IDX 68 65 69 66 73 67 76 68 70 69 71 70 74 71 72 72 8 73 9 74
REMARK SMILES IDX 10 75 11 76 12 77 13 78 18 79 14 80 17 81 16 82 15 83 19 84
REMARK SMILES IDX 20 85 21 86 22 88 23 89 26 90 24 91 25 92 39 93 36 94 38 95
REMARK SMILES IDX 37 96 27 97 28 98 29 99 30 101 31 102 35 103 32 104 34 105
REMARK SMILES IDX 33 106
REMARK H PARENT 96 25 64 36 21 87 29 100
REMARK Flexibility Score: inf
ROOT
ATOM      1  C   UNL A   1      37.345  22.099  24.834  1.00  0.00     0.202 C 
ENDROOT
BRANCH   1   2
ATOM      2  O   UNL A   1      37.075  20.693  24.804  1.00  0.00    -0.374 OA
BRANCH   2   3
ATOM      3  C   UNL A   1      38.121  19.741  25.025  1.00  0.00     0.202 C 
BRANCH   3   4
ATOM      4  C   UNL A   1      39.437  20.163  25.704  1.00  0.00     0.261 C 
BRANCH   4   5
ATOM      5  O   UNL A   1      40.435  19.133  25.711  1.00  0.00    -0.460 OA
BRANCH   5   6
ATOM      6  C   UNL A   1      41.758  19.328  25.947  1.00  0.00     0.338 C 
ATOM      7  O   UNL A   1      42.520  18.366  25.967  1.00  0.00    -0.246 OA
BRANCH   6   8
ATOM      8  C   UNL A   1      42.303  20.682  26.275  1.00  0.00     0.060 A 
ATOM      9  C   UNL A   1      42.568  21.652  25.310  1.00  0.00     0.016 A 
ATOM     10  C   UNL A   1      42.451  21.045  27.619  1.00  0.00     0.016 A 
ATOM     11  C   UNL A   1      43.001  22.916  25.622  1.00  0.00     0.010 A 
ATOM     12  C   UNL A   1      42.845  22.346  27.960  1.00  0.00     0.010 A 
ATOM     13  C   UNL A   1      43.107  23.279  26.952  1.00  0.00    -0.014 A 
BRANCH  13  14
ATOM     14  C   UNL A   1      43.556  24.652  27.193  1.00  0.00     0.031 A 
ATOM     15  C   UNL A   1      42.602  25.598  27.836  1.00  0.00     0.074 A 
ATOM     16  C   UNL A   1      44.860  24.938  27.025  1.00  0.00     0.049 A 
ATOM     17  N   UNL A   1      42.763  26.858  28.120  1.00  0.00    -0.248 NA
ATOM     18  C   UNL A   1      41.296  25.045  28.239  1.00  0.00     0.031 C 
ATOM     19  C   UNL A   1      45.883  23.984  26.576  1.00  0.00     0.029 A 
ATOM     20  N   UNL A   1      45.559  26.089  27.249  1.00  0.00    -0.354 N 
ATOM     21  C   UNL A   1      41.566  27.263  28.690  1.00  0.00     0.074 A 
ATOM     22  C   UNL A   1      40.694  26.113  28.740  1.00  0.00     0.031 C 
ATOM     23  C   UNL A   1      47.079  24.593  26.569  1.00  0.00     0.029 A 
ATOM     24  C   UNL A   1      46.891  25.993  26.922  1.00  0.00     0.049 A 
ATOM     25  H   UNL A   1      45.150  26.910  27.610  1.00  0.00     0.167 HD
ATOM     26  C   UNL A   1      41.240  28.505  29.106  1.00  0.00     0.037 A 
ATOM     27  C   UNL A   1      47.825  26.957  26.859  1.00  0.00     0.037 A 
ATOM     28  C   UNL A   1      42.152  29.613  29.043  1.00  0.00     0.049 A 
ATOM     29  C   UNL A   1      47.393  28.354  27.218  1.00  0.00     0.074 A 
ATOM     30  C   UNL A   1      41.933  30.935  29.376  1.00  0.00     0.029 A 
ATOM     31  N   UNL A   1      43.470  29.515  28.611  1.00  0.00    -0.354 N 
ATOM     32  N   UNL A   1      46.235  28.767  27.680  1.00  0.00    -0.248 NA
ATOM     33  C   UNL A   1      48.378  29.422  27.020  1.00  0.00     0.031 C 
ATOM     34  C   UNL A   1      43.104  31.647  29.094  1.00  0.00     0.029 A 
ATOM     35  C   UNL A   1      44.068  30.760  28.636  1.00  0.00     0.049 A 
ATOM     36  H   UNL A   1      43.911  28.682  28.328  1.00  0.00     0.167 HD
ATOM     37  C   UNL A   1      46.352  30.138  27.837  1.00  0.00     0.074 A 
ATOM     38  C   UNL A   1      47.707  30.482  27.451  1.00  0.00     0.031 C 
ATOM     39  C   UNL A   1      45.428  31.041  28.245  1.00  0.00     0.037 A 
BRANCH  26  40
ATOM     40  C   UNL A   1      39.831  28.735  29.554  1.00  0.00     0.064 A 
ATOM     41  C   UNL A   1      38.831  29.194  28.685  1.00  0.00     0.173 A 
ATOM     42  C   UNL A   1      39.481  28.494  30.891  1.00  0.00     0.173 A 
ATOM     43  F   UNL A   1      39.124  29.475  27.406  1.00  0.00    -0.203 F 
ATOM     44  C   UNL A   1      37.533  29.411  29.142  1.00  0.00     0.198 A 
ATOM     45  C   UNL A   1      38.179  28.690  31.339  1.00  0.00     0.198 A 
ATOM     46  F   UNL A   1      40.407  28.074  31.767  1.00  0.00    -0.203 F 
ATOM     47  F   UNL A   1      36.601  29.891  28.306  1.00  0.00    -0.200 F 
ATOM     48  C   UNL A   1      37.206  29.151  30.466  1.00  0.00     0.200 A 
ATOM     49  F   UNL A   1      37.868  28.441  32.619  1.00  0.00    -0.200 F 
ATOM     50  F   UNL A   1      35.957  29.359  30.903  1.00  0.00    -0.200 F 
ENDBRANCH  26  40
BRANCH  27  51
ATOM     51  C   UNL A   1      49.192  26.666  26.346  1.00  0.00     0.064 A 
ATOM     52  C   UNL A   1      49.538  26.890  25.007  1.00  0.00     0.173 A 
ATOM     53  C   UNL A   1      50.173  26.101  27.181  1.00  0.00     0.173 A 
ATOM     54  F   UNL A   1      48.634  27.405  24.160  1.00  0.00    -0.203 F 
ATOM     55  C   UNL A   1      50.793  26.531  24.515  1.00  0.00     0.198 A 
ATOM     56  C   UNL A   1      51.439  25.779  26.697  1.00  0.00     0.198 A 
ATOM     57  F   UNL A   1      49.902  25.856  28.471  1.00  0.00    -0.203 F 
ATOM     58  F   UNL A   1      51.070  26.691  23.214  1.00  0.00    -0.200 F 
ATOM     59  C   UNL A   1      51.743  25.979  25.361  1.00  0.00     0.200 A 
ATOM     60  F   UNL A   1      52.357  25.258  27.524  1.00  0.00    -0.200 F 
ATOM     61  F   UNL A   1      52.945  25.624  24.884  1.00  0.00    -0.200 F 
ENDBRANCH  27  51
BRANCH  39  62
ATOM     62  C   UNL A   1      45.869  32.470  28.308  1.00  0.00     0.064 A 
ATOM     63  C   UNL A   1      46.480  32.995  29.455  1.00  0.00     0.173 A 
ATOM     64  C   UNL A   1      45.725  33.305  27.190  1.00  0.00     0.173 A 
ATOM     65  F   UNL A   1      46.622  32.237  30.553  1.00  0.00    -0.203 F 
ATOM     66  C   UNL A   1      46.916  34.315  29.487  1.00  0.00     0.198 A 
ATOM     67  C   UNL A   1      46.192  34.613  27.215  1.00  0.00     0.198 A 
ATOM     68  F   UNL A   1      45.153  32.841  26.069  1.00  0.00    -0.203 F 
ATOM     69  F   UNL A   1      47.457  34.812  30.607  1.00  0.00    -0.200 F 
ATOM     70  C   UNL A   1      46.781  35.120  28.365  1.00  0.00     0.200 A 
ATOM     71  F   UNL A   1      46.077  35.383  26.125  1.00  0.00    -0.200 F 
ATOM     72  F   UNL A   1      47.215  36.387  28.392  1.00  0.00    -0.200 F 
ENDBRANCH  39  62
ENDBRANCH  13  14
ENDBRANCH   6   8
ENDBRANCH   5   6
ENDBRANCH   4   5
ENDBRANCH   3   4
ENDBRANCH   2   3
ENDBRANCH   1   2
BRANCH   1  73
ATOM     73  C   UNL A   1      36.616  22.794  23.673  1.00  0.00     0.261 C 
BRANCH  73  74
ATOM     74  O   UNL A   1      36.027  24.020  24.121  1.00  0.00    -0.463 OA
BRANCH  74  75
ATOM     75  C   UNL A   1      34.775  23.869  24.605  1.00  0.00     0.310 C 
ATOM     76  O   UNL A   1      34.438  24.208  25.733  1.00  0.00    -0.252 OA
BRANCH  75  77
ATOM     77  C   UNL A   1      33.831  23.287  23.573  1.00  0.00     0.115 C 
ATOM     78  C   UNL A   1      33.225  21.867  23.846  1.00  0.00     0.004 C 
ATOM     79  C   UNL A   1      32.593  24.174  23.348  1.00  0.00     0.096 C 
ATOM     80  C   UNL A   1      32.390  21.716  25.116  1.00  0.00     0.005 C 
ATOM     81  C   UNL A   1      32.110  21.863  22.822  1.00  0.00     0.009 C 
ATOM     82  C   UNL A   1      31.461  23.130  23.395  1.00  0.00     0.003 C 
ATOM     83  C   UNL A   1      31.246  22.694  24.871  1.00  0.00     0.005 C 
BRANCH  79  84
ATOM     84  C   UNL A   1      32.801  25.157  22.165  1.00  0.00     0.229 C 
ATOM     85  O   UNL A   1      33.133  24.665  21.075  1.00  0.00    -0.274 OA
ATOM     86  N   UNL A   1      32.430  26.471  22.141  1.00  0.00    -0.317 N 
ATOM     87  H   UNL A   1      32.071  26.774  21.276  1.00  0.00     0.170 HD
BRANCH  86  88
ATOM     88  C   UNL A   1      32.467  27.450  23.111  1.00  0.00     0.108 A 
ATOM     89  S   UNL A   1      33.943  28.242  23.391  1.00  0.00    -0.122 S 
ATOM     90  C   UNL A   1      31.403  28.094  23.768  1.00  0.00     0.078 A 
ATOM     91  C   UNL A   1      33.345  28.806  24.864  1.00  0.00     0.011 A 
ATOM     92  C   UNL A   1      31.967  28.962  24.807  1.00  0.00    -0.019 A 
ATOM     93  C   UNL A   1      34.241  29.167  26.002  1.00  0.00     0.047 C 
ATOM     94  C   UNL A   1      31.309  29.860  25.814  1.00  0.00     0.037 C 
ATOM     95  C   UNL A   1      33.382  29.468  27.232  1.00  0.00     0.006 C 
ATOM     96  C   UNL A   1      32.283  30.465  26.846  1.00  0.00     0.005 C 
BRANCH  90  97
ATOM     97  C   UNL A   1      30.030  27.779  23.333  1.00  0.00     0.254 C 
ATOM     98  O   UNL A   1      29.598  26.628  23.473  1.00  0.00    -0.269 OA
ATOM     99  N   UNL A   1      29.109  28.673  22.853  1.00  0.00    -0.349 N 
ATOM    100  H   UNL A   1      28.216  28.271  22.753  1.00  0.00     0.164 HD
BRANCH  99 101
ATOM    101  C   UNL A   1      29.130  30.071  22.456  1.00  0.00     0.082 C 
ATOM    102  C   UNL A   1      28.134  30.341  21.310  1.00  0.00     0.025 C 
ATOM    103  C   UNL A   1      28.805  31.042  23.598  1.00  0.00     0.025 C 
ATOM    104  C   UNL A   1      28.234  31.787  20.813  1.00  0.00     0.002 C 
ATOM    105  C   UNL A   1      29.012  32.484  23.128  1.00  0.00     0.002 C 
ATOM    106  C   UNL A   1      28.117  32.815  21.939  1.00  0.00     0.000 C 
ENDBRANCH  99 101
ENDBRANCH  90  97
ENDBRANCH  86  88
ENDBRANCH  79  84
ENDBRANCH  75  77
ENDBRANCH  74  75
ENDBRANCH  73  74
ENDBRANCH   1  73
TORSDOF 18
ENDMDL
MODEL 2
REMARK VINA RESULT:     -13.4      0.585      6.996
REMARK SMILES O=C(OCCOCCOC(=O)[C@H]1[C@H]2CC[C@H](C2)[C@@H]1C(=O)Nc1sc2c(c1C(=O)NC1CCCCC1)CCCC2)c1ccc(-c2c3nc(c(-c4c(F)c(F)c(F)c(F)c4F)c4ccc([nH]4)c(-c4c(F)c(F)c(F)c(F)c4F)c4nc(c(-c5c(F)c(F)c(F)c(F)c5F)c5ccc2[nH]5)C=C4)C=C3)cc1
REMARK SMILES IDX 7 1 6 2 5 3 4 4 3 5 2 6 1 7 40 8 41 9 102 10 42 11 101 12
REMARK SMILES IDX 43 13 44 14 45 15 95 16 46 17 100 18 94 19 96 20 47 21 99 22
REMARK SMILES IDX 93 23 92 24 48 26 80 27 60 28 79 29 61 30 64 31 78 32 97 33
REMARK SMILES IDX 62 34 63 35 77 37 98 38 65 39 49 40 50 41 58 42 51 43 52 44
REMARK SMILES IDX 56 45 59 46 53 47 54 48 57 49 55 50 81 51 82 52 90 53 83 54
REMARK SMILES IDX 84 55 88 56 91 57 85 58 86 59 89 60 87 61 66 62 67 63 75 64
REMARK SMILES IDX 68 65 69 66 73 67 76 68 70 69 71 70 74 71 72 72 8 73 9 74
REMARK SMILES IDX 10 75 11 76 12 77 13 78 18 79 14 80 17 81 16 82 15 83 19 84
REMARK SMILES IDX 20 85 21 86 22 88 23 89 26 90 24 91 25 92 39 93 36 94 38 95
REMARK SMILES IDX 37 96 27 97 28 98 29 99 30 101 31 102 35 103 32 104 34 105
REMARK SMILES IDX 33 106
REMARK H PARENT 96 25 64 36 21 87 29 100
REMARK Flexibility Score: inf
ROOT
ATOM      1  C   UNL A   1      37.311  21.961  24.767  1.00  0.00     0.202 C 
ENDROOT
BRANCH   1   2
ATOM      2  O   UNL A   1      37.061  20.551  24.733  1.00  0.00    -0.374 OA
BRANCH   2   3
ATOM      3  C   UNL A   1      38.108  19.615  25.013  1.00  0.00     0.202 C 
BRANCH   3   4
ATOM      4  C   UNL A   1      39.389  20.063  25.740  1.00  0.00     0.261 C 
BRANCH   4   5
ATOM      5  O   UNL A   1      40.440  19.088  25.701  1.00  0.00    -0.460 OA
BRANCH   5   6
ATOM      6  C   UNL A   1      41.750  19.340  25.963  1.00  0.00     0.338 C 
ATOM      7  O   UNL A   1      42.558  18.416  25.959  1.00  0.00    -0.246 OA
BRANCH   6   8
ATOM      8  C   UNL A   1      42.222  20.706  26.348  1.00  0.00     0.060 A 
ATOM      9  C   UNL A   1      42.412  21.735  25.427  1.00  0.00     0.016 A 
ATOM     10  C   UNL A   1      42.375  21.012  27.705  1.00  0.00     0.016 A 
ATOM     11  C   UNL A   1      42.777  23.006  25.793  1.00  0.00     0.010 A 
ATOM     12  C   UNL A   1      42.699  22.316  28.103  1.00  0.00     0.010 A 
ATOM     13  C   UNL A   1      42.888  23.310  27.138  1.00  0.00    -0.014 A 
BRANCH  13  14
ATOM     14  C   UNL A   1      43.262  24.694  27.439  1.00  0.00     0.031 A 
ATOM     15  C   UNL A   1      44.621  25.154  27.043  1.00  0.00     0.074 A 
ATOM     16  C   UNL A   1      42.303  25.539  27.859  1.00  0.00     0.049 A 
ATOM     17  N   UNL A   1      45.181  26.315  27.229  1.00  0.00    -0.248 NA
ATOM     18  C   UNL A   1      45.459  24.185  26.313  1.00  0.00     0.031 C 
ATOM     19  C   UNL A   1      40.896  25.178  28.080  1.00  0.00     0.029 A 
ATOM     20  N   UNL A   1      42.346  26.876  28.133  1.00  0.00    -0.354 N 
ATOM     21  C   UNL A   1      46.451  26.203  26.685  1.00  0.00     0.074 A 
ATOM     22  C   UNL A   1      46.576  24.874  26.135  1.00  0.00     0.031 C 
ATOM     23  C   UNL A   1      40.213  26.273  28.447  1.00  0.00     0.029 A 
ATOM     24  C   UNL A   1      41.147  27.383  28.572  1.00  0.00     0.049 A 
ATOM     25  H   UNL A   1      43.158  27.424  28.025  1.00  0.00     0.167 HD
ATOM     26  C   UNL A   1      47.422  27.141  26.681  1.00  0.00     0.037 A 
ATOM     27  C   UNL A   1      40.869  28.597  29.079  1.00  0.00     0.037 A 
ATOM     28  C   UNL A   1      47.240  28.454  27.234  1.00  0.00     0.049 A 
ATOM     29  C   UNL A   1      42.007  29.579  29.168  1.00  0.00     0.074 A 
ATOM     30  C   UNL A   1      48.155  29.481  27.348  1.00  0.00     0.029 A 
ATOM     31  N   UNL A   1      46.042  28.915  27.770  1.00  0.00    -0.354 N 
ATOM     32  N   UNL A   1      43.240  29.456  28.731  1.00  0.00    -0.248 NA
ATOM     33  C   UNL A   1      41.731  30.852  29.841  1.00  0.00     0.031 C 
ATOM     34  C   UNL A   1      47.527  30.545  28.002  1.00  0.00     0.029 A 
ATOM     35  C   UNL A   1      46.204  30.202  28.247  1.00  0.00     0.049 A 
ATOM     36  H   UNL A   1      45.204  28.401  27.804  1.00  0.00     0.167 HD
ATOM     37  C   UNL A   1      43.885  30.634  29.069  1.00  0.00     0.074 A 
ATOM     38  C   UNL A   1      42.896  31.474  29.717  1.00  0.00     0.031 C 
ATOM     39  C   UNL A   1      45.178  30.993  28.880  1.00  0.00     0.037 A 
BRANCH  26  40
ATOM     40  C   UNL A   1      48.767  26.739  26.164  1.00  0.00     0.064 A 
ATOM     41  C   UNL A   1      49.166  26.977  24.842  1.00  0.00     0.173 A 
ATOM     42  C   UNL A   1      49.674  26.093  27.019  1.00  0.00     0.173 A 
ATOM     43  F   UNL A   1      48.321  27.557  23.975  1.00  0.00    -0.203 F 
ATOM     44  C   UNL A   1      50.421  26.574  24.391  1.00  0.00     0.198 A 
ATOM     45  C   UNL A   1      50.935  25.712  26.572  1.00  0.00     0.198 A 
ATOM     46  F   UNL A   1      49.331  25.824  28.288  1.00  0.00    -0.203 F 
ATOM     47  F   UNL A   1      50.767  26.771  23.111  1.00  0.00    -0.200 F 
ATOM     48  C   UNL A   1      51.307  25.950  25.258  1.00  0.00     0.200 A 
ATOM     49  F   UNL A   1      51.787  25.107  27.411  1.00  0.00    -0.200 F 
ATOM     50  F   UNL A   1      52.514  25.565  24.823  1.00  0.00    -0.200 F 
ENDBRANCH  26  40
BRANCH  27  51
ATOM     51  C   UNL A   1      39.521  28.907  29.630  1.00  0.00     0.064 A 
ATOM     52  C   UNL A   1      39.174  28.582  30.948  1.00  0.00     0.173 A 
ATOM     53  C   UNL A   1      38.526  29.489  28.825  1.00  0.00     0.173 A 
ATOM     54  F   UNL A   1      40.077  28.003  31.754  1.00  0.00    -0.203 F 
ATOM     55  C   UNL A   1      37.882  28.794  31.427  1.00  0.00     0.198 A 
ATOM     56  C   UNL A   1      37.247  29.736  29.317  1.00  0.00     0.198 A 
ATOM     57  F   UNL A   1      38.794  29.817  27.553  1.00  0.00    -0.203 F 
ATOM     58  F   UNL A   1      37.559  28.407  32.669  1.00  0.00    -0.200 F 
ATOM     59  C   UNL A   1      36.920  29.374  30.613  1.00  0.00     0.200 A 
ATOM     60  F   UNL A   1      36.327  30.309  28.528  1.00  0.00    -0.200 F 
ATOM     61  F   UNL A   1      35.675  29.567  31.072  1.00  0.00    -0.200 F 
ENDBRANCH  27  51
BRANCH  39  62
ATOM     62  C   UNL A   1      45.574  32.353  29.365  1.00  0.00     0.064 A 
ATOM     63  C   UNL A   1      45.449  33.484  28.547  1.00  0.00     0.173 A 
ATOM     64  C   UNL A   1      46.032  32.529  30.679  1.00  0.00     0.173 A 
ATOM     65  F   UNL A   1      45.033  33.359  27.278  1.00  0.00    -0.203 F 
ATOM     66  C   UNL A   1      45.789  34.746  29.023  1.00  0.00     0.198 A 
ATOM     67  C   UNL A   1      46.337  33.796  31.161  1.00  0.00     0.198 A 
ATOM     68  F   UNL A   1      46.158  31.475  31.499  1.00  0.00    -0.203 F 
ATOM     69  F   UNL A   1      45.706  35.809  28.213  1.00  0.00    -0.200 F 
ATOM     70  C   UNL A   1      46.222  34.902  30.332  1.00  0.00     0.200 A 
ATOM     71  F   UNL A   1      46.739  33.947  32.431  1.00  0.00    -0.200 F 
ATOM     72  F   UNL A   1      46.534  36.120  30.794  1.00  0.00    -0.200 F 
ENDBRANCH  39  62
ENDBRANCH  13  14
ENDBRANCH   6   8
ENDBRANCH   5   6
ENDBRANCH   4   5
ENDBRANCH   3   4
ENDBRANCH   2   3
ENDBRANCH   1   2
BRANCH   1  73
ATOM     73  C   UNL A   1      36.587  22.645  23.596  1.00  0.00     0.261 C 
BRANCH  73  74
ATOM     74  O   UNL A   1      35.971  23.860  24.036  1.00  0.00    -0.463 OA
BRANCH  74  75
ATOM     75  C   UNL A   1      34.752  23.675  24.587  1.00  0.00     0.310 C 
ATOM     76  O   UNL A   1      34.495  23.902  25.763  1.00  0.00    -0.252 OA
BRANCH  75  77
ATOM     77  C   UNL A   1      33.731  23.212  23.567  1.00  0.00     0.115 C 
ATOM     78  C   UNL A   1      32.981  21.862  23.837  1.00  0.00     0.004 C 
ATOM     79  C   UNL A   1      32.592  24.230  23.377  1.00  0.00     0.096 C 
ATOM     80  C   UNL A   1      32.158  21.785  25.121  1.00  0.00     0.005 C 
ATOM     81  C   UNL A   1      31.852  21.992  22.835  1.00  0.00     0.009 C 
ATOM     82  C   UNL A   1      31.355  23.314  23.435  1.00  0.00     0.003 C 
ATOM     83  C   UNL A   1      31.122  22.884  24.910  1.00  0.00     0.005 C 
BRANCH  79  84
ATOM     84  C   UNL A   1      32.882  25.200  22.200  1.00  0.00     0.229 C 
ATOM     85  O   UNL A   1      33.261  24.694  21.132  1.00  0.00    -0.274 OA
ATOM     86  N   UNL A   1      32.542  26.522  22.150  1.00  0.00    -0.317 N 
ATOM     87  H   UNL A   1      32.235  26.827  21.266  1.00  0.00     0.170 HD
BRANCH  86  88
ATOM     88  C   UNL A   1      32.549  27.506  23.115  1.00  0.00     0.108 A 
ATOM     89  S   UNL A   1      34.006  28.329  23.405  1.00  0.00    -0.122 S 
ATOM     90  C   UNL A   1      31.466  28.132  23.757  1.00  0.00     0.078 A 
ATOM     91  C   UNL A   1      33.382  28.889  24.869  1.00  0.00     0.011 A 
ATOM     92  C   UNL A   1      32.002  29.017  24.797  1.00  0.00    -0.019 A 
ATOM     93  C   UNL A   1      34.259  29.273  26.014  1.00  0.00     0.047 C 
ATOM     94  C   UNL A   1      31.316  29.907  25.793  1.00  0.00     0.037 C 
ATOM     95  C   UNL A   1      33.381  29.563  27.235  1.00  0.00     0.006 C 
ATOM     96  C   UNL A   1      32.267  30.536  26.832  1.00  0.00     0.005 C 
BRANCH  90  97
ATOM     97  C   UNL A   1      30.104  27.788  23.310  1.00  0.00     0.254 C 
ATOM     98  O   UNL A   1      29.698  26.627  23.440  1.00  0.00    -0.269 OA
ATOM     99  N   UNL A   1      29.166  28.664  22.828  1.00  0.00    -0.349 N 
ATOM    100  H   UNL A   1      28.283  28.241  22.719  1.00  0.00     0.164 HD
BRANCH  99 101
ATOM    101  C   UNL A   1      29.157  30.064  22.439  1.00  0.00     0.082 C 
ATOM    102  C   UNL A   1      28.197  30.309  21.258  1.00  0.00     0.025 C 
ATOM    103  C   UNL A   1      28.759  31.017  23.573  1.00  0.00     0.025 C 
ATOM    104  C   UNL A   1      28.269  31.761  20.773  1.00  0.00     0.002 C 
ATOM    105  C   UNL A   1      28.938  32.468  23.119  1.00  0.00     0.002 C 
ATOM    106  C   UNL A   1      28.078  32.777  21.899  1.00  0.00     0.000 C 
ENDBRANCH  99 101
ENDBRANCH  90  97
ENDBRANCH  86  88
ENDBRANCH  79  84
ENDBRANCH  75  77
ENDBRANCH  74  75
ENDBRANCH  73  74
ENDBRANCH   1  73
TORSDOF 18
ENDMDL
MODEL 3
REMARK VINA RESULT:     -13.2      1.688      2.635
REMARK SMILES O=C(OCCOCCOC(=O)[C@H]1[C@H]2CC[C@H](C2)[C@@H]1C(=O)Nc1sc2c(c1C(=O)NC1CCCCC1)CCCC2)c1ccc(-c2c3nc(c(-c4c(F)c(F)c(F)c(F)c4F)c4ccc([nH]4)c(-c4c(F)c(F)c(F)c(F)c4F)c4nc(c(-c5c(F)c(F)c(F)c(F)c5F)c5ccc2[nH]5)C=C4)C=C3)cc1
REMARK SMILES IDX 7 1 6 2 5 3 4 4 3 5 2 6 1 7 40 8 41 9 102 10 42 11 101 12
REMARK SMILES IDX 43 13 44 14 45 15 95 16 46 17 100 18 94 19 96 20 47 21 99 22
REMARK SMILES IDX 93 23 92 24 48 26 80 27 60 28 79 29 61 30 64 31 78 32 97 33
REMARK SMILES IDX 62 34 63 35 77 37 98 38 65 39 49 40 50 41 58 42 51 43 52 44
REMARK SMILES IDX 56 45 59 46 53 47 54 48 57 49 55 50 81 51 82 52 90 53 83 54
REMARK SMILES IDX 84 55 88 56 91 57 85 58 86 59 89 60 87 61 66 62 67 63 75 64
REMARK SMILES IDX 68 65 69 66 73 67 76 68 70 69 71 70 74 71 72 72 8 73 9 74
REMARK SMILES IDX 10 75 11 76 12 77 13 78 18 79 14 80 17 81 16 82 15 83 19 84
REMARK SMILES IDX 20 85 21 86 22 88 23 89 26 90 24 91 25 92 39 93 36 94 38 95
REMARK SMILES IDX 37 96 27 97 28 98 29 99 30 101 31 102 35 103 32 104 34 105
REMARK SMILES IDX 33 106
REMARK H PARENT 96 25 64 36 21 87 29 100
REMARK Flexibility Score: inf
ROOT
ATOM      1  C   UNL A   1      33.511  20.108  25.521  1.00  0.00     0.202 C 
ENDROOT
BRANCH   1   2
ATOM      2  O   UNL A   1      34.559  19.887  24.571  1.00  0.00    -0.374 OA
BRANCH   2   3
ATOM      3  C   UNL A   1      35.915  19.728  25.002  1.00  0.00     0.202 C 
BRANCH   3   4
ATOM      4  C   UNL A   1      36.977  20.790  24.667  1.00  0.00     0.261 C 
BRANCH   4   5
ATOM      5  O   UNL A   1      37.526  21.437  25.824  1.00  0.00    -0.460 OA
BRANCH   5   6
ATOM      6  C   UNL A   1      38.849  21.506  26.127  1.00  0.00     0.338 C 
ATOM      7  O   UNL A   1      39.512  20.475  26.190  1.00  0.00    -0.246 OA
BRANCH   6   8
ATOM      8  C   UNL A   1      39.504  22.804  26.477  1.00  0.00     0.060 A 
ATOM      9  C   UNL A   1      40.672  22.890  27.232  1.00  0.00     0.016 A 
ATOM     10  C   UNL A   1      38.993  23.988  25.933  1.00  0.00     0.016 A 
ATOM     11  C   UNL A   1      41.308  24.078  27.490  1.00  0.00     0.010 A 
ATOM     12  C   UNL A   1      39.654  25.206  26.143  1.00  0.00     0.010 A 
ATOM     13  C   UNL A   1      40.819  25.239  26.917  1.00  0.00    -0.014 A 
BRANCH  13  14
ATOM     14  C   UNL A   1      41.570  26.456  27.229  1.00  0.00     0.031 A 
ATOM     15  C   UNL A   1      40.951  27.441  28.159  1.00  0.00     0.074 A 
ATOM     16  C   UNL A   1      42.855  26.534  26.839  1.00  0.00     0.049 A 
ATOM     17  N   UNL A   1      41.409  28.593  28.557  1.00  0.00    -0.248 NA
ATOM     18  C   UNL A   1      39.651  27.068  28.745  1.00  0.00     0.031 C 
ATOM     19  C   UNL A   1      43.573  25.499  26.083  1.00  0.00     0.029 A 
ATOM     20  N   UNL A   1      43.800  27.496  27.057  1.00  0.00    -0.354 N 
ATOM     21  C   UNL A   1      40.435  29.106  29.400  1.00  0.00     0.074 A 
ATOM     22  C   UNL A   1      39.372  28.132  29.483  1.00  0.00     0.031 C 
ATOM     23  C   UNL A   1      44.846  25.883  25.910  1.00  0.00     0.029 A 
ATOM     24  C   UNL A   1      45.007  27.221  26.462  1.00  0.00     0.049 A 
ATOM     25  H   UNL A   1      43.632  28.308  27.590  1.00  0.00     0.167 HD
ATOM     26  C   UNL A   1      40.442  30.305  30.020  1.00  0.00     0.037 A 
ATOM     27  C   UNL A   1      46.091  28.005  26.331  1.00  0.00     0.037 A 
ATOM     28  C   UNL A   1      41.533  31.232  29.911  1.00  0.00     0.049 A 
ATOM     29  C   UNL A   1      46.018  29.382  26.936  1.00  0.00     0.074 A 
ATOM     30  C   UNL A   1      41.646  32.503  30.440  1.00  0.00     0.029 A 
ATOM     31  N   UNL A   1      42.709  30.975  29.216  1.00  0.00    -0.354 N 
ATOM     32  N   UNL A   1      45.064  29.913  27.667  1.00  0.00    -0.248 NA
ATOM     33  C   UNL A   1      47.148  30.280  26.677  1.00  0.00     0.031 C 
ATOM     34  C   UNL A   1      42.868  33.035  30.018  1.00  0.00     0.029 A 
ATOM     35  C   UNL A   1      43.541  32.077  29.273  1.00  0.00     0.049 A 
ATOM     36  H   UNL A   1      42.918  30.133  28.751  1.00  0.00     0.167 HD
ATOM     37  C   UNL A   1      45.480  31.200  27.963  1.00  0.00     0.074 A 
ATOM     38  C   UNL A   1      46.789  31.359  27.360  1.00  0.00     0.031 C 
ATOM     39  C   UNL A   1      44.841  32.175  28.655  1.00  0.00     0.037 A 
BRANCH  26  40
ATOM     40  C   UNL A   1      39.207  30.703  30.765  1.00  0.00     0.064 A 
ATOM     41  C   UNL A   1      38.175  31.441  30.170  1.00  0.00     0.173 A 
ATOM     42  C   UNL A   1      39.063  30.338  32.113  1.00  0.00     0.173 A 
ATOM     43  F   UNL A   1      38.283  31.847  28.896  1.00  0.00    -0.203 F 
ATOM     44  C   UNL A   1      37.047  31.808  30.900  1.00  0.00     0.198 A 
ATOM     45  C   UNL A   1      37.925  30.686  32.833  1.00  0.00     0.198 A 
ATOM     46  F   UNL A   1      40.032  29.649  32.734  1.00  0.00    -0.203 F 
ATOM     47  F   UNL A   1      36.091  32.551  30.326  1.00  0.00    -0.200 F 
ATOM     48  C   UNL A   1      36.918  31.422  32.228  1.00  0.00     0.200 A 
ATOM     49  F   UNL A   1      37.806  30.315  34.115  1.00  0.00    -0.200 F 
ATOM     50  F   UNL A   1      35.832  31.775  32.928  1.00  0.00    -0.200 F 
ENDBRANCH  26  40
BRANCH  27  51
ATOM     51  C   UNL A   1      47.263  27.566  25.524  1.00  0.00     0.064 A 
ATOM     52  C   UNL A   1      48.369  26.941  26.114  1.00  0.00     0.173 A 
ATOM     53  C   UNL A   1      47.323  27.815  24.142  1.00  0.00     0.173 A 
ATOM     54  F   UNL A   1      48.376  26.700  27.434  1.00  0.00    -0.203 F 
ATOM     55  C   UNL A   1      49.499  26.614  25.365  1.00  0.00     0.198 A 
ATOM     56  C   UNL A   1      48.436  27.453  23.387  1.00  0.00     0.198 A 
ATOM     57  F   UNL A   1      46.299  28.416  23.519  1.00  0.00    -0.203 F 
ATOM     58  F   UNL A   1      50.569  26.082  25.970  1.00  0.00    -0.200 F 
ATOM     59  C   UNL A   1      49.530  26.867  24.001  1.00  0.00     0.200 A 
ATOM     60  F   UNL A   1      48.454  27.689  22.067  1.00  0.00    -0.200 F 
ATOM     61  F   UNL A   1      50.621  26.562  23.284  1.00  0.00    -0.200 F 
ENDBRANCH  27  51
BRANCH  39  62
ATOM     62  C   UNL A   1      45.564  33.477  28.802  1.00  0.00     0.064 A 
ATOM     63  C   UNL A   1      46.437  33.710  29.874  1.00  0.00     0.173 A 
ATOM     64  C   UNL A   1      45.421  34.479  27.831  1.00  0.00     0.173 A 
ATOM     65  F   UNL A   1      46.589  32.785  30.834  1.00  0.00    -0.203 F 
ATOM     66  C   UNL A   1      47.128  34.912  29.979  1.00  0.00     0.198 A 
ATOM     67  C   UNL A   1      46.140  35.665  27.923  1.00  0.00     0.198 A 
ATOM     68  F   UNL A   1      44.603  34.295  26.785  1.00  0.00    -0.203 F 
ATOM     69  F   UNL A   1      47.923  35.134  31.034  1.00  0.00    -0.200 F 
ATOM     70  C   UNL A   1      46.987  35.884  28.999  1.00  0.00     0.200 A 
ATOM     71  F   UNL A   1      46.016  36.595  26.966  1.00  0.00    -0.200 F 
ATOM     72  F   UNL A   1      47.666  37.035  29.094  1.00  0.00    -0.200 F 
ENDBRANCH  39  62
ENDBRANCH  13  14
ENDBRANCH   6   8
ENDBRANCH   5   6
ENDBRANCH   4   5
ENDBRANCH   3   4
ENDBRANCH   2   3
ENDBRANCH   1   2
BRANCH   1  73
ATOM     73  C   UNL A   1      32.181  20.338  24.784  1.00  0.00     0.261 C 
BRANCH  73  74
ATOM     74  O   UNL A   1      31.772  21.704  24.916  1.00  0.00    -0.463 OA
BRANCH  74  75
ATOM     75  C   UNL A   1      32.240  22.502  23.932  1.00  0.00     0.310 C 
ATOM     76  O   UNL A   1      32.407  22.129  22.777  1.00  0.00    -0.252 OA
BRANCH  75  77
ATOM     77  C   UNL A   1      32.476  23.919  24.411  1.00  0.00     0.115 C 
ATOM     78  C   UNL A   1      32.822  24.137  25.925  1.00  0.00     0.004 C 
ATOM     79  C   UNL A   1      33.640  24.601  23.671  1.00  0.00     0.096 C 
ATOM     80  C   UNL A   1      34.082  23.446  26.442  1.00  0.00     0.005 C 
ATOM     81  C   UNL A   1      33.333  25.561  25.869  1.00  0.00     0.009 C 
ATOM     82  C   UNL A   1      34.423  25.222  24.843  1.00  0.00     0.003 C 
ATOM     83  C   UNL A   1      35.175  24.090  25.595  1.00  0.00     0.005 C 
BRANCH  79  84
ATOM     84  C   UNL A   1      33.141  25.418  22.449  1.00  0.00     0.229 C 
ATOM     85  O   UNL A   1      33.257  24.890  21.331  1.00  0.00    -0.274 OA
ATOM     86  N   UNL A   1      32.378  26.550  22.500  1.00  0.00    -0.317 N 
ATOM     87  H   UNL A   1      31.689  26.606  21.798  1.00  0.00     0.170 HD
BRANCH  86  88
ATOM     88  C   UNL A   1      32.397  27.628  23.358  1.00  0.00     0.108 A 
ATOM     89  S   UNL A   1      33.867  28.450  23.576  1.00  0.00    -0.122 S 
ATOM     90  C   UNL A   1      31.321  28.337  23.923  1.00  0.00     0.078 A 
ATOM     91  C   UNL A   1      33.242  29.169  24.969  1.00  0.00     0.011 A 
ATOM     92  C   UNL A   1      31.866  29.314  24.871  1.00  0.00    -0.019 A 
ATOM     93  C   UNL A   1      34.118  29.653  26.076  1.00  0.00     0.047 C 
ATOM     94  C   UNL A   1      31.190  30.314  25.763  1.00  0.00     0.037 C 
ATOM     95  C   UNL A   1      33.237  30.084  27.252  1.00  0.00     0.006 C 
ATOM     96  C   UNL A   1      32.145  31.030  26.740  1.00  0.00     0.005 C 
BRANCH  90  97
ATOM     97  C   UNL A   1      29.956  27.973  23.501  1.00  0.00     0.254 C 
ATOM     98  O   UNL A   1      29.531  26.836  23.736  1.00  0.00    -0.269 OA
ATOM     99  N   UNL A   1      29.035  28.814  22.932  1.00  0.00    -0.349 N 
ATOM    100  H   UNL A   1      28.146  28.397  22.857  1.00  0.00     0.164 HD
BRANCH  99 101
ATOM    101  C   UNL A   1      29.050  30.172  22.413  1.00  0.00     0.082 C 
ATOM    102  C   UNL A   1      28.058  30.334  21.244  1.00  0.00     0.025 C 
ATOM    103  C   UNL A   1      28.716  31.237  23.464  1.00  0.00     0.025 C 
ATOM    104  C   UNL A   1      28.153  31.731  20.623  1.00  0.00     0.002 C 
ATOM    105  C   UNL A   1      28.918  32.634  22.870  1.00  0.00     0.002 C 
ATOM    106  C   UNL A   1      28.027  32.854  21.653  1.00  0.00     0.000 C 
ENDBRANCH  99 101
ENDBRANCH  90  97
ENDBRANCH  86  88
ENDBRANCH  79  84
ENDBRANCH  75  77
ENDBRANCH  74  75
ENDBRANCH  73  74
ENDBRANCH   1  73
TORSDOF 18
ENDMDL
