MODEL 1
REMARK VINA RESULT:     -11.6      0.000      0.000
REMARK SMILES CCCCCCNC(=O)Oc1cccc(-c2ccc(CC(=O)OCCOCCOC(=O)c3ccc(-c4c5nc(c(-c6c(F)c(F)c(F)c(F)c6F)c6ccc([nH]6)c(-c6c(F)c(F)c(F)c(F)c6F)c6nc(c(-c7c(F)c(F)c(F)c(F)c7F)c7ccc4[nH]7)C=C6)C=C5)cc3)cc2F)c1
REMARK SMILES IDX 21 1 22 2 20 3 19 4 16 5 17 6 96 7 18 8 95 9 97 10 15 11
REMARK SMILES IDX 11 12 12 13 98 14 13 15 14 16 10 17 8 18 7 19 9 21 6 22 5 23
REMARK SMILES IDX 4 24 3 25 2 26 1 27 23 28 24 29 25 30 26 31 27 32 28 33
REMARK SMILES IDX 29 34 30 35 31 36 32 37 33 38 94 39 34 40 93 41 35 42 36 43
REMARK SMILES IDX 37 44 87 45 38 46 92 47 86 48 88 49 39 50 91 51 85 52 84 53
REMARK SMILES IDX 40 55 72 56 52 57 71 58 53 59 56 60 70 61 89 62 54 63 55 64
REMARK SMILES IDX 69 66 90 67 57 68 41 69 42 70 50 71 43 72 44 73 48 74 51 75
REMARK SMILES IDX 45 76 46 77 49 78 47 79 73 80 74 81 82 82 75 83 76 84 80 85
REMARK SMILES IDX 83 86 77 87 78 88 81 89 79 90 58 91 59 92 67 93 60 94 61 95
REMARK SMILES IDX 65 96 68 97 62 98 63 99 66 100 64 101
REMARK H PARENT 7 20 88 54 56 65
REMARK Flexibility Score: inf
ROOT
ATOM      1  C   UNL A   1      42.377  19.454  26.267  1.00  0.00     0.310 C 
ATOM      2  O   UNL A   1      42.417  18.256  26.537  1.00  0.00    -0.252 OA
ENDROOT
BRANCH   1   3
ATOM      3  C   UNL A   1      41.503  20.402  27.051  1.00  0.00     0.158 C 
BRANCH   3   4
ATOM      4  C   UNL A   1      40.176  20.828  26.464  1.00  0.00    -0.034 A 
ATOM      5  C   UNL A   1      37.790  21.703  25.193  1.00  0.00     0.018 A 
ATOM      6  C   UNL A   1      38.223  20.375  25.071  1.00  0.00     0.012 A 
ATOM      7  C   UNL A   1      38.560  22.569  25.980  1.00  0.00     0.131 A 
ATOM      8  C   UNL A   1      39.407  19.946  25.689  1.00  0.00     0.005 A 
ATOM      9  C   UNL A   1      39.728  22.144  26.616  1.00  0.00     0.044 A 
ATOM     10  F   UNL A   1      38.194  23.852  26.125  1.00  0.00    -0.206 F 
BRANCH   5  11
ATOM     11  C   UNL A   1      36.593  22.180  24.491  1.00  0.00    -0.012 A 
ATOM     12  C   UNL A   1      34.178  22.347  24.318  1.00  0.00     0.133 A 
ATOM     13  C   UNL A   1      34.286  23.020  23.104  1.00  0.00     0.047 A 
ATOM     14  C   UNL A   1      35.313  21.915  25.005  1.00  0.00     0.056 A 
ATOM     15  C   UNL A   1      35.549  23.298  22.589  1.00  0.00     0.004 A 
ATOM     16  C   UNL A   1      36.695  22.887  23.280  1.00  0.00     0.009 A 
BRANCH  12  17
ATOM     17  O   UNL A   1      32.889  22.008  24.760  1.00  0.00    -0.410 OA
BRANCH  17  18
ATOM     18  C   UNL A   1      32.768  21.547  26.063  1.00  0.00     0.412 C 
ATOM     19  N   UNL A   1      32.680  20.184  26.149  1.00  0.00    -0.321 N 
ATOM     20  H   UNL A   1      32.583  19.807  27.053  1.00  0.00     0.167 HD
ATOM     21  O   UNL A   1      32.729  22.241  27.072  1.00  0.00    -0.224 OA
BRANCH  19  22
ATOM     22  C   UNL A   1      32.713  19.234  25.055  1.00  0.00     0.119 C 
BRANCH  22  23
ATOM     23  C   UNL A   1      34.138  18.781  24.729  1.00  0.00     0.021 C 
BRANCH  23  24
ATOM     24  C   UNL A   1      34.236  17.590  23.767  1.00  0.00     0.002 C 
BRANCH  24  25
ATOM     25  C   UNL A   1      34.124  16.204  24.412  1.00  0.00    -0.000 C 
BRANCH  25  26
ATOM     26  C   UNL A   1      32.705  15.747  24.753  1.00  0.00    -0.003 C 
ATOM     27  C   UNL A   1      32.654  14.712  25.867  1.00  0.00     0.004 C 
ENDBRANCH  25  26
ENDBRANCH  24  25
ENDBRANCH  23  24
ENDBRANCH  22  23
ENDBRANCH  19  22
ENDBRANCH  17  18
ENDBRANCH  12  17
ENDBRANCH   5  11
ENDBRANCH   3   4
ENDBRANCH   1   3
BRANCH   1  28
ATOM     28  O   UNL A   1      43.057  20.033  25.243  1.00  0.00    -0.463 OA
BRANCH  28  29
ATOM     29  C   UNL A   1      44.330  19.440  24.923  1.00  0.00     0.261 C 
BRANCH  29  30
ATOM     30  C   UNL A   1      45.343  20.484  24.443  1.00  0.00     0.202 C 
BRANCH  30  31
ATOM     31  O   UNL A   1      46.152  21.083  25.455  1.00  0.00    -0.374 OA
BRANCH  31  32
ATOM     32  C   UNL A   1      45.934  22.469  25.716  1.00  0.00     0.202 C 
BRANCH  32  33
ATOM     33  C   UNL A   1      45.884  23.386  24.488  1.00  0.00     0.261 C 
BRANCH  33  34
ATOM     34  O   UNL A   1      44.987  24.495  24.677  1.00  0.00    -0.460 OA
BRANCH  34  35
ATOM     35  C   UNL A   1      43.677  24.155  24.741  1.00  0.00     0.338 C 
ATOM     36  O   UNL A   1      43.139  23.184  24.236  1.00  0.00    -0.246 OA
BRANCH  35  37
ATOM     37  C   UNL A   1      42.955  25.051  25.666  1.00  0.00     0.060 A 
ATOM     38  C   UNL A   1      43.496  26.328  25.868  1.00  0.00     0.016 A 
ATOM     39  C   UNL A   1      41.831  24.638  26.385  1.00  0.00     0.016 A 
ATOM     40  C   UNL A   1      42.954  27.173  26.834  1.00  0.00     0.010 A 
ATOM     41  C   UNL A   1      41.293  25.485  27.363  1.00  0.00     0.010 A 
ATOM     42  C   UNL A   1      41.878  26.739  27.618  1.00  0.00    -0.014 A 
BRANCH  42  43
ATOM     43  C   UNL A   1      41.475  27.543  28.798  1.00  0.00     0.031 A 
ATOM     44  C   UNL A   1      42.282  27.439  30.063  1.00  0.00     0.074 A 
ATOM     45  C   UNL A   1      40.435  28.394  28.729  1.00  0.00     0.049 A 
ATOM     46  N   UNL A   1      42.120  28.054  31.207  1.00  0.00    -0.248 NA
ATOM     47  C   UNL A   1      43.431  26.519  30.033  1.00  0.00     0.031 C 
ATOM     48  C   UNL A   1      39.599  28.609  27.551  1.00  0.00     0.029 A 
ATOM     49  N   UNL A   1      39.908  29.235  29.676  1.00  0.00    -0.354 N 
ATOM     50  C   UNL A   1      43.139  27.595  32.031  1.00  0.00     0.074 A 
ATOM     51  C   UNL A   1      43.901  26.630  31.267  1.00  0.00     0.031 C 
ATOM     52  C   UNL A   1      38.654  29.519  27.848  1.00  0.00     0.029 A 
ATOM     53  C   UNL A   1      38.805  29.930  29.242  1.00  0.00     0.049 A 
ATOM     54  H   UNL A   1      40.283  29.332  30.582  1.00  0.00     0.167 HD
ATOM     55  C   UNL A   1      43.421  27.954  33.306  1.00  0.00     0.037 A 
ATOM     56  C   UNL A   1      38.003  30.787  29.904  1.00  0.00     0.037 A 
ATOM     57  C   UNL A   1      42.669  28.919  34.062  1.00  0.00     0.049 A 
ATOM     58  C   UNL A   1      38.308  31.128  31.340  1.00  0.00     0.074 A 
ATOM     59  C   UNL A   1      42.891  29.367  35.353  1.00  0.00     0.029 A 
ATOM     60  N   UNL A   1      41.545  29.583  33.597  1.00  0.00    -0.354 N 
ATOM     61  N   UNL A   1      39.294  30.715  32.098  1.00  0.00    -0.248 NA
ATOM     62  C   UNL A   1      37.389  32.060  32.010  1.00  0.00     0.031 C 
ATOM     63  C   UNL A   1      41.875  30.269  35.685  1.00  0.00     0.029 A 
ATOM     64  C   UNL A   1      41.048  30.418  34.583  1.00  0.00     0.049 A 
ATOM     65  H   UNL A   1      41.157  29.476  32.698  1.00  0.00     0.167 HD
ATOM     66  C   UNL A   1      39.132  31.356  33.320  1.00  0.00     0.074 A 
ATOM     67  C   UNL A   1      37.959  32.196  33.199  1.00  0.00     0.031 C 
ATOM     68  C   UNL A   1      39.886  31.257  34.441  1.00  0.00     0.037 A 
BRANCH  55  69
ATOM     69  C   UNL A   1      44.586  27.288  33.975  1.00  0.00     0.064 A 
ATOM     70  C   UNL A   1      45.851  27.893  34.025  1.00  0.00     0.173 A 
ATOM     71  C   UNL A   1      44.422  26.052  34.620  1.00  0.00     0.173 A 
ATOM     72  F   UNL A   1      46.061  29.068  33.413  1.00  0.00    -0.203 F 
ATOM     73  C   UNL A   1      46.912  27.278  34.684  1.00  0.00     0.198 A 
ATOM     74  C   UNL A   1      45.479  25.452  35.297  1.00  0.00     0.198 A 
ATOM     75  F   UNL A   1      43.231  25.435  34.604  1.00  0.00    -0.203 F 
ATOM     76  F   UNL A   1      48.121  27.858  34.691  1.00  0.00    -0.200 F 
ATOM     77  C   UNL A   1      46.724  26.062  35.326  1.00  0.00     0.200 A 
ATOM     78  F   UNL A   1      45.293  24.283  35.926  1.00  0.00    -0.200 F 
ATOM     79  F   UNL A   1      47.744  25.476  35.968  1.00  0.00    -0.200 F 
ENDBRANCH  55  69
BRANCH  56  80
ATOM     80  C   UNL A   1      36.824  31.380  29.221  1.00  0.00     0.064 A 
ATOM     81  C   UNL A   1      35.704  30.602  28.897  1.00  0.00     0.173 A 
ATOM     82  C   UNL A   1      36.806  32.733  28.850  1.00  0.00     0.173 A 
ATOM     83  F   UNL A   1      35.684  29.297  29.207  1.00  0.00    -0.203 F 
ATOM     84  C   UNL A   1      34.621  31.149  28.211  1.00  0.00     0.198 A 
ATOM     85  C   UNL A   1      35.712  33.285  28.188  1.00  0.00     0.198 A 
ATOM     86  F   UNL A   1      37.854  33.521  29.133  1.00  0.00    -0.203 F 
ATOM     87  F   UNL A   1      33.585  30.370  27.870  1.00  0.00    -0.200 F 
ATOM     88  C   UNL A   1      34.624  32.490  27.861  1.00  0.00     0.200 A 
ATOM     89  F   UNL A   1      35.714  34.585  27.862  1.00  0.00    -0.200 F 
ATOM     90  F   UNL A   1      33.584  33.014  27.200  1.00  0.00    -0.200 F 
ENDBRANCH  56  80
BRANCH  68  91
ATOM     91  C   UNL A   1      39.491  32.105  35.616  1.00  0.00     0.064 A 
ATOM     92  C   UNL A   1      40.002  33.398  35.794  1.00  0.00     0.173 A 
ATOM     93  C   UNL A   1      38.554  31.633  36.547  1.00  0.00     0.173 A 
ATOM     94  F   UNL A   1      40.911  33.888  34.938  1.00  0.00    -0.203 F 
ATOM     95  C   UNL A   1      39.606  34.179  36.876  1.00  0.00     0.198 A 
ATOM     96  C   UNL A   1      38.140  32.427  37.612  1.00  0.00     0.198 A 
ATOM     97  F   UNL A   1      38.029  30.405  36.416  1.00  0.00    -0.203 F 
ATOM     98  F   UNL A   1      40.139  35.397  37.052  1.00  0.00    -0.200 F 
ATOM     99  C   UNL A   1      38.671  33.697  37.779  1.00  0.00     0.200 A 
ATOM    100  F   UNL A   1      37.226  31.964  38.477  1.00  0.00    -0.200 F 
ATOM    101  F   UNL A   1      38.285  34.454  38.816  1.00  0.00    -0.200 F 
ENDBRANCH  68  91
ENDBRANCH  42  43
ENDBRANCH  35  37
ENDBRANCH  34  35
ENDBRANCH  33  34
ENDBRANCH  32  33
ENDBRANCH  31  32
ENDBRANCH  30  31
ENDBRANCH  29  30
ENDBRANCH  28  29
ENDBRANCH   1  28
TORSDOF 23
ENDMDL
MODEL 2
REMARK VINA RESULT:     -11.0      1.159      2.123
REMARK SMILES CCCCCCNC(=O)Oc1cccc(-c2ccc(CC(=O)OCCOCCOC(=O)c3ccc(-c4c5nc(c(-c6c(F)c(F)c(F)c(F)c6F)c6ccc([nH]6)c(-c6c(F)c(F)c(F)c(F)c6F)c6nc(c(-c7c(F)c(F)c(F)c(F)c7F)c7ccc4[nH]7)C=C6)C=C5)cc3)cc2F)c1
REMARK SMILES IDX 21 1 22 2 20 3 19 4 16 5 17 6 96 7 18 8 95 9 97 10 15 11
REMARK SMILES IDX 11 12 12 13 98 14 13 15 14 16 10 17 8 18 7 19 9 21 6 22 5 23
REMARK SMILES IDX 4 24 3 25 2 26 1 27 23 28 24 29 25 30 26 31 27 32 28 33
REMARK SMILES IDX 29 34 30 35 31 36 32 37 33 38 94 39 34 40 93 41 35 42 36 43
REMARK SMILES IDX 37 44 87 45 38 46 92 47 86 48 88 49 39 50 91 51 85 52 84 53
REMARK SMILES IDX 40 55 72 56 52 57 71 58 53 59 56 60 70 61 89 62 54 63 55 64
REMARK SMILES IDX 69 66 90 67 57 68 41 69 42 70 50 71 43 72 44 73 48 74 51 75
REMARK SMILES IDX 45 76 46 77 49 78 47 79 73 80 74 81 82 82 75 83 76 84 80 85
REMARK SMILES IDX 83 86 77 87 78 88 81 89 79 90 58 91 59 92 67 93 60 94 61 95
REMARK SMILES IDX 65 96 68 97 62 98 63 99 66 100 64 101
REMARK H PARENT 7 20 88 54 56 65
REMARK Flexibility Score: inf
ROOT
ATOM      1  C   UNL A   1      41.585  20.370  26.958  1.00  0.00     0.310 C 
ATOM      2  O   UNL A   1      41.369  19.436  27.726  1.00  0.00    -0.252 OA
ENDROOT
BRANCH   1   3
ATOM      3  C   UNL A   1      41.009  21.742  27.214  1.00  0.00     0.158 C 
BRANCH   3   4
ATOM      4  C   UNL A   1      39.747  22.152  26.489  1.00  0.00    -0.034 A 
ATOM      5  C   UNL A   1      37.265  22.850  25.294  1.00  0.00     0.018 A 
ATOM      6  C   UNL A   1      38.011  23.799  26.007  1.00  0.00     0.012 A 
ATOM      7  C   UNL A   1      37.798  21.560  25.174  1.00  0.00     0.131 A 
ATOM      8  C   UNL A   1      39.230  23.452  26.606  1.00  0.00     0.005 A 
ATOM      9  C   UNL A   1      39.021  21.212  25.750  1.00  0.00     0.044 A 
ATOM     10  F   UNL A   1      37.122  20.612  24.508  1.00  0.00    -0.206 F 
BRANCH   5  11
ATOM     11  C   UNL A   1      35.953  23.183  24.726  1.00  0.00    -0.012 A 
ATOM     12  C   UNL A   1      33.580  23.607  25.010  1.00  0.00     0.133 A 
ATOM     13  C   UNL A   1      33.413  23.739  23.635  1.00  0.00     0.047 A 
ATOM     14  C   UNL A   1      34.831  23.317  25.559  1.00  0.00     0.056 A 
ATOM     15  C   UNL A   1      34.521  23.619  22.799  1.00  0.00     0.004 A 
ATOM     16  C   UNL A   1      35.783  23.350  23.340  1.00  0.00     0.009 A 
BRANCH  12  17
ATOM     17  O   UNL A   1      32.428  23.646  25.811  1.00  0.00    -0.410 OA
BRANCH  17  18
ATOM     18  C   UNL A   1      32.329  22.704  26.825  1.00  0.00     0.412 C 
ATOM     19  N   UNL A   1      32.025  21.450  26.369  1.00  0.00    -0.321 N 
ATOM     20  H   UNL A   1      31.935  20.745  27.051  1.00  0.00     0.167 HD
ATOM     21  O   UNL A   1      32.479  22.914  28.022  1.00  0.00    -0.224 OA
BRANCH  19  22
ATOM     22  C   UNL A   1      31.822  21.043  24.992  1.00  0.00     0.119 C 
BRANCH  22  23
ATOM     23  C   UNL A   1      32.913  20.087  24.507  1.00  0.00     0.021 C 
BRANCH  23  24
ATOM     24  C   UNL A   1      32.479  19.115  23.402  1.00  0.00     0.002 C 
BRANCH  24  25
ATOM     25  C   UNL A   1      33.043  17.693  23.509  1.00  0.00    -0.000 C 
BRANCH  25  26
ATOM     26  C   UNL A   1      34.409  17.574  24.185  1.00  0.00    -0.003 C 
ATOM     27  C   UNL A   1      34.574  16.297  24.995  1.00  0.00     0.004 C 
ENDBRANCH  25  26
ENDBRANCH  24  25
ENDBRANCH  23  24
ENDBRANCH  22  23
ENDBRANCH  19  22
ENDBRANCH  17  18
ENDBRANCH  12  17
ENDBRANCH   5  11
ENDBRANCH   3   4
ENDBRANCH   1   3
BRANCH   1  28
ATOM     28  O   UNL A   1      42.304  20.269  25.810  1.00  0.00    -0.463 OA
BRANCH  28  29
ATOM     29  C   UNL A   1      43.465  19.418  25.871  1.00  0.00     0.261 C 
BRANCH  29  30
ATOM     30  C   UNL A   1      44.223  19.385  24.541  1.00  0.00     0.202 C 
BRANCH  30  31
ATOM     31  O   UNL A   1      45.436  20.136  24.493  1.00  0.00    -0.374 OA
BRANCH  31  32
ATOM     32  C   UNL A   1      45.440  21.395  25.164  1.00  0.00     0.202 C 
BRANCH  32  33
ATOM     33  C   UNL A   1      45.541  22.635  24.268  1.00  0.00     0.261 C 
BRANCH  33  34
ATOM     34  O   UNL A   1      45.229  23.846  24.982  1.00  0.00    -0.460 OA
BRANCH  34  35
ATOM     35  C   UNL A   1      43.909  24.033  25.221  1.00  0.00     0.338 C 
ATOM     36  O   UNL A   1      42.971  23.517  24.639  1.00  0.00    -0.246 OA
BRANCH  35  37
ATOM     37  C   UNL A   1      43.716  24.858  26.432  1.00  0.00     0.060 A 
ATOM     38  C   UNL A   1      43.016  24.273  27.496  1.00  0.00     0.016 A 
ATOM     39  C   UNL A   1      44.127  26.190  26.504  1.00  0.00     0.016 A 
ATOM     40  C   UNL A   1      42.670  25.035  28.608  1.00  0.00     0.010 A 
ATOM     41  C   UNL A   1      43.771  26.959  27.620  1.00  0.00     0.010 A 
ATOM     42  C   UNL A   1      43.005  26.394  28.657  1.00  0.00    -0.014 A 
BRANCH  42  43
ATOM     43  C   UNL A   1      42.421  27.244  29.723  1.00  0.00     0.031 A 
ATOM     44  C   UNL A   1      43.097  27.299  31.066  1.00  0.00     0.074 A 
ATOM     45  C   UNL A   1      41.332  27.997  29.484  1.00  0.00     0.049 A 
ATOM     46  N   UNL A   1      42.770  27.979  32.136  1.00  0.00    -0.248 NA
ATOM     47  C   UNL A   1      44.309  26.480  31.223  1.00  0.00     0.031 C 
ATOM     48  C   UNL A   1      40.610  28.055  28.217  1.00  0.00     0.029 A 
ATOM     49  N   UNL A   1      40.646  28.856  30.305  1.00  0.00    -0.354 N 
ATOM     50  C   UNL A   1      43.729  27.667  33.090  1.00  0.00     0.074 A 
ATOM     51  C   UNL A   1      44.638  26.718  32.485  1.00  0.00     0.031 C 
ATOM     52  C   UNL A   1      39.572  28.902  28.345  1.00  0.00     0.029 A 
ATOM     53  C   UNL A   1      39.545  29.423  29.711  1.00  0.00     0.049 A 
ATOM     54  H   UNL A   1      40.916  29.049  31.233  1.00  0.00     0.167 HD
ATOM     55  C   UNL A   1      43.848  28.140  34.354  1.00  0.00     0.037 A 
ATOM     56  C   UNL A   1      38.615  30.255  30.219  1.00  0.00     0.037 A 
ATOM     57  C   UNL A   1      42.950  29.090  34.953  1.00  0.00     0.049 A 
ATOM     58  C   UNL A   1      38.740  30.722  31.646  1.00  0.00     0.074 A 
ATOM     59  C   UNL A   1      43.000  29.646  36.220  1.00  0.00     0.029 A 
ATOM     60  N   UNL A   1      41.832  29.622  34.328  1.00  0.00    -0.354 N 
ATOM     61  N   UNL A   1      39.671  30.449  32.529  1.00  0.00    -0.248 NA
ATOM     62  C   UNL A   1      37.688  31.619  32.146  1.00  0.00     0.031 C 
ATOM     63  C   UNL A   1      41.889  30.481  36.376  1.00  0.00     0.029 A 
ATOM     64  C   UNL A   1      41.172  30.480  35.190  1.00  0.00     0.049 A 
ATOM     65  H   UNL A   1      41.550  29.418  33.406  1.00  0.00     0.167 HD
ATOM     66  C   UNL A   1      39.334  31.160  33.673  1.00  0.00     0.074 A 
ATOM     67  C   UNL A   1      38.118  31.888  33.371  1.00  0.00     0.031 C 
ATOM     68  C   UNL A   1      39.971  31.206  34.868  1.00  0.00     0.037 A 
BRANCH  55  69
ATOM     69  C   UNL A   1      44.984  27.623  35.186  1.00  0.00     0.064 A 
ATOM     70  C   UNL A   1      46.228  28.272  35.216  1.00  0.00     0.173 A 
ATOM     71  C   UNL A   1      44.810  26.495  36.003  1.00  0.00     0.173 A 
ATOM     72  F   UNL A   1      46.448  29.347  34.444  1.00  0.00    -0.203 F 
ATOM     73  C   UNL A   1      47.260  27.801  36.023  1.00  0.00     0.198 A 
ATOM     74  C   UNL A   1      45.836  26.043  36.826  1.00  0.00     0.198 A 
ATOM     75  F   UNL A   1      43.638  25.843  36.012  1.00  0.00    -0.203 F 
ATOM     76  F   UNL A   1      48.451  28.417  36.013  1.00  0.00    -0.200 F 
ATOM     77  C   UNL A   1      47.061  26.692  36.834  1.00  0.00     0.200 A 
ATOM     78  F   UNL A   1      45.639  24.978  37.616  1.00  0.00    -0.200 F 
ATOM     79  F   UNL A   1      48.052  26.247  37.618  1.00  0.00    -0.200 F 
ENDBRANCH  55  69
BRANCH  56  80
ATOM     80  C   UNL A   1      37.471  30.696  29.378  1.00  0.00     0.064 A 
ATOM     81  C   UNL A   1      37.404  32.000  28.869  1.00  0.00     0.173 A 
ATOM     82  C   UNL A   1      36.407  29.829  29.092  1.00  0.00     0.173 A 
ATOM     83  F   UNL A   1      38.385  32.875  29.138  1.00  0.00    -0.203 F 
ATOM     84  C   UNL A   1      36.306  32.427  28.124  1.00  0.00     0.198 A 
ATOM     85  C   UNL A   1      35.322  30.248  28.324  1.00  0.00     0.198 A 
ATOM     86  F   UNL A   1      36.420  28.572  29.558  1.00  0.00    -0.203 F 
ATOM     87  F   UNL A   1      36.244  33.694  27.693  1.00  0.00    -0.200 F 
ATOM     88  C   UNL A   1      35.269  31.549  27.849  1.00  0.00     0.200 A 
ATOM     89  F   UNL A   1      34.327  29.393  28.051  1.00  0.00    -0.200 F 
ATOM     90  F   UNL A   1      34.213  31.960  27.135  1.00  0.00    -0.200 F 
ENDBRANCH  56  80
BRANCH  68  91
ATOM     91  C   UNL A   1      39.392  32.099  35.927  1.00  0.00     0.064 A 
ATOM     92  C   UNL A   1      38.377  31.657  36.787  1.00  0.00     0.173 A 
ATOM     93  C   UNL A   1      39.892  33.397  36.111  1.00  0.00     0.173 A 
ATOM     94  F   UNL A   1      37.858  30.428  36.641  1.00  0.00    -0.203 F 
ATOM     95  C   UNL A   1      37.868  32.490  37.779  1.00  0.00     0.198 A 
ATOM     96  C   UNL A   1      39.399  34.218  37.121  1.00  0.00     0.198 A 
ATOM     97  F   UNL A   1      40.868  33.865  35.318  1.00  0.00    -0.203 F 
ATOM     98  F   UNL A   1      36.868  32.062  38.563  1.00  0.00    -0.200 F 
ATOM     99  C   UNL A   1      38.384  33.766  37.950  1.00  0.00     0.200 A 
ATOM    100  F   UNL A   1      39.908  35.446  37.293  1.00  0.00    -0.200 F 
ATOM    101  F   UNL A   1      37.897  34.564  38.911  1.00  0.00    -0.200 F 
ENDBRANCH  68  91
ENDBRANCH  42  43
ENDBRANCH  35  37
ENDBRANCH  34  35
ENDBRANCH  33  34
ENDBRANCH  32  33
ENDBRANCH  31  32
ENDBRANCH  30  31
ENDBRANCH  29  30
ENDBRANCH  28  29
ENDBRANCH   1  28
TORSDOF 23
ENDMDL
MODEL 3
REMARK VINA RESULT:     -11.0      1.969      3.688
REMARK SMILES CCCCCCNC(=O)Oc1cccc(-c2ccc(CC(=O)OCCOCCOC(=O)c3ccc(-c4c5nc(c(-c6c(F)c(F)c(F)c(F)c6F)c6ccc([nH]6)c(-c6c(F)c(F)c(F)c(F)c6F)c6nc(c(-c7c(F)c(F)c(F)c(F)c7F)c7ccc4[nH]7)C=C6)C=C5)cc3)cc2F)c1
REMARK SMILES IDX 21 1 22 2 20 3 19 4 16 5 17 6 96 7 18 8 95 9 97 10 15 11
REMARK SMILES IDX 11 12 12 13 98 14 13 15 14 16 10 17 8 18 7 19 9 21 6 22 5 23
REMARK SMILES IDX 4 24 3 25 2 26 1 27 23 28 24 29 25 30 26 31 27 32 28 33
REMARK SMILES IDX 29 34 30 35 31 36 32 37 33 38 94 39 34 40 93 41 35 42 36 43
REMARK SMILES IDX 37 44 87 45 38 46 92 47 86 48 88 49 39 50 91 51 85 52 84 53
REMARK SMILES IDX 40 55 72 56 52 57 71 58 53 59 56 60 70 61 89 62 54 63 55 64
REMARK SMILES IDX 69 66 90 67 57 68 41 69 42 70 50 71 43 72 44 73 48 74 51 75
REMARK SMILES IDX 45 76 46 77 49 78 47 79 73 80 74 81 82 82 75 83 76 84 80 85
REMARK SMILES IDX 83 86 77 87 78 88 81 89 79 90 58 91 59 92 67 93 60 94 61 95
REMARK SMILES IDX 65 96 68 97 62 98 63 99 66 100 64 101
REMARK H PARENT 7 20 88 54 56 65
REMARK Flexibility Score: inf
ROOT
ATOM      1  C   UNL A   1      41.655  20.024  26.424  1.00  0.00     0.310 C 
ATOM      2  O   UNL A   1      41.767  19.608  27.574  1.00  0.00    -0.252 OA
ENDROOT
BRANCH   1   3
ATOM      3  C   UNL A   1      40.919  21.308  26.125  1.00  0.00     0.158 C 
BRANCH   3   4
ATOM      4  C   UNL A   1      39.432  21.253  25.858  1.00  0.00    -0.034 A 
ATOM      5  C   UNL A   1      36.675  21.236  25.167  1.00  0.00     0.018 A 
ATOM      6  C   UNL A   1      37.470  20.097  24.978  1.00  0.00     0.012 A 
ATOM      7  C   UNL A   1      37.283  22.367  25.728  1.00  0.00     0.131 A 
ATOM      8  C   UNL A   1      38.833  20.108  25.309  1.00  0.00     0.005 A 
ATOM      9  C   UNL A   1      38.634  22.380  26.079  1.00  0.00     0.044 A 
ATOM     10  F   UNL A   1      36.570  23.487  25.923  1.00  0.00    -0.206 F 
BRANCH   5  11
ATOM     11  C   UNL A   1      35.267  21.259  24.756  1.00  0.00    -0.012 A 
ATOM     12  C   UNL A   1      33.317  22.480  23.983  1.00  0.00     0.133 A 
ATOM     13  C   UNL A   1      32.539  21.328  24.046  1.00  0.00     0.047 A 
ATOM     14  C   UNL A   1      34.665  22.459  24.346  1.00  0.00     0.056 A 
ATOM     15  C   UNL A   1      33.127  20.128  24.441  1.00  0.00     0.004 A 
ATOM     16  C   UNL A   1      34.483  20.092  24.787  1.00  0.00     0.009 A 
BRANCH  12  17
ATOM     17  O   UNL A   1      32.668  23.685  23.666  1.00  0.00    -0.410 OA
BRANCH  17  18
ATOM     18  C   UNL A   1      33.191  24.427  22.616  1.00  0.00     0.412 C 
ATOM     19  N   UNL A   1      33.577  25.687  22.985  1.00  0.00    -0.321 N 
ATOM     20  H   UNL A   1      33.947  26.258  22.273  1.00  0.00     0.167 HD
ATOM     21  O   UNL A   1      33.310  24.050  21.456  1.00  0.00    -0.224 OA
BRANCH  19  22
ATOM     22  C   UNL A   1      33.503  26.274  24.308  1.00  0.00     0.119 C 
BRANCH  22  23
ATOM     23  C   UNL A   1      32.960  27.704  24.273  1.00  0.00     0.021 C 
BRANCH  23  24
ATOM     24  C   UNL A   1      31.430  27.817  24.248  1.00  0.00     0.002 C 
BRANCH  24  25
ATOM     25  C   UNL A   1      30.870  29.168  23.788  1.00  0.00    -0.000 C 
BRANCH  25  26
ATOM     26  C   UNL A   1      30.311  29.201  22.365  1.00  0.00    -0.003 C 
ATOM     27  C   UNL A   1      28.829  29.540  22.305  1.00  0.00     0.004 C 
ENDBRANCH  25  26
ENDBRANCH  24  25
ENDBRANCH  23  24
ENDBRANCH  22  23
ENDBRANCH  19  22
ENDBRANCH  17  18
ENDBRANCH  12  17
ENDBRANCH   5  11
ENDBRANCH   3   4
ENDBRANCH   1   3
BRANCH   1  28
ATOM     28  O   UNL A   1      42.126  19.378  25.326  1.00  0.00    -0.463 OA
BRANCH  28  29
ATOM     29  C   UNL A   1      43.482  18.900  25.413  1.00  0.00     0.261 C 
BRANCH  29  30
ATOM     30  C   UNL A   1      44.500  20.012  25.145  1.00  0.00     0.202 C 
BRANCH  30  31
ATOM     31  O   UNL A   1      44.572  20.483  23.800  1.00  0.00    -0.374 OA
BRANCH  31  32
ATOM     32  C   UNL A   1      44.808  21.880  23.619  1.00  0.00     0.202 C 
BRANCH  32  33
ATOM     33  C   UNL A   1      43.801  22.824  24.287  1.00  0.00     0.261 C 
BRANCH  33  34
ATOM     34  O   UNL A   1      44.360  24.128  24.527  1.00  0.00    -0.460 OA
BRANCH  34  35
ATOM     35  C   UNL A   1      44.908  24.289  25.755  1.00  0.00     0.338 C 
ATOM     36  O   UNL A   1      46.017  23.939  26.123  1.00  0.00    -0.246 OA
BRANCH  35  37
ATOM     37  C   UNL A   1      44.030  25.115  26.608  1.00  0.00     0.060 A 
ATOM     38  C   UNL A   1      44.343  26.477  26.715  1.00  0.00     0.016 A 
ATOM     39  C   UNL A   1      42.981  24.571  27.352  1.00  0.00     0.016 A 
ATOM     40  C   UNL A   1      43.651  27.286  27.612  1.00  0.00     0.010 A 
ATOM     41  C   UNL A   1      42.291  25.384  28.262  1.00  0.00     0.010 A 
ATOM     42  C   UNL A   1      42.651  26.735  28.424  1.00  0.00    -0.014 A 
BRANCH  42  43
ATOM     43  C   UNL A   1      42.099  27.544  29.538  1.00  0.00     0.031 A 
ATOM     44  C   UNL A   1      42.783  27.505  30.877  1.00  0.00     0.074 A 
ATOM     45  C   UNL A   1      41.033  28.342  29.347  1.00  0.00     0.049 A 
ATOM     46  N   UNL A   1      42.483  28.136  31.984  1.00  0.00    -0.248 NA
ATOM     47  C   UNL A   1      43.970  26.641  30.982  1.00  0.00     0.031 C 
ATOM     48  C   UNL A   1      40.307  28.492  28.089  1.00  0.00     0.029 A 
ATOM     49  N   UNL A   1      40.379  29.177  30.218  1.00  0.00    -0.354 N 
ATOM     50  C   UNL A   1      43.437  27.744  32.914  1.00  0.00     0.074 A 
ATOM     51  C   UNL A   1      44.312  26.800  32.252  1.00  0.00     0.031 C 
ATOM     52  C   UNL A   1      39.297  29.362  28.270  1.00  0.00     0.029 A 
ATOM     53  C   UNL A   1      39.293  29.809  29.662  1.00  0.00     0.049 A 
ATOM     54  H   UNL A   1      40.659  29.311  31.152  1.00  0.00     0.167 HD
ATOM     55  C   UNL A   1      43.577  28.143  34.200  1.00  0.00     0.037 A 
ATOM     56  C   UNL A   1      38.393  30.641  30.220  1.00  0.00     0.037 A 
ATOM     57  C   UNL A   1      42.712  29.087  34.856  1.00  0.00     0.049 A 
ATOM     58  C   UNL A   1      38.540  31.026  31.670  1.00  0.00     0.074 A 
ATOM     59  C   UNL A   1      42.787  29.572  36.150  1.00  0.00     0.029 A 
ATOM     60  N   UNL A   1      41.609  29.687  34.267  1.00  0.00    -0.354 N 
ATOM     61  N   UNL A   1      39.466  30.677  32.530  1.00  0.00    -0.248 NA
ATOM     62  C   UNL A   1      37.519  31.927  32.224  1.00  0.00     0.031 C 
ATOM     63  C   UNL A   1      41.703  30.431  36.359  1.00  0.00     0.029 A 
ATOM     64  C   UNL A   1      40.981  30.518  35.179  1.00  0.00     0.049 A 
ATOM     65  H   UNL A   1      41.316  29.542  33.338  1.00  0.00     0.167 HD
ATOM     66  C   UNL A   1      39.157  31.336  33.713  1.00  0.00     0.074 A 
ATOM     67  C   UNL A   1      37.963  32.116  33.459  1.00  0.00     0.031 C 
ATOM     68  C   UNL A   1      39.802  31.297  34.905  1.00  0.00     0.037 A 
BRANCH  55  69
ATOM     69  C   UNL A   1      44.700  27.547  34.995  1.00  0.00     0.064 A 
ATOM     70  C   UNL A   1      45.943  28.188  35.108  1.00  0.00     0.173 A 
ATOM     71  C   UNL A   1      44.514  26.346  35.697  1.00  0.00     0.173 A 
ATOM     72  F   UNL A   1      46.175  29.332  34.446  1.00  0.00    -0.203 F 
ATOM     73  C   UNL A   1      46.963  27.640  35.881  1.00  0.00     0.198 A 
ATOM     74  C   UNL A   1      45.527  25.814  36.488  1.00  0.00     0.198 A 
ATOM     75  F   UNL A   1      43.342  25.697  35.625  1.00  0.00    -0.203 F 
ATOM     76  F   UNL A   1      48.154  28.252  35.948  1.00  0.00    -0.200 F 
ATOM     77  C   UNL A   1      46.752  26.458  36.577  1.00  0.00     0.200 A 
ATOM     78  F   UNL A   1      45.319  24.678  37.168  1.00  0.00    -0.200 F 
ATOM     79  F   UNL A   1      47.731  25.938  37.329  1.00  0.00    -0.200 F 
ENDBRANCH  55  69
BRANCH  56  80
ATOM     80  C   UNL A   1      37.260  31.163  29.412  1.00  0.00     0.064 A 
ATOM     81  C   UNL A   1      37.210  32.504  29.011  1.00  0.00     0.173 A 
ATOM     82  C   UNL A   1      36.187  30.334  29.050  1.00  0.00     0.173 A 
ATOM     83  F   UNL A   1      38.199  33.343  29.355  1.00  0.00    -0.203 F 
ATOM     84  C   UNL A   1      36.121  33.003  28.297  1.00  0.00     0.198 A 
ATOM     85  C   UNL A   1      35.112  30.826  28.314  1.00  0.00     0.198 A 
ATOM     86  F   UNL A   1      36.184  29.043  29.412  1.00  0.00    -0.203 F 
ATOM     87  F   UNL A   1      36.076  34.302  27.971  1.00  0.00    -0.200 F 
ATOM     88  C   UNL A   1      35.076  32.163  27.946  1.00  0.00     0.200 A 
ATOM     89  F   UNL A   1      34.109  30.009  27.966  1.00  0.00    -0.200 F 
ATOM     90  F   UNL A   1      34.029  32.643  27.262  1.00  0.00    -0.200 F 
ENDBRANCH  56  80
BRANCH  68  91
ATOM     91  C   UNL A   1      39.256  32.149  36.014  1.00  0.00     0.064 A 
ATOM     92  C   UNL A   1      38.314  31.653  36.926  1.00  0.00     0.173 A 
ATOM     93  C   UNL A   1      39.718  33.462  36.191  1.00  0.00     0.173 A 
ATOM     94  F   UNL A   1      37.833  30.409  36.789  1.00  0.00    -0.203 F 
ATOM     95  C   UNL A   1      37.837  32.450  37.963  1.00  0.00     0.198 A 
ATOM     96  C   UNL A   1      39.258  34.246  37.246  1.00  0.00     0.198 A 
ATOM     97  F   UNL A   1      40.625  33.980  35.350  1.00  0.00    -0.203 F 
ATOM     98  F   UNL A   1      36.904  31.970  38.799  1.00  0.00    -0.200 F 
ATOM     99  C   UNL A   1      38.314  33.742  38.127  1.00  0.00     0.200 A 
ATOM    100  F   UNL A   1      39.730  35.490  37.409  1.00  0.00    -0.200 F 
ATOM    101  F   UNL A   1      37.858  34.504  39.131  1.00  0.00    -0.200 F 
ENDBRANCH  68  91
ENDBRANCH  42  43
ENDBRANCH  35  37
ENDBRANCH  34  35
ENDBRANCH  33  34
ENDBRANCH  32  33
ENDBRANCH  31  32
ENDBRANCH  30  31
ENDBRANCH  29  30
ENDBRANCH  28  29
ENDBRANCH   1  28
TORSDOF 23
ENDMDL
