MODEL 1
REMARK VINA RESULT:     -11.4      0.000      0.000
REMARK SMILES C[C@@H](C(=O)OCCOCCOC(=O)c1ccc(-c2c3nc(c(-c4c(F)c(F)c(F)c(F)c4F)c4ccc([nH]4)c(-c4c(F)c(F)c(F)c(F)c4F)c4nc(c(-c5c(F)c(F)c(F)c(F)c5F)c5ccc2[nH]5)C=C4)C=C3)cc1)c1ccc(C(=O)c2cccs2)cc1
REMARK SMILES IDX 7 1 6 2 5 3 3 4 4 5 2 6 1 7 77 8 78 9 89 10 79 11 88 12
REMARK SMILES IDX 80 13 81 14 82 15 83 16 84 17 87 18 85 19 86 20 8 21 9 22
REMARK SMILES IDX 10 23 11 24 12 25 13 26 14 27 15 28 76 29 16 30 75 31 17 32
REMARK SMILES IDX 18 33 19 34 69 35 20 36 74 37 68 38 70 39 21 40 73 41 67 42
REMARK SMILES IDX 66 43 22 45 54 46 34 47 53 48 35 49 38 50 52 51 71 52 36 53
REMARK SMILES IDX 37 54 51 56 72 57 39 58 23 59 24 60 32 61 25 62 26 63 30 64
REMARK SMILES IDX 33 65 27 66 28 67 31 68 29 69 55 70 56 71 64 72 57 73 58 74
REMARK SMILES IDX 62 75 65 76 59 77 60 78 63 79 61 80 40 81 41 82 49 83 42 84
REMARK SMILES IDX 43 85 47 86 50 87 44 88 45 89 48 90 46 91
REMARK H PARENT 70 44 38 55
REMARK Flexibility Score: inf
ROOT
ATOM      1  C   UNL A   1      32.032  28.735  26.281  1.00  0.00     0.202 C 
ENDROOT
BRANCH   1   2
ATOM      2  C   UNL A   1      33.345  27.947  26.362  1.00  0.00     0.261 C 
BRANCH   2   3
ATOM      3  O   UNL A   1      33.525  27.168  25.160  1.00  0.00    -0.463 OA
BRANCH   3   4
ATOM      4  C   UNL A   1      32.954  25.932  25.154  1.00  0.00     0.313 C 
ATOM      5  O   UNL A   1      32.916  25.192  26.131  1.00  0.00    -0.252 OA
BRANCH   4   6
ATOM      6  C   UNL A   1      32.354  25.565  23.788  1.00  0.00     0.126 C 
ATOM      7  C   UNL A   1      33.349  25.551  22.623  1.00  0.00     0.025 C 
BRANCH   6   8
ATOM      8  C   UNL A   1      31.149  26.451  23.479  1.00  0.00    -0.034 A 
ATOM      9  C   UNL A   1      29.903  26.169  24.050  1.00  0.00     0.005 A 
ATOM     10  C   UNL A   1      31.269  27.610  22.697  1.00  0.00     0.005 A 
ATOM     11  C   UNL A   1      28.821  27.038  23.867  1.00  0.00     0.012 A 
ATOM     12  C   UNL A   1      30.198  28.495  22.539  1.00  0.00     0.012 A 
ATOM     13  C   UNL A   1      28.961  28.223  23.127  1.00  0.00     0.023 A 
BRANCH  13  14
ATOM     14  C   UNL A   1      27.793  29.164  23.054  1.00  0.00     0.202 C 
ATOM     15  O   UNL A   1      26.681  28.724  23.342  1.00  0.00    -0.288 OA
BRANCH  14  16
ATOM     16  C   UNL A   1      28.010  30.555  22.698  1.00  0.00     0.075 A 
ATOM     17  C   UNL A   1      28.247  31.654  23.503  1.00  0.00     0.024 A 
ATOM     18  S   UNL A   1      28.031  30.978  21.037  1.00  0.00    -0.140 S 
ATOM     19  C   UNL A   1      28.386  32.856  22.749  1.00  0.00     0.012 A 
ATOM     20  C   UNL A   1      28.287  32.631  21.394  1.00  0.00     0.065 A 
ENDBRANCH  14  16
ENDBRANCH  13  14
ENDBRANCH   6   8
ENDBRANCH   4   6
ENDBRANCH   3   4
ENDBRANCH   2   3
ENDBRANCH   1   2
BRANCH   1  21
ATOM     21  O   UNL A   1      32.061  29.901  25.448  1.00  0.00    -0.374 OA
BRANCH  21  22
ATOM     22  C   UNL A   1      31.123  30.927  25.760  1.00  0.00     0.202 C 
BRANCH  22  23
ATOM     23  C   UNL A   1      31.601  31.999  26.744  1.00  0.00     0.261 C 
BRANCH  23  24
ATOM     24  O   UNL A   1      33.010  32.242  26.623  1.00  0.00    -0.460 OA
BRANCH  24  25
ATOM     25  C   UNL A   1      33.543  32.914  27.668  1.00  0.00     0.338 C 
ATOM     26  O   UNL A   1      33.022  33.806  28.323  1.00  0.00    -0.246 OA
BRANCH  25  27
ATOM     27  C   UNL A   1      34.830  32.311  28.051  1.00  0.00     0.060 A 
ATOM     28  C   UNL A   1      34.833  30.938  28.321  1.00  0.00     0.016 A 
ATOM     29  C   UNL A   1      35.992  33.071  28.205  1.00  0.00     0.016 A 
ATOM     30  C   UNL A   1      35.985  30.326  28.804  1.00  0.00     0.010 A 
ATOM     31  C   UNL A   1      37.148  32.457  28.697  1.00  0.00     0.010 A 
ATOM     32  C   UNL A   1      37.135  31.092  29.035  1.00  0.00    -0.014 A 
BRANCH  32  33
ATOM     33  C   UNL A   1      38.260  30.487  29.787  1.00  0.00     0.031 A 
ATOM     34  C   UNL A   1      38.456  30.870  31.227  1.00  0.00     0.074 A 
ATOM     35  C   UNL A   1      39.059  29.573  29.211  1.00  0.00     0.049 A 
ATOM     36  N   UNL A   1      39.362  30.462  32.080  1.00  0.00    -0.248 NA
ATOM     37  C   UNL A   1      37.501  31.843  31.782  1.00  0.00     0.031 C 
ATOM     38  C   UNL A   1      38.937  29.093  27.837  1.00  0.00     0.029 A 
ATOM     39  N   UNL A   1      40.131  28.883  29.718  1.00  0.00    -0.354 N 
ATOM     40  C   UNL A   1      39.087  31.130  33.266  1.00  0.00     0.074 A 
ATOM     41  C   UNL A   1      37.952  31.991  33.019  1.00  0.00     0.031 C 
ATOM     42  C   UNL A   1      39.902  28.185  27.607  1.00  0.00     0.029 A 
ATOM     43  C   UNL A   1      40.723  28.044  28.807  1.00  0.00     0.049 A 
ATOM     44  H   UNL A   1      40.446  28.981  30.645  1.00  0.00     0.167 HD
ATOM     45  C   UNL A   1      39.721  31.025  34.459  1.00  0.00     0.037 A 
ATOM     46  C   UNL A   1      41.813  27.262  28.931  1.00  0.00     0.037 A 
ATOM     47  C   UNL A   1      40.846  30.163  34.703  1.00  0.00     0.049 A 
ATOM     48  C   UNL A   1      42.542  27.216  30.250  1.00  0.00     0.074 A 
ATOM     49  C   UNL A   1      41.543  29.965  35.883  1.00  0.00     0.029 A 
ATOM     50  N   UNL A   1      41.445  29.359  33.745  1.00  0.00    -0.354 N 
ATOM     51  N   UNL A   1      42.258  27.826  31.375  1.00  0.00    -0.248 NA
ATOM     52  C   UNL A   1      43.741  26.368  30.314  1.00  0.00     0.031 C 
ATOM     53  C   UNL A   1      42.594  29.079  35.626  1.00  0.00     0.029 A 
ATOM     54  C   UNL A   1      42.521  28.685  34.299  1.00  0.00     0.049 A 
ATOM     55  H   UNL A   1      41.149  29.278  32.810  1.00  0.00     0.167 HD
ATOM     56  C   UNL A   1      43.223  27.415  32.286  1.00  0.00     0.074 A 
ATOM     57  C   UNL A   1      44.094  26.495  31.585  1.00  0.00     0.031 C 
ATOM     58  C   UNL A   1      43.373  27.767  33.587  1.00  0.00     0.037 A 
BRANCH  45  59
ATOM     59  C   UNL A   1      39.226  31.885  35.583  1.00  0.00     0.064 A 
ATOM     60  C   UNL A   1      39.605  33.230  35.706  1.00  0.00     0.173 A 
ATOM     61  C   UNL A   1      38.334  31.365  36.533  1.00  0.00     0.173 A 
ATOM     62  F   UNL A   1      40.469  33.771  34.833  1.00  0.00    -0.203 F 
ATOM     63  C   UNL A   1      39.129  34.015  36.753  1.00  0.00     0.198 A 
ATOM     64  C   UNL A   1      37.838  32.160  37.562  1.00  0.00     0.198 A 
ATOM     65  F   UNL A   1      37.939  30.085  36.459  1.00  0.00    -0.203 F 
ATOM     66  F   UNL A   1      39.539  35.286  36.876  1.00  0.00    -0.200 F 
ATOM     67  C   UNL A   1      38.241  33.483  37.675  1.00  0.00     0.200 A 
ATOM     68  F   UNL A   1      36.973  31.646  38.446  1.00  0.00    -0.200 F 
ATOM     69  F   UNL A   1      37.778  34.241  38.679  1.00  0.00    -0.200 F 
ENDBRANCH  45  59
BRANCH  46  70
ATOM     70  C   UNL A   1      42.288  26.462  27.773  1.00  0.00     0.064 A 
ATOM     71  C   UNL A   1      41.788  25.174  27.529  1.00  0.00     0.173 A 
ATOM     72  C   UNL A   1      43.264  26.959  26.898  1.00  0.00     0.173 A 
ATOM     73  F   UNL A   1      40.873  24.644  28.354  1.00  0.00    -0.203 F 
ATOM     74  C   UNL A   1      42.259  24.411  26.463  1.00  0.00     0.198 A 
ATOM     75  C   UNL A   1      43.714  26.205  25.816  1.00  0.00     0.198 A 
ATOM     76  F   UNL A   1      43.776  28.184  27.089  1.00  0.00    -0.203 F 
ATOM     77  F   UNL A   1      41.797  23.166  26.279  1.00  0.00    -0.200 F 
ATOM     78  C   UNL A   1      43.217  24.929  25.604  1.00  0.00     0.200 A 
ATOM     79  F   UNL A   1      44.632  26.714  24.983  1.00  0.00    -0.200 F 
ATOM     80  F   UNL A   1      43.667  24.195  24.578  1.00  0.00    -0.200 F 
ENDBRANCH  46  70
BRANCH  58  81
ATOM     81  C   UNL A   1      44.500  27.131  34.348  1.00  0.00     0.064 A 
ATOM     82  C   UNL A   1      44.349  25.894  34.991  1.00  0.00     0.173 A 
ATOM     83  C   UNL A   1      45.760  27.747  34.394  1.00  0.00     0.173 A 
ATOM     84  F   UNL A   1      43.160  25.273  34.987  1.00  0.00    -0.203 F 
ATOM     85  C   UNL A   1      45.411  25.309  35.673  1.00  0.00     0.198 A 
ATOM     86  C   UNL A   1      46.829  27.145  35.053  1.00  0.00     0.198 A 
ATOM     87  F   UNL A   1      45.959  28.927  33.787  1.00  0.00    -0.203 F 
ATOM     88  F   UNL A   1      45.232  24.148  36.319  1.00  0.00    -0.200 F 
ATOM     89  C   UNL A   1      46.651  25.930  35.697  1.00  0.00     0.200 A 
ATOM     90  F   UNL A   1      48.030  27.740  35.063  1.00  0.00    -0.200 F 
ATOM     91  F   UNL A   1      47.675  25.360  36.348  1.00  0.00    -0.200 F 
ENDBRANCH  58  81
ENDBRANCH  32  33
ENDBRANCH  25  27
ENDBRANCH  24  25
ENDBRANCH  23  24
ENDBRANCH  22  23
ENDBRANCH  21  22
ENDBRANCH   1  21
TORSDOF 17
ENDMDL
MODEL 2
REMARK VINA RESULT:     -11.3      4.251      9.517
REMARK SMILES C[C@@H](C(=O)OCCOCCOC(=O)c1ccc(-c2c3nc(c(-c4c(F)c(F)c(F)c(F)c4F)c4ccc([nH]4)c(-c4c(F)c(F)c(F)c(F)c4F)c4nc(c(-c5c(F)c(F)c(F)c(F)c5F)c5ccc2[nH]5)C=C4)C=C3)cc1)c1ccc(C(=O)c2cccs2)cc1
REMARK SMILES IDX 7 1 6 2 5 3 3 4 4 5 2 6 1 7 77 8 78 9 89 10 79 11 88 12
REMARK SMILES IDX 80 13 81 14 82 15 83 16 84 17 87 18 85 19 86 20 8 21 9 22
REMARK SMILES IDX 10 23 11 24 12 25 13 26 14 27 15 28 76 29 16 30 75 31 17 32
REMARK SMILES IDX 18 33 19 34 69 35 20 36 74 37 68 38 70 39 21 40 73 41 67 42
REMARK SMILES IDX 66 43 22 45 54 46 34 47 53 48 35 49 38 50 52 51 71 52 36 53
REMARK SMILES IDX 37 54 51 56 72 57 39 58 23 59 24 60 32 61 25 62 26 63 30 64
REMARK SMILES IDX 33 65 27 66 28 67 31 68 29 69 55 70 56 71 64 72 57 73 58 74
REMARK SMILES IDX 62 75 65 76 59 77 60 78 63 79 61 80 40 81 41 82 49 83 42 84
REMARK SMILES IDX 43 85 47 86 50 87 44 88 45 89 48 90 46 91
REMARK H PARENT 70 44 38 55
REMARK Flexibility Score: inf
ROOT
ATOM      1  C   UNL A   1      35.397  23.104  24.953  1.00  0.00     0.202 C 
ENDROOT
BRANCH   1   2
ATOM      2  C   UNL A   1      34.841  24.356  25.643  1.00  0.00     0.261 C 
BRANCH   2   3
ATOM      3  O   UNL A   1      34.343  25.281  24.653  1.00  0.00    -0.463 OA
BRANCH   3   4
ATOM      4  C   UNL A   1      33.065  25.718  24.827  1.00  0.00     0.313 C 
ATOM      5  O   UNL A   1      32.734  26.545  25.669  1.00  0.00    -0.252 OA
BRANCH   4   6
ATOM      6  C   UNL A   1      32.080  25.066  23.844  1.00  0.00     0.126 C 
ATOM      7  C   UNL A   1      32.714  24.494  22.572  1.00  0.00     0.025 C 
BRANCH   6   8
ATOM      8  C   UNL A   1      30.941  26.029  23.513  1.00  0.00    -0.034 A 
ATOM      9  C   UNL A   1      29.682  25.857  24.098  1.00  0.00     0.005 A 
ATOM     10  C   UNL A   1      31.140  27.151  22.695  1.00  0.00     0.005 A 
ATOM     11  C   UNL A   1      28.664  26.796  23.893  1.00  0.00     0.012 A 
ATOM     12  C   UNL A   1      30.136  28.107  22.514  1.00  0.00     0.012 A 
ATOM     13  C   UNL A   1      28.886  27.944  23.116  1.00  0.00     0.023 A 
BRANCH  13  14
ATOM     14  C   UNL A   1      27.790  28.965  23.018  1.00  0.00     0.202 C 
ATOM     15  O   UNL A   1      26.667  28.644  23.409  1.00  0.00    -0.288 OA
BRANCH  14  16
ATOM     16  C   UNL A   1      28.087  30.297  22.521  1.00  0.00     0.075 A 
ATOM     17  C   UNL A   1      28.031  30.800  21.234  1.00  0.00     0.024 A 
ATOM     18  S   UNL A   1      28.550  31.503  23.647  1.00  0.00    -0.140 S 
ATOM     19  C   UNL A   1      28.428  32.168  21.171  1.00  0.00     0.012 A 
ATOM     20  C   UNL A   1      28.740  32.673  22.414  1.00  0.00     0.065 A 
ENDBRANCH  14  16
ENDBRANCH  13  14
ENDBRANCH   6   8
ENDBRANCH   4   6
ENDBRANCH   3   4
ENDBRANCH   2   3
ENDBRANCH   1   2
BRANCH   1  21
ATOM     21  O   UNL A   1      35.947  22.110  25.826  1.00  0.00    -0.374 OA
BRANCH  21  22
ATOM     22  C   UNL A   1      36.068  20.795  25.294  1.00  0.00     0.202 C 
BRANCH  22  23
ATOM     23  C   UNL A   1      37.493  20.314  25.003  1.00  0.00     0.261 C 
BRANCH  23  24
ATOM     24  O   UNL A   1      38.450  21.375  25.142  1.00  0.00    -0.460 OA
BRANCH  24  25
ATOM     25  C   UNL A   1      39.396  21.140  26.081  1.00  0.00     0.338 C 
ATOM     26  O   UNL A   1      39.965  20.084  26.315  1.00  0.00    -0.246 OA
BRANCH  25  27
ATOM     27  C   UNL A   1      39.799  22.406  26.715  1.00  0.00     0.060 A 
ATOM     28  C   UNL A   1      39.170  23.572  26.263  1.00  0.00     0.016 A 
ATOM     29  C   UNL A   1      40.806  22.466  27.681  1.00  0.00     0.016 A 
ATOM     30  C   UNL A   1      39.588  24.812  26.732  1.00  0.00     0.010 A 
ATOM     31  C   UNL A   1      41.230  23.714  28.147  1.00  0.00     0.010 A 
ATOM     32  C   UNL A   1      40.649  24.892  27.644  1.00  0.00    -0.014 A 
BRANCH  32  33
ATOM     33  C   UNL A   1      41.249  26.216  27.933  1.00  0.00     0.031 A 
ATOM     34  C   UNL A   1      42.645  26.497  27.452  1.00  0.00     0.074 A 
ATOM     35  C   UNL A   1      40.542  27.168  28.564  1.00  0.00     0.049 A 
ATOM     36  N   UNL A   1      43.365  27.582  27.580  1.00  0.00    -0.248 NA
ATOM     37  C   UNL A   1      43.320  25.408  26.728  1.00  0.00     0.031 C 
ATOM     38  C   UNL A   1      39.167  27.024  29.036  1.00  0.00     0.029 A 
ATOM     39  N   UNL A   1      40.888  28.449  28.913  1.00  0.00    -0.354 N 
ATOM     40  C   UNL A   1      44.575  27.305  26.956  1.00  0.00     0.074 A 
ATOM     41  C   UNL A   1      44.506  25.942  26.478  1.00  0.00     0.031 C 
ATOM     42  C   UNL A   1      38.785  28.175  29.618  1.00  0.00     0.029 A 
ATOM     43  C   UNL A   1      39.897  29.122  29.582  1.00  0.00     0.049 A 
ATOM     44  H   UNL A   1      41.763  28.848  28.703  1.00  0.00     0.167 HD
ATOM     45  C   UNL A   1      45.644  28.120  26.791  1.00  0.00     0.037 A 
ATOM     46  C   UNL A   1      39.898  30.358  30.117  1.00  0.00     0.037 A 
ATOM     47  C   UNL A   1      45.707  29.478  27.263  1.00  0.00     0.049 A 
ATOM     48  C   UNL A   1      41.127  31.221  29.978  1.00  0.00     0.074 A 
ATOM     49  C   UNL A   1      46.735  30.394  27.122  1.00  0.00     0.029 A 
ATOM     50  N   UNL A   1      44.700  30.111  27.975  1.00  0.00    -0.354 N 
ATOM     51  N   UNL A   1      42.254  30.963  29.362  1.00  0.00    -0.248 NA
ATOM     52  C   UNL A   1      41.079  32.548  30.608  1.00  0.00     0.031 C 
ATOM     53  C   UNL A   1      46.369  31.566  27.793  1.00  0.00     0.029 A 
ATOM     54  C   UNL A   1      45.093  31.397  28.307  1.00  0.00     0.049 A 
ATOM     55  H   UNL A   1      43.833  29.707  28.210  1.00  0.00     0.167 HD
ATOM     56  C   UNL A   1      43.036  32.102  29.504  1.00  0.00     0.074 A 
ATOM     57  C   UNL A   1      42.251  33.057  30.256  1.00  0.00     0.031 C 
ATOM     58  C   UNL A   1      44.293  32.336  29.051  1.00  0.00     0.037 A 
BRANCH  45  59
ATOM     59  C   UNL A   1      46.844  27.554  26.091  1.00  0.00     0.064 A 
ATOM     60  C   UNL A   1      47.002  27.652  24.701  1.00  0.00     0.173 A 
ATOM     61  C   UNL A   1      47.864  26.931  26.825  1.00  0.00     0.173 A 
ATOM     62  F   UNL A   1      46.048  28.224  23.950  1.00  0.00    -0.203 F 
ATOM     63  C   UNL A   1      48.127  27.126  24.070  1.00  0.00     0.198 A 
ATOM     64  C   UNL A   1      48.999  26.431  26.195  1.00  0.00     0.198 A 
ATOM     65  F   UNL A   1      47.761  26.813  28.158  1.00  0.00    -0.203 F 
ATOM     66  F   UNL A   1      48.238  27.192  22.735  1.00  0.00    -0.200 F 
ATOM     67  C   UNL A   1      49.127  26.523  24.817  1.00  0.00     0.200 A 
ATOM     68  F   UNL A   1      49.968  25.856  26.921  1.00  0.00    -0.200 F 
ATOM     69  F   UNL A   1      50.212  26.022  24.209  1.00  0.00    -0.200 F 
ENDBRANCH  45  59
BRANCH  46  70
ATOM     70  C   UNL A   1      38.699  30.857  30.838  1.00  0.00     0.064 A 
ATOM     71  C   UNL A   1      37.630  31.444  30.146  1.00  0.00     0.173 A 
ATOM     72  C   UNL A   1      38.605  30.773  32.235  1.00  0.00     0.173 A 
ATOM     73  F   UNL A   1      37.684  31.570  28.813  1.00  0.00    -0.203 F 
ATOM     74  C   UNL A   1      36.520  31.942  30.827  1.00  0.00     0.198 A 
ATOM     75  C   UNL A   1      37.483  31.247  32.911  1.00  0.00     0.198 A 
ATOM     76  F   UNL A   1      39.602  30.222  32.943  1.00  0.00    -0.203 F 
ATOM     77  F   UNL A   1      35.533  32.538  30.146  1.00  0.00    -0.200 F 
ATOM     78  C   UNL A   1      36.445  31.838  32.208  1.00  0.00     0.200 A 
ATOM     79  F   UNL A   1      37.411  31.135  34.245  1.00  0.00    -0.200 F 
ATOM     80  F   UNL A   1      35.378  32.315  32.861  1.00  0.00    -0.200 F 
ENDBRANCH  46  70
BRANCH  58  81
ATOM     81  C   UNL A   1      44.884  33.689  29.326  1.00  0.00     0.064 A 
ATOM     82  C   UNL A   1      45.677  33.930  30.456  1.00  0.00     0.173 A 
ATOM     83  C   UNL A   1      44.689  34.745  28.421  1.00  0.00     0.173 A 
ATOM     84  F   UNL A   1      45.881  32.957  31.356  1.00  0.00    -0.203 F 
ATOM     85  C   UNL A   1      46.235  35.185  30.684  1.00  0.00     0.198 A 
ATOM     86  C   UNL A   1      45.271  35.990  28.637  1.00  0.00     0.198 A 
ATOM     87  F   UNL A   1      43.944  34.563  27.320  1.00  0.00    -0.203 F 
ATOM     88  F   UNL A   1      46.953  35.405  31.793  1.00  0.00    -0.200 F 
ATOM     89  C   UNL A   1      46.038  36.211  29.771  1.00  0.00     0.200 A 
ATOM     90  F   UNL A   1      45.092  36.976  27.747  1.00  0.00    -0.200 F 
ATOM     91  F   UNL A   1      46.583  37.416  29.989  1.00  0.00    -0.200 F 
ENDBRANCH  58  81
ENDBRANCH  32  33
ENDBRANCH  25  27
ENDBRANCH  24  25
ENDBRANCH  23  24
ENDBRANCH  22  23
ENDBRANCH  21  22
ENDBRANCH   1  21
TORSDOF 17
ENDMDL
MODEL 3
REMARK VINA RESULT:     -11.1      0.710      7.440
REMARK SMILES C[C@@H](C(=O)OCCOCCOC(=O)c1ccc(-c2c3nc(c(-c4c(F)c(F)c(F)c(F)c4F)c4ccc([nH]4)c(-c4c(F)c(F)c(F)c(F)c4F)c4nc(c(-c5c(F)c(F)c(F)c(F)c5F)c5ccc2[nH]5)C=C4)C=C3)cc1)c1ccc(C(=O)c2cccs2)cc1
REMARK SMILES IDX 7 1 6 2 5 3 3 4 4 5 2 6 1 7 77 8 78 9 89 10 79 11 88 12
REMARK SMILES IDX 80 13 81 14 82 15 83 16 84 17 87 18 85 19 86 20 8 21 9 22
REMARK SMILES IDX 10 23 11 24 12 25 13 26 14 27 15 28 76 29 16 30 75 31 17 32
REMARK SMILES IDX 18 33 19 34 69 35 20 36 74 37 68 38 70 39 21 40 73 41 67 42
REMARK SMILES IDX 66 43 22 45 54 46 34 47 53 48 35 49 38 50 52 51 71 52 36 53
REMARK SMILES IDX 37 54 51 56 72 57 39 58 23 59 24 60 32 61 25 62 26 63 30 64
REMARK SMILES IDX 33 65 27 66 28 67 31 68 29 69 55 70 56 71 64 72 57 73 58 74
REMARK SMILES IDX 62 75 65 76 59 77 60 78 63 79 61 80 40 81 41 82 49 83 42 84
REMARK SMILES IDX 43 85 47 86 50 87 44 88 45 89 48 90 46 91
REMARK H PARENT 70 44 38 55
REMARK Flexibility Score: inf
ROOT
ATOM      1  C   UNL A   1      33.001  27.658  26.115  1.00  0.00     0.202 C 
ENDROOT
BRANCH   1   2
ATOM      2  C   UNL A   1      33.183  26.136  26.093  1.00  0.00     0.261 C 
BRANCH   2   3
ATOM      3  O   UNL A   1      31.958  25.501  25.667  1.00  0.00    -0.463 OA
BRANCH   3   4
ATOM      4  C   UNL A   1      32.087  24.501  24.752  1.00  0.00     0.313 C 
ATOM      5  O   UNL A   1      32.219  23.318  25.046  1.00  0.00    -0.252 OA
BRANCH   4   6
ATOM      6  C   UNL A   1      32.039  25.016  23.305  1.00  0.00     0.126 C 
ATOM      7  C   UNL A   1      33.362  25.575  22.770  1.00  0.00     0.025 C 
BRANCH   6   8
ATOM      8  C   UNL A   1      30.900  26.019  23.132  1.00  0.00    -0.034 A 
ATOM      9  C   UNL A   1      29.680  25.819  23.786  1.00  0.00     0.005 A 
ATOM     10  C   UNL A   1      31.067  27.201  22.396  1.00  0.00     0.005 A 
ATOM     11  C   UNL A   1      28.671  26.787  23.729  1.00  0.00     0.012 A 
ATOM     12  C   UNL A   1      30.073  28.184  22.362  1.00  0.00     0.012 A 
ATOM     13  C   UNL A   1      28.863  27.991  23.033  1.00  0.00     0.023 A 
BRANCH  13  14
ATOM     14  C   UNL A   1      27.784  29.034  23.095  1.00  0.00     0.202 C 
ATOM     15  O   UNL A   1      26.647  28.668  23.390  1.00  0.00    -0.288 OA
BRANCH  14  16
ATOM     16  C   UNL A   1      28.115  30.428  22.857  1.00  0.00     0.075 A 
ATOM     17  C   UNL A   1      28.522  31.410  23.740  1.00  0.00     0.024 A 
ATOM     18  S   UNL A   1      28.052  31.016  21.248  1.00  0.00    -0.140 S 
ATOM     19  C   UNL A   1      28.726  32.666  23.095  1.00  0.00     0.012 A 
ATOM     20  C   UNL A   1      28.502  32.592  21.738  1.00  0.00     0.065 A 
ENDBRANCH  14  16
ENDBRANCH  13  14
ENDBRANCH   6   8
ENDBRANCH   4   6
ENDBRANCH   3   4
ENDBRANCH   2   3
ENDBRANCH   1   2
BRANCH   1  21
ATOM     21  O   UNL A   1      31.649  28.121  26.008  1.00  0.00    -0.374 OA
BRANCH  21  22
ATOM     22  C   UNL A   1      31.464  29.418  25.449  1.00  0.00     0.202 C 
BRANCH  22  23
ATOM     23  C   UNL A   1      32.553  30.448  25.761  1.00  0.00     0.261 C 
BRANCH  23  24
ATOM     24  O   UNL A   1      32.514  30.864  27.134  1.00  0.00    -0.460 OA
BRANCH  24  25
ATOM     25  C   UNL A   1      33.276  31.948  27.401  1.00  0.00     0.338 C 
ATOM     26  O   UNL A   1      32.932  33.122  27.386  1.00  0.00    -0.246 OA
BRANCH  25  27
ATOM     27  C   UNL A   1      34.598  31.526  27.892  1.00  0.00     0.060 A 
ATOM     28  C   UNL A   1      34.729  30.192  28.295  1.00  0.00     0.016 A 
ATOM     29  C   UNL A   1      35.665  32.418  28.018  1.00  0.00     0.016 A 
ATOM     30  C   UNL A   1      35.912  29.756  28.882  1.00  0.00     0.010 A 
ATOM     31  C   UNL A   1      36.852  31.980  28.614  1.00  0.00     0.010 A 
ATOM     32  C   UNL A   1      36.964  30.659  29.083  1.00  0.00    -0.014 A 
BRANCH  32  33
ATOM     33  C   UNL A   1      38.106  30.252  29.935  1.00  0.00     0.031 A 
ATOM     34  C   UNL A   1      39.127  29.303  29.370  1.00  0.00     0.074 A 
ATOM     35  C   UNL A   1      38.260  30.761  31.168  1.00  0.00     0.049 A 
ATOM     36  N   UNL A   1      40.209  28.820  29.926  1.00  0.00    -0.248 NA
ATOM     37  C   UNL A   1      38.897  28.838  27.993  1.00  0.00     0.031 C 
ATOM     38  C   UNL A   1      37.359  31.720  31.803  1.00  0.00     0.029 A 
ATOM     39  N   UNL A   1      39.236  30.540  32.107  1.00  0.00    -0.354 N 
ATOM     40  C   UNL A   1      40.785  27.994  28.969  1.00  0.00     0.074 A 
ATOM     41  C   UNL A   1      39.920  28.016  27.810  1.00  0.00     0.031 C 
ATOM     42  C   UNL A   1      37.823  32.005  33.032  1.00  0.00     0.029 A 
ATOM     43  C   UNL A   1      39.036  31.228  33.278  1.00  0.00     0.049 A 
ATOM     44  H   UNL A   1      40.006  29.946  31.955  1.00  0.00     0.167 HD
ATOM     45  C   UNL A   1      41.938  27.288  29.049  1.00  0.00     0.037 A 
ATOM     46  C   UNL A   1      39.748  31.216  34.421  1.00  0.00     0.037 A 
ATOM     47  C   UNL A   1      42.799  27.273  30.201  1.00  0.00     0.049 A 
ATOM     48  C   UNL A   1      40.991  30.368  34.508  1.00  0.00     0.074 A 
ATOM     49  C   UNL A   1      44.002  26.611  30.371  1.00  0.00     0.029 A 
ATOM     50  N   UNL A   1      42.542  27.948  31.384  1.00  0.00    -0.354 N 
ATOM     51  N   UNL A   1      41.545  29.614  33.589  1.00  0.00    -0.248 NA
ATOM     52  C   UNL A   1      41.708  30.373  35.791  1.00  0.00     0.031 C 
ATOM     53  C   UNL A   1      44.449  26.845  31.676  1.00  0.00     0.029 A 
ATOM     54  C   UNL A   1      43.549  27.695  32.301  1.00  0.00     0.049 A 
ATOM     55  H   UNL A   1      41.760  28.523  31.549  1.00  0.00     0.167 HD
ATOM     56  C   UNL A   1      42.687  29.080  34.171  1.00  0.00     0.074 A 
ATOM     57  C   UNL A   1      42.754  29.604  35.519  1.00  0.00     0.031 C 
ATOM     58  C   UNL A   1      43.601  28.232  33.637  1.00  0.00     0.037 A 
BRANCH  45  59
ATOM     59  C   UNL A   1      42.320  26.452  27.863  1.00  0.00     0.064 A 
ATOM     60  C   UNL A   1      43.223  26.914  26.895  1.00  0.00     0.173 A 
ATOM     61  C   UNL A   1      41.799  25.159  27.711  1.00  0.00     0.173 A 
ATOM     62  F   UNL A   1      43.738  28.150  26.985  1.00  0.00    -0.203 F 
ATOM     63  C   UNL A   1      43.572  26.120  25.805  1.00  0.00     0.198 A 
ATOM     64  C   UNL A   1      42.170  24.357  26.636  1.00  0.00     0.198 A 
ATOM     65  F   UNL A   1      40.932  24.670  28.611  1.00  0.00    -0.203 F 
ATOM     66  F   UNL A   1      44.403  26.597  24.868  1.00  0.00    -0.200 F 
ATOM     67  C   UNL A   1      43.051  24.841  25.680  1.00  0.00     0.200 A 
ATOM     68  F   UNL A   1      41.672  23.119  26.523  1.00  0.00    -0.200 F 
ATOM     69  F   UNL A   1      43.392  24.075  24.634  1.00  0.00    -0.200 F 
ENDBRANCH  45  59
BRANCH  46  70
ATOM     70  C   UNL A   1      39.303  32.029  35.582  1.00  0.00     0.064 A 
ATOM     71  C   UNL A   1      39.752  33.346  35.759  1.00  0.00     0.173 A 
ATOM     72  C   UNL A   1      38.433  31.502  36.547  1.00  0.00     0.173 A 
ATOM     73  F   UNL A   1      40.605  33.886  34.877  1.00  0.00    -0.203 F 
ATOM     74  C   UNL A   1      39.361  34.096  36.866  1.00  0.00     0.198 A 
ATOM     75  C   UNL A   1      38.021  32.262  37.639  1.00  0.00     0.198 A 
ATOM     76  F   UNL A   1      37.976  30.246  36.426  1.00  0.00    -0.203 F 
ATOM     77  F   UNL A   1      39.840  35.336  37.035  1.00  0.00    -0.200 F 
ATOM     78  C   UNL A   1      38.491  33.556  37.802  1.00  0.00     0.200 A 
ATOM     79  F   UNL A   1      37.173  31.740  38.536  1.00  0.00    -0.200 F 
ATOM     80  F   UNL A   1      38.114  34.279  38.865  1.00  0.00    -0.200 F 
ENDBRANCH  46  70
BRANCH  58  81
ATOM     81  C   UNL A   1      44.769  27.845  34.498  1.00  0.00     0.064 A 
ATOM     82  C   UNL A   1      45.939  28.615  34.542  1.00  0.00     0.173 A 
ATOM     83  C   UNL A   1      44.695  26.713  35.324  1.00  0.00     0.173 A 
ATOM     84  F   UNL A   1      46.063  29.699  33.760  1.00  0.00    -0.203 F 
ATOM     85  C   UNL A   1      47.003  28.253  35.362  1.00  0.00     0.198 A 
ATOM     86  C   UNL A   1      45.750  26.369  36.165  1.00  0.00     0.198 A 
ATOM     87  F   UNL A   1      43.593  25.947  35.324  1.00  0.00    -0.203 F 
ATOM     88  F   UNL A   1      48.130  28.978  35.355  1.00  0.00    -0.200 F 
ATOM     89  C   UNL A   1      46.905  27.135  36.178  1.00  0.00     0.200 A 
ATOM     90  F   UNL A   1      45.647  25.297  36.963  1.00  0.00    -0.200 F 
ATOM     91  F   UNL A   1      47.928  26.793  36.974  1.00  0.00    -0.200 F 
ENDBRANCH  58  81
ENDBRANCH  32  33
ENDBRANCH  25  27
ENDBRANCH  24  25
ENDBRANCH  23  24
ENDBRANCH  22  23
ENDBRANCH  21  22
ENDBRANCH   1  21
TORSDOF 17
ENDMDL
