MODEL 1
REMARK VINA RESULT:     -10.2      0.000      0.000
REMARK SMILES CS(=O)(=O)c1ccc(/C=C(/C(=O)OCCOCCOC(=O)c2ccc(-c3c4nc(c(-c5c(F)c(F)c(F)c(F)c5F)c5ccc([nH]5)c(-c5c(F)c(F)c(F)c(F)c5F)c5nc(c(-c6c(F)c(F)c(F)c(F)c6F)c6ccc3[nH]6)C=C5)C=C4)cc2)c2ccc(F)cc2)cc1
REMARK SMILES IDX 16 1 15 2 14 3 13 4 11 5 12 6 10 7 9 8 8 9 5 10 6 11 93 12
REMARK SMILES IDX 7 13 92 14 2 15 1 16 3 17 4 18 85 19 86 20 91 21 87 22 90 23
REMARK SMILES IDX 88 24 89 25 17 26 18 27 19 28 20 29 21 30 22 31 23 32 84 33
REMARK SMILES IDX 24 34 83 35 25 36 26 37 27 38 77 39 28 40 82 41 76 42 78 43
REMARK SMILES IDX 29 44 81 45 75 46 74 47 30 49 62 50 42 51 61 52 43 53 46 54
REMARK SMILES IDX 60 55 79 56 44 57 45 58 59 60 80 61 47 62 31 63 32 64 40 65
REMARK SMILES IDX 33 66 34 67 38 68 41 69 35 70 36 71 39 72 37 73 63 74 64 75
REMARK SMILES IDX 72 76 65 77 66 78 70 79 73 80 67 81 68 82 71 83 69 84 48 85
REMARK SMILES IDX 49 86 57 87 50 88 51 89 55 90 58 91 52 92 53 93 56 94 54 95
REMARK H PARENT 78 48 46 59
REMARK Flexibility Score: inf
ROOT
ATOM      1  O   UNL A   1      32.951  34.683  29.783  1.00  0.00    -0.374 OA
ENDROOT
BRANCH   1   2
ATOM      2  C   UNL A   1      33.384  35.744  30.636  1.00  0.00     0.202 C 
BRANCH   2   3
ATOM      3  C   UNL A   1      33.492  35.415  32.127  1.00  0.00     0.261 C 
BRANCH   3   4
ATOM      4  O   UNL A   1      34.785  34.864  32.440  1.00  0.00    -0.460 OA
BRANCH   4   5
ATOM      5  C   UNL A   1      34.815  33.509  32.531  1.00  0.00     0.338 C 
ATOM      6  O   UNL A   1      33.837  32.776  32.548  1.00  0.00    -0.246 OA
BRANCH   5   7
ATOM      7  C   UNL A   1      36.214  32.973  32.498  1.00  0.00     0.067 C 
ATOM      8  C   UNL A   1      36.582  31.983  33.346  1.00  0.00     0.024 C 
BRANCH   8   9
ATOM      9  C   UNL A   1      37.808  31.144  33.304  1.00  0.00    -0.025 A 
ATOM     10  C   UNL A   1      40.054  29.497  33.695  1.00  0.00     0.067 A 
ATOM     11  C   UNL A   1      38.982  29.036  32.936  1.00  0.00     0.021 A 
ATOM     12  C   UNL A   1      40.072  30.811  34.162  1.00  0.00     0.021 A 
ATOM     13  C   UNL A   1      37.884  29.874  32.716  1.00  0.00     0.009 A 
ATOM     14  C   UNL A   1      38.949  31.625  33.970  1.00  0.00     0.009 A 
BRANCH  10  15
ATOM     15  S   UNL A   1      41.374  28.388  34.123  1.00  0.00     0.175 S 
ATOM     16  C   UNL A   1      41.964  28.999  35.683  1.00  0.00     0.163 C 
ATOM     17  O   UNL A   1      42.415  28.570  33.131  1.00  0.00    -0.224 OA
ATOM     18  O   UNL A   1      40.788  27.084  34.370  1.00  0.00    -0.224 OA
ENDBRANCH  10  15
ENDBRANCH   8   9
BRANCH   7  19
ATOM     19  C   UNL A   1      37.083  33.518  31.439  1.00  0.00    -0.011 A 
ATOM     20  C   UNL A   1      38.145  34.371  31.789  1.00  0.00     0.012 A 
ATOM     21  C   UNL A   1      36.887  33.177  30.095  1.00  0.00     0.012 A 
ATOM     22  C   UNL A   1      39.011  34.858  30.811  1.00  0.00     0.040 A 
ATOM     23  C   UNL A   1      37.759  33.662  29.119  1.00  0.00     0.040 A 
ATOM     24  C   UNL A   1      38.812  34.495  29.486  1.00  0.00     0.123 A 
ATOM     25  F   UNL A   1      39.654  34.946  28.549  1.00  0.00    -0.207 F 
ENDBRANCH   7  19
ENDBRANCH   5   7
ENDBRANCH   4   5
ENDBRANCH   3   4
ENDBRANCH   2   3
ENDBRANCH   1   2
BRANCH   1  26
ATOM     26  C   UNL A   1      33.750  34.399  28.638  1.00  0.00     0.202 C 
BRANCH  26  27
ATOM     27  C   UNL A   1      33.629  32.994  28.038  1.00  0.00     0.261 C 
BRANCH  27  28
ATOM     28  O   UNL A   1      34.472  32.042  28.703  1.00  0.00    -0.460 OA
BRANCH  28  29
ATOM     29  C   UNL A   1      34.441  30.800  28.168  1.00  0.00     0.338 C 
ATOM     30  O   UNL A   1      33.519  30.274  27.559  1.00  0.00    -0.246 OA
BRANCH  29  31
ATOM     31  C   UNL A   1      35.774  30.182  28.261  1.00  0.00     0.060 A 
ATOM     32  C   UNL A   1      36.109  29.554  29.468  1.00  0.00     0.016 A 
ATOM     33  C   UNL A   1      36.698  30.258  27.217  1.00  0.00     0.016 A 
ATOM     34  C   UNL A   1      37.390  29.044  29.655  1.00  0.00     0.010 A 
ATOM     35  C   UNL A   1      37.987  29.754  27.410  1.00  0.00     0.010 A 
ATOM     36  C   UNL A   1      38.348  29.177  28.641  1.00  0.00    -0.014 A 
BRANCH  36  37
ATOM     37  C   UNL A   1      39.763  28.855  28.934  1.00  0.00     0.031 A 
ATOM     38  C   UNL A   1      40.595  29.858  29.685  1.00  0.00     0.074 A 
ATOM     39  C   UNL A   1      40.289  27.675  28.567  1.00  0.00     0.049 A 
ATOM     40  N   UNL A   1      41.854  29.797  30.034  1.00  0.00    -0.248 NA
ATOM     41  C   UNL A   1      39.913  31.096  30.092  1.00  0.00     0.031 C 
ATOM     42  C   UNL A   1      39.570  26.613  27.868  1.00  0.00     0.029 A 
ATOM     43  N   UNL A   1      41.557  27.177  28.729  1.00  0.00    -0.354 N 
ATOM     44  C   UNL A   1      42.114  30.987  30.702  1.00  0.00     0.074 A 
ATOM     45  C   UNL A   1      40.895  31.765  30.677  1.00  0.00     0.031 C 
ATOM     46  C   UNL A   1      40.414  25.590  27.648  1.00  0.00     0.029 A 
ATOM     47  C   UNL A   1      41.735  25.938  28.167  1.00  0.00     0.049 A 
ATOM     48  H   UNL A   1      42.271  27.662  29.203  1.00  0.00     0.167 HD
ATOM     49  C   UNL A   1      43.265  31.388  31.293  1.00  0.00     0.037 A 
ATOM     50  C   UNL A   1      42.846  25.183  28.067  1.00  0.00     0.037 A 
ATOM     51  C   UNL A   1      44.478  30.614  31.310  1.00  0.00     0.049 A 
ATOM     52  C   UNL A   1      44.132  25.679  28.673  1.00  0.00     0.074 A 
ATOM     53  C   UNL A   1      45.694  30.925  31.892  1.00  0.00     0.029 A 
ATOM     54  N   UNL A   1      44.630  29.376  30.704  1.00  0.00    -0.354 N 
ATOM     55  N   UNL A   1      44.366  26.792  29.326  1.00  0.00    -0.248 NA
ATOM     56  C   UNL A   1      45.310  24.810  28.533  1.00  0.00     0.031 C 
ATOM     57  C   UNL A   1      46.594  29.895  31.599  1.00  0.00     0.029 A 
ATOM     58  C   UNL A   1      45.926  28.919  30.877  1.00  0.00     0.049 A 
ATOM     59  H   UNL A   1      43.920  28.892  30.222  1.00  0.00     0.167 HD
ATOM     60  C   UNL A   1      45.704  26.748  29.694  1.00  0.00     0.074 A 
ATOM     61  C   UNL A   1      46.230  25.491  29.202  1.00  0.00     0.031 C 
ATOM     62  C   UNL A   1      46.432  27.664  30.379  1.00  0.00     0.037 A 
BRANCH  49  63
ATOM     63  C   UNL A   1      43.267  32.739  31.946  1.00  0.00     0.064 A 
ATOM     64  C   UNL A   1      43.184  32.885  33.339  1.00  0.00     0.173 A 
ATOM     65  C   UNL A   1      43.364  33.903  31.168  1.00  0.00     0.173 A 
ATOM     66  F   UNL A   1      43.073  31.804  34.125  1.00  0.00    -0.203 F 
ATOM     67  C   UNL A   1      43.167  34.148  33.928  1.00  0.00     0.198 A 
ATOM     68  C   UNL A   1      43.376  35.163  31.762  1.00  0.00     0.198 A 
ATOM     69  F   UNL A   1      43.448  33.820  29.833  1.00  0.00    -0.203 F 
ATOM     70  F   UNL A   1      43.033  34.264  35.255  1.00  0.00    -0.200 F 
ATOM     71  C   UNL A   1      43.268  35.284  33.140  1.00  0.00     0.200 A 
ATOM     72  F   UNL A   1      43.483  36.260  31.001  1.00  0.00    -0.200 F 
ATOM     73  F   UNL A   1      43.252  36.498  33.707  1.00  0.00    -0.200 F 
ENDBRANCH  49  63
BRANCH  50  74
ATOM     74  C   UNL A   1      42.788  23.881  27.356  1.00  0.00     0.064 A 
ATOM     75  C   UNL A   1      43.182  23.767  26.017  1.00  0.00     0.173 A 
ATOM     76  C   UNL A   1      42.342  22.721  28.007  1.00  0.00     0.173 A 
ATOM     77  F   UNL A   1      43.593  24.852  25.346  1.00  0.00    -0.203 F 
ATOM     78  C   UNL A   1      43.121  22.544  25.352  1.00  0.00     0.198 A 
ATOM     79  C   UNL A   1      42.305  21.494  27.349  1.00  0.00     0.198 A 
ATOM     80  F   UNL A   1      41.953  22.777  29.290  1.00  0.00    -0.203 F 
ATOM     81  F   UNL A   1      43.470  22.469  24.060  1.00  0.00    -0.200 F 
ATOM     82  C   UNL A   1      42.689  21.407  26.019  1.00  0.00     0.200 A 
ATOM     83  F   UNL A   1      41.901  20.397  28.002  1.00  0.00    -0.200 F 
ATOM     84  F   UNL A   1      42.640  20.230  25.381  1.00  0.00    -0.200 F 
ENDBRANCH  50  74
BRANCH  62  85
ATOM     85  C   UNL A   1      47.869  27.332  30.662  1.00  0.00     0.064 A 
ATOM     86  C   UNL A   1      48.237  26.521  31.745  1.00  0.00     0.173 A 
ATOM     87  C   UNL A   1      48.885  27.795  29.810  1.00  0.00     0.173 A 
ATOM     88  F   UNL A   1      47.305  26.067  32.595  1.00  0.00    -0.203 F 
ATOM     89  C   UNL A   1      49.573  26.205  31.980  1.00  0.00     0.198 A 
ATOM     90  C   UNL A   1      50.215  27.453  30.031  1.00  0.00     0.198 A 
ATOM     91  F   UNL A   1      48.584  28.567  28.756  1.00  0.00    -0.203 F 
ATOM     92  F   UNL A   1      49.907  25.466  33.046  1.00  0.00    -0.200 F 
ATOM     93  C   UNL A   1      50.560  26.664  31.119  1.00  0.00     0.200 A 
ATOM     94  F   UNL A   1      51.166  27.886  29.192  1.00  0.00    -0.200 F 
ATOM     95  F   UNL A   1      51.844  26.352  31.343  1.00  0.00    -0.200 F 
ENDBRANCH  62  85
ENDBRANCH  36  37
ENDBRANCH  29  31
ENDBRANCH  28  29
ENDBRANCH  27  28
ENDBRANCH  26  27
ENDBRANCH   1  26
TORSDOF 17
ENDMDL
MODEL 2
REMARK VINA RESULT:     -10.0      5.145      9.418
REMARK SMILES CS(=O)(=O)c1ccc(/C=C(/C(=O)OCCOCCOC(=O)c2ccc(-c3c4nc(c(-c5c(F)c(F)c(F)c(F)c5F)c5ccc([nH]5)c(-c5c(F)c(F)c(F)c(F)c5F)c5nc(c(-c6c(F)c(F)c(F)c(F)c6F)c6ccc3[nH]6)C=C5)C=C4)cc2)c2ccc(F)cc2)cc1
REMARK SMILES IDX 16 1 15 2 14 3 13 4 11 5 12 6 10 7 9 8 8 9 5 10 6 11 93 12
REMARK SMILES IDX 7 13 92 14 2 15 1 16 3 17 4 18 85 19 86 20 91 21 87 22 90 23
REMARK SMILES IDX 88 24 89 25 17 26 18 27 19 28 20 29 21 30 22 31 23 32 84 33
REMARK SMILES IDX 24 34 83 35 25 36 26 37 27 38 77 39 28 40 82 41 76 42 78 43
REMARK SMILES IDX 29 44 81 45 75 46 74 47 30 49 62 50 42 51 61 52 43 53 46 54
REMARK SMILES IDX 60 55 79 56 44 57 45 58 59 60 80 61 47 62 31 63 32 64 40 65
REMARK SMILES IDX 33 66 34 67 38 68 41 69 35 70 36 71 39 72 37 73 63 74 64 75
REMARK SMILES IDX 72 76 65 77 66 78 70 79 73 80 67 81 68 82 71 83 69 84 48 85
REMARK SMILES IDX 49 86 57 87 50 88 51 89 55 90 58 91 52 92 53 93 56 94 54 95
REMARK H PARENT 78 48 46 59
REMARK Flexibility Score: inf
ROOT
ATOM      1  O   UNL A   1      35.670  21.872  26.322  1.00  0.00    -0.374 OA
ENDROOT
BRANCH   1   2
ATOM      2  C   UNL A   1      34.457  21.855  27.076  1.00  0.00     0.202 C 
BRANCH   2   3
ATOM      3  C   UNL A   1      33.158  21.961  26.273  1.00  0.00     0.261 C 
BRANCH   3   4
ATOM      4  O   UNL A   1      32.976  23.295  25.762  1.00  0.00    -0.460 OA
BRANCH   4   5
ATOM      5  C   UNL A   1      31.970  23.993  26.350  1.00  0.00     0.338 C 
ATOM      6  O   UNL A   1      31.441  23.715  27.417  1.00  0.00    -0.246 OA
BRANCH   5   7
ATOM      7  C   UNL A   1      31.633  25.242  25.593  1.00  0.00     0.067 C 
ATOM      8  C   UNL A   1      30.839  25.178  24.498  1.00  0.00     0.024 C 
BRANCH   8   9
ATOM      9  C   UNL A   1      30.180  26.295  23.772  1.00  0.00    -0.025 A 
ATOM     10  C   UNL A   1      28.862  28.595  22.834  1.00  0.00     0.067 A 
ATOM     11  C   UNL A   1      30.214  28.413  22.560  1.00  0.00     0.021 A 
ATOM     12  C   UNL A   1      28.130  27.590  23.466  1.00  0.00     0.021 A 
ATOM     13  C   UNL A   1      30.854  27.250  22.998  1.00  0.00     0.009 A 
ATOM     14  C   UNL A   1      28.792  26.450  23.937  1.00  0.00     0.009 A 
BRANCH  10  15
ATOM     15  S   UNL A   1      28.079  30.139  22.431  1.00  0.00     0.175 S 
ATOM     16  C   UNL A   1      29.227  31.369  23.000  1.00  0.00     0.163 C 
ATOM     17  O   UNL A   1      26.875  30.222  23.234  1.00  0.00    -0.224 OA
ATOM     18  O   UNL A   1      28.028  30.240  20.984  1.00  0.00    -0.224 OA
ENDBRANCH  10  15
ENDBRANCH   8   9
BRANCH   7  19
ATOM     19  C   UNL A   1      32.131  26.500  26.180  1.00  0.00    -0.011 A 
ATOM     20  C   UNL A   1      33.454  26.902  25.927  1.00  0.00     0.012 A 
ATOM     21  C   UNL A   1      31.299  27.314  26.958  1.00  0.00     0.012 A 
ATOM     22  C   UNL A   1      33.932  28.112  26.429  1.00  0.00     0.040 A 
ATOM     23  C   UNL A   1      31.778  28.527  27.454  1.00  0.00     0.040 A 
ATOM     24  C   UNL A   1      33.087  28.915  27.184  1.00  0.00     0.123 A 
ATOM     25  F   UNL A   1      33.539  30.085  27.650  1.00  0.00    -0.207 F 
ENDBRANCH   7  19
ENDBRANCH   5   7
ENDBRANCH   4   5
ENDBRANCH   3   4
ENDBRANCH   2   3
ENDBRANCH   1   2
BRANCH   1  26
ATOM     26  C   UNL A   1      35.840  20.858  25.336  1.00  0.00     0.202 C 
BRANCH  26  27
ATOM     27  C   UNL A   1      37.280  20.500  24.949  1.00  0.00     0.261 C 
BRANCH  27  28
ATOM     28  O   UNL A   1      38.194  21.580  25.188  1.00  0.00    -0.460 OA
BRANCH  28  29
ATOM     29  C   UNL A   1      39.196  21.282  26.047  1.00  0.00     0.338 C 
ATOM     30  O   UNL A   1      39.707  20.188  26.245  1.00  0.00    -0.246 OA
BRANCH  29  31
ATOM     31  C   UNL A   1      39.743  22.521  26.625  1.00  0.00     0.060 A 
ATOM     32  C   UNL A   1      39.213  23.734  26.165  1.00  0.00     0.016 A 
ATOM     33  C   UNL A   1      40.785  22.506  27.555  1.00  0.00     0.016 A 
ATOM     34  C   UNL A   1      39.759  24.939  26.594  1.00  0.00     0.010 A 
ATOM     35  C   UNL A   1      41.339  23.717  27.977  1.00  0.00     0.010 A 
ATOM     36  C   UNL A   1      40.852  24.936  27.472  1.00  0.00    -0.014 A 
BRANCH  36  37
ATOM     37  C   UNL A   1      41.577  26.200  27.731  1.00  0.00     0.031 A 
ATOM     38  C   UNL A   1      40.881  27.293  28.492  1.00  0.00     0.074 A 
ATOM     39  C   UNL A   1      42.846  26.359  27.323  1.00  0.00     0.049 A 
ATOM     40  N   UNL A   1      41.312  28.484  28.817  1.00  0.00    -0.248 NA
ATOM     41  C   UNL A   1      39.512  27.002  28.945  1.00  0.00     0.031 C 
ATOM     42  C   UNL A   1      43.635  25.358  26.609  1.00  0.00     0.029 A 
ATOM     43  N   UNL A   1      43.694  27.431  27.449  1.00  0.00    -0.354 N 
ATOM     44  C   UNL A   1      40.269  29.084  29.512  1.00  0.00     0.074 A 
ATOM     45  C   UNL A   1      39.172  28.141  29.530  1.00  0.00     0.031 C 
ATOM     46  C   UNL A   1      44.850  25.868  26.346  1.00  0.00     0.029 A 
ATOM     47  C   UNL A   1      44.914  27.239  26.850  1.00  0.00     0.049 A 
ATOM     48  H   UNL A   1      43.450  28.259  27.922  1.00  0.00     0.167 HD
ATOM     49  C   UNL A   1      40.236  30.307  30.093  1.00  0.00     0.037 A 
ATOM     50  C   UNL A   1      45.953  28.082  26.710  1.00  0.00     0.037 A 
ATOM     51  C   UNL A   1      41.327  31.245  30.067  1.00  0.00     0.049 A 
ATOM     52  C   UNL A   1      45.868  29.463  27.306  1.00  0.00     0.074 A 
ATOM     53  C   UNL A   1      41.398  32.505  30.635  1.00  0.00     0.029 A 
ATOM     54  N   UNL A   1      42.537  31.027  29.426  1.00  0.00    -0.354 N 
ATOM     55  N   UNL A   1      44.891  30.014  27.984  1.00  0.00    -0.248 NA
ATOM     56  C   UNL A   1      47.035  30.338  27.121  1.00  0.00     0.031 C 
ATOM     57  C   UNL A   1      42.634  33.066  30.298  1.00  0.00     0.029 A 
ATOM     58  C   UNL A   1      43.353  32.137  29.562  1.00  0.00     0.049 A 
ATOM     59  H   UNL A   1      42.780  30.202  28.944  1.00  0.00     0.167 HD
ATOM     60  C   UNL A   1      45.330  31.286  28.326  1.00  0.00     0.074 A 
ATOM     61  C   UNL A   1      46.670  31.422  27.792  1.00  0.00     0.031 C 
ATOM     62  C   UNL A   1      44.685  32.255  29.023  1.00  0.00     0.037 A 
BRANCH  49  63
ATOM     63  C   UNL A   1      38.963  30.705  30.781  1.00  0.00     0.064 A 
ATOM     64  C   UNL A   1      37.865  31.208  30.067  1.00  0.00     0.173 A 
ATOM     65  C   UNL A   1      38.836  30.571  32.172  1.00  0.00     0.173 A 
ATOM     66  F   UNL A   1      37.941  31.370  28.738  1.00  0.00    -0.203 F 
ATOM     67  C   UNL A   1      36.697  31.591  30.724  1.00  0.00     0.198 A 
ATOM     68  C   UNL A   1      37.658  30.928  32.822  1.00  0.00     0.198 A 
ATOM     69  F   UNL A   1      39.855  30.093  32.902  1.00  0.00    -0.203 F 
ATOM     70  F   UNL A   1      35.682  32.118  30.028  1.00  0.00    -0.200 F 
ATOM     71  C   UNL A   1      36.593  31.446  32.099  1.00  0.00     0.200 A 
ATOM     72  F   UNL A   1      37.554  30.778  34.150  1.00  0.00    -0.200 F 
ATOM     73  F   UNL A   1      35.470  31.814  32.730  1.00  0.00    -0.200 F 
ENDBRANCH  49  63
BRANCH  50  74
ATOM     74  C   UNL A   1      47.161  27.644  25.966  1.00  0.00     0.064 A 
ATOM     75  C   UNL A   1      47.218  27.715  24.568  1.00  0.00     0.173 A 
ATOM     76  C   UNL A   1      48.287  27.150  26.641  1.00  0.00     0.173 A 
ATOM     77  F   UNL A   1      46.158  28.158  23.877  1.00  0.00    -0.203 F 
ATOM     78  C   UNL A   1      48.351  27.297  23.873  1.00  0.00     0.198 A 
ATOM     79  C   UNL A   1      49.429  26.757  25.947  1.00  0.00     0.198 A 
ATOM     80  F   UNL A   1      48.283  27.062  27.980  1.00  0.00    -0.203 F 
ATOM     81  F   UNL A   1      48.367  27.341  22.534  1.00  0.00    -0.200 F 
ATOM     82  C   UNL A   1      49.458  26.825  24.563  1.00  0.00     0.200 A 
ATOM     83  F   UNL A   1      50.500  26.315  26.619  1.00  0.00    -0.200 F 
ATOM     84  F   UNL A   1      50.551  26.432  23.894  1.00  0.00    -0.200 F 
ENDBRANCH  50  74
BRANCH  62  85
ATOM     85  C   UNL A   1      45.426  33.536  29.270  1.00  0.00     0.064 A 
ATOM     86  C   UNL A   1      45.315  34.630  28.399  1.00  0.00     0.173 A 
ATOM     87  C   UNL A   1      46.222  33.686  30.417  1.00  0.00     0.173 A 
ATOM     88  F   UNL A   1      44.579  34.532  27.283  1.00  0.00    -0.203 F 
ATOM     89  C   UNL A   1      45.993  35.820  28.656  1.00  0.00     0.198 A 
ATOM     90  C   UNL A   1      46.874  34.886  30.685  1.00  0.00     0.198 A 
ATOM     91  F   UNL A   1      46.355  32.672  31.285  1.00  0.00    -0.203 F 
ATOM     92  F   UNL A   1      45.908  36.837  27.788  1.00  0.00    -0.200 F 
ATOM     93  C   UNL A   1      46.765  35.949  29.802  1.00  0.00     0.200 A 
ATOM     94  F   UNL A   1      47.609  35.014  31.798  1.00  0.00    -0.200 F 
ATOM     95  F   UNL A   1      47.410  37.098  30.050  1.00  0.00    -0.200 F 
ENDBRANCH  62  85
ENDBRANCH  36  37
ENDBRANCH  29  31
ENDBRANCH  28  29
ENDBRANCH  27  28
ENDBRANCH  26  27
ENDBRANCH   1  26
TORSDOF 17
ENDMDL
MODEL 3
REMARK VINA RESULT:      -9.8      0.406      7.244
REMARK SMILES CS(=O)(=O)c1ccc(/C=C(/C(=O)OCCOCCOC(=O)c2ccc(-c3c4nc(c(-c5c(F)c(F)c(F)c(F)c5F)c5ccc([nH]5)c(-c5c(F)c(F)c(F)c(F)c5F)c5nc(c(-c6c(F)c(F)c(F)c(F)c6F)c6ccc3[nH]6)C=C5)C=C4)cc2)c2ccc(F)cc2)cc1
REMARK SMILES IDX 16 1 15 2 14 3 13 4 11 5 12 6 10 7 9 8 8 9 5 10 6 11 93 12
REMARK SMILES IDX 7 13 92 14 2 15 1 16 3 17 4 18 85 19 86 20 91 21 87 22 90 23
REMARK SMILES IDX 88 24 89 25 17 26 18 27 19 28 20 29 21 30 22 31 23 32 84 33
REMARK SMILES IDX 24 34 83 35 25 36 26 37 27 38 77 39 28 40 82 41 76 42 78 43
REMARK SMILES IDX 29 44 81 45 75 46 74 47 30 49 62 50 42 51 61 52 43 53 46 54
REMARK SMILES IDX 60 55 79 56 44 57 45 58 59 60 80 61 47 62 31 63 32 64 40 65
REMARK SMILES IDX 33 66 34 67 38 68 41 69 35 70 36 71 39 72 37 73 63 74 64 75
REMARK SMILES IDX 72 76 65 77 66 78 70 79 73 80 67 81 68 82 71 83 69 84 48 85
REMARK SMILES IDX 49 86 57 87 50 88 51 89 55 90 58 91 52 92 53 93 56 94 54 95
REMARK H PARENT 78 48 46 59
REMARK Flexibility Score: inf
ROOT
ATOM      1  O   UNL A   1      33.013  34.436  29.614  1.00  0.00    -0.374 OA
ENDROOT
BRANCH   1   2
ATOM      2  C   UNL A   1      33.459  35.558  30.377  1.00  0.00     0.202 C 
BRANCH   2   3
ATOM      3  C   UNL A   1      33.488  35.377  31.897  1.00  0.00     0.261 C 
BRANCH   3   4
ATOM      4  O   UNL A   1      34.760  34.858  32.330  1.00  0.00    -0.460 OA
BRANCH   4   5
ATOM      5  C   UNL A   1      34.791  33.512  32.503  1.00  0.00     0.338 C 
ATOM      6  O   UNL A   1      33.814  32.781  32.573  1.00  0.00    -0.246 OA
BRANCH   5   7
ATOM      7  C   UNL A   1      36.190  32.975  32.489  1.00  0.00     0.067 C 
ATOM      8  C   UNL A   1      36.547  31.987  33.344  1.00  0.00     0.024 C 
BRANCH   8   9
ATOM      9  C   UNL A   1      37.773  31.147  33.321  1.00  0.00    -0.025 A 
ATOM     10  C   UNL A   1      40.025  29.518  33.749  1.00  0.00     0.067 A 
ATOM     11  C   UNL A   1      38.944  29.027  33.024  1.00  0.00     0.021 A 
ATOM     12  C   UNL A   1      40.048  30.850  34.162  1.00  0.00     0.021 A 
ATOM     13  C   UNL A   1      37.843  29.854  32.783  1.00  0.00     0.009 A 
ATOM     14  C   UNL A   1      38.922  31.655  33.951  1.00  0.00     0.009 A 
BRANCH  10  15
ATOM     15  S   UNL A   1      41.352  28.428  34.204  1.00  0.00     0.175 S 
ATOM     16  C   UNL A   1      41.811  28.961  35.835  1.00  0.00     0.163 C 
ATOM     17  O   UNL A   1      42.451  28.702  33.301  1.00  0.00    -0.224 OA
ATOM     18  O   UNL A   1      40.797  27.093  34.333  1.00  0.00    -0.224 OA
ENDBRANCH  10  15
ENDBRANCH   8   9
BRANCH   7  19
ATOM     19  C   UNL A   1      37.073  33.516  31.439  1.00  0.00    -0.011 A 
ATOM     20  C   UNL A   1      38.079  34.434  31.790  1.00  0.00     0.012 A 
ATOM     21  C   UNL A   1      36.946  33.108  30.106  1.00  0.00     0.012 A 
ATOM     22  C   UNL A   1      38.958  34.922  30.824  1.00  0.00     0.040 A 
ATOM     23  C   UNL A   1      37.831  33.594  29.142  1.00  0.00     0.040 A 
ATOM     24  C   UNL A   1      38.828  34.492  29.510  1.00  0.00     0.123 A 
ATOM     25  F   UNL A   1      39.684  34.944  28.585  1.00  0.00    -0.207 F 
ENDBRANCH   7  19
ENDBRANCH   5   7
ENDBRANCH   4   5
ENDBRANCH   3   4
ENDBRANCH   2   3
ENDBRANCH   1   2
BRANCH   1  26
ATOM     26  C   UNL A   1      33.805  34.053  28.493  1.00  0.00     0.202 C 
BRANCH  26  27
ATOM     27  C   UNL A   1      33.651  32.611  27.993  1.00  0.00     0.261 C 
BRANCH  27  28
ATOM     28  O   UNL A   1      34.507  31.697  28.692  1.00  0.00    -0.460 OA
BRANCH  28  29
ATOM     29  C   UNL A   1      34.611  30.478  28.115  1.00  0.00     0.338 C 
ATOM     30  O   UNL A   1      33.772  29.901  27.437  1.00  0.00    -0.246 OA
BRANCH  29  31
ATOM     31  C   UNL A   1      35.985  29.971  28.262  1.00  0.00     0.060 A 
ATOM     32  C   UNL A   1      36.328  29.389  29.490  1.00  0.00     0.016 A 
ATOM     33  C   UNL A   1      36.935  30.104  27.247  1.00  0.00     0.016 A 
ATOM     34  C   UNL A   1      37.638  28.987  29.728  1.00  0.00     0.010 A 
ATOM     35  C   UNL A   1      38.253  29.707  27.491  1.00  0.00     0.010 A 
ATOM     36  C   UNL A   1      38.617  29.181  28.743  1.00  0.00    -0.014 A 
BRANCH  36  37
ATOM     37  C   UNL A   1      40.042  28.977  29.088  1.00  0.00     0.031 A 
ATOM     38  C   UNL A   1      40.721  27.710  28.650  1.00  0.00     0.074 A 
ATOM     39  C   UNL A   1      40.729  29.921  29.752  1.00  0.00     0.049 A 
ATOM     40  N   UNL A   1      41.950  27.312  28.854  1.00  0.00    -0.248 NA
ATOM     41  C   UNL A   1      39.899  26.763  27.881  1.00  0.00     0.031 C 
ATOM     42  C   UNL A   1      40.188  31.203  30.195  1.00  0.00     0.029 A 
ATOM     43  N   UNL A   1      42.035  29.941  30.172  1.00  0.00    -0.354 N 
ATOM     44  C   UNL A   1      42.049  26.070  28.238  1.00  0.00     0.074 A 
ATOM     45  C   UNL A   1      40.747  25.764  27.686  1.00  0.00     0.031 C 
ATOM     46  C   UNL A   1      41.152  31.882  30.840  1.00  0.00     0.029 A 
ATOM     47  C   UNL A   1      42.368  31.071  30.876  1.00  0.00     0.049 A 
ATOM     48  H   UNL A   1      42.673  29.213  29.987  1.00  0.00     0.167 HD
ATOM     49  C   UNL A   1      43.133  25.265  28.134  1.00  0.00     0.037 A 
ATOM     50  C   UNL A   1      43.517  31.400  31.495  1.00  0.00     0.037 A 
ATOM     51  C   UNL A   1      44.424  25.570  28.691  1.00  0.00     0.049 A 
ATOM     52  C   UNL A   1      44.690  30.457  31.423  1.00  0.00     0.074 A 
ATOM     53  C   UNL A   1      45.589  24.826  28.630  1.00  0.00     0.029 A 
ATOM     54  N   UNL A   1      44.715  26.711  29.423  1.00  0.00    -0.354 N 
ATOM     55  N   UNL A   1      44.785  29.299  30.818  1.00  0.00    -0.248 NA
ATOM     56  C   UNL A   1      45.917  30.872  32.117  1.00  0.00     0.031 C 
ATOM     57  C   UNL A   1      46.573  25.496  29.365  1.00  0.00     0.029 A 
ATOM     58  C   UNL A   1      46.035  26.681  29.842  1.00  0.00     0.049 A 
ATOM     59  H   UNL A   1      44.077  27.436  29.617  1.00  0.00     0.167 HD
ATOM     60  C   UNL A   1      46.084  28.857  31.036  1.00  0.00     0.074 A 
ATOM     61  C   UNL A   1      46.745  29.880  31.820  1.00  0.00     0.031 C 
ATOM     62  C   UNL A   1      46.677  27.709  30.623  1.00  0.00     0.037 A 
BRANCH  49  63
ATOM     63  C   UNL A   1      42.952  23.962  27.410  1.00  0.00     0.064 A 
ATOM     64  C   UNL A   1      42.457  22.821  28.060  1.00  0.00     0.173 A 
ATOM     65  C   UNL A   1      43.267  23.858  26.047  1.00  0.00     0.173 A 
ATOM     66  F   UNL A   1      42.157  22.865  29.366  1.00  0.00    -0.203 F 
ATOM     67  C   UNL A   1      42.314  21.614  27.378  1.00  0.00     0.198 A 
ATOM     68  C   UNL A   1      43.096  22.658  25.362  1.00  0.00     0.198 A 
ATOM     69  F   UNL A   1      43.741  24.919  25.379  1.00  0.00    -0.203 F 
ATOM     70  F   UNL A   1      41.891  20.524  28.031  1.00  0.00    -0.200 F 
ATOM     71  C   UNL A   1      42.628  21.536  26.029  1.00  0.00     0.200 A 
ATOM     72  F   UNL A   1      43.390  22.585  24.057  1.00  0.00    -0.200 F 
ATOM     73  F   UNL A   1      42.490  20.374  25.375  1.00  0.00    -0.200 F 
ENDBRANCH  49  63
BRANCH  50  74
ATOM     74  C   UNL A   1      43.610  32.679  32.243  1.00  0.00     0.064 A 
ATOM     75  C   UNL A   1      43.448  32.719  33.634  1.00  0.00     0.173 A 
ATOM     76  C   UNL A   1      43.867  33.888  31.580  1.00  0.00     0.173 A 
ATOM     77  F   UNL A   1      43.178  31.594  34.309  1.00  0.00    -0.203 F 
ATOM     78  C   UNL A   1      43.530  33.923  34.332  1.00  0.00     0.198 A 
ATOM     79  C   UNL A   1      43.974  35.086  32.281  1.00  0.00     0.198 A 
ATOM     80  F   UNL A   1      44.029  33.903  30.248  1.00  0.00    -0.203 F 
ATOM     81  F   UNL A   1      43.337  33.939  35.658  1.00  0.00    -0.200 F 
ATOM     82  C   UNL A   1      43.800  35.104  33.657  1.00  0.00     0.200 A 
ATOM     83  F   UNL A   1      44.248  36.222  31.626  1.00  0.00    -0.200 F 
ATOM     84  F   UNL A   1      43.887  36.259  34.330  1.00  0.00    -0.200 F 
ENDBRANCH  50  74
BRANCH  62  85
ATOM     85  C   UNL A   1      48.119  27.509  30.987  1.00  0.00     0.064 A 
ATOM     86  C   UNL A   1      49.157  27.987  30.173  1.00  0.00     0.173 A 
ATOM     87  C   UNL A   1      48.466  26.868  32.187  1.00  0.00     0.173 A 
ATOM     88  F   UNL A   1      48.877  28.593  29.010  1.00  0.00    -0.203 F 
ATOM     89  C   UNL A   1      50.490  27.811  30.537  1.00  0.00     0.198 A 
ATOM     90  C   UNL A   1      49.798  26.720  32.561  1.00  0.00     0.198 A 
ATOM     91  F   UNL A   1      47.511  26.399  33.003  1.00  0.00    -0.203 F 
ATOM     92  F   UNL A   1      51.465  28.237  29.724  1.00  0.00    -0.200 F 
ATOM     93  C   UNL A   1      50.809  27.185  31.734  1.00  0.00     0.200 A 
ATOM     94  F   UNL A   1      50.105  26.127  33.723  1.00  0.00    -0.200 F 
ATOM     95  F   UNL A   1      52.092  27.024  32.085  1.00  0.00    -0.200 F 
ENDBRANCH  62  85
ENDBRANCH  36  37
ENDBRANCH  29  31
ENDBRANCH  28  29
ENDBRANCH  27  28
ENDBRANCH  26  27
ENDBRANCH   1  26
TORSDOF 17
ENDMDL
