MODEL 1
REMARK VINA RESULT:     -12.4      0.000      0.000
REMARK SMILES O=C(OCCOCCOC(=O)c1ccc(-c2c3nc(c(-c4c(F)c(F)c(F)c(F)c4F)c4ccc([nH]4)c(-c4c(F)c(F)c(F)c(F)c4F)c4nc(c(-c5c(F)c(F)c(F)c(F)c5F)c5ccc2[nH]5)C=C4)C=C3)cc1)C1=Cc2cc(S(F)(F)(F)(F)F)ccc2O[C@@H]1C(F)(F)F
REMARK SMILES IDX 7 1 6 2 5 3 4 4 3 5 2 6 1 7 75 8 76 9 90 10 77 11 89 12
REMARK SMILES IDX 78 13 88 14 79 15 87 16 86 17 91 18 92 19 93 20 94 21 80 22
REMARK SMILES IDX 81 23 82 24 83 25 84 26 85 27 8 28 9 29 10 30 11 31 12 32
REMARK SMILES IDX 13 33 74 34 14 35 73 36 15 37 16 38 17 39 67 40 18 41 72 42
REMARK SMILES IDX 66 43 68 44 19 45 71 46 65 47 64 48 20 50 52 51 32 52 51 53
REMARK SMILES IDX 33 54 36 55 50 56 69 57 34 58 35 59 49 61 70 62 37 63 21 64
REMARK SMILES IDX 22 65 30 66 23 67 24 68 28 69 31 70 25 71 26 72 29 73 27 74
REMARK SMILES IDX 53 75 54 76 62 77 55 78 56 79 60 80 63 81 57 82 58 83 61 84
REMARK SMILES IDX 59 85 38 86 39 87 47 88 40 89 41 90 45 91 48 92 42 93 43 94
REMARK SMILES IDX 46 95 44 96
REMARK H PARENT 68 49 36 60
REMARK Flexibility Score: inf
ROOT
ATOM      1  C   UNL A   1      32.317  31.044  26.545  1.00  0.00     0.202 C 
ENDROOT
BRANCH   1   2
ATOM      2  O   UNL A   1      32.907  30.246  27.561  1.00  0.00    -0.374 OA
BRANCH   2   3
ATOM      3  C   UNL A   1      34.212  29.854  27.157  1.00  0.00     0.202 C 
BRANCH   3   4
ATOM      4  C   UNL A   1      34.122  28.591  26.315  1.00  0.00     0.261 C 
BRANCH   4   5
ATOM      5  O   UNL A   1      33.280  27.649  26.963  1.00  0.00    -0.460 OA
BRANCH   5   6
ATOM      6  C   UNL A   1      31.990  27.371  26.438  1.00  0.00     0.338 C 
ATOM      7  O   UNL A   1      31.006  27.206  27.225  1.00  0.00    -0.246 OA
BRANCH   6   8
ATOM      8  C   UNL A   1      31.787  27.270  24.935  1.00  0.00     0.087 C 
ATOM      9  C   UNL A   1      32.318  26.225  24.245  1.00  0.00     0.027 C 
ATOM     10  C   UNL A   1      30.989  28.337  24.203  1.00  0.00     0.316 C 
ATOM     11  C   UNL A   1      33.114  25.158  24.977  1.00  0.00     0.019 A 
ATOM     12  O   UNL A   1      31.380  25.260  26.598  1.00  0.00    -0.475 OA
ATOM     13  C   UNL A   1      34.371  24.755  24.553  1.00  0.00     0.036 A 
ATOM     14  C   UNL A   1      32.594  24.707  26.112  1.00  0.00     0.128 A 
ATOM     15  C   UNL A   1      34.884  23.642  25.259  1.00  0.00     0.107 A 
ATOM     16  C   UNL A   1      33.221  23.712  26.823  1.00  0.00     0.048 A 
ATOM     17  C   UNL A   1      34.436  23.224  26.429  1.00  0.00     0.028 A 
BRANCH  10  18
ATOM     18  C   UNL A   1      29.789  27.698  23.525  1.00  0.00     0.430 C 
ATOM     19  F   UNL A   1      30.139  27.273  22.314  1.00  0.00    -0.167 F 
ATOM     20  F   UNL A   1      29.366  26.667  24.250  1.00  0.00    -0.167 F 
ATOM     21  F   UNL A   1      28.812  28.593  23.415  1.00  0.00    -0.167 F 
ENDBRANCH  10  18
BRANCH  15  22
ATOM     22  S   UNL A   1      36.253  22.727  24.506  1.00  0.00     0.310 S 
ATOM     23  F   UNL A   1      36.000  23.372  23.079  1.00  0.00    -0.094 F 
ATOM     24  F   UNL A   1      35.243  21.590  24.094  1.00  0.00    -0.094 F 
ATOM     25  F   UNL A   1      37.437  21.943  23.874  1.00  0.00    -0.094 F 
ATOM     26  F   UNL A   1      37.223  23.937  24.802  1.00  0.00    -0.094 F 
ATOM     27  F   UNL A   1      35.041  23.584  25.049  1.00  0.00    -0.094 F 
ENDBRANCH  15  22
ENDBRANCH   6   8
ENDBRANCH   5   6
ENDBRANCH   4   5
ENDBRANCH   3   4
ENDBRANCH   2   3
ENDBRANCH   1   2
BRANCH   1  28
ATOM     28  C   UNL A   1      31.538  32.183  27.183  1.00  0.00     0.261 C 
BRANCH  28  29
ATOM     29  O   UNL A   1      32.238  33.404  26.989  1.00  0.00    -0.460 OA
BRANCH  29  30
ATOM     30  C   UNL A   1      32.941  33.999  28.069  1.00  0.00     0.338 C 
ATOM     31  O   UNL A   1      32.452  35.009  28.667  1.00  0.00    -0.246 OA
BRANCH  30  32
ATOM     32  C   UNL A   1      34.280  33.429  28.511  1.00  0.00     0.060 A 
ATOM     33  C   UNL A   1      35.481  33.829  27.952  1.00  0.00     0.016 A 
ATOM     34  C   UNL A   1      34.246  32.629  29.571  1.00  0.00     0.016 A 
ATOM     35  C   UNL A   1      36.601  33.094  28.411  1.00  0.00     0.010 A 
ATOM     36  C   UNL A   1      35.396  32.052  30.048  1.00  0.00     0.010 A 
ATOM     37  C   UNL A   1      36.614  32.357  29.505  1.00  0.00    -0.014 A 
BRANCH  37  38
ATOM     38  C   UNL A   1      37.913  31.872  30.129  1.00  0.00     0.031 A 
ATOM     39  C   UNL A   1      38.471  30.722  29.567  1.00  0.00     0.074 A 
ATOM     40  C   UNL A   1      38.388  32.480  31.278  1.00  0.00     0.049 A 
ATOM     41  N   UNL A   1      39.538  30.044  29.992  1.00  0.00    -0.248 NA
ATOM     42  C   UNL A   1      37.946  30.055  28.366  1.00  0.00     0.031 C 
ATOM     43  C   UNL A   1      37.836  33.645  31.846  1.00  0.00     0.029 A 
ATOM     44  N   UNL A   1      39.448  32.089  32.065  1.00  0.00    -0.354 N 
ATOM     45  C   UNL A   1      39.778  29.010  29.184  1.00  0.00     0.074 A 
ATOM     46  C   UNL A   1      38.755  28.998  28.131  1.00  0.00     0.031 C 
ATOM     47  C   UNL A   1      38.546  33.945  32.967  1.00  0.00     0.029 A 
ATOM     48  C   UNL A   1      39.553  32.973  33.117  1.00  0.00     0.049 A 
ATOM     49  H   UNL A   1      40.030  31.311  31.905  1.00  0.00     0.167 HD
ATOM     50  C   UNL A   1      40.812  28.078  29.283  1.00  0.00     0.037 A 
ATOM     51  C   UNL A   1      40.468  32.949  34.158  1.00  0.00     0.037 A 
ATOM     52  C   UNL A   1      41.753  28.079  30.300  1.00  0.00     0.049 A 
ATOM     53  C   UNL A   1      41.467  31.982  34.290  1.00  0.00     0.074 A 
ATOM     54  C   UNL A   1      42.806  27.151  30.411  1.00  0.00     0.029 A 
ATOM     55  N   UNL A   1      41.844  28.949  31.365  1.00  0.00    -0.354 N 
ATOM     56  N   UNL A   1      41.731  30.971  33.459  1.00  0.00    -0.248 NA
ATOM     57  C   UNL A   1      42.421  31.928  35.405  1.00  0.00     0.031 C 
ATOM     58  C   UNL A   1      43.516  27.451  31.532  1.00  0.00     0.029 A 
ATOM     59  C   UNL A   1      42.918  28.570  32.140  1.00  0.00     0.049 A 
ATOM     60  H   UNL A   1      41.243  29.709  31.542  1.00  0.00     0.167 HD
ATOM     61  C   UNL A   1      42.774  30.269  33.909  1.00  0.00     0.074 A 
ATOM     62  C   UNL A   1      43.228  30.870  35.170  1.00  0.00     0.031 C 
ATOM     63  C   UNL A   1      43.367  29.153  33.314  1.00  0.00     0.037 A 
BRANCH  50  64
ATOM     64  C   UNL A   1      40.911  27.000  28.217  1.00  0.00     0.064 A 
ATOM     65  C   UNL A   1      40.267  25.783  28.368  1.00  0.00     0.173 A 
ATOM     66  C   UNL A   1      41.762  27.209  27.219  1.00  0.00     0.173 A 
ATOM     67  F   UNL A   1      39.231  25.606  29.183  1.00  0.00    -0.203 F 
ATOM     68  C   UNL A   1      40.812  24.743  27.577  1.00  0.00     0.198 A 
ATOM     69  C   UNL A   1      42.147  26.175  26.399  1.00  0.00     0.198 A 
ATOM     70  F   UNL A   1      42.248  28.429  27.012  1.00  0.00    -0.203 F 
ATOM     71  F   UNL A   1      40.513  23.491  27.909  1.00  0.00    -0.200 F 
ATOM     72  C   UNL A   1      41.596  24.931  26.531  1.00  0.00     0.200 A 
ATOM     73  F   UNL A   1      43.069  26.388  25.465  1.00  0.00    -0.200 F 
ATOM     74  F   UNL A   1      41.836  23.962  25.652  1.00  0.00    -0.200 F 
ENDBRANCH  50  64
BRANCH  51  75
ATOM     75  C   UNL A   1      40.379  34.037  35.215  1.00  0.00     0.064 A 
ATOM     76  C   UNL A   1      39.739  33.879  36.434  1.00  0.00     0.173 A 
ATOM     77  C   UNL A   1      41.082  35.129  34.944  1.00  0.00     0.173 A 
ATOM     78  F   UNL A   1      39.244  32.716  36.848  1.00  0.00    -0.203 F 
ATOM     79  C   UNL A   1      39.661  35.067  37.199  1.00  0.00     0.198 A 
ATOM     80  C   UNL A   1      41.068  36.203  35.802  1.00  0.00     0.198 A 
ATOM     81  F   UNL A   1      41.806  35.187  33.829  1.00  0.00    -0.203 F 
ATOM     82  F   UNL A   1      38.774  35.108  38.188  1.00  0.00    -0.200 F 
ATOM     83  C   UNL A   1      40.406  36.138  36.997  1.00  0.00     0.200 A 
ATOM     84  F   UNL A   1      41.706  37.319  35.465  1.00  0.00    -0.200 F 
ATOM     85  F   UNL A   1      40.510  37.102  37.908  1.00  0.00    -0.200 F 
ENDBRANCH  51  75
BRANCH  63  86
ATOM     86  C   UNL A   1      44.579  28.541  33.997  1.00  0.00     0.064 A 
ATOM     87  C   UNL A   1      45.863  29.015  33.782  1.00  0.00     0.173 A 
ATOM     88  C   UNL A   1      44.337  27.584  34.885  1.00  0.00     0.173 A 
ATOM     89  F   UNL A   1      46.121  30.128  33.101  1.00  0.00    -0.203 F 
ATOM     90  C   UNL A   1      46.875  28.207  34.353  1.00  0.00     0.198 A 
ATOM     91  C   UNL A   1      45.373  26.929  35.508  1.00  0.00     0.198 A 
ATOM     92  F   UNL A   1      43.081  27.257  35.177  1.00  0.00    -0.203 F 
ATOM     93  F   UNL A   1      48.119  28.367  33.909  1.00  0.00    -0.200 F 
ATOM     94  C   UNL A   1      46.670  27.306  35.297  1.00  0.00     0.200 A 
ATOM     95  F   UNL A   1      45.110  25.915  36.325  1.00  0.00    -0.200 F 
ATOM     96  F   UNL A   1      47.674  26.792  36.003  1.00  0.00    -0.200 F 
ENDBRANCH  63  86
ENDBRANCH  37  38
ENDBRANCH  30  32
ENDBRANCH  29  30
ENDBRANCH  28  29
ENDBRANCH   1  28
TORSDOF 16
ENDMDL
MODEL 2
REMARK VINA RESULT:     -12.3      0.982      1.619
REMARK SMILES O=C(OCCOCCOC(=O)c1ccc(-c2c3nc(c(-c4c(F)c(F)c(F)c(F)c4F)c4ccc([nH]4)c(-c4c(F)c(F)c(F)c(F)c4F)c4nc(c(-c5c(F)c(F)c(F)c(F)c5F)c5ccc2[nH]5)C=C4)C=C3)cc1)C1=Cc2cc(S(F)(F)(F)(F)F)ccc2O[C@@H]1C(F)(F)F
REMARK SMILES IDX 7 1 6 2 5 3 4 4 3 5 2 6 1 7 75 8 76 9 90 10 77 11 89 12
REMARK SMILES IDX 78 13 88 14 79 15 87 16 86 17 91 18 92 19 93 20 94 21 80 22
REMARK SMILES IDX 81 23 82 24 83 25 84 26 85 27 8 28 9 29 10 30 11 31 12 32
REMARK SMILES IDX 13 33 74 34 14 35 73 36 15 37 16 38 17 39 67 40 18 41 72 42
REMARK SMILES IDX 66 43 68 44 19 45 71 46 65 47 64 48 20 50 52 51 32 52 51 53
REMARK SMILES IDX 33 54 36 55 50 56 69 57 34 58 35 59 49 61 70 62 37 63 21 64
REMARK SMILES IDX 22 65 30 66 23 67 24 68 28 69 31 70 25 71 26 72 29 73 27 74
REMARK SMILES IDX 53 75 54 76 62 77 55 78 56 79 60 80 63 81 57 82 58 83 61 84
REMARK SMILES IDX 59 85 38 86 39 87 47 88 40 89 41 90 45 91 48 92 42 93 43 94
REMARK SMILES IDX 46 95 44 96
REMARK H PARENT 68 49 36 60
REMARK Flexibility Score: inf
ROOT
ATOM      1  C   UNL A   1      32.360  31.311  26.471  1.00  0.00     0.202 C 
ENDROOT
BRANCH   1   2
ATOM      2  O   UNL A   1      32.678  30.221  27.323  1.00  0.00    -0.374 OA
BRANCH   2   3
ATOM      3  C   UNL A   1      34.043  29.866  27.150  1.00  0.00     0.202 C 
BRANCH   3   4
ATOM      4  C   UNL A   1      34.135  28.590  26.330  1.00  0.00     0.261 C 
BRANCH   4   5
ATOM      5  O   UNL A   1      33.316  27.590  26.917  1.00  0.00    -0.460 OA
BRANCH   5   6
ATOM      6  C   UNL A   1      32.014  27.346  26.403  1.00  0.00     0.338 C 
ATOM      7  O   UNL A   1      31.028  27.239  27.197  1.00  0.00    -0.246 OA
BRANCH   6   8
ATOM      8  C   UNL A   1      31.801  27.215  24.904  1.00  0.00     0.087 C 
ATOM      9  C   UNL A   1      32.320  26.151  24.234  1.00  0.00     0.027 C 
ATOM     10  C   UNL A   1      31.008  28.272  24.153  1.00  0.00     0.316 C 
ATOM     11  C   UNL A   1      33.112  25.093  24.985  1.00  0.00     0.019 A 
ATOM     12  O   UNL A   1      31.388  25.245  26.613  1.00  0.00    -0.475 OA
ATOM     13  C   UNL A   1      34.362  24.670  24.563  1.00  0.00     0.036 A 
ATOM     14  C   UNL A   1      32.594  24.672  26.133  1.00  0.00     0.128 A 
ATOM     15  C   UNL A   1      34.871  23.569  25.290  1.00  0.00     0.107 A 
ATOM     16  C   UNL A   1      33.218  23.687  26.861  1.00  0.00     0.048 A 
ATOM     17  C   UNL A   1      34.427  23.181  26.471  1.00  0.00     0.028 A 
BRANCH  10  18
ATOM     18  C   UNL A   1      29.799  27.628  23.496  1.00  0.00     0.430 C 
ATOM     19  F   UNL A   1      28.874  28.555  23.265  1.00  0.00    -0.167 F 
ATOM     20  F   UNL A   1      30.164  27.070  22.345  1.00  0.00    -0.167 F 
ATOM     21  F   UNL A   1      29.300  26.695  24.303  1.00  0.00    -0.167 F 
ENDBRANCH  10  18
BRANCH  15  22
ATOM     22  S   UNL A   1      36.228  22.626  24.549  1.00  0.00     0.310 S 
ATOM     23  F   UNL A   1      35.992  23.265  23.117  1.00  0.00    -0.094 F 
ATOM     24  F   UNL A   1      35.201  21.503  24.141  1.00  0.00    -0.094 F 
ATOM     25  F   UNL A   1      37.401  21.818  23.928  1.00  0.00    -0.094 F 
ATOM     26  F   UNL A   1      37.216  23.822  24.841  1.00  0.00    -0.094 F 
ATOM     27  F   UNL A   1      35.027  23.507  25.081  1.00  0.00    -0.094 F 
ENDBRANCH  15  22
ENDBRANCH   6   8
ENDBRANCH   5   6
ENDBRANCH   4   5
ENDBRANCH   3   4
ENDBRANCH   2   3
ENDBRANCH   1   2
BRANCH   1  28
ATOM     28  C   UNL A   1      31.572  32.351  27.251  1.00  0.00     0.261 C 
BRANCH  28  29
ATOM     29  O   UNL A   1      32.165  33.629  27.070  1.00  0.00    -0.460 OA
BRANCH  29  30
ATOM     30  C   UNL A   1      32.920  34.217  28.119  1.00  0.00     0.338 C 
ATOM     31  O   UNL A   1      32.529  35.301  28.654  1.00  0.00    -0.246 OA
BRANCH  30  32
ATOM     32  C   UNL A   1      34.199  33.550  28.601  1.00  0.00     0.060 A 
ATOM     33  C   UNL A   1      35.456  33.985  28.220  1.00  0.00     0.016 A 
ATOM     34  C   UNL A   1      34.046  32.613  29.530  1.00  0.00     0.016 A 
ATOM     35  C   UNL A   1      36.511  33.159  28.675  1.00  0.00     0.010 A 
ATOM     36  C   UNL A   1      35.134  31.940  30.029  1.00  0.00     0.010 A 
ATOM     37  C   UNL A   1      36.404  32.278  29.652  1.00  0.00    -0.014 A 
BRANCH  37  38
ATOM     38  C   UNL A   1      37.627  31.671  30.322  1.00  0.00     0.031 A 
ATOM     39  C   UNL A   1      38.308  30.698  29.588  1.00  0.00     0.074 A 
ATOM     40  C   UNL A   1      37.912  31.988  31.639  1.00  0.00     0.049 A 
ATOM     41  N   UNL A   1      39.337  29.950  29.988  1.00  0.00    -0.248 NA
ATOM     42  C   UNL A   1      37.983  30.336  28.200  1.00  0.00     0.031 C 
ATOM     43  C   UNL A   1      37.236  32.975  32.383  1.00  0.00     0.029 A 
ATOM     44  N   UNL A   1      38.872  31.430  32.453  1.00  0.00    -0.354 N 
ATOM     45  C   UNL A   1      39.732  29.145  28.999  1.00  0.00     0.074 A 
ATOM     46  C   UNL A   1      38.863  29.377  27.838  1.00  0.00     0.031 C 
ATOM     47  C   UNL A   1      37.771  33.002  33.632  1.00  0.00     0.029 A 
ATOM     48  C   UNL A   1      38.792  32.034  33.689  1.00  0.00     0.049 A 
ATOM     49  H   UNL A   1      39.506  30.721  32.197  1.00  0.00     0.167 HD
ATOM     50  C   UNL A   1      40.784  28.228  29.020  1.00  0.00     0.037 A 
ATOM     51  C   UNL A   1      39.557  31.769  34.814  1.00  0.00     0.037 A 
ATOM     52  C   UNL A   1      41.577  27.994  30.133  1.00  0.00     0.049 A 
ATOM     53  C   UNL A   1      40.572  30.810  34.854  1.00  0.00     0.074 A 
ATOM     54  C   UNL A   1      42.646  27.078  30.169  1.00  0.00     0.029 A 
ATOM     55  N   UNL A   1      41.481  28.581  31.376  1.00  0.00    -0.354 N 
ATOM     56  N   UNL A   1      40.992  30.034  33.853  1.00  0.00    -0.248 NA
ATOM     57  C   UNL A   1      41.365  30.498  36.049  1.00  0.00     0.031 C 
ATOM     58  C   UNL A   1      43.182  27.106  31.419  1.00  0.00     0.029 A 
ATOM     59  C   UNL A   1      42.456  28.038  32.184  1.00  0.00     0.049 A 
ATOM     60  H   UNL A   1      40.829  29.269  31.641  1.00  0.00     0.167 HD
ATOM     61  C   UNL A   1      41.995  29.256  34.267  1.00  0.00     0.074 A 
ATOM     62  C   UNL A   1      42.244  29.538  35.687  1.00  0.00     0.031 C 
ATOM     63  C   UNL A   1      42.714  28.324  33.516  1.00  0.00     0.037 A 
BRANCH  50  64
ATOM     64  C   UNL A   1      41.077  27.442  27.754  1.00  0.00     0.064 A 
ATOM     65  C   UNL A   1      40.499  26.203  27.531  1.00  0.00     0.173 A 
ATOM     66  C   UNL A   1      42.025  27.913  26.952  1.00  0.00     0.173 A 
ATOM     67  F   UNL A   1      39.387  25.801  28.141  1.00  0.00    -0.203 F 
ATOM     68  C   UNL A   1      41.197  25.403  26.596  1.00  0.00     0.198 A 
ATOM     69  C   UNL A   1      42.568  27.121  25.970  1.00  0.00     0.198 A 
ATOM     70  F   UNL A   1      42.452  29.163  27.101  1.00  0.00    -0.203 F 
ATOM     71  F   UNL A   1      40.942  24.098  26.585  1.00  0.00    -0.200 F 
ATOM     72  C   UNL A   1      42.086  25.863  25.734  1.00  0.00     0.200 A 
ATOM     73  F   UNL A   1      43.579  27.582  25.240  1.00  0.00    -0.200 F 
ATOM     74  F   UNL A   1      42.490  25.142  24.692  1.00  0.00    -0.200 F 
ENDBRANCH  50  64
BRANCH  51  75
ATOM     75  C   UNL A   1      39.274  32.567  36.077  1.00  0.00     0.064 A 
ATOM     76  C   UNL A   1      38.384  32.168  37.060  1.00  0.00     0.173 A 
ATOM     77  C   UNL A   1      40.051  33.631  36.242  1.00  0.00     0.173 A 
ATOM     78  F   UNL A   1      37.777  30.984  37.052  1.00  0.00    -0.203 F 
ATOM     79  C   UNL A   1      38.178  33.134  38.073  1.00  0.00     0.198 A 
ATOM     80  C   UNL A   1      39.885  34.458  37.327  1.00  0.00     0.198 A 
ATOM     81  F   UNL A   1      40.999  33.900  35.347  1.00  0.00    -0.203 F 
ATOM     82  F   UNL A   1      37.101  33.005  38.842  1.00  0.00    -0.200 F 
ATOM     83  C   UNL A   1      38.981  34.156  38.307  1.00  0.00     0.200 A 
ATOM     84  F   UNL A   1      40.613  35.566  37.424  1.00  0.00    -0.200 F 
ATOM     85  F   UNL A   1      38.915  34.855  39.438  1.00  0.00    -0.200 F 
ENDBRANCH  51  75
BRANCH  63  86
ATOM     86  C   UNL A   1      43.848  27.578  34.199  1.00  0.00     0.064 A 
ATOM     87  C   UNL A   1      43.662  26.344  34.801  1.00  0.00     0.173 A 
ATOM     88  C   UNL A   1      45.054  28.128  34.112  1.00  0.00     0.173 A 
ATOM     89  F   UNL A   1      42.536  25.646  34.690  1.00  0.00    -0.203 F 
ATOM     90  C   UNL A   1      44.779  25.894  35.543  1.00  0.00     0.198 A 
ATOM     91  C   UNL A   1      46.130  27.559  34.751  1.00  0.00     0.198 A 
ATOM     92  F   UNL A   1      45.223  29.238  33.399  1.00  0.00    -0.203 F 
ATOM     93  F   UNL A   1      44.582  24.924  36.431  1.00  0.00    -0.200 F 
ATOM     94  C   UNL A   1      46.005  26.370  35.414  1.00  0.00     0.200 A 
ATOM     95  F   UNL A   1      47.308  28.174  34.725  1.00  0.00    -0.200 F 
ATOM     96  F   UNL A   1      47.061  25.726  35.904  1.00  0.00    -0.200 F 
ENDBRANCH  63  86
ENDBRANCH  37  38
ENDBRANCH  30  32
ENDBRANCH  29  30
ENDBRANCH  28  29
ENDBRANCH   1  28
TORSDOF 16
ENDMDL
MODEL 3
REMARK VINA RESULT:     -12.3      1.062      1.665
REMARK SMILES O=C(OCCOCCOC(=O)c1ccc(-c2c3nc(c(-c4c(F)c(F)c(F)c(F)c4F)c4ccc([nH]4)c(-c4c(F)c(F)c(F)c(F)c4F)c4nc(c(-c5c(F)c(F)c(F)c(F)c5F)c5ccc2[nH]5)C=C4)C=C3)cc1)C1=Cc2cc(S(F)(F)(F)(F)F)ccc2O[C@@H]1C(F)(F)F
REMARK SMILES IDX 7 1 6 2 5 3 4 4 3 5 2 6 1 7 75 8 76 9 90 10 77 11 89 12
REMARK SMILES IDX 78 13 88 14 79 15 87 16 86 17 91 18 92 19 93 20 94 21 80 22
REMARK SMILES IDX 81 23 82 24 83 25 84 26 85 27 8 28 9 29 10 30 11 31 12 32
REMARK SMILES IDX 13 33 74 34 14 35 73 36 15 37 16 38 17 39 67 40 18 41 72 42
REMARK SMILES IDX 66 43 68 44 19 45 71 46 65 47 64 48 20 50 52 51 32 52 51 53
REMARK SMILES IDX 33 54 36 55 50 56 69 57 34 58 35 59 49 61 70 62 37 63 21 64
REMARK SMILES IDX 22 65 30 66 23 67 24 68 28 69 31 70 25 71 26 72 29 73 27 74
REMARK SMILES IDX 53 75 54 76 62 77 55 78 56 79 60 80 63 81 57 82 58 83 61 84
REMARK SMILES IDX 59 85 38 86 39 87 47 88 40 89 41 90 45 91 48 92 42 93 43 94
REMARK SMILES IDX 46 95 44 96
REMARK H PARENT 68 49 36 60
REMARK Flexibility Score: inf
ROOT
ATOM      1  C   UNL A   1      32.337  31.092  26.529  1.00  0.00     0.202 C 
ENDROOT
BRANCH   1   2
ATOM      2  O   UNL A   1      32.877  30.287  27.567  1.00  0.00    -0.374 OA
BRANCH   2   3
ATOM      3  C   UNL A   1      34.183  29.861  27.205  1.00  0.00     0.202 C 
BRANCH   3   4
ATOM      4  C   UNL A   1      34.087  28.620  26.333  1.00  0.00     0.261 C 
BRANCH   4   5
ATOM      5  O   UNL A   1      33.267  27.654  26.972  1.00  0.00    -0.460 OA
BRANCH   5   6
ATOM      6  C   UNL A   1      32.006  27.312  26.415  1.00  0.00     0.338 C 
ATOM      7  O   UNL A   1      31.005  27.122  27.175  1.00  0.00    -0.246 OA
BRANCH   6   8
ATOM      8  C   UNL A   1      31.853  27.175  24.909  1.00  0.00     0.087 C 
ATOM      9  C   UNL A   1      32.381  26.099  24.267  1.00  0.00     0.027 C 
ATOM     10  C   UNL A   1      31.108  28.241  24.121  1.00  0.00     0.316 C 
ATOM     11  C   UNL A   1      33.124  25.033  25.055  1.00  0.00     0.019 A 
ATOM     12  O   UNL A   1      31.337  25.223  26.610  1.00  0.00    -0.475 OA
ATOM     13  C   UNL A   1      34.384  24.588  24.687  1.00  0.00     0.036 A 
ATOM     14  C   UNL A   1      32.553  24.627  26.183  1.00  0.00     0.128 A 
ATOM     15  C   UNL A   1      34.845  23.484  25.441  1.00  0.00     0.107 A 
ATOM     16  C   UNL A   1      33.130  23.637  26.941  1.00  0.00     0.048 A 
ATOM     17  C   UNL A   1      34.346  23.109  26.604  1.00  0.00     0.028 A 
BRANCH  10  18
ATOM     18  C   UNL A   1      29.917  27.612  23.418  1.00  0.00     0.430 C 
ATOM     19  F   UNL A   1      30.305  27.115  22.247  1.00  0.00    -0.167 F 
ATOM     20  F   UNL A   1      29.422  26.635  24.171  1.00  0.00    -0.167 F 
ATOM     21  F   UNL A   1      28.981  28.536  23.218  1.00  0.00    -0.167 F 
ENDBRANCH  10  18
BRANCH  15  22
ATOM     22  S   UNL A   1      36.215  22.515  24.761  1.00  0.00     0.310 S 
ATOM     23  F   UNL A   1      36.740  23.729  23.885  1.00  0.00    -0.094 F 
ATOM     24  F   UNL A   1      35.305  22.116  23.539  1.00  0.00    -0.094 F 
ATOM     25  F   UNL A   1      37.394  21.675  24.193  1.00  0.00    -0.094 F 
ATOM     26  F   UNL A   1      37.155  23.037  25.917  1.00  0.00    -0.094 F 
ATOM     27  F   UNL A   1      35.064  23.462  25.288  1.00  0.00    -0.094 F 
ENDBRANCH  15  22
ENDBRANCH   6   8
ENDBRANCH   5   6
ENDBRANCH   4   5
ENDBRANCH   3   4
ENDBRANCH   2   3
ENDBRANCH   1   2
BRANCH   1  28
ATOM     28  C   UNL A   1      31.525  32.224  27.137  1.00  0.00     0.261 C 
BRANCH  28  29
ATOM     29  O   UNL A   1      32.229  33.448  26.981  1.00  0.00    -0.460 OA
BRANCH  29  30
ATOM     30  C   UNL A   1      32.949  33.997  28.074  1.00  0.00     0.338 C 
ATOM     31  O   UNL A   1      32.532  35.053  28.645  1.00  0.00    -0.246 OA
BRANCH  30  32
ATOM     32  C   UNL A   1      34.222  33.322  28.561  1.00  0.00     0.060 A 
ATOM     33  C   UNL A   1      35.462  33.576  28.001  1.00  0.00     0.016 A 
ATOM     34  C   UNL A   1      34.099  32.581  29.657  1.00  0.00     0.016 A 
ATOM     35  C   UNL A   1      36.499  32.760  28.510  1.00  0.00     0.010 A 
ATOM     36  C   UNL A   1      35.184  31.919  30.178  1.00  0.00     0.010 A 
ATOM     37  C   UNL A   1      36.430  32.078  29.638  1.00  0.00    -0.014 A 
BRANCH  37  38
ATOM     38  C   UNL A   1      37.670  31.500  30.302  1.00  0.00     0.031 A 
ATOM     39  C   UNL A   1      38.369  30.542  29.566  1.00  0.00     0.074 A 
ATOM     40  C   UNL A   1      37.955  31.825  31.617  1.00  0.00     0.049 A 
ATOM     41  N   UNL A   1      39.417  29.818  29.962  1.00  0.00    -0.248 NA
ATOM     42  C   UNL A   1      38.046  30.171  28.180  1.00  0.00     0.031 C 
ATOM     43  C   UNL A   1      37.260  32.797  32.364  1.00  0.00     0.029 A 
ATOM     44  N   UNL A   1      38.931  31.290  32.428  1.00  0.00    -0.354 N 
ATOM     45  C   UNL A   1      39.826  29.022  28.972  1.00  0.00     0.074 A 
ATOM     46  C   UNL A   1      38.946  29.232  27.815  1.00  0.00     0.031 C 
ATOM     47  C   UNL A   1      37.801  32.838  33.611  1.00  0.00     0.029 A 
ATOM     48  C   UNL A   1      38.844  31.893  33.663  1.00  0.00     0.049 A 
ATOM     49  H   UNL A   1      39.580  30.595  32.169  1.00  0.00     0.167 HD
ATOM     50  C   UNL A   1      40.899  28.129  28.988  1.00  0.00     0.037 A 
ATOM     51  C   UNL A   1      39.620  31.647  34.785  1.00  0.00     0.037 A 
ATOM     52  C   UNL A   1      41.702  27.914  30.097  1.00  0.00     0.049 A 
ATOM     53  C   UNL A   1      40.657  30.712  34.820  1.00  0.00     0.074 A 
ATOM     54  C   UNL A   1      42.792  27.023  30.129  1.00  0.00     0.029 A 
ATOM     55  N   UNL A   1      41.600  28.500  31.340  1.00  0.00    -0.354 N 
ATOM     56  N   UNL A   1      41.090  29.944  33.818  1.00  0.00    -0.248 NA
ATOM     57  C   UNL A   1      41.464  30.419  36.011  1.00  0.00     0.031 C 
ATOM     58  C   UNL A   1      43.334  27.065  31.376  1.00  0.00     0.029 A 
ATOM     59  C   UNL A   1      42.591  27.980  32.144  1.00  0.00     0.049 A 
ATOM     60  H   UNL A   1      40.933  29.173  31.607  1.00  0.00     0.167 HD
ATOM     61  C   UNL A   1      42.112  29.190  34.228  1.00  0.00     0.074 A 
ATOM     62  C   UNL A   1      42.363  29.479  35.646  1.00  0.00     0.031 C 
ATOM     63  C   UNL A   1      42.849  28.274  33.473  1.00  0.00     0.037 A 
BRANCH  50  64
ATOM     64  C   UNL A   1      41.203  27.348  27.721  1.00  0.00     0.064 A 
ATOM     65  C   UNL A   1      40.707  26.069  27.532  1.00  0.00     0.173 A 
ATOM     66  C   UNL A   1      42.087  27.875  26.881  1.00  0.00     0.173 A 
ATOM     67  F   UNL A   1      39.648  25.597  28.186  1.00  0.00    -0.203 F 
ATOM     68  C   UNL A   1      41.428  25.308  26.582  1.00  0.00     0.198 A 
ATOM     69  C   UNL A   1      42.651  27.109  25.889  1.00  0.00     0.198 A 
ATOM     70  F   UNL A   1      42.429  29.154  27.001  1.00  0.00    -0.203 F 
ATOM     71  F   UNL A   1      41.266  23.988  26.595  1.00  0.00    -0.200 F 
ATOM     72  C   UNL A   1      42.252  25.817  25.684  1.00  0.00     0.200 A 
ATOM     73  F   UNL A   1      43.601  27.631  25.119  1.00  0.00    -0.200 F 
ATOM     74  F   UNL A   1      42.670  25.113  24.637  1.00  0.00    -0.200 F 
ENDBRANCH  50  64
BRANCH  51  75
ATOM     75  C   UNL A   1      39.326  32.440  36.048  1.00  0.00     0.064 A 
ATOM     76  C   UNL A   1      39.875  33.681  36.326  1.00  0.00     0.173 A 
ATOM     77  C   UNL A   1      38.387  31.913  36.824  1.00  0.00     0.173 A 
ATOM     78  F   UNL A   1      40.621  34.356  35.456  1.00  0.00    -0.203 F 
ATOM     79  C   UNL A   1      39.570  34.165  37.621  1.00  0.00     0.198 A 
ATOM     80  C   UNL A   1      38.042  32.512  38.012  1.00  0.00     0.198 A 
ATOM     81  F   UNL A   1      37.774  30.793  36.449  1.00  0.00    -0.203 F 
ATOM     82  F   UNL A   1      40.324  35.146  38.108  1.00  0.00    -0.200 F 
ATOM     83  C   UNL A   1      38.589  33.710  38.378  1.00  0.00     0.200 A 
ATOM     84  F   UNL A   1      37.164  31.919  38.815  1.00  0.00    -0.200 F 
ATOM     85  F   UNL A   1      38.155  34.382  39.442  1.00  0.00    -0.200 F 
ENDBRANCH  51  75
BRANCH  63  86
ATOM     86  C   UNL A   1      44.003  27.555  34.152  1.00  0.00     0.064 A 
ATOM     87  C   UNL A   1      45.264  28.120  34.255  1.00  0.00     0.173 A 
ATOM     88  C   UNL A   1      43.720  26.392  34.727  1.00  0.00     0.173 A 
ATOM     89  F   UNL A   1      45.524  29.381  33.920  1.00  0.00    -0.203 F 
ATOM     90  C   UNL A   1      46.250  27.233  34.748  1.00  0.00     0.198 A 
ATOM     91  C   UNL A   1      44.711  25.640  35.311  1.00  0.00     0.198 A 
ATOM     92  F   UNL A   1      42.466  25.950  34.738  1.00  0.00    -0.203 F 
ATOM     93  F   UNL A   1      47.526  27.553  34.546  1.00  0.00    -0.200 F 
ATOM     94  C   UNL A   1      45.993  26.111  35.395  1.00  0.00     0.200 A 
ATOM     95  F   UNL A   1      44.421  24.439  35.800  1.00  0.00    -0.200 F 
ATOM     96  F   UNL A   1      46.930  25.472  36.090  1.00  0.00    -0.200 F 
ENDBRANCH  63  86
ENDBRANCH  37  38
ENDBRANCH  30  32
ENDBRANCH  29  30
ENDBRANCH  28  29
ENDBRANCH   1  28
TORSDOF 16
ENDMDL
