MODEL 1
REMARK VINA RESULT:     -12.2      0.000      0.000
REMARK SMILES O=C(N[C@@H](Cc1ccc(O)cc1)C(=O)N[C@@H](Cc1c[nH]c2ccccc12)C(=O)N[C@@H](CO)C(=O)OCCOCCOC(=O)c1ccc(-c2c3nc(c(-c4c(F)c(F)c(F)c(F)c4F)c4ccc([nH]4)c(-c4c(F)c(F)c(F)c(F)c4F)c4nc(c(-c5c(F)c(F)c(F)c(F)c5F)c5ccc2[nH]5)C=C4)C=C3)cc1)c1ccc(F)cc1
REMARK SMILES IDX 36 1 35 2 33 3 34 4 30 5 29 6 27 7 28 8 16 10 15 11 13 12
REMARK SMILES IDX 14 13 4 15 3 16 1 17 2 18 107 20 108 21 113 22 109 23 112 24
REMARK SMILES IDX 110 25 111 26 5 27 6 28 7 29 12 30 8 31 11 32 9 33 10 34
REMARK SMILES IDX 17 36 18 37 19 38 26 39 20 40 21 41 25 42 22 44 24 45 23 46
REMARK SMILES IDX 31 47 32 48 37 50 38 51 39 52 40 53 41 54 42 55 43 56 44 57
REMARK SMILES IDX 45 58 106 59 46 60 105 61 47 62 48 63 49 64 99 65 50 66
REMARK SMILES IDX 104 67 98 68 100 69 51 70 103 71 97 72 96 73 52 75 84 76
REMARK SMILES IDX 64 77 83 78 65 79 68 80 82 81 101 82 66 83 67 84 81 86
REMARK SMILES IDX 102 87 69 88 53 89 54 90 62 91 55 92 56 93 60 94 63 95 57 96
REMARK SMILES IDX 58 97 61 98 59 99 85 100 86 101 94 102 87 103 88 104 92 105
REMARK SMILES IDX 95 106 89 107 90 108 93 109 91 110 70 111 71 112 79 113
REMARK SMILES IDX 72 114 73 115 77 116 80 117 74 118 75 119 78 120 76 121
REMARK H PARENT 29 9 15 14 3 19 10 35 20 43 32 49 100 74 68 85
REMARK Flexibility Score: inf
ROOT
ATOM      1  C   UNL A   1      40.879  21.637  26.475  1.00  0.00     0.261 C 
ENDROOT
BRANCH   1   2
ATOM      2  O   UNL A   1      39.485  21.535  26.804  1.00  0.00    -0.462 OA
BRANCH   2   3
ATOM      3  C   UNL A   1      38.627  21.514  25.739  1.00  0.00     0.331 C 
ATOM      4  O   UNL A   1      38.236  20.489  25.190  1.00  0.00    -0.250 OA
BRANCH   3   5
ATOM      5  C   UNL A   1      38.215  22.936  25.291  1.00  0.00     0.218 C 
BRANCH   5   6
ATOM      6  N   UNL A   1      37.319  22.936  24.122  1.00  0.00    -0.339 N 
ATOM      7  C   UNL A   1      35.976  22.704  24.048  1.00  0.00     0.243 C 
ATOM      8  O   UNL A   1      35.335  23.418  23.264  1.00  0.00    -0.273 OA
ATOM      9  H   UNL A   1      37.756  23.134  23.262  1.00  0.00     0.164 HD
BRANCH   7  10
ATOM     10  C   UNL A   1      35.212  21.658  24.894  1.00  0.00     0.175 C 
BRANCH  10  11
ATOM     11  N   UNL A   1      34.846  22.100  26.237  1.00  0.00    -0.342 N 
ATOM     12  C   UNL A   1      33.904  22.985  26.666  1.00  0.00     0.243 C 
ATOM     13  O   UNL A   1      33.724  23.021  27.891  1.00  0.00    -0.273 OA
ATOM     14  H   UNL A   1      35.373  21.686  26.958  1.00  0.00     0.164 HD
BRANCH  12  15
ATOM     15  C   UNL A   1      32.982  23.821  25.736  1.00  0.00     0.176 C 
BRANCH  15  16
ATOM     16  N   UNL A   1      32.228  23.074  24.721  1.00  0.00    -0.340 N 
ATOM     17  O   UNL A   1      31.029  22.703  22.861  1.00  0.00    -0.269 OA
ATOM     18  C   UNL A   1      31.673  23.499  23.539  1.00  0.00     0.251 C 
ATOM     19  H   UNL A   1      32.098  22.119  24.921  1.00  0.00     0.164 HD
BRANCH  18  20
ATOM     20  C   UNL A   1      31.749  24.916  23.119  1.00  0.00     0.040 A 
ATOM     21  C   UNL A   1      32.924  25.485  22.613  1.00  0.00     0.017 A 
ATOM     22  C   UNL A   1      30.587  25.691  23.236  1.00  0.00     0.017 A 
ATOM     23  C   UNL A   1      32.957  26.850  22.317  1.00  0.00     0.040 A 
ATOM     24  C   UNL A   1      30.620  27.050  22.922  1.00  0.00     0.040 A 
ATOM     25  C   UNL A   1      31.810  27.620  22.483  1.00  0.00     0.123 A 
ATOM     26  F   UNL A   1      31.852  28.931  22.213  1.00  0.00    -0.207 F 
ENDBRANCH  18  20
ENDBRANCH  15  16
BRANCH  15  27
ATOM     27  C   UNL A   1      32.136  24.874  26.480  1.00  0.00     0.070 C 
BRANCH  27  28
ATOM     28  C   UNL A   1      32.431  26.324  26.203  1.00  0.00    -0.045 A 
ATOM     29  C   UNL A   1      31.417  27.284  26.357  1.00  0.00     0.007 A 
ATOM     30  C   UNL A   1      33.715  26.740  25.820  1.00  0.00     0.007 A 
ATOM     31  C   UNL A   1      31.670  28.630  26.099  1.00  0.00     0.046 A 
ATOM     32  C   UNL A   1      33.964  28.087  25.547  1.00  0.00     0.046 A 
ATOM     33  C   UNL A   1      32.929  29.011  25.662  1.00  0.00     0.115 A 
BRANCH  33  34
ATOM     34  O   UNL A   1      33.105  30.302  25.257  1.00  0.00    -0.508 OA
ATOM     35  H   UNL A   1      32.623  30.632  24.524  1.00  0.00     0.293 HD
ENDBRANCH  33  34
ENDBRANCH  27  28
ENDBRANCH  15  27
ENDBRANCH  12  15
ENDBRANCH  10  11
BRANCH  10  36
ATOM     36  C   UNL A   1      34.097  20.882  24.154  1.00  0.00     0.072 C 
BRANCH  36  37
ATOM     37  C   UNL A   1      33.505  19.708  24.874  1.00  0.00    -0.020 A 
ATOM     38  C   UNL A   1      32.814  19.768  26.068  1.00  0.00     0.087 A 
ATOM     39  C   UNL A   1      33.539  18.325  24.500  1.00  0.00     0.003 A 
ATOM     40  N   UNL A   1      32.604  18.492  26.517  1.00  0.00    -0.361 N 
ATOM     41  C   UNL A   1      33.101  17.594  25.606  1.00  0.00     0.046 A 
ATOM     42  C   UNL A   1      34.013  17.616  23.377  1.00  0.00     0.010 A 
ATOM     43  H   UNL A   1      32.163  18.256  27.364  1.00  0.00     0.166 HD
ATOM     44  C   UNL A   1      33.221  16.202  25.691  1.00  0.00     0.026 A 
ATOM     45  C   UNL A   1      34.154  16.226  23.451  1.00  0.00     0.001 A 
ATOM     46  C   UNL A   1      33.789  15.536  24.603  1.00  0.00     0.002 A 
ENDBRANCH  36  37
ENDBRANCH  10  36
ENDBRANCH   7  10
ENDBRANCH   5   6
BRANCH   5  47
ATOM     47  C   UNL A   1      37.616  23.665  26.495  1.00  0.00     0.193 C 
BRANCH  47  48
ATOM     48  O   UNL A   1      38.631  24.107  27.394  1.00  0.00    -0.394 OA
ATOM     49  H   UNL A   1      38.662  23.516  28.163  1.00  0.00     0.210 HD
ENDBRANCH  47  48
ENDBRANCH   5  47
ENDBRANCH   3   5
ENDBRANCH   2   3
ENDBRANCH   1   2
BRANCH   1  50
ATOM     50  C   UNL A   1      41.550  20.285  26.175  1.00  0.00     0.202 C 
BRANCH  50  51
ATOM     51  O   UNL A   1      42.755  20.293  25.417  1.00  0.00    -0.374 OA
BRANCH  51  52
ATOM     52  C   UNL A   1      43.628  21.410  25.612  1.00  0.00     0.202 C 
BRANCH  52  53
ATOM     53  C   UNL A   1      43.933  22.298  24.401  1.00  0.00     0.261 C 
BRANCH  53  54
ATOM     54  O   UNL A   1      43.393  23.622  24.575  1.00  0.00    -0.460 OA
BRANCH  54  55
ATOM     55  C   UNL A   1      44.176  24.455  25.286  1.00  0.00     0.338 C 
ATOM     56  O   UNL A   1      45.388  24.629  25.171  1.00  0.00    -0.246 OA
BRANCH  55  57
ATOM     57  C   UNL A   1      43.343  25.322  26.126  1.00  0.00     0.060 A 
ATOM     58  C   UNL A   1      43.570  26.704  26.056  1.00  0.00     0.016 A 
ATOM     59  C   UNL A   1      42.441  24.786  27.044  1.00  0.00     0.016 A 
ATOM     60  C   UNL A   1      42.937  27.556  26.954  1.00  0.00     0.010 A 
ATOM     61  C   UNL A   1      41.819  25.641  27.956  1.00  0.00     0.010 A 
ATOM     62  C   UNL A   1      42.101  27.020  27.941  1.00  0.00    -0.014 A 
BRANCH  62  63
ATOM     63  C   UNL A   1      41.698  27.866  29.085  1.00  0.00     0.031 A 
ATOM     64  C   UNL A   1      42.494  27.768  30.357  1.00  0.00     0.074 A 
ATOM     65  C   UNL A   1      40.657  28.708  28.986  1.00  0.00     0.049 A 
ATOM     66  N   UNL A   1      42.284  28.336  31.515  1.00  0.00    -0.248 NA
ATOM     67  C   UNL A   1      43.690  26.910  30.315  1.00  0.00     0.031 C 
ATOM     68  C   UNL A   1      39.853  28.919  27.785  1.00  0.00     0.029 A 
ATOM     69  N   UNL A   1      40.091  29.534  29.924  1.00  0.00    -0.354 N 
ATOM     70  C   UNL A   1      43.309  27.892  32.341  1.00  0.00     0.074 A 
ATOM     71  C   UNL A   1      44.134  26.998  31.560  1.00  0.00     0.031 C 
ATOM     72  C   UNL A   1      38.877  29.801  28.066  1.00  0.00     0.029 A 
ATOM     73  C   UNL A   1      38.970  30.184  29.474  1.00  0.00     0.049 A 
ATOM     74  H   UNL A   1      40.455  29.650  30.832  1.00  0.00     0.167 HD
ATOM     75  C   UNL A   1      43.539  28.207  33.637  1.00  0.00     0.037 A 
ATOM     76  C   UNL A   1      38.102  30.971  30.138  1.00  0.00     0.037 A 
ATOM     77  C   UNL A   1      42.714  29.099  34.403  1.00  0.00     0.049 A 
ATOM     78  C   UNL A   1      38.345  31.257  31.598  1.00  0.00     0.074 A 
ATOM     79  C   UNL A   1      42.860  29.496  35.722  1.00  0.00     0.029 A 
ATOM     80  N   UNL A   1      41.579  29.732  33.916  1.00  0.00    -0.354 N 
ATOM     81  N   UNL A   1      39.321  30.845  32.372  1.00  0.00    -0.248 NA
ATOM     82  C   UNL A   1      37.365  32.115  32.279  1.00  0.00     0.031 C 
ATOM     83  C   UNL A   1      41.790  30.337  36.042  1.00  0.00     0.029 A 
ATOM     84  C   UNL A   1      41.004  30.502  34.912  1.00  0.00     0.049 A 
ATOM     85  H   UNL A   1      41.236  29.647  32.998  1.00  0.00     0.167 HD
ATOM     86  C   UNL A   1      39.092  31.416  33.616  1.00  0.00     0.074 A 
ATOM     87  C   UNL A   1      37.886  32.209  33.495  1.00  0.00     0.031 C 
ATOM     88  C   UNL A   1      39.814  31.297  34.757  1.00  0.00     0.037 A 
BRANCH  75  89
ATOM     89  C   UNL A   1      44.709  27.557  34.313  1.00  0.00     0.064 A 
ATOM     90  C   UNL A   1      45.976  28.158  34.334  1.00  0.00     0.173 A 
ATOM     91  C   UNL A   1      44.552  26.331  34.977  1.00  0.00     0.173 A 
ATOM     92  F   UNL A   1      46.181  29.322  33.700  1.00  0.00    -0.203 F 
ATOM     93  C   UNL A   1      47.048  27.546  34.980  1.00  0.00     0.198 A 
ATOM     94  C   UNL A   1      45.619  25.734  35.642  1.00  0.00     0.198 A 
ATOM     95  F   UNL A   1      43.361  25.715  34.987  1.00  0.00    -0.203 F 
ATOM     96  F   UNL A   1      48.259  28.120  34.954  1.00  0.00    -0.200 F 
ATOM     97  C   UNL A   1      46.867  26.339  35.639  1.00  0.00     0.200 A 
ATOM     98  F   UNL A   1      45.441  24.573  36.287  1.00  0.00    -0.200 F 
ATOM     99  F   UNL A   1      47.898  25.755  36.265  1.00  0.00    -0.200 F 
ENDBRANCH  75  89
BRANCH  76 100
ATOM    100  C   UNL A   1      36.913  31.522  29.440  1.00  0.00     0.064 A 
ATOM    101  C   UNL A   1      35.806  30.715  29.143  1.00  0.00     0.173 A 
ATOM    102  C   UNL A   1      36.864  32.866  29.041  1.00  0.00     0.173 A 
ATOM    103  F   UNL A   1      35.815  29.417  29.481  1.00  0.00    -0.203 F 
ATOM    104  C   UNL A   1      34.704  31.226  28.461  1.00  0.00     0.198 A 
ATOM    105  C   UNL A   1      35.751  33.383  28.382  1.00  0.00     0.198 A 
ATOM    106  F   UNL A   1      37.898  33.680  29.297  1.00  0.00    -0.203 F 
ATOM    107  F   UNL A   1      33.678  30.421  28.149  1.00  0.00    -0.200 F 
ATOM    108  C   UNL A   1      34.675  32.560  28.085  1.00  0.00     0.200 A 
ATOM    109  F   UNL A   1      35.723  34.676  28.030  1.00  0.00    -0.200 F 
ATOM    110  F   UNL A   1      33.614  33.052  27.429  1.00  0.00    -0.200 F 
ENDBRANCH  76 100
BRANCH  88 111
ATOM    111  C   UNL A   1      39.351  32.075  35.952  1.00  0.00     0.064 A 
ATOM    112  C   UNL A   1      39.800  33.381  36.198  1.00  0.00     0.173 A 
ATOM    113  C   UNL A   1      38.394  31.530  36.822  1.00  0.00     0.173 A 
ATOM    114  F   UNL A   1      40.724  33.938  35.402  1.00  0.00    -0.203 F 
ATOM    115  C   UNL A   1      39.316  34.108  37.282  1.00  0.00     0.198 A 
ATOM    116  C   UNL A   1      37.894  32.270  37.889  1.00  0.00     0.198 A 
ATOM    117  F   UNL A   1      37.930  30.288  36.622  1.00  0.00    -0.203 F 
ATOM    118  F   UNL A   1      39.781  35.343  37.520  1.00  0.00    -0.200 F 
ATOM    119  C   UNL A   1      38.358  33.557  38.120  1.00  0.00     0.200 A 
ATOM    120  F   UNL A   1      36.959  31.741  38.689  1.00  0.00    -0.200 F 
ATOM    121  F   UNL A   1      37.883  34.264  39.154  1.00  0.00    -0.200 F 
ENDBRANCH  88 111
ENDBRANCH  62  63
ENDBRANCH  55  57
ENDBRANCH  54  55
ENDBRANCH  53  54
ENDBRANCH  52  53
ENDBRANCH  51  52
ENDBRANCH  50  51
ENDBRANCH   1  50
TORSDOF 27
ENDMDL
MODEL 2
REMARK VINA RESULT:     -10.8      6.396     10.331
REMARK SMILES O=C(N[C@@H](Cc1ccc(O)cc1)C(=O)N[C@@H](Cc1c[nH]c2ccccc12)C(=O)N[C@@H](CO)C(=O)OCCOCCOC(=O)c1ccc(-c2c3nc(c(-c4c(F)c(F)c(F)c(F)c4F)c4ccc([nH]4)c(-c4c(F)c(F)c(F)c(F)c4F)c4nc(c(-c5c(F)c(F)c(F)c(F)c5F)c5ccc2[nH]5)C=C4)C=C3)cc1)c1ccc(F)cc1
REMARK SMILES IDX 36 1 35 2 33 3 34 4 30 5 29 6 27 7 28 8 16 10 15 11 13 12
REMARK SMILES IDX 14 13 4 15 3 16 1 17 2 18 107 20 108 21 113 22 109 23 112 24
REMARK SMILES IDX 110 25 111 26 5 27 6 28 7 29 12 30 8 31 11 32 9 33 10 34
REMARK SMILES IDX 17 36 18 37 19 38 26 39 20 40 21 41 25 42 22 44 24 45 23 46
REMARK SMILES IDX 31 47 32 48 37 50 38 51 39 52 40 53 41 54 42 55 43 56 44 57
REMARK SMILES IDX 45 58 106 59 46 60 105 61 47 62 48 63 49 64 99 65 50 66
REMARK SMILES IDX 104 67 98 68 100 69 51 70 103 71 97 72 96 73 52 75 84 76
REMARK SMILES IDX 64 77 83 78 65 79 68 80 82 81 101 82 66 83 67 84 81 86
REMARK SMILES IDX 102 87 69 88 53 89 54 90 62 91 55 92 56 93 60 94 63 95 57 96
REMARK SMILES IDX 58 97 61 98 59 99 85 100 86 101 94 102 87 103 88 104 92 105
REMARK SMILES IDX 95 106 89 107 90 108 93 109 91 110 70 111 71 112 79 113
REMARK SMILES IDX 72 114 73 115 77 116 80 117 74 118 75 119 78 120 76 121
REMARK H PARENT 29 9 15 14 3 19 10 35 20 43 32 49 100 74 68 85
REMARK Flexibility Score: inf
ROOT
ATOM      1  C   UNL A   1      40.083  21.286  26.357  1.00  0.00     0.261 C 
ENDROOT
BRANCH   1   2
ATOM      2  O   UNL A   1      38.653  21.387  26.435  1.00  0.00    -0.462 OA
BRANCH   2   3
ATOM      3  C   UNL A   1      38.006  21.534  25.240  1.00  0.00     0.331 C 
ATOM      4  O   UNL A   1      37.685  20.600  24.512  1.00  0.00    -0.250 OA
BRANCH   3   5
ATOM      5  C   UNL A   1      37.734  23.018  24.899  1.00  0.00     0.218 C 
BRANCH   5   6
ATOM      6  N   UNL A   1      36.631  23.197  23.939  1.00  0.00    -0.339 N 
ATOM      7  C   UNL A   1      35.285  23.049  24.113  1.00  0.00     0.243 C 
ATOM      8  O   UNL A   1      34.561  23.879  23.547  1.00  0.00    -0.273 OA
ATOM      9  H   UNL A   1      36.907  23.465  23.033  1.00  0.00     0.164 HD
BRANCH   7  10
ATOM     10  C   UNL A   1      34.622  21.959  24.988  1.00  0.00     0.175 C 
BRANCH  10  11
ATOM     11  N   UNL A   1      34.259  22.387  26.336  1.00  0.00    -0.342 N 
ATOM     12  C   UNL A   1      33.352  23.304  26.773  1.00  0.00     0.243 C 
ATOM     13  O   UNL A   1      33.157  23.323  27.995  1.00  0.00    -0.273 OA
ATOM     14  H   UNL A   1      34.756  21.935  27.054  1.00  0.00     0.164 HD
BRANCH  12  15
ATOM     15  C   UNL A   1      32.481  24.202  25.850  1.00  0.00     0.176 C 
BRANCH  15  16
ATOM     16  N   UNL A   1      31.687  23.510  24.826  1.00  0.00    -0.340 N 
ATOM     17  O   UNL A   1      30.368  23.243  23.030  1.00  0.00    -0.269 OA
ATOM     18  C   UNL A   1      31.023  24.008  23.733  1.00  0.00     0.251 C 
ATOM     19  H   UNL A   1      31.620  22.535  24.943  1.00  0.00     0.164 HD
BRANCH  18  20
ATOM     20  C   UNL A   1      30.997  25.459  23.444  1.00  0.00     0.040 A 
ATOM     21  C   UNL A   1      32.083  26.127  22.863  1.00  0.00     0.017 A 
ATOM     22  C   UNL A   1      29.831  26.165  23.769  1.00  0.00     0.017 A 
ATOM     23  C   UNL A   1      32.031  27.513  22.697  1.00  0.00     0.040 A 
ATOM     24  C   UNL A   1      29.778  27.548  23.585  1.00  0.00     0.040 A 
ATOM     25  C   UNL A   1      30.885  28.210  23.068  1.00  0.00     0.123 A 
ATOM     26  F   UNL A   1      30.848  29.541  22.922  1.00  0.00    -0.207 F 
ENDBRANCH  18  20
ENDBRANCH  15  16
BRANCH  15  27
ATOM     27  C   UNL A   1      31.694  25.293  26.603  1.00  0.00     0.070 C 
BRANCH  27  28
ATOM     28  C   UNL A   1      32.210  26.705  26.519  1.00  0.00    -0.045 A 
ATOM     29  C   UNL A   1      33.531  26.940  26.100  1.00  0.00     0.007 A 
ATOM     30  C   UNL A   1      31.385  27.797  26.825  1.00  0.00     0.007 A 
ATOM     31  C   UNL A   1      34.028  28.240  26.022  1.00  0.00     0.046 A 
ATOM     32  C   UNL A   1      31.888  29.097  26.762  1.00  0.00     0.046 A 
ATOM     33  C   UNL A   1      33.214  29.300  26.389  1.00  0.00     0.115 A 
BRANCH  33  34
ATOM     34  O   UNL A   1      33.773  30.542  26.465  1.00  0.00    -0.508 OA
ATOM     35  H   UNL A   1      34.602  30.707  26.061  1.00  0.00     0.293 HD
ENDBRANCH  33  34
ENDBRANCH  27  28
ENDBRANCH  15  27
ENDBRANCH  12  15
ENDBRANCH  10  11
BRANCH  10  36
ATOM     36  C   UNL A   1      33.549  21.094  24.285  1.00  0.00     0.072 C 
BRANCH  36  37
ATOM     37  C   UNL A   1      33.188  19.801  24.949  1.00  0.00    -0.020 A 
ATOM     38  C   UNL A   1      32.656  19.674  26.218  1.00  0.00     0.087 A 
ATOM     39  C   UNL A   1      33.324  18.469  24.438  1.00  0.00     0.003 A 
ATOM     40  N   UNL A   1      32.646  18.349  26.559  1.00  0.00    -0.361 N 
ATOM     41  C   UNL A   1      33.116  17.598  25.510  1.00  0.00     0.046 A 
ATOM     42  C   UNL A   1      33.723  17.921  23.202  1.00  0.00     0.010 A 
ATOM     43  H   UNL A   1      32.348  17.990  27.424  1.00  0.00     0.166 HD
ATOM     44  C   UNL A   1      33.397  16.229  25.441  1.00  0.00     0.026 A 
ATOM     45  C   UNL A   1      34.023  16.556  23.119  1.00  0.00     0.001 A 
ATOM     46  C   UNL A   1      33.888  15.732  24.232  1.00  0.00     0.002 A 
ENDBRANCH  36  37
ENDBRANCH  10  36
ENDBRANCH   7  10
ENDBRANCH   5   6
BRANCH   5  47
ATOM     47  C   UNL A   1      37.508  23.778  26.207  1.00  0.00     0.193 C 
BRANCH  47  48
ATOM     48  O   UNL A   1      38.714  24.377  26.676  1.00  0.00    -0.394 OA
ATOM     49  H   UNL A   1      38.554  25.313  26.875  1.00  0.00     0.210 HD
ENDBRANCH  47  48
ENDBRANCH   5  47
ENDBRANCH   3   5
ENDBRANCH   2   3
ENDBRANCH   1   2
BRANCH   1  50
ATOM     50  C   UNL A   1      40.595  19.858  26.097  1.00  0.00     0.202 C 
BRANCH  50  51
ATOM     51  O   UNL A   1      41.865  19.709  25.471  1.00  0.00    -0.374 OA
BRANCH  51  52
ATOM     52  C   UNL A   1      42.967  20.385  26.086  1.00  0.00     0.202 C 
BRANCH  52  53
ATOM     53  C   UNL A   1      43.481  21.665  25.419  1.00  0.00     0.261 C 
BRANCH  53  54
ATOM     54  O   UNL A   1      43.595  22.741  26.369  1.00  0.00    -0.460 OA
BRANCH  54  55
ATOM     55  C   UNL A   1      42.704  23.737  26.193  1.00  0.00     0.338 C 
ATOM     56  O   UNL A   1      41.487  23.640  26.048  1.00  0.00    -0.246 OA
BRANCH  55  57
ATOM     57  C   UNL A   1      43.361  25.030  26.403  1.00  0.00     0.060 A 
ATOM     58  C   UNL A   1      43.636  25.809  25.270  1.00  0.00     0.016 A 
ATOM     59  C   UNL A   1      43.801  25.420  27.668  1.00  0.00     0.016 A 
ATOM     60  C   UNL A   1      44.412  26.957  25.389  1.00  0.00     0.010 A 
ATOM     61  C   UNL A   1      44.594  26.563  27.784  1.00  0.00     0.010 A 
ATOM     62  C   UNL A   1      44.938  27.306  26.639  1.00  0.00    -0.014 A 
BRANCH  62  63
ATOM     63  C   UNL A   1      46.017  28.315  26.713  1.00  0.00     0.031 A 
ATOM     64  C   UNL A   1      45.636  29.745  26.977  1.00  0.00     0.074 A 
ATOM     65  C   UNL A   1      47.303  27.961  26.561  1.00  0.00     0.049 A 
ATOM     66  N   UNL A   1      46.385  30.816  26.997  1.00  0.00    -0.248 NA
ATOM     67  C   UNL A   1      44.212  30.002  27.255  1.00  0.00     0.031 C 
ATOM     68  C   UNL A   1      47.785  26.597  26.354  1.00  0.00     0.029 A 
ATOM     69  N   UNL A   1      48.440  28.729  26.544  1.00  0.00    -0.354 N 
ATOM     70  C   UNL A   1      45.525  31.871  27.273  1.00  0.00     0.074 A 
ATOM     71  C   UNL A   1      44.195  31.318  27.399  1.00  0.00     0.031 C 
ATOM     72  C   UNL A   1      49.121  26.628  26.204  1.00  0.00     0.029 A 
ATOM     73  C   UNL A   1      49.578  28.014  26.269  1.00  0.00     0.049 A 
ATOM     74  H   UNL A   1      48.438  29.699  26.712  1.00  0.00     0.167 HD
ATOM     75  C   UNL A   1      45.823  33.183  27.410  1.00  0.00     0.037 A 
ATOM     76  C   UNL A   1      50.837  28.442  26.061  1.00  0.00     0.037 A 
ATOM     77  C   UNL A   1      47.150  33.721  27.285  1.00  0.00     0.049 A 
ATOM     78  C   UNL A   1      51.134  29.917  26.157  1.00  0.00     0.074 A 
ATOM     79  C   UNL A   1      47.567  35.035  27.413  1.00  0.00     0.029 A 
ATOM     80  N   UNL A   1      48.278  32.967  26.996  1.00  0.00    -0.354 N 
ATOM     81  N   UNL A   1      50.320  30.910  26.430  1.00  0.00    -0.248 NA
ATOM     82  C   UNL A   1      52.522  30.334  25.915  1.00  0.00     0.031 C 
ATOM     83  C   UNL A   1      48.941  35.080  27.162  1.00  0.00     0.029 A 
ATOM     84  C   UNL A   1      49.389  33.790  26.924  1.00  0.00     0.049 A 
ATOM     85  H   UNL A   1      48.287  31.992  26.864  1.00  0.00     0.167 HD
ATOM     86  C   UNL A   1      51.098  32.059  26.423  1.00  0.00     0.074 A 
ATOM     87  C   UNL A   1      52.453  31.642  26.124  1.00  0.00     0.031 C 
ATOM     88  C   UNL A   1      50.729  33.344  26.644  1.00  0.00     0.037 A 
BRANCH  75  89
ATOM     89  C   UNL A   1      44.690  34.130  27.677  1.00  0.00     0.064 A 
ATOM     90  C   UNL A   1      44.034  34.804  26.638  1.00  0.00     0.173 A 
ATOM     91  C   UNL A   1      44.236  34.339  28.988  1.00  0.00     0.173 A 
ATOM     92  F   UNL A   1      44.442  34.651  25.369  1.00  0.00    -0.203 F 
ATOM     93  C   UNL A   1      42.974  35.669  26.904  1.00  0.00     0.198 A 
ATOM     94  C   UNL A   1      43.161  35.184  29.247  1.00  0.00     0.198 A 
ATOM     95  F   UNL A   1      44.830  33.717  30.017  1.00  0.00    -0.203 F 
ATOM     96  F   UNL A   1      42.386  36.334  25.899  1.00  0.00    -0.200 F 
ATOM     97  C   UNL A   1      42.535  35.853  28.206  1.00  0.00     0.200 A 
ATOM     98  F   UNL A   1      42.731  35.353  30.505  1.00  0.00    -0.200 F 
ATOM     99  F   UNL A   1      41.511  36.680  28.459  1.00  0.00    -0.200 F 
ENDBRANCH  75  89
BRANCH  76 100
ATOM    100  C   UNL A   1      51.906  27.470  25.718  1.00  0.00     0.064 A 
ATOM    101  C   UNL A   1      52.198  27.152  24.384  1.00  0.00     0.173 A 
ATOM    102  C   UNL A   1      52.651  26.827  26.718  1.00  0.00     0.173 A 
ATOM    103  F   UNL A   1      51.496  27.721  23.393  1.00  0.00    -0.203 F 
ATOM    104  C   UNL A   1      53.179  26.216  24.065  1.00  0.00     0.198 A 
ATOM    105  C   UNL A   1      53.650  25.911  26.397  1.00  0.00     0.198 A 
ATOM    106  F   UNL A   1      52.410  27.093  28.010  1.00  0.00    -0.203 F 
ATOM    107  F   UNL A   1      53.406  25.897  22.783  1.00  0.00    -0.200 F 
ATOM    108  C   UNL A   1      53.909  25.601  25.071  1.00  0.00     0.200 A 
ATOM    109  F   UNL A   1      54.360  25.326  27.373  1.00  0.00    -0.200 F 
ATOM    110  F   UNL A   1      54.854  24.702  24.763  1.00  0.00    -0.200 F 
ENDBRANCH  76 100
BRANCH  88 111
ATOM    111  C   UNL A   1      51.806  34.387  26.621  1.00  0.00     0.064 A 
ATOM    112  C   UNL A   1      52.531  34.721  27.773  1.00  0.00     0.173 A 
ATOM    113  C   UNL A   1      52.160  35.007  25.413  1.00  0.00     0.173 A 
ATOM    114  F   UNL A   1      52.218  34.164  28.952  1.00  0.00    -0.203 F 
ATOM    115  C   UNL A   1      53.564  35.652  27.719  1.00  0.00     0.198 A 
ATOM    116  C   UNL A   1      53.212  35.917  25.358  1.00  0.00     0.198 A 
ATOM    117  F   UNL A   1      51.500  34.713  24.283  1.00  0.00    -0.203 F 
ATOM    118  F   UNL A   1      54.225  35.983  28.838  1.00  0.00    -0.200 F 
ATOM    119  C   UNL A   1      53.910  36.242  26.512  1.00  0.00     0.200 A 
ATOM    120  F   UNL A   1      53.553  36.476  24.189  1.00  0.00    -0.200 F 
ATOM    121  F   UNL A   1      54.915  37.126  26.460  1.00  0.00    -0.200 F 
ENDBRANCH  88 111
ENDBRANCH  62  63
ENDBRANCH  55  57
ENDBRANCH  54  55
ENDBRANCH  53  54
ENDBRANCH  52  53
ENDBRANCH  51  52
ENDBRANCH  50  51
ENDBRANCH   1  50
TORSDOF 27
ENDMDL
MODEL 3
REMARK VINA RESULT:      -9.6      5.123     10.659
REMARK SMILES O=C(N[C@@H](Cc1ccc(O)cc1)C(=O)N[C@@H](Cc1c[nH]c2ccccc12)C(=O)N[C@@H](CO)C(=O)OCCOCCOC(=O)c1ccc(-c2c3nc(c(-c4c(F)c(F)c(F)c(F)c4F)c4ccc([nH]4)c(-c4c(F)c(F)c(F)c(F)c4F)c4nc(c(-c5c(F)c(F)c(F)c(F)c5F)c5ccc2[nH]5)C=C4)C=C3)cc1)c1ccc(F)cc1
REMARK SMILES IDX 36 1 35 2 33 3 34 4 30 5 29 6 27 7 28 8 16 10 15 11 13 12
REMARK SMILES IDX 14 13 4 15 3 16 1 17 2 18 107 20 108 21 113 22 109 23 112 24
REMARK SMILES IDX 110 25 111 26 5 27 6 28 7 29 12 30 8 31 11 32 9 33 10 34
REMARK SMILES IDX 17 36 18 37 19 38 26 39 20 40 21 41 25 42 22 44 24 45 23 46
REMARK SMILES IDX 31 47 32 48 37 50 38 51 39 52 40 53 41 54 42 55 43 56 44 57
REMARK SMILES IDX 45 58 106 59 46 60 105 61 47 62 48 63 49 64 99 65 50 66
REMARK SMILES IDX 104 67 98 68 100 69 51 70 103 71 97 72 96 73 52 75 84 76
REMARK SMILES IDX 64 77 83 78 65 79 68 80 82 81 101 82 66 83 67 84 81 86
REMARK SMILES IDX 102 87 69 88 53 89 54 90 62 91 55 92 56 93 60 94 63 95 57 96
REMARK SMILES IDX 58 97 61 98 59 99 85 100 86 101 94 102 87 103 88 104 92 105
REMARK SMILES IDX 95 106 89 107 90 108 93 109 91 110 70 111 71 112 79 113
REMARK SMILES IDX 72 114 73 115 77 116 80 117 74 118 75 119 78 120 76 121
REMARK H PARENT 29 9 15 14 3 19 10 35 20 43 32 49 100 74 68 85
REMARK Flexibility Score: inf
ROOT
ATOM      1  C   UNL A   1      46.478  21.498  24.768  1.00  0.00     0.261 C 
ENDROOT
BRANCH   1   2
ATOM      2  O   UNL A   1      46.385  22.567  25.721  1.00  0.00    -0.462 OA
BRANCH   2   3
ATOM      3  C   UNL A   1      46.593  23.823  25.222  1.00  0.00     0.331 C 
ATOM      4  O   UNL A   1      46.645  24.088  24.026  1.00  0.00    -0.250 OA
BRANCH   3   5
ATOM      5  C   UNL A   1      46.773  24.876  26.341  1.00  0.00     0.218 C 
BRANCH   5   6
ATOM      6  N   UNL A   1      46.017  26.116  26.093  1.00  0.00    -0.339 N 
ATOM      7  C   UNL A   1      46.431  27.416  26.131  1.00  0.00     0.243 C 
ATOM      8  O   UNL A   1      45.975  28.166  25.256  1.00  0.00    -0.273 OA
ATOM      9  H   UNL A   1      45.068  25.987  25.864  1.00  0.00     0.164 HD
BRANCH   7  10
ATOM     10  C   UNL A   1      47.444  27.992  27.149  1.00  0.00     0.175 C 
BRANCH  10  11
ATOM     11  N   UNL A   1      47.971  29.312  26.814  1.00  0.00    -0.342 N 
ATOM     12  C   UNL A   1      49.160  29.906  27.109  1.00  0.00     0.243 C 
ATOM     13  O   UNL A   1      49.377  30.981  26.536  1.00  0.00    -0.273 OA
ATOM     14  H   UNL A   1      47.360  29.870  26.282  1.00  0.00     0.164 HD
BRANCH  12  15
ATOM     15  C   UNL A   1      50.276  29.272  27.986  1.00  0.00     0.176 C 
BRANCH  15  16
ATOM     16  N   UNL A   1      51.338  28.552  27.271  1.00  0.00    -0.340 N 
ATOM     17  O   UNL A   1      52.811  26.925  26.803  1.00  0.00    -0.269 OA
ATOM     18  C   UNL A   1      51.881  27.312  27.505  1.00  0.00     0.251 C 
ATOM     19  H   UNL A   1      51.722  29.034  26.503  1.00  0.00     0.164 HD
BRANCH  18  20
ATOM     20  C   UNL A   1      51.436  26.481  28.645  1.00  0.00     0.040 A 
ATOM     21  C   UNL A   1      50.201  25.822  28.656  1.00  0.00     0.017 A 
ATOM     22  C   UNL A   1      52.305  26.362  29.739  1.00  0.00     0.017 A 
ATOM     23  C   UNL A   1      49.800  25.124  29.798  1.00  0.00     0.040 A 
ATOM     24  C   UNL A   1      51.908  25.649  30.871  1.00  0.00     0.040 A 
ATOM     25  C   UNL A   1      50.652  25.053  30.896  1.00  0.00     0.123 A 
ATOM     26  F   UNL A   1      50.257  24.397  31.994  1.00  0.00    -0.207 F 
ENDBRANCH  18  20
ENDBRANCH  15  16
BRANCH  15  27
ATOM     27  C   UNL A   1      50.806  30.205  29.093  1.00  0.00     0.070 C 
BRANCH  27  28
ATOM     28  C   UNL A   1      50.778  29.689  30.507  1.00  0.00    -0.045 A 
ATOM     29  C   UNL A   1      51.702  30.178  31.446  1.00  0.00     0.007 A 
ATOM     30  C   UNL A   1      49.822  28.747  30.915  1.00  0.00     0.007 A 
ATOM     31  C   UNL A   1      51.695  29.707  32.758  1.00  0.00     0.046 A 
ATOM     32  C   UNL A   1      49.826  28.264  32.225  1.00  0.00     0.046 A 
ATOM     33  C   UNL A   1      50.782  28.730  33.123  1.00  0.00     0.115 A 
BRANCH  33  34
ATOM     34  O   UNL A   1      50.904  28.167  34.360  1.00  0.00    -0.508 OA
ATOM     35  H   UNL A   1      51.481  27.440  34.488  1.00  0.00     0.293 HD
ENDBRANCH  33  34
ENDBRANCH  27  28
ENDBRANCH  15  27
ENDBRANCH  12  15
ENDBRANCH  10  11
BRANCH  10  36
ATOM     36  C   UNL A   1      47.071  27.815  28.639  1.00  0.00     0.072 C 
BRANCH  36  37
ATOM     37  C   UNL A   1      46.268  28.914  29.265  1.00  0.00    -0.020 A 
ATOM     38  C   UNL A   1      46.334  29.299  30.590  1.00  0.00     0.087 A 
ATOM     39  C   UNL A   1      45.287  29.761  28.651  1.00  0.00     0.003 A 
ATOM     40  N   UNL A   1      45.323  30.187  30.840  1.00  0.00    -0.361 N 
ATOM     41  C   UNL A   1      44.626  30.431  29.683  1.00  0.00     0.046 A 
ATOM     42  C   UNL A   1      44.814  29.931  27.335  1.00  0.00     0.010 A 
ATOM     43  H   UNL A   1      45.127  30.588  31.716  1.00  0.00     0.166 HD
ATOM     44  C   UNL A   1      43.452  31.165  29.480  1.00  0.00     0.026 A 
ATOM     45  C   UNL A   1      43.633  30.649  27.115  1.00  0.00     0.001 A 
ATOM     46  C   UNL A   1      42.950  31.233  28.178  1.00  0.00     0.002 A 
ENDBRANCH  36  37
ENDBRANCH  10  36
ENDBRANCH   7  10
ENDBRANCH   5   6
BRANCH   5  47
ATOM     47  C   UNL A   1      46.417  24.223  27.677  1.00  0.00     0.193 C 
BRANCH  47  48
ATOM     48  O   UNL A   1      45.156  23.560  27.614  1.00  0.00    -0.394 OA
ATOM     49  H   UNL A   1      44.769  23.685  26.733  1.00  0.00     0.210 HD
ENDBRANCH  47  48
ENDBRANCH   5  47
ENDBRANCH   3   5
ENDBRANCH   2   3
ENDBRANCH   1   2
BRANCH   1  50
ATOM     50  C   UNL A   1      45.396  20.417  24.934  1.00  0.00     0.202 C 
BRANCH  50  51
ATOM     51  O   UNL A   1      44.043  20.784  24.686  1.00  0.00    -0.374 OA
BRANCH  51  52
ATOM     52  C   UNL A   1      43.108  20.542  25.742  1.00  0.00     0.202 C 
BRANCH  52  53
ATOM     53  C   UNL A   1      42.075  21.631  26.045  1.00  0.00     0.261 C 
BRANCH  53  54
ATOM     54  O   UNL A   1      42.685  22.770  26.680  1.00  0.00    -0.460 OA
BRANCH  54  55
ATOM     55  C   UNL A   1      42.745  23.873  25.909  1.00  0.00     0.338 C 
ATOM     56  O   UNL A   1      43.095  23.950  24.733  1.00  0.00    -0.246 OA
BRANCH  55  57
ATOM     57  C   UNL A   1      42.126  25.002  26.611  1.00  0.00     0.060 A 
ATOM     58  C   UNL A   1      42.782  26.240  26.554  1.00  0.00     0.016 A 
ATOM     59  C   UNL A   1      40.991  24.824  27.403  1.00  0.00     0.016 A 
ATOM     60  C   UNL A   1      42.339  27.296  27.342  1.00  0.00     0.010 A 
ATOM     61  C   UNL A   1      40.558  25.880  28.207  1.00  0.00     0.010 A 
ATOM     62  C   UNL A   1      41.258  27.102  28.211  1.00  0.00    -0.014 A 
BRANCH  62  63
ATOM     63  C   UNL A   1      40.998  28.095  29.275  1.00  0.00     0.031 A 
ATOM     64  C   UNL A   1      41.859  28.059  30.507  1.00  0.00     0.074 A 
ATOM     65  C   UNL A   1      40.028  29.013  29.139  1.00  0.00     0.049 A 
ATOM     66  N   UNL A   1      41.769  28.761  31.606  1.00  0.00    -0.248 NA
ATOM     67  C   UNL A   1      42.974  27.097  30.497  1.00  0.00     0.031 C 
ATOM     68  C   UNL A   1      39.172  29.170  27.965  1.00  0.00     0.029 A 
ATOM     69  N   UNL A   1      39.592  29.980  30.009  1.00  0.00    -0.354 N 
ATOM     70  C   UNL A   1      42.801  28.315  32.422  1.00  0.00     0.074 A 
ATOM     71  C   UNL A   1      43.499  27.274  31.700  1.00  0.00     0.031 C 
ATOM     72  C   UNL A   1      38.293  30.160  28.199  1.00  0.00     0.029 A 
ATOM     73  C   UNL A   1      38.504  30.677  29.549  1.00  0.00     0.049 A 
ATOM     74  H   UNL A   1      40.019  30.156  30.879  1.00  0.00     0.167 HD
ATOM     75  C   UNL A   1      43.136  28.741  33.661  1.00  0.00     0.037 A 
ATOM     76  C   UNL A   1      37.748  31.604  30.168  1.00  0.00     0.037 A 
ATOM     77  C   UNL A   1      42.437  29.779  34.368  1.00  0.00     0.049 A 
ATOM     78  C   UNL A   1      38.102  32.018  31.573  1.00  0.00     0.074 A 
ATOM     79  C   UNL A   1      42.696  30.296  35.625  1.00  0.00     0.029 A 
ATOM     80  N   UNL A   1      41.332  30.457  33.874  1.00  0.00    -0.354 N 
ATOM     81  N   UNL A   1      39.086  31.603  32.335  1.00  0.00    -0.248 NA
ATOM     82  C   UNL A   1      37.242  33.028  32.207  1.00  0.00     0.031 C 
ATOM     83  C   UNL A   1      41.723  31.259  35.907  1.00  0.00     0.029 A 
ATOM     84  C   UNL A   1      40.886  31.375  34.808  1.00  0.00     0.049 A 
ATOM     85  H   UNL A   1      40.927  30.309  32.989  1.00  0.00     0.167 HD
ATOM     86  C   UNL A   1      38.982  32.318  33.521  1.00  0.00     0.074 A 
ATOM     87  C   UNL A   1      37.842  33.200  33.377  1.00  0.00     0.031 C 
ATOM     88  C   UNL A   1      39.760  32.255  34.629  1.00  0.00     0.037 A 
BRANCH  75  89
ATOM     89  C   UNL A   1      44.287  28.062  34.343  1.00  0.00     0.064 A 
ATOM     90  C   UNL A   1      45.557  28.653  34.409  1.00  0.00     0.173 A 
ATOM     91  C   UNL A   1      44.106  26.818  34.967  1.00  0.00     0.173 A 
ATOM     92  F   UNL A   1      45.784  29.833  33.814  1.00  0.00    -0.203 F 
ATOM     93  C   UNL A   1      46.610  28.013  35.060  1.00  0.00     0.198 A 
ATOM     94  C   UNL A   1      45.154  26.194  35.637  1.00  0.00     0.198 A 
ATOM     95  F   UNL A   1      42.910  26.211  34.932  1.00  0.00    -0.203 F 
ATOM     96  F   UNL A   1      47.826  28.577  35.077  1.00  0.00    -0.200 F 
ATOM     97  C   UNL A   1      46.406  26.789  35.678  1.00  0.00     0.200 A 
ATOM     98  F   UNL A   1      44.954  25.015  36.243  1.00  0.00    -0.200 F 
ATOM     99  F   UNL A   1      47.419  26.178  36.309  1.00  0.00    -0.200 F 
ENDBRANCH  75  89
BRANCH  76 100
ATOM    100  C   UNL A   1      36.568  32.185  29.476  1.00  0.00     0.064 A 
ATOM    101  C   UNL A   1      36.517  33.546  29.145  1.00  0.00     0.173 A 
ATOM    102  C   UNL A   1      35.460  31.392  29.142  1.00  0.00     0.173 A 
ATOM    103  F   UNL A   1      37.542  34.350  29.466  1.00  0.00    -0.203 F 
ATOM    104  C   UNL A   1      35.398  34.095  28.524  1.00  0.00     0.198 A 
ATOM    105  C   UNL A   1      34.352  31.936  28.497  1.00  0.00     0.198 A 
ATOM    106  F   UNL A   1      35.457  30.084  29.439  1.00  0.00    -0.203 F 
ATOM    107  F   UNL A   1      35.356  35.409  28.261  1.00  0.00    -0.200 F 
ATOM    108  C   UNL A   1      34.318  33.289  28.196  1.00  0.00     0.200 A 
ATOM    109  F   UNL A   1      33.314  31.151  28.172  1.00  0.00    -0.200 F 
ATOM    110  F   UNL A   1      33.241  33.817  27.597  1.00  0.00    -0.200 F 
ENDBRANCH  76 100
BRANCH  88 111
ATOM    111  C   UNL A   1      39.438  33.192  35.754  1.00  0.00     0.064 A 
ATOM    112  C   UNL A   1      38.645  32.792  36.839  1.00  0.00     0.173 A 
ATOM    113  C   UNL A   1      39.989  34.482  35.777  1.00  0.00     0.173 A 
ATOM    114  F   UNL A   1      38.086  31.573  36.853  1.00  0.00    -0.203 F 
ATOM    115  C   UNL A   1      38.403  33.658  37.902  1.00  0.00     0.198 A 
ATOM    116  C   UNL A   1      39.766  35.335  36.854  1.00  0.00     0.198 A 
ATOM    117  F   UNL A   1      40.761  34.906  34.765  1.00  0.00    -0.203 F 
ATOM    118  F   UNL A   1      37.615  33.270  38.915  1.00  0.00    -0.200 F 
ATOM    119  C   UNL A   1      38.971  34.924  37.913  1.00  0.00     0.200 A 
ATOM    120  F   UNL A   1      40.327  36.552  36.870  1.00  0.00    -0.200 F 
ATOM    121  F   UNL A   1      38.749  35.750  38.944  1.00  0.00    -0.200 F 
ENDBRANCH  88 111
ENDBRANCH  62  63
ENDBRANCH  55  57
ENDBRANCH  54  55
ENDBRANCH  53  54
ENDBRANCH  52  53
ENDBRANCH  51  52
ENDBRANCH  50  51
ENDBRANCH   1  50
TORSDOF 27
ENDMDL
