MODEL 1
REMARK VINA RESULT:     -11.3      0.000      0.000
REMARK SMILES Cc1ccccc1-c1nc(CC(=O)OCCOCCOC(=O)c2ccc(-c3c4nc(c(-c5c(F)c(F)c(F)c(F)c5F)c5ccc([nH]5)c(-c5c(F)c(F)c(F)c(F)c5F)c5nc(c(-c6c(F)c(F)c(F)c(F)c6F)c6ccc3[nH]6)C=C5)C=C4)cc2)cs1
REMARK SMILES IDX 17 1 16 2 15 3 14 4 12 5 13 6 11 7 10 8 8 9 9 10 87 11 86 12
REMARK SMILES IDX 7 13 1 14 2 15 3 16 4 17 6 18 5 19 18 20 19 21 20 22 21 23
REMARK SMILES IDX 22 24 23 25 24 26 85 27 25 28 84 29 26 30 27 31 28 32 78 33
REMARK SMILES IDX 29 34 83 35 77 36 79 37 30 38 82 39 76 40 75 41 31 43 63 44
REMARK SMILES IDX 43 45 62 46 44 47 47 48 61 49 80 50 45 51 46 52 60 54 81 55
REMARK SMILES IDX 48 56 32 57 33 58 41 59 34 60 35 61 39 62 42 63 36 64 37 65
REMARK SMILES IDX 40 66 38 67 64 68 65 69 73 70 66 71 67 72 71 73 74 74 68 75
REMARK SMILES IDX 69 76 72 77 70 78 49 79 50 80 58 81 51 82 52 83 56 84 59 85
REMARK SMILES IDX 53 86 54 87 57 88 55 89
REMARK H PARENT 79 42 47 53
REMARK Flexibility Score: inf
ROOT
ATOM      1  O   UNL A   1      35.969  22.754  26.127  1.00  0.00    -0.374 OA
ENDROOT
BRANCH   1   2
ATOM      2  C   UNL A   1      35.441  21.445  26.040  1.00  0.00     0.202 C 
BRANCH   2   3
ATOM      3  C   UNL A   1      34.910  21.268  24.644  1.00  0.00     0.261 C 
BRANCH   3   4
ATOM      4  O   UNL A   1      33.508  21.583  24.499  1.00  0.00    -0.463 OA
BRANCH   4   5
ATOM      5  C   UNL A   1      32.997  22.251  23.414  1.00  0.00     0.311 C 
ATOM      6  O   UNL A   1      31.855  22.188  22.991  1.00  0.00    -0.252 OA
BRANCH   5   7
ATOM      7  C   UNL A   1      34.073  23.104  22.792  1.00  0.00     0.179 C 
BRANCH   7   8
ATOM      8  C   UNL A   1      33.634  24.516  22.946  1.00  0.00     0.063 A 
ATOM      9  C   UNL A   1      32.888  26.164  24.216  1.00  0.00     0.123 A 
ATOM     10  N   UNL A   1      33.440  24.974  24.232  1.00  0.00    -0.240 NA
ATOM     11  S   UNL A   1      32.519  26.783  22.657  1.00  0.00    -0.122 S 
ATOM     12  C   UNL A   1      33.224  25.385  21.953  1.00  0.00     0.091 A 
BRANCH   9  13
ATOM     13  C   UNL A   1      32.791  27.007  25.399  1.00  0.00     0.013 A 
ATOM     14  C   UNL A   1      30.331  26.324  25.641  1.00  0.00     0.045 C 
ATOM     15  C   UNL A   1      31.566  27.059  26.099  1.00  0.00    -0.041 A 
ATOM     16  C   UNL A   1      31.475  27.850  27.251  1.00  0.00     0.004 A 
ATOM     17  C   UNL A   1      32.573  28.584  27.698  1.00  0.00     0.000 A 
ATOM     18  C   UNL A   1      33.882  27.776  25.837  1.00  0.00     0.011 A 
ATOM     19  C   UNL A   1      33.771  28.558  26.988  1.00  0.00     0.001 A 
ENDBRANCH   9  13
ENDBRANCH   7   8
ENDBRANCH   5   7
ENDBRANCH   4   5
ENDBRANCH   3   4
ENDBRANCH   2   3
ENDBRANCH   1   2
BRANCH   1  20
ATOM     20  C   UNL A   1      37.002  23.073  25.215  1.00  0.00     0.202 C 
BRANCH  20  21
ATOM     21  C   UNL A   1      38.280  22.254  25.438  1.00  0.00     0.261 C 
BRANCH  21  22
ATOM     22  O   UNL A   1      38.828  22.518  26.749  1.00  0.00    -0.460 OA
BRANCH  22  23
ATOM     23  C   UNL A   1      40.008  23.192  26.775  1.00  0.00     0.338 C 
ATOM     24  O   UNL A   1      41.115  22.668  26.876  1.00  0.00    -0.246 OA
BRANCH  23  25
ATOM     25  C   UNL A   1      39.762  24.650  26.949  1.00  0.00     0.060 A 
ATOM     26  C   UNL A   1      40.442  25.588  26.147  1.00  0.00     0.016 A 
ATOM     27  C   UNL A   1      39.154  25.060  28.129  1.00  0.00     0.016 A 
ATOM     28  C   UNL A   1      40.664  26.893  26.617  1.00  0.00     0.010 A 
ATOM     29  C   UNL A   1      39.516  26.281  28.651  1.00  0.00     0.010 A 
ATOM     30  C   UNL A   1      40.274  27.209  27.915  1.00  0.00    -0.014 A 
BRANCH  30  31
ATOM     31  C   UNL A   1      40.574  28.439  28.655  1.00  0.00     0.031 A 
ATOM     32  C   UNL A   1      39.499  29.457  28.748  1.00  0.00     0.074 A 
ATOM     33  C   UNL A   1      41.640  28.548  29.486  1.00  0.00     0.049 A 
ATOM     34  N   UNL A   1      39.666  30.641  29.227  1.00  0.00    -0.248 NA
ATOM     35  C   UNL A   1      38.143  29.247  28.250  1.00  0.00     0.031 C 
ATOM     36  C   UNL A   1      41.721  29.350  30.711  1.00  0.00     0.029 A 
ATOM     37  N   UNL A   1      42.885  27.907  29.453  1.00  0.00    -0.354 N 
ATOM     38  C   UNL A   1      38.421  31.187  29.436  1.00  0.00     0.074 A 
ATOM     39  C   UNL A   1      37.530  30.352  28.675  1.00  0.00     0.031 C 
ATOM     40  C   UNL A   1      42.987  29.358  31.162  1.00  0.00     0.029 A 
ATOM     41  C   UNL A   1      43.808  28.698  30.167  1.00  0.00     0.049 A 
ATOM     42  H   UNL A   1      43.082  27.052  29.009  1.00  0.00     0.167 HD
ATOM     43  C   UNL A   1      38.306  32.192  30.351  1.00  0.00     0.037 A 
ATOM     44  C   UNL A   1      44.929  29.169  29.555  1.00  0.00     0.037 A 
ATOM     45  C   UNL A   1      39.632  32.562  30.884  1.00  0.00     0.049 A 
ATOM     46  C   UNL A   1      44.856  30.663  29.412  1.00  0.00     0.074 A 
ATOM     47  C   UNL A   1      40.291  32.357  32.087  1.00  0.00     0.029 A 
ATOM     48  N   UNL A   1      40.609  32.994  30.000  1.00  0.00    -0.354 N 
ATOM     49  N   UNL A   1      43.868  31.363  29.894  1.00  0.00    -0.248 NA
ATOM     50  C   UNL A   1      45.801  31.488  28.668  1.00  0.00     0.031 C 
ATOM     51  C   UNL A   1      41.671  32.685  31.901  1.00  0.00     0.029 A 
ATOM     52  C   UNL A   1      41.850  33.108  30.594  1.00  0.00     0.049 A 
ATOM     53  H   UNL A   1      40.435  33.198  29.052  1.00  0.00     0.167 HD
ATOM     54  C   UNL A   1      43.956  32.649  29.483  1.00  0.00     0.074 A 
ATOM     55  C   UNL A   1      45.191  32.688  28.714  1.00  0.00     0.031 C 
ATOM     56  C   UNL A   1      42.984  33.555  29.788  1.00  0.00     0.037 A 
BRANCH  43  57
ATOM     57  C   UNL A   1      37.008  32.728  30.939  1.00  0.00     0.064 A 
ATOM     58  C   UNL A   1      36.162  33.540  30.149  1.00  0.00     0.173 A 
ATOM     59  C   UNL A   1      36.538  32.534  32.256  1.00  0.00     0.173 A 
ATOM     60  F   UNL A   1      36.416  33.761  28.852  1.00  0.00    -0.203 F 
ATOM     61  C   UNL A   1      35.008  34.153  30.651  1.00  0.00     0.198 A 
ATOM     62  C   UNL A   1      35.391  33.155  32.762  1.00  0.00     0.198 A 
ATOM     63  F   UNL A   1      37.122  31.705  33.117  1.00  0.00    -0.203 F 
ATOM     64  F   UNL A   1      34.265  34.924  29.846  1.00  0.00    -0.200 F 
ATOM     65  C   UNL A   1      34.630  33.973  31.962  1.00  0.00     0.200 A 
ATOM     66  F   UNL A   1      35.032  32.940  34.037  1.00  0.00    -0.200 F 
ATOM     67  F   UNL A   1      33.531  34.564  32.447  1.00  0.00    -0.200 F 
ENDBRANCH  43  57
BRANCH  44  68
ATOM     68  C   UNL A   1      45.473  28.173  28.586  1.00  0.00     0.064 A 
ATOM     69  C   UNL A   1      46.162  27.064  29.126  1.00  0.00     0.173 A 
ATOM     70  C   UNL A   1      44.889  28.016  27.321  1.00  0.00     0.173 A 
ATOM     71  F   UNL A   1      46.725  27.154  30.342  1.00  0.00    -0.203 F 
ATOM     72  C   UNL A   1      46.140  25.821  28.496  1.00  0.00     0.198 A 
ATOM     73  C   UNL A   1      44.853  26.762  26.704  1.00  0.00     0.198 A 
ATOM     74  F   UNL A   1      44.215  29.029  26.759  1.00  0.00    -0.203 F 
ATOM     75  F   UNL A   1      46.675  24.749  29.101  1.00  0.00    -0.200 F 
ATOM     76  C   UNL A   1      45.445  25.661  27.309  1.00  0.00     0.200 A 
ATOM     77  F   UNL A   1      44.147  26.593  25.576  1.00  0.00    -0.200 F 
ATOM     78  F   UNL A   1      45.284  24.436  26.786  1.00  0.00    -0.200 F 
ENDBRANCH  44  68
BRANCH  56  79
ATOM     79  C   UNL A   1      43.051  34.969  29.320  1.00  0.00     0.064 A 
ATOM     80  C   UNL A   1      42.874  35.305  27.971  1.00  0.00     0.173 A 
ATOM     81  C   UNL A   1      43.373  36.026  30.196  1.00  0.00     0.173 A 
ATOM     82  F   UNL A   1      42.662  34.355  27.048  1.00  0.00    -0.203 F 
ATOM     83  C   UNL A   1      42.922  36.629  27.543  1.00  0.00     0.198 A 
ATOM     84  C   UNL A   1      43.493  37.336  29.751  1.00  0.00     0.198 A 
ATOM     85  F   UNL A   1      43.544  35.828  31.511  1.00  0.00    -0.203 F 
ATOM     86  F   UNL A   1      42.653  36.920  26.262  1.00  0.00    -0.200 F 
ATOM     87  C   UNL A   1      43.238  37.642  28.430  1.00  0.00     0.200 A 
ATOM     88  F   UNL A   1      43.840  38.300  30.616  1.00  0.00    -0.200 F 
ATOM     89  F   UNL A   1      43.290  38.914  28.015  1.00  0.00    -0.200 F 
ENDBRANCH  56  79
ENDBRANCH  30  31
ENDBRANCH  23  25
ENDBRANCH  22  23
ENDBRANCH  21  22
ENDBRANCH  20  21
ENDBRANCH   1  20
TORSDOF 16
ENDMDL
MODEL 2
REMARK VINA RESULT:     -11.3      3.455      9.618
REMARK SMILES Cc1ccccc1-c1nc(CC(=O)OCCOCCOC(=O)c2ccc(-c3c4nc(c(-c5c(F)c(F)c(F)c(F)c5F)c5ccc([nH]5)c(-c5c(F)c(F)c(F)c(F)c5F)c5nc(c(-c6c(F)c(F)c(F)c(F)c6F)c6ccc3[nH]6)C=C5)C=C4)cc2)cs1
REMARK SMILES IDX 17 1 16 2 15 3 14 4 12 5 13 6 11 7 10 8 8 9 9 10 87 11 86 12
REMARK SMILES IDX 7 13 1 14 2 15 3 16 4 17 6 18 5 19 18 20 19 21 20 22 21 23
REMARK SMILES IDX 22 24 23 25 24 26 85 27 25 28 84 29 26 30 27 31 28 32 78 33
REMARK SMILES IDX 29 34 83 35 77 36 79 37 30 38 82 39 76 40 75 41 31 43 63 44
REMARK SMILES IDX 43 45 62 46 44 47 47 48 61 49 80 50 45 51 46 52 60 54 81 55
REMARK SMILES IDX 48 56 32 57 33 58 41 59 34 60 35 61 39 62 42 63 36 64 37 65
REMARK SMILES IDX 40 66 38 67 64 68 65 69 73 70 66 71 67 72 71 73 74 74 68 75
REMARK SMILES IDX 69 76 72 77 70 78 49 79 50 80 58 81 51 82 52 83 56 84 59 85
REMARK SMILES IDX 53 86 54 87 57 88 55 89
REMARK H PARENT 79 42 47 53
REMARK Flexibility Score: inf
ROOT
ATOM      1  O   UNL A   1      33.856  28.634  26.849  1.00  0.00    -0.374 OA
ENDROOT
BRANCH   1   2
ATOM      2  C   UNL A   1      33.286  27.392  26.485  1.00  0.00     0.202 C 
BRANCH   2   3
ATOM      3  C   UNL A   1      31.822  27.456  26.823  1.00  0.00     0.261 C 
BRANCH   3   4
ATOM      4  O   UNL A   1      31.183  26.166  26.942  1.00  0.00    -0.463 OA
BRANCH   4   5
ATOM      5  C   UNL A   1      30.464  25.588  25.927  1.00  0.00     0.311 C 
ATOM      6  O   UNL A   1      29.684  26.149  25.175  1.00  0.00    -0.252 OA
BRANCH   5   7
ATOM      7  C   UNL A   1      30.774  24.114  25.860  1.00  0.00     0.179 C 
BRANCH   7   8
ATOM      8  C   UNL A   1      31.994  23.977  25.021  1.00  0.00     0.063 A 
ATOM      9  C   UNL A   1      34.182  23.713  24.848  1.00  0.00     0.123 A 
ATOM     10  N   UNL A   1      33.160  23.624  25.667  1.00  0.00    -0.240 NA
ATOM     11  S   UNL A   1      33.811  24.277  23.268  1.00  0.00    -0.122 S 
ATOM     12  C   UNL A   1      32.149  24.329  23.695  1.00  0.00     0.091 A 
BRANCH   9  13
ATOM     13  C   UNL A   1      35.496  23.170  25.161  1.00  0.00     0.013 A 
ATOM     14  C   UNL A   1      34.590  20.813  24.718  1.00  0.00     0.045 C 
ATOM     15  C   UNL A   1      35.697  21.776  25.069  1.00  0.00    -0.041 A 
ATOM     16  C   UNL A   1      36.965  21.253  25.346  1.00  0.00     0.004 A 
ATOM     17  C   UNL A   1      38.016  22.092  25.716  1.00  0.00     0.000 A 
ATOM     18  C   UNL A   1      36.550  24.005  25.566  1.00  0.00     0.011 A 
ATOM     19  C   UNL A   1      37.808  23.464  25.838  1.00  0.00     0.001 A 
ENDBRANCH   9  13
ENDBRANCH   7   8
ENDBRANCH   5   7
ENDBRANCH   4   5
ENDBRANCH   3   4
ENDBRANCH   2   3
ENDBRANCH   1   2
BRANCH   1  20
ATOM     20  C   UNL A   1      32.972  29.736  26.904  1.00  0.00     0.202 C 
BRANCH  20  21
ATOM     21  C   UNL A   1      33.590  30.975  27.564  1.00  0.00     0.261 C 
BRANCH  21  22
ATOM     22  O   UNL A   1      35.021  30.994  27.364  1.00  0.00    -0.460 OA
BRANCH  22  23
ATOM     23  C   UNL A   1      35.776  31.130  28.488  1.00  0.00     0.338 C 
ATOM     24  O   UNL A   1      35.875  32.161  29.148  1.00  0.00    -0.246 OA
BRANCH  23  25
ATOM     25  C   UNL A   1      36.678  29.956  28.643  1.00  0.00     0.060 A 
ATOM     26  C   UNL A   1      36.818  29.325  29.896  1.00  0.00     0.016 A 
ATOM     27  C   UNL A   1      37.628  29.743  27.652  1.00  0.00     0.016 A 
ATOM     28  C   UNL A   1      37.996  28.629  30.211  1.00  0.00     0.010 A 
ATOM     29  C   UNL A   1      38.840  29.206  28.024  1.00  0.00     0.010 A 
ATOM     30  C   UNL A   1      39.046  28.649  29.298  1.00  0.00    -0.014 A 
BRANCH  30  31
ATOM     31  C   UNL A   1      40.410  28.150  29.506  1.00  0.00     0.031 A 
ATOM     32  C   UNL A   1      40.729  26.801  28.979  1.00  0.00     0.074 A 
ATOM     33  C   UNL A   1      41.434  28.960  29.871  1.00  0.00     0.049 A 
ATOM     34  N   UNL A   1      41.827  26.173  29.220  1.00  0.00    -0.248 NA
ATOM     35  C   UNL A   1      39.804  26.009  28.172  1.00  0.00     0.031 C 
ATOM     36  C   UNL A   1      42.844  28.816  29.497  1.00  0.00     0.029 A 
ATOM     37  N   UNL A   1      41.433  30.146  30.616  1.00  0.00    -0.354 N 
ATOM     38  C   UNL A   1      41.907  25.117  28.343  1.00  0.00     0.074 A 
ATOM     39  C   UNL A   1      40.569  24.972  27.832  1.00  0.00     0.031 C 
ATOM     40  C   UNL A   1      43.589  29.690  30.195  1.00  0.00     0.029 A 
ATOM     41  C   UNL A   1      42.719  30.325  31.163  1.00  0.00     0.049 A 
ATOM     42  H   UNL A   1      40.666  30.750  30.736  1.00  0.00     0.167 HD
ATOM     43  C   UNL A   1      43.140  24.604  28.065  1.00  0.00     0.037 A 
ATOM     44  C   UNL A   1      42.886  30.418  32.511  1.00  0.00     0.037 A 
ATOM     45  C   UNL A   1      44.174  25.271  28.880  1.00  0.00     0.049 A 
ATOM     46  C   UNL A   1      43.621  29.214  33.029  1.00  0.00     0.074 A 
ATOM     47  C   UNL A   1      45.168  26.203  28.623  1.00  0.00     0.029 A 
ATOM     48  N   UNL A   1      44.069  25.219  30.262  1.00  0.00    -0.354 N 
ATOM     49  N   UNL A   1      44.076  28.282  32.240  1.00  0.00    -0.248 NA
ATOM     50  C   UNL A   1      43.839  28.897  34.436  1.00  0.00     0.031 C 
ATOM     51  C   UNL A   1      45.655  26.693  29.876  1.00  0.00     0.029 A 
ATOM     52  C   UNL A   1      44.974  26.048  30.895  1.00  0.00     0.049 A 
ATOM     53  H   UNL A   1      43.420  24.651  30.738  1.00  0.00     0.167 HD
ATOM     54  C   UNL A   1      44.540  27.237  32.963  1.00  0.00     0.074 A 
ATOM     55  C   UNL A   1      44.376  27.665  34.345  1.00  0.00     0.031 C 
ATOM     56  C   UNL A   1      44.987  26.101  32.355  1.00  0.00     0.037 A 
BRANCH  43  57
ATOM     57  C   UNL A   1      43.482  23.650  26.928  1.00  0.00     0.064 A 
ATOM     58  C   UNL A   1      43.060  22.302  26.992  1.00  0.00     0.173 A 
ATOM     59  C   UNL A   1      44.237  23.953  25.775  1.00  0.00     0.173 A 
ATOM     60  F   UNL A   1      42.265  21.864  27.979  1.00  0.00    -0.203 F 
ATOM     61  C   UNL A   1      43.423  21.344  26.039  1.00  0.00     0.198 A 
ATOM     62  C   UNL A   1      44.611  22.993  24.828  1.00  0.00     0.198 A 
ATOM     63  F   UNL A   1      44.623  25.188  25.467  1.00  0.00    -0.203 F 
ATOM     64  F   UNL A   1      42.999  20.080  26.177  1.00  0.00    -0.200 F 
ATOM     65  C   UNL A   1      44.212  21.685  24.964  1.00  0.00     0.200 A 
ATOM     66  F   UNL A   1      45.359  23.360  23.775  1.00  0.00    -0.200 F 
ATOM     67  F   UNL A   1      44.568  20.769  24.055  1.00  0.00    -0.200 F 
ENDBRANCH  43  57
BRANCH  44  68
ATOM     68  C   UNL A   1      41.754  31.153  33.146  1.00  0.00     0.064 A 
ATOM     69  C   UNL A   1      41.723  32.555  32.972  1.00  0.00     0.173 A 
ATOM     70  C   UNL A   1      40.535  30.507  33.397  1.00  0.00     0.173 A 
ATOM     71  F   UNL A   1      42.858  33.222  32.712  1.00  0.00    -0.203 F 
ATOM     72  C   UNL A   1      40.516  33.250  32.908  1.00  0.00     0.198 A 
ATOM     73  C   UNL A   1      39.327  31.206  33.310  1.00  0.00     0.198 A 
ATOM     74  F   UNL A   1      40.498  29.177  33.562  1.00  0.00    -0.203 F 
ATOM     75  F   UNL A   1      40.506  34.556  32.594  1.00  0.00    -0.200 F 
ATOM     76  C   UNL A   1      39.318  32.566  33.030  1.00  0.00     0.200 A 
ATOM     77  F   UNL A   1      38.165  30.542  33.388  1.00  0.00    -0.200 F 
ATOM     78  F   UNL A   1      38.158  33.201  32.806  1.00  0.00    -0.200 F 
ENDBRANCH  44  68
BRANCH  56  79
ATOM     79  C   UNL A   1      45.475  24.929  33.137  1.00  0.00     0.064 A 
ATOM     80  C   UNL A   1      44.610  23.901  33.538  1.00  0.00     0.173 A 
ATOM     81  C   UNL A   1      46.811  24.836  33.578  1.00  0.00     0.173 A 
ATOM     82  F   UNL A   1      43.301  23.953  33.249  1.00  0.00    -0.203 F 
ATOM     83  C   UNL A   1      45.076  22.802  34.254  1.00  0.00     0.198 A 
ATOM     84  C   UNL A   1      47.255  23.775  34.356  1.00  0.00     0.198 A 
ATOM     85  F   UNL A   1      47.733  25.749  33.240  1.00  0.00    -0.203 F 
ATOM     86  F   UNL A   1      44.239  21.795  34.536  1.00  0.00    -0.200 F 
ATOM     87  C   UNL A   1      46.394  22.742  34.669  1.00  0.00     0.200 A 
ATOM     88  F   UNL A   1      48.525  23.753  34.784  1.00  0.00    -0.200 F 
ATOM     89  F   UNL A   1      46.838  21.687  35.364  1.00  0.00    -0.200 F 
ENDBRANCH  56  79
ENDBRANCH  30  31
ENDBRANCH  23  25
ENDBRANCH  22  23
ENDBRANCH  21  22
ENDBRANCH  20  21
ENDBRANCH   1  20
TORSDOF 16
ENDMDL
MODEL 3
REMARK VINA RESULT:     -11.2      3.581      9.685
REMARK SMILES Cc1ccccc1-c1nc(CC(=O)OCCOCCOC(=O)c2ccc(-c3c4nc(c(-c5c(F)c(F)c(F)c(F)c5F)c5ccc([nH]5)c(-c5c(F)c(F)c(F)c(F)c5F)c5nc(c(-c6c(F)c(F)c(F)c(F)c6F)c6ccc3[nH]6)C=C5)C=C4)cc2)cs1
REMARK SMILES IDX 17 1 16 2 15 3 14 4 12 5 13 6 11 7 10 8 8 9 9 10 87 11 86 12
REMARK SMILES IDX 7 13 1 14 2 15 3 16 4 17 6 18 5 19 18 20 19 21 20 22 21 23
REMARK SMILES IDX 22 24 23 25 24 26 85 27 25 28 84 29 26 30 27 31 28 32 78 33
REMARK SMILES IDX 29 34 83 35 77 36 79 37 30 38 82 39 76 40 75 41 31 43 63 44
REMARK SMILES IDX 43 45 62 46 44 47 47 48 61 49 80 50 45 51 46 52 60 54 81 55
REMARK SMILES IDX 48 56 32 57 33 58 41 59 34 60 35 61 39 62 42 63 36 64 37 65
REMARK SMILES IDX 40 66 38 67 64 68 65 69 73 70 66 71 67 72 71 73 74 74 68 75
REMARK SMILES IDX 69 76 72 77 70 78 49 79 50 80 58 81 51 82 52 83 56 84 59 85
REMARK SMILES IDX 53 86 54 87 57 88 55 89
REMARK H PARENT 79 42 47 53
REMARK Flexibility Score: inf
ROOT
ATOM      1  O   UNL A   1      33.522  28.534  27.064  1.00  0.00    -0.374 OA
ENDROOT
BRANCH   1   2
ATOM      2  C   UNL A   1      33.435  27.461  26.146  1.00  0.00     0.202 C 
BRANCH   2   3
ATOM      3  C   UNL A   1      31.997  27.352  25.721  1.00  0.00     0.261 C 
BRANCH   3   4
ATOM      4  O   UNL A   1      31.267  26.286  26.367  1.00  0.00    -0.463 OA
BRANCH   4   5
ATOM      5  C   UNL A   1      30.717  25.231  25.684  1.00  0.00     0.311 C 
ATOM      6  O   UNL A   1      30.213  25.265  24.573  1.00  0.00    -0.252 OA
BRANCH   5   7
ATOM      7  C   UNL A   1      30.819  23.979  26.517  1.00  0.00     0.179 C 
BRANCH   7   8
ATOM      8  C   UNL A   1      31.900  23.157  25.912  1.00  0.00     0.063 A 
ATOM      9  C   UNL A   1      32.678  21.193  25.259  1.00  0.00     0.123 A 
ATOM     10  N   UNL A   1      31.596  21.845  25.616  1.00  0.00    -0.240 NA
ATOM     11  S   UNL A   1      34.134  22.103  25.308  1.00  0.00    -0.122 S 
ATOM     12  C   UNL A   1      33.232  23.490  25.766  1.00  0.00     0.091 A 
BRANCH   9  13
ATOM     13  C   UNL A   1      32.641  19.870  24.652  1.00  0.00     0.013 A 
ATOM     14  C   UNL A   1      32.062  20.957  22.402  1.00  0.00     0.045 C 
ATOM     15  C   UNL A   1      32.373  19.763  23.270  1.00  0.00    -0.041 A 
ATOM     16  C   UNL A   1      32.360  18.495  22.678  1.00  0.00     0.004 A 
ATOM     17  C   UNL A   1      32.599  17.351  23.439  1.00  0.00     0.000 A 
ATOM     18  C   UNL A   1      32.848  18.712  25.418  1.00  0.00     0.011 A 
ATOM     19  C   UNL A   1      32.832  17.456  24.808  1.00  0.00     0.001 A 
ENDBRANCH   9  13
ENDBRANCH   7   8
ENDBRANCH   5   7
ENDBRANCH   4   5
ENDBRANCH   3   4
ENDBRANCH   2   3
ENDBRANCH   1   2
BRANCH   1  20
ATOM     20  C   UNL A   1      32.572  29.569  26.908  1.00  0.00     0.202 C 
BRANCH  20  21
ATOM     21  C   UNL A   1      33.057  30.922  27.444  1.00  0.00     0.261 C 
BRANCH  21  22
ATOM     22  O   UNL A   1      34.480  31.065  27.243  1.00  0.00    -0.460 OA
BRANCH  22  23
ATOM     23  C   UNL A   1      35.218  31.288  28.363  1.00  0.00     0.338 C 
ATOM     24  O   UNL A   1      35.283  32.360  28.961  1.00  0.00    -0.246 OA
BRANCH  23  25
ATOM     25  C   UNL A   1      36.149  30.151  28.599  1.00  0.00     0.060 A 
ATOM     26  C   UNL A   1      36.310  29.617  29.893  1.00  0.00     0.016 A 
ATOM     27  C   UNL A   1      37.099  29.887  27.619  1.00  0.00     0.016 A 
ATOM     28  C   UNL A   1      37.506  28.974  30.251  1.00  0.00     0.010 A 
ATOM     29  C   UNL A   1      38.325  29.407  28.021  1.00  0.00     0.010 A 
ATOM     30  C   UNL A   1      38.551  28.951  29.332  1.00  0.00    -0.014 A 
BRANCH  30  31
ATOM     31  C   UNL A   1      39.928  28.501  29.566  1.00  0.00     0.031 A 
ATOM     32  C   UNL A   1      40.295  27.151  29.073  1.00  0.00     0.074 A 
ATOM     33  C   UNL A   1      40.921  29.351  29.923  1.00  0.00     0.049 A 
ATOM     34  N   UNL A   1      41.410  26.564  29.341  1.00  0.00    -0.248 NA
ATOM     35  C   UNL A   1      39.405  26.312  28.276  1.00  0.00     0.031 C 
ATOM     36  C   UNL A   1      42.339  29.243  29.568  1.00  0.00     0.029 A 
ATOM     37  N   UNL A   1      40.873  30.553  30.640  1.00  0.00    -0.354 N 
ATOM     38  C   UNL A   1      41.533  25.491  28.490  1.00  0.00     0.074 A 
ATOM     39  C   UNL A   1      40.207  25.293  27.967  1.00  0.00     0.031 C 
ATOM     40  C   UNL A   1      43.048  30.156  30.253  1.00  0.00     0.029 A 
ATOM     41  C   UNL A   1      42.146  30.786  31.198  1.00  0.00     0.049 A 
ATOM     42  H   UNL A   1      40.087  31.135  30.738  1.00  0.00     0.167 HD
ATOM     43  C   UNL A   1      42.785  25.012  28.237  1.00  0.00     0.037 A 
ATOM     44  C   UNL A   1      42.295  30.915  32.544  1.00  0.00     0.037 A 
ATOM     45  C   UNL A   1      43.788  25.730  29.048  1.00  0.00     0.049 A 
ATOM     46  C   UNL A   1      43.062  29.746  33.098  1.00  0.00     0.074 A 
ATOM     47  C   UNL A   1      44.754  26.687  28.781  1.00  0.00     0.029 A 
ATOM     48  N   UNL A   1      43.668  25.706  30.429  1.00  0.00    -0.354 N 
ATOM     49  N   UNL A   1      43.555  28.812  32.337  1.00  0.00    -0.248 NA
ATOM     50  C   UNL A   1      43.273  29.469  34.514  1.00  0.00     0.031 C 
ATOM     51  C   UNL A   1      45.211  27.220  30.027  1.00  0.00     0.029 A 
ATOM     52  C   UNL A   1      44.539  26.577  31.054  1.00  0.00     0.049 A 
ATOM     53  H   UNL A   1      43.032  25.129  30.912  1.00  0.00     0.167 HD
ATOM     54  C   UNL A   1      44.044  27.799  33.089  1.00  0.00     0.074 A 
ATOM     55  C   UNL A   1      43.850  28.253  34.458  1.00  0.00     0.031 C 
ATOM     56  C   UNL A   1      44.533  26.664  32.512  1.00  0.00     0.037 A 
BRANCH  43  57
ATOM     57  C   UNL A   1      43.170  24.044  27.127  1.00  0.00     0.064 A 
ATOM     58  C   UNL A   1      42.776  22.688  27.209  1.00  0.00     0.173 A 
ATOM     59  C   UNL A   1      43.942  24.340  25.983  1.00  0.00     0.173 A 
ATOM     60  F   UNL A   1      41.971  22.252  28.188  1.00  0.00    -0.203 F 
ATOM     61  C   UNL A   1      43.178  21.720  26.283  1.00  0.00     0.198 A 
ATOM     62  C   UNL A   1      44.355  23.371  25.063  1.00  0.00     0.198 A 
ATOM     63  F   UNL A   1      44.307  25.577  25.658  1.00  0.00    -0.203 F 
ATOM     64  F   UNL A   1      42.779  20.450  26.437  1.00  0.00    -0.200 F 
ATOM     65  C   UNL A   1      43.981  22.057  25.217  1.00  0.00     0.200 A 
ATOM     66  F   UNL A   1      45.116  23.734  24.018  1.00  0.00    -0.200 F 
ATOM     67  F   UNL A   1      44.375  21.131  24.333  1.00  0.00    -0.200 F 
ENDBRANCH  43  57
BRANCH  44  68
ATOM     68  C   UNL A   1      41.133  31.627  33.150  1.00  0.00     0.064 A 
ATOM     69  C   UNL A   1      41.053  33.021  32.933  1.00  0.00     0.173 A 
ATOM     70  C   UNL A   1      39.936  30.946  33.413  1.00  0.00     0.173 A 
ATOM     71  F   UNL A   1      42.166  33.721  32.660  1.00  0.00    -0.203 F 
ATOM     72  C   UNL A   1      39.822  33.670  32.840  1.00  0.00     0.198 A 
ATOM     73  C   UNL A   1      38.705  31.598  33.298  1.00  0.00     0.198 A 
ATOM     74  F   UNL A   1      39.946  29.621  33.619  1.00  0.00    -0.203 F 
ATOM     75  F   UNL A   1      39.768  34.965  32.487  1.00  0.00    -0.200 F 
ATOM     76  C   UNL A   1      38.649  32.947  32.976  1.00  0.00     0.200 A 
ATOM     77  F   UNL A   1      37.566  30.895  33.388  1.00  0.00    -0.200 F 
ATOM     78  F   UNL A   1      37.468  33.533  32.725  1.00  0.00    -0.200 F 
ENDBRANCH  44  68
BRANCH  56  79
ATOM     79  C   UNL A   1      45.049  25.526  33.326  1.00  0.00     0.064 A 
ATOM     80  C   UNL A   1      46.408  25.182  33.328  1.00  0.00     0.173 A 
ATOM     81  C   UNL A   1      44.187  24.695  34.070  1.00  0.00     0.173 A 
ATOM     82  F   UNL A   1      47.289  25.856  32.573  1.00  0.00    -0.203 F 
ATOM     83  C   UNL A   1      46.887  24.130  34.103  1.00  0.00     0.198 A 
ATOM     84  C   UNL A   1      44.659  23.600  34.782  1.00  0.00     0.198 A 
ATOM     85  F   UNL A   1      42.872  24.938  34.159  1.00  0.00    -0.203 F 
ATOM     86  F   UNL A   1      48.204  23.892  34.154  1.00  0.00    -0.200 F 
ATOM     87  C   UNL A   1      46.012  23.336  34.824  1.00  0.00     0.200 A 
ATOM     88  F   UNL A   1      43.794  22.817  35.441  1.00  0.00    -0.200 F 
ATOM     89  F   UNL A   1      46.474  22.319  35.563  1.00  0.00    -0.200 F 
ENDBRANCH  56  79
ENDBRANCH  30  31
ENDBRANCH  23  25
ENDBRANCH  22  23
ENDBRANCH  21  22
ENDBRANCH  20  21
ENDBRANCH   1  20
TORSDOF 16
ENDMDL
