MODEL 1
REMARK VINA RESULT:     -10.4      0.000      0.000
REMARK SMILES CC(C)NC(=O)CNC(=O)N1CCO[C@@H](CC(=O)OCCOCCOC(=O)c2ccc(-c3c4nc(c(-c5c(F)c(F)c(F)c(F)c5F)c5ccc([nH]5)c(-c5c(F)c(F)c(F)c(F)c5F)c5nc(c(-c6c(F)c(F)c(F)c(F)c6F)c6ccc3[nH]6)C=C5)C=C4)cc2)C1
REMARK SMILES IDX 20 1 19 2 17 3 18 4 16 5 15 6 11 7 12 8 91 9 13 10 14 11
REMARK SMILES IDX 9 12 8 13 10 15 7 16 5 17 4 18 6 20 2 21 1 22 3 23 21 24
REMARK SMILES IDX 22 25 23 26 24 27 25 28 26 29 27 30 28 31 29 32 90 33 30 34
REMARK SMILES IDX 89 35 31 36 32 37 33 38 83 39 34 40 88 41 82 42 84 43 35 44
REMARK SMILES IDX 87 45 81 46 80 47 36 49 68 50 48 51 67 52 49 53 52 54 66 55
REMARK SMILES IDX 85 56 50 57 51 58 65 60 86 61 53 62 37 63 38 64 46 65 39 66
REMARK SMILES IDX 40 67 44 68 47 69 41 70 42 71 45 72 43 73 69 74 70 75 78 76
REMARK SMILES IDX 71 77 72 78 76 79 79 80 73 81 74 82 77 83 75 84 54 85 55 86
REMARK SMILES IDX 63 87 56 88 57 89 61 90 64 91 58 92 59 93 62 94 60 95
REMARK H PARENT 8 14 4 19 84 48 52 59
REMARK Flexibility Score: inf
ROOT
ATOM      1  C   UNL A   1      39.407  21.606  26.007  1.00  0.00     0.261 C 
ENDROOT
BRANCH   1   2
ATOM      2  O   UNL A   1      38.230  21.542  25.171  1.00  0.00    -0.463 OA
BRANCH   2   3
ATOM      3  C   UNL A   1      37.423  22.630  25.255  1.00  0.00     0.308 C 
ATOM      4  O   UNL A   1      37.278  23.307  26.269  1.00  0.00    -0.252 OA
BRANCH   3   5
ATOM      5  C   UNL A   1      36.612  22.911  24.021  1.00  0.00     0.156 C 
BRANCH   5   6
ATOM      6  C   UNL A   1      35.155  23.364  24.100  1.00  0.00     0.149 C 
ATOM      7  N   UNL A   1      33.619  25.278  24.506  1.00  0.00    -0.320 N 
ATOM      8  C   UNL A   1      33.378  25.383  23.074  1.00  0.00     0.150 C 
ATOM      9  C   UNL A   1      34.947  24.721  24.821  1.00  0.00     0.154 C 
ATOM     10  C   UNL A   1      33.467  23.988  22.475  1.00  0.00     0.182 C 
ATOM     11  O   UNL A   1      34.770  23.445  22.696  1.00  0.00    -0.374 OA
BRANCH   7  12
ATOM     12  C   UNL A   1      32.868  25.873  25.473  1.00  0.00     0.318 C 
ATOM     13  N   UNL A   1      31.680  25.345  25.850  1.00  0.00    -0.329 N 
ATOM     14  H   UNL A   1      31.146  25.932  26.431  1.00  0.00     0.165 HD
ATOM     15  O   UNL A   1      33.261  26.867  26.080  1.00  0.00    -0.249 OA
BRANCH  13  16
ATOM     16  C   UNL A   1      31.049  24.067  25.553  1.00  0.00     0.217 C 
BRANCH  16  17
ATOM     17  C   UNL A   1      30.837  23.142  26.754  1.00  0.00     0.239 C 
ATOM     18  N   UNL A   1      31.747  22.164  27.029  1.00  0.00    -0.352 N 
ATOM     19  H   UNL A   1      31.455  21.486  27.680  1.00  0.00     0.163 HD
ATOM     20  O   UNL A   1      29.811  23.199  27.433  1.00  0.00    -0.273 OA
BRANCH  18  21
ATOM     21  C   UNL A   1      33.087  21.981  26.494  1.00  0.00     0.075 C 
ATOM     22  C   UNL A   1      34.068  21.999  27.661  1.00  0.00     0.030 C 
ATOM     23  C   UNL A   1      33.159  20.682  25.698  1.00  0.00     0.030 C 
ENDBRANCH  18  21
ENDBRANCH  16  17
ENDBRANCH  13  16
ENDBRANCH   7  12
ENDBRANCH   5   6
ENDBRANCH   3   5
ENDBRANCH   2   3
ENDBRANCH   1   2
BRANCH   1  24
ATOM     24  C   UNL A   1      40.278  20.341  26.056  1.00  0.00     0.202 C 
BRANCH  24  25
ATOM     25  O   UNL A   1      41.631  20.449  26.470  1.00  0.00    -0.374 OA
BRANCH  25  26
ATOM     26  C   UNL A   1      42.343  19.257  26.755  1.00  0.00     0.202 C 
BRANCH  26  27
ATOM     27  C   UNL A   1      43.156  18.599  25.639  1.00  0.00     0.261 C 
BRANCH  27  28
ATOM     28  O   UNL A   1      43.434  19.413  24.490  1.00  0.00    -0.460 OA
BRANCH  28  29
ATOM     29  C   UNL A   1      44.746  19.669  24.268  1.00  0.00     0.338 C 
ATOM     30  O   UNL A   1      45.584  18.925  23.779  1.00  0.00    -0.246 OA
BRANCH  29  31
ATOM     31  C   UNL A   1      45.049  21.042  24.687  1.00  0.00     0.060 A 
ATOM     32  C   UNL A   1      45.514  21.298  25.980  1.00  0.00     0.016 A 
ATOM     33  C   UNL A   1      44.790  22.088  23.805  1.00  0.00     0.016 A 
ATOM     34  C   UNL A   1      45.726  22.617  26.387  1.00  0.00     0.010 A 
ATOM     35  C   UNL A   1      45.035  23.401  24.202  1.00  0.00     0.010 A 
ATOM     36  C   UNL A   1      45.479  23.678  25.503  1.00  0.00    -0.014 A 
BRANCH  36  37
ATOM     37  C   UNL A   1      45.590  25.091  25.941  1.00  0.00     0.031 A 
ATOM     38  C   UNL A   1      46.927  25.773  25.886  1.00  0.00     0.074 A 
ATOM     39  C   UNL A   1      44.514  25.738  26.427  1.00  0.00     0.049 A 
ATOM     40  N   UNL A   1      47.273  26.966  26.303  1.00  0.00    -0.248 NA
ATOM     41  C   UNL A   1      48.030  25.002  25.290  1.00  0.00     0.031 C 
ATOM     42  C   UNL A   1      43.169  25.176  26.531  1.00  0.00     0.029 A 
ATOM     43  N   UNL A   1      44.391  27.004  26.942  1.00  0.00    -0.354 N 
ATOM     44  C   UNL A   1      48.630  27.080  26.031  1.00  0.00     0.074 A 
ATOM     45  C   UNL A   1      49.055  25.826  25.450  1.00  0.00     0.031 C 
ATOM     46  C   UNL A   1      42.354  26.094  27.075  1.00  0.00     0.029 A 
ATOM     47  C   UNL A   1      43.127  27.291  27.395  1.00  0.00     0.049 A 
ATOM     48  H   UNL A   1      45.137  27.646  26.980  1.00  0.00     0.167 HD
ATOM     49  C   UNL A   1      49.444  28.143  26.235  1.00  0.00     0.037 A 
ATOM     50  C   UNL A   1      42.658  28.389  28.019  1.00  0.00     0.037 A 
ATOM     51  C   UNL A   1      49.012  29.387  26.815  1.00  0.00     0.049 A 
ATOM     52  C   UNL A   1      43.595  29.538  28.286  1.00  0.00     0.074 A 
ATOM     53  C   UNL A   1      49.749  30.535  27.048  1.00  0.00     0.029 A 
ATOM     54  N   UNL A   1      47.723  29.641  27.263  1.00  0.00    -0.354 N 
ATOM     55  N   UNL A   1      44.867  29.656  27.990  1.00  0.00    -0.248 NA
ATOM     56  C   UNL A   1      43.031  30.709  28.973  1.00  0.00     0.031 C 
ATOM     57  C   UNL A   1      48.918  31.467  27.679  1.00  0.00     0.029 A 
ATOM     58  C   UNL A   1      47.648  30.920  27.790  1.00  0.00     0.049 A 
ATOM     59  H   UNL A   1      46.974  29.004  27.215  1.00  0.00     0.167 HD
ATOM     60  C   UNL A   1      45.246  30.921  28.418  1.00  0.00     0.074 A 
ATOM     61  C   UNL A   1      44.068  31.536  28.994  1.00  0.00     0.031 C 
ATOM     62  C   UNL A   1      46.459  31.521  28.337  1.00  0.00     0.037 A 
BRANCH  49  63
ATOM     63  C   UNL A   1      50.887  27.997  25.842  1.00  0.00     0.064 A 
ATOM     64  C   UNL A   1      51.879  27.687  26.785  1.00  0.00     0.173 A 
ATOM     65  C   UNL A   1      51.281  28.148  24.503  1.00  0.00     0.173 A 
ATOM     66  F   UNL A   1      51.559  27.543  28.080  1.00  0.00    -0.203 F 
ATOM     67  C   UNL A   1      53.215  27.568  26.409  1.00  0.00     0.198 A 
ATOM     68  C   UNL A   1      52.613  27.997  24.126  1.00  0.00     0.198 A 
ATOM     69  F   UNL A   1      50.374  28.437  23.559  1.00  0.00    -0.203 F 
ATOM     70  F   UNL A   1      54.151  27.326  27.337  1.00  0.00    -0.200 F 
ATOM     71  C   UNL A   1      53.580  27.717  25.080  1.00  0.00     0.200 A 
ATOM     72  F   UNL A   1      52.962  28.126  22.838  1.00  0.00    -0.200 F 
ATOM     73  F   UNL A   1      54.865  27.598  24.719  1.00  0.00    -0.200 F 
ENDBRANCH  49  63
BRANCH  50  74
ATOM     74  C   UNL A   1      41.229  28.461  28.422  1.00  0.00     0.064 A 
ATOM     75  C   UNL A   1      40.821  28.057  29.700  1.00  0.00     0.173 A 
ATOM     76  C   UNL A   1      40.243  28.935  27.543  1.00  0.00     0.173 A 
ATOM     77  F   UNL A   1      41.721  27.575  30.570  1.00  0.00    -0.203 F 
ATOM     78  C   UNL A   1      39.481  28.111  30.080  1.00  0.00     0.198 A 
ATOM     79  C   UNL A   1      38.908  29.014  27.933  1.00  0.00     0.198 A 
ATOM     80  F   UNL A   1      40.580  29.335  26.308  1.00  0.00    -0.203 F 
ATOM     81  F   UNL A   1      39.113  27.679  31.295  1.00  0.00    -0.200 F 
ATOM     82  C   UNL A   1      38.527  28.595  29.199  1.00  0.00     0.200 A 
ATOM     83  F   UNL A   1      37.991  29.496  27.084  1.00  0.00    -0.200 F 
ATOM     84  F   UNL A   1      37.239  28.653  29.567  1.00  0.00    -0.200 F 
ENDBRANCH  50  74
BRANCH  62  85
ATOM     85  C   UNL A   1      46.567  32.935  28.828  1.00  0.00     0.064 A 
ATOM     86  C   UNL A   1      46.309  34.030  27.991  1.00  0.00     0.173 A 
ATOM     87  C   UNL A   1      46.869  33.192  30.174  1.00  0.00     0.173 A 
ATOM     88  F   UNL A   1      46.030  33.837  26.693  1.00  0.00    -0.203 F 
ATOM     89  C   UNL A   1      46.363  35.332  28.482  1.00  0.00     0.198 A 
ATOM     90  C   UNL A   1      46.893  34.492  30.668  1.00  0.00     0.198 A 
ATOM     91  F   UNL A   1      47.117  32.178  31.017  1.00  0.00    -0.203 F 
ATOM     92  F   UNL A   1      46.148  36.366  27.658  1.00  0.00    -0.200 F 
ATOM     93  C   UNL A   1      46.644  35.561  29.821  1.00  0.00     0.200 A 
ATOM     94  F   UNL A   1      47.151  34.711  31.965  1.00  0.00    -0.200 F 
ATOM     95  F   UNL A   1      46.681  36.815  30.294  1.00  0.00    -0.200 F 
ENDBRANCH  62  85
ENDBRANCH  36  37
ENDBRANCH  29  31
ENDBRANCH  28  29
ENDBRANCH  27  28
ENDBRANCH  26  27
ENDBRANCH  25  26
ENDBRANCH  24  25
ENDBRANCH   1  24
TORSDOF 19
ENDMDL
MODEL 2
REMARK VINA RESULT:     -10.3      2.850      5.154
REMARK SMILES CC(C)NC(=O)CNC(=O)N1CCO[C@@H](CC(=O)OCCOCCOC(=O)c2ccc(-c3c4nc(c(-c5c(F)c(F)c(F)c(F)c5F)c5ccc([nH]5)c(-c5c(F)c(F)c(F)c(F)c5F)c5nc(c(-c6c(F)c(F)c(F)c(F)c6F)c6ccc3[nH]6)C=C5)C=C4)cc2)C1
REMARK SMILES IDX 20 1 19 2 17 3 18 4 16 5 15 6 11 7 12 8 91 9 13 10 14 11
REMARK SMILES IDX 9 12 8 13 10 15 7 16 5 17 4 18 6 20 2 21 1 22 3 23 21 24
REMARK SMILES IDX 22 25 23 26 24 27 25 28 26 29 27 30 28 31 29 32 90 33 30 34
REMARK SMILES IDX 89 35 31 36 32 37 33 38 83 39 34 40 88 41 82 42 84 43 35 44
REMARK SMILES IDX 87 45 81 46 80 47 36 49 68 50 48 51 67 52 49 53 52 54 66 55
REMARK SMILES IDX 85 56 50 57 51 58 65 60 86 61 53 62 37 63 38 64 46 65 39 66
REMARK SMILES IDX 40 67 44 68 47 69 41 70 42 71 45 72 43 73 69 74 70 75 78 76
REMARK SMILES IDX 71 77 72 78 76 79 79 80 73 81 74 82 77 83 75 84 54 85 55 86
REMARK SMILES IDX 63 87 56 88 57 89 61 90 64 91 58 92 59 93 62 94 60 95
REMARK H PARENT 8 14 4 19 84 48 52 59
REMARK Flexibility Score: inf
ROOT
ATOM      1  C   UNL A   1      32.951  22.447  24.973  1.00  0.00     0.261 C 
ENDROOT
BRANCH   1   2
ATOM      2  O   UNL A   1      32.881  23.706  25.677  1.00  0.00    -0.463 OA
BRANCH   2   3
ATOM      3  C   UNL A   1      31.627  24.070  26.053  1.00  0.00     0.308 C 
ATOM      4  O   UNL A   1      31.274  24.233  27.217  1.00  0.00    -0.252 OA
BRANCH   3   5
ATOM      5  C   UNL A   1      30.636  24.168  24.927  1.00  0.00     0.156 C 
BRANCH   5   6
ATOM      6  C   UNL A   1      30.542  25.410  24.042  1.00  0.00     0.149 C 
ATOM      7  N   UNL A   1      31.190  27.797  23.777  1.00  0.00    -0.320 N 
ATOM      8  C   UNL A   1      32.203  27.410  22.806  1.00  0.00     0.150 C 
ATOM      9  C   UNL A   1      30.908  26.735  24.760  1.00  0.00     0.154 C 
ATOM     10  C   UNL A   1      31.699  26.186  22.056  1.00  0.00     0.182 C 
ATOM     11  O   UNL A   1      31.486  25.109  22.971  1.00  0.00    -0.374 OA
BRANCH   7  12
ATOM     12  C   UNL A   1      30.740  29.066  23.977  1.00  0.00     0.318 C 
ATOM     13  N   UNL A   1      31.380  29.902  24.827  1.00  0.00    -0.329 N 
ATOM     14  H   UNL A   1      30.887  30.730  25.023  1.00  0.00     0.165 HD
ATOM     15  O   UNL A   1      29.783  29.520  23.354  1.00  0.00    -0.249 OA
BRANCH  13  16
ATOM     16  C   UNL A   1      32.665  29.799  25.505  1.00  0.00     0.217 C 
BRANCH  16  17
ATOM     17  C   UNL A   1      32.597  29.602  27.020  1.00  0.00     0.239 C 
ATOM     18  N   UNL A   1      33.589  30.095  27.816  1.00  0.00    -0.352 N 
ATOM     19  H   UNL A   1      33.591  29.765  28.743  1.00  0.00     0.163 HD
ATOM     20  O   UNL A   1      31.709  28.924  27.540  1.00  0.00    -0.273 OA
BRANCH  18  21
ATOM     21  C   UNL A   1      34.644  31.040  27.487  1.00  0.00     0.075 C 
ATOM     22  C   UNL A   1      34.345  32.353  28.201  1.00  0.00     0.030 C 
ATOM     23  C   UNL A   1      36.002  30.464  27.880  1.00  0.00     0.030 C 
ENDBRANCH  18  21
ENDBRANCH  16  17
ENDBRANCH  13  16
ENDBRANCH   7  12
ENDBRANCH   5   6
ENDBRANCH   3   5
ENDBRANCH   2   3
ENDBRANCH   1   2
BRANCH   1  24
ATOM     24  C   UNL A   1      33.380  21.226  25.801  1.00  0.00     0.202 C 
BRANCH  24  25
ATOM     25  O   UNL A   1      34.528  20.491  25.405  1.00  0.00    -0.374 OA
BRANCH  25  26
ATOM     26  C   UNL A   1      35.644  21.208  24.903  1.00  0.00     0.202 C 
BRANCH  26  27
ATOM     27  C   UNL A   1      37.050  20.761  25.308  1.00  0.00     0.261 C 
BRANCH  27  28
ATOM     28  O   UNL A   1      38.058  21.782  25.334  1.00  0.00    -0.460 OA
BRANCH  28  29
ATOM     29  C   UNL A   1      39.080  21.562  26.197  1.00  0.00     0.338 C 
ATOM     30  O   UNL A   1      39.558  20.489  26.537  1.00  0.00    -0.246 OA
BRANCH  29  31
ATOM     31  C   UNL A   1      39.590  22.850  26.680  1.00  0.00     0.060 A 
ATOM     32  C   UNL A   1      39.064  24.047  26.185  1.00  0.00     0.016 A 
ATOM     33  C   UNL A   1      40.655  22.860  27.577  1.00  0.00     0.016 A 
ATOM     34  C   UNL A   1      39.611  25.263  26.600  1.00  0.00     0.010 A 
ATOM     35  C   UNL A   1      41.177  24.075  28.016  1.00  0.00     0.010 A 
ATOM     36  C   UNL A   1      40.678  25.285  27.512  1.00  0.00    -0.014 A 
BRANCH  36  37
ATOM     37  C   UNL A   1      41.349  26.553  27.886  1.00  0.00     0.031 A 
ATOM     38  C   UNL A   1      42.781  26.770  27.485  1.00  0.00     0.074 A 
ATOM     39  C   UNL A   1      40.698  27.477  28.615  1.00  0.00     0.049 A 
ATOM     40  N   UNL A   1      43.590  27.756  27.783  1.00  0.00    -0.248 NA
ATOM     41  C   UNL A   1      43.390  25.727  26.645  1.00  0.00     0.031 C 
ATOM     42  C   UNL A   1      39.311  27.373  29.062  1.00  0.00     0.029 A 
ATOM     43  N   UNL A   1      41.126  28.678  29.123  1.00  0.00    -0.354 N 
ATOM     44  C   UNL A   1      44.801  27.446  27.177  1.00  0.00     0.074 A 
ATOM     45  C   UNL A   1      44.635  26.164  26.529  1.00  0.00     0.031 C 
ATOM     46  C   UNL A   1      39.000  28.466  29.778  1.00  0.00     0.029 A 
ATOM     47  C   UNL A   1      40.177  29.326  29.875  1.00  0.00     0.049 A 
ATOM     48  H   UNL A   1      42.028  29.041  28.963  1.00  0.00     0.167 HD
ATOM     49  C   UNL A   1      45.943  28.174  27.153  1.00  0.00     0.037 A 
ATOM     50  C   UNL A   1      40.260  30.471  30.578  1.00  0.00     0.037 A 
ATOM     51  C   UNL A   1      46.098  29.448  27.803  1.00  0.00     0.049 A 
ATOM     52  C   UNL A   1      41.558  31.236  30.584  1.00  0.00     0.074 A 
ATOM     53  C   UNL A   1      47.204  30.279  27.825  1.00  0.00     0.029 A 
ATOM     54  N   UNL A   1      45.113  30.072  28.556  1.00  0.00    -0.354 N 
ATOM     55  N   UNL A   1      42.687  30.957  29.975  1.00  0.00    -0.248 NA
ATOM     56  C   UNL A   1      41.595  32.477  31.371  1.00  0.00     0.031 C 
ATOM     57  C   UNL A   1      46.905  31.383  28.629  1.00  0.00     0.029 A 
ATOM     58  C   UNL A   1      45.593  31.268  29.064  1.00  0.00     0.049 A 
ATOM     59  H   UNL A   1      44.208  29.716  28.708  1.00  0.00     0.167 HD
ATOM     60  C   UNL A   1      43.552  32.001  30.274  1.00  0.00     0.074 A 
ATOM     61  C   UNL A   1      42.819  32.922  31.118  1.00  0.00     0.031 C 
ATOM     62  C   UNL A   1      44.837  32.183  29.883  1.00  0.00     0.037 A 
BRANCH  49  63
ATOM     63  C   UNL A   1      47.117  27.597  26.413  1.00  0.00     0.064 A 
ATOM     64  C   UNL A   1      47.342  27.878  25.057  1.00  0.00     0.173 A 
ATOM     65  C   UNL A   1      48.041  26.773  27.073  1.00  0.00     0.173 A 
ATOM     66  F   UNL A   1      46.483  28.651  24.375  1.00  0.00    -0.203 F 
ATOM     67  C   UNL A   1      48.427  27.326  24.380  1.00  0.00     0.198 A 
ATOM     68  C   UNL A   1      49.142  26.248  26.401  1.00  0.00     0.198 A 
ATOM     69  F   UNL A   1      47.879  26.478  28.372  1.00  0.00    -0.203 F 
ATOM     70  F   UNL A   1      48.589  27.563  23.071  1.00  0.00    -0.200 F 
ATOM     71  C   UNL A   1      49.329  26.517  25.054  1.00  0.00     0.200 A 
ATOM     72  F   UNL A   1      50.022  25.479  27.058  1.00  0.00    -0.200 F 
ATOM     73  F   UNL A   1      50.375  25.990  24.402  1.00  0.00    -0.200 F 
ENDBRANCH  49  63
BRANCH  50  74
ATOM     74  C   UNL A   1      39.077  30.972  31.326  1.00  0.00     0.064 A 
ATOM     75  C   UNL A   1      38.852  30.591  32.656  1.00  0.00     0.173 A 
ATOM     76  C   UNL A   1      38.150  31.841  30.731  1.00  0.00     0.173 A 
ATOM     77  F   UNL A   1      39.697  29.744  33.262  1.00  0.00    -0.203 F 
ATOM     78  C   UNL A   1      37.738  31.048  33.358  1.00  0.00     0.198 A 
ATOM     79  C   UNL A   1      37.052  32.319  31.443  1.00  0.00     0.198 A 
ATOM     80  F   UNL A   1      38.318  32.237  29.462  1.00  0.00    -0.203 F 
ATOM     81  F   UNL A   1      37.525  30.634  34.615  1.00  0.00    -0.200 F 
ATOM     82  C   UNL A   1      36.843  31.916  32.753  1.00  0.00     0.200 A 
ATOM     83  F   UNL A   1      36.196  33.169  30.860  1.00  0.00    -0.200 F 
ATOM     84  F   UNL A   1      35.775  32.360  33.432  1.00  0.00    -0.200 F 
ENDBRANCH  50  74
BRANCH  62  85
ATOM     85  C   UNL A   1      45.519  33.449  30.308  1.00  0.00     0.064 A 
ATOM     86  C   UNL A   1      46.298  33.515  31.471  1.00  0.00     0.173 A 
ATOM     87  C   UNL A   1      45.445  34.595  29.500  1.00  0.00     0.173 A 
ATOM     88  F   UNL A   1      46.389  32.452  32.285  1.00  0.00    -0.203 F 
ATOM     89  C   UNL A   1      46.966  34.687  31.819  1.00  0.00     0.198 A 
ATOM     90  C   UNL A   1      46.137  35.754  29.834  1.00  0.00     0.198 A 
ATOM     91  F   UNL A   1      44.718  34.580  28.372  1.00  0.00    -0.203 F 
ATOM     92  F   UNL A   1      47.677  34.740  32.953  1.00  0.00    -0.200 F 
ATOM     93  C   UNL A   1      46.894  35.801  30.995  1.00  0.00     0.200 A 
ATOM     94  F   UNL A   1      46.078  36.824  29.030  1.00  0.00    -0.200 F 
ATOM     95  F   UNL A   1      47.551  36.922  31.323  1.00  0.00    -0.200 F 
ENDBRANCH  62  85
ENDBRANCH  36  37
ENDBRANCH  29  31
ENDBRANCH  28  29
ENDBRANCH  27  28
ENDBRANCH  26  27
ENDBRANCH  25  26
ENDBRANCH  24  25
ENDBRANCH   1  24
TORSDOF 19
ENDMDL
MODEL 3
REMARK VINA RESULT:     -10.2      3.672      9.749
REMARK SMILES CC(C)NC(=O)CNC(=O)N1CCO[C@@H](CC(=O)OCCOCCOC(=O)c2ccc(-c3c4nc(c(-c5c(F)c(F)c(F)c(F)c5F)c5ccc([nH]5)c(-c5c(F)c(F)c(F)c(F)c5F)c5nc(c(-c6c(F)c(F)c(F)c(F)c6F)c6ccc3[nH]6)C=C5)C=C4)cc2)C1
REMARK SMILES IDX 20 1 19 2 17 3 18 4 16 5 15 6 11 7 12 8 91 9 13 10 14 11
REMARK SMILES IDX 9 12 8 13 10 15 7 16 5 17 4 18 6 20 2 21 1 22 3 23 21 24
REMARK SMILES IDX 22 25 23 26 24 27 25 28 26 29 27 30 28 31 29 32 90 33 30 34
REMARK SMILES IDX 89 35 31 36 32 37 33 38 83 39 34 40 88 41 82 42 84 43 35 44
REMARK SMILES IDX 87 45 81 46 80 47 36 49 68 50 48 51 67 52 49 53 52 54 66 55
REMARK SMILES IDX 85 56 50 57 51 58 65 60 86 61 53 62 37 63 38 64 46 65 39 66
REMARK SMILES IDX 40 67 44 68 47 69 41 70 42 71 45 72 43 73 69 74 70 75 78 76
REMARK SMILES IDX 71 77 72 78 76 79 79 80 73 81 74 82 77 83 75 84 54 85 55 86
REMARK SMILES IDX 63 87 56 88 57 89 61 90 64 91 58 92 59 93 62 94 60 95
REMARK H PARENT 8 14 4 19 84 48 52 59
REMARK Flexibility Score: inf
ROOT
ATOM      1  C   UNL A   1      34.477  31.797  28.319  1.00  0.00     0.261 C 
ENDROOT
BRANCH   1   2
ATOM      2  O   UNL A   1      34.310  31.002  27.125  1.00  0.00    -0.463 OA
BRANCH   2   3
ATOM      3  C   UNL A   1      33.080  30.443  26.991  1.00  0.00     0.308 C 
ATOM      4  O   UNL A   1      32.066  31.066  26.691  1.00  0.00    -0.252 OA
BRANCH   3   5
ATOM      5  C   UNL A   1      33.009  28.982  27.341  1.00  0.00     0.156 C 
BRANCH   5   6
ATOM      6  C   UNL A   1      32.644  27.922  26.303  1.00  0.00     0.149 C 
ATOM      7  N   UNL A   1      30.914  27.124  24.704  1.00  0.00    -0.320 N 
ATOM      8  C   UNL A   1      31.690  27.670  23.598  1.00  0.00     0.150 C 
ATOM      9  C   UNL A   1      31.131  27.853  25.967  1.00  0.00     0.154 C 
ATOM     10  C   UNL A   1      33.164  27.571  23.960  1.00  0.00     0.182 C 
ATOM     11  O   UNL A   1      33.427  28.330  25.142  1.00  0.00    -0.374 OA
BRANCH   7  12
ATOM     12  C   UNL A   1      29.885  26.242  24.578  1.00  0.00     0.318 C 
ATOM     13  N   UNL A   1      29.932  25.032  25.181  1.00  0.00    -0.329 N 
ATOM     14  H   UNL A   1      29.222  24.414  24.897  1.00  0.00     0.165 HD
ATOM     15  O   UNL A   1      28.855  26.530  23.971  1.00  0.00    -0.249 OA
BRANCH  13  16
ATOM     16  C   UNL A   1      30.842  24.478  26.173  1.00  0.00     0.217 C 
BRANCH  16  17
ATOM     17  C   UNL A   1      30.455  23.107  26.731  1.00  0.00     0.239 C 
ATOM     18  N   UNL A   1      31.052  21.982  26.244  1.00  0.00    -0.352 N 
ATOM     19  H   UNL A   1      30.622  21.132  26.494  1.00  0.00     0.163 HD
ATOM     20  O   UNL A   1      29.545  22.982  27.551  1.00  0.00    -0.273 OA
BRANCH  18  21
ATOM     21  C   UNL A   1      32.235  21.859  25.406  1.00  0.00     0.075 C 
ATOM     22  C   UNL A   1      33.463  21.959  26.304  1.00  0.00     0.030 C 
ATOM     23  C   UNL A   1      32.191  20.546  24.629  1.00  0.00     0.030 C 
ENDBRANCH  18  21
ENDBRANCH  16  17
ENDBRANCH  13  16
ENDBRANCH   7  12
ENDBRANCH   5   6
ENDBRANCH   3   5
ENDBRANCH   2   3
ENDBRANCH   1   2
BRANCH   1  24
ATOM     24  C   UNL A   1      35.141  33.170  28.137  1.00  0.00     0.202 C 
BRANCH  24  25
ATOM     25  O   UNL A   1      35.310  34.012  29.267  1.00  0.00    -0.374 OA
BRANCH  25  26
ATOM     26  C   UNL A   1      34.335  33.961  30.294  1.00  0.00     0.202 C 
BRANCH  26  27
ATOM     27  C   UNL A   1      34.763  33.527  31.697  1.00  0.00     0.261 C 
BRANCH  27  28
ATOM     28  O   UNL A   1      35.220  32.173  31.832  1.00  0.00    -0.460 OA
BRANCH  28  29
ATOM     29  C   UNL A   1      36.278  32.002  32.663  1.00  0.00     0.338 C 
ATOM     30  O   UNL A   1      36.337  32.237  33.861  1.00  0.00    -0.246 OA
BRANCH  29  31
ATOM     31  C   UNL A   1      37.401  31.440  31.905  1.00  0.00     0.060 A 
ATOM     32  C   UNL A   1      38.468  30.831  32.572  1.00  0.00     0.016 A 
ATOM     33  C   UNL A   1      37.424  31.593  30.521  1.00  0.00     0.016 A 
ATOM     34  C   UNL A   1      39.564  30.368  31.841  1.00  0.00     0.010 A 
ATOM     35  C   UNL A   1      38.503  31.100  29.790  1.00  0.00     0.010 A 
ATOM     36  C   UNL A   1      39.593  30.507  30.445  1.00  0.00    -0.014 A 
BRANCH  36  37
ATOM     37  C   UNL A   1      40.788  30.125  29.655  1.00  0.00     0.031 A 
ATOM     38  C   UNL A   1      40.876  28.740  29.082  1.00  0.00     0.074 A 
ATOM     39  C   UNL A   1      41.802  30.995  29.494  1.00  0.00     0.049 A 
ATOM     40  N   UNL A   1      41.862  28.163  28.441  1.00  0.00    -0.248 NA
ATOM     41  C   UNL A   1      39.695  27.880  29.266  1.00  0.00     0.031 C 
ATOM     42  C   UNL A   1      41.828  32.363  30.007  1.00  0.00     0.029 A 
ATOM     43  N   UNL A   1      43.014  30.847  28.867  1.00  0.00    -0.354 N 
ATOM     44  C   UNL A   1      41.425  26.874  28.159  1.00  0.00     0.074 A 
ATOM     45  C   UNL A   1      40.103  26.740  28.729  1.00  0.00     0.031 C 
ATOM     46  C   UNL A   1      42.999  32.932  29.673  1.00  0.00     0.029 A 
ATOM     47  C   UNL A   1      43.819  31.956  28.961  1.00  0.00     0.049 A 
ATOM     48  H   UNL A   1      43.281  30.025  28.394  1.00  0.00     0.167 HD
ATOM     49  C   UNL A   1      42.066  25.898  27.472  1.00  0.00     0.037 A 
ATOM     50  C   UNL A   1      45.083  32.148  28.538  1.00  0.00     0.037 A 
ATOM     51  C   UNL A   1      43.382  26.042  26.910  1.00  0.00     0.049 A 
ATOM     52  C   UNL A   1      45.797  31.029  27.826  1.00  0.00     0.074 A 
ATOM     53  C   UNL A   1      44.116  25.125  26.178  1.00  0.00     0.029 A 
ATOM     54  N   UNL A   1      44.168  27.181  27.026  1.00  0.00    -0.354 N 
ATOM     55  N   UNL A   1      45.363  29.827  27.526  1.00  0.00    -0.248 NA
ATOM     56  C   UNL A   1      47.176  31.292  27.390  1.00  0.00     0.031 C 
ATOM     57  C   UNL A   1      45.362  25.691  25.892  1.00  0.00     0.029 A 
ATOM     58  C   UNL A   1      45.385  26.982  26.397  1.00  0.00     0.049 A 
ATOM     59  H   UNL A   1      43.898  28.007  27.489  1.00  0.00     0.167 HD
ATOM     60  C   UNL A   1      46.397  29.207  26.838  1.00  0.00     0.074 A 
ATOM     61  C   UNL A   1      47.481  30.164  26.761  1.00  0.00     0.031 C 
ATOM     62  C   UNL A   1      46.443  27.958  26.312  1.00  0.00     0.037 A 
BRANCH  49  63
ATOM     63  C   UNL A   1      41.354  24.585  27.308  1.00  0.00     0.064 A 
ATOM     64  C   UNL A   1      40.249  24.448  26.454  1.00  0.00     0.173 A 
ATOM     65  C   UNL A   1      41.796  23.444  27.994  1.00  0.00     0.173 A 
ATOM     66  F   UNL A   1      39.779  25.510  25.782  1.00  0.00    -0.203 F 
ATOM     67  C   UNL A   1      39.591  23.228  26.322  1.00  0.00     0.198 A 
ATOM     68  C   UNL A   1      41.155  22.218  27.836  1.00  0.00     0.198 A 
ATOM     69  F   UNL A   1      42.853  23.515  28.818  1.00  0.00    -0.203 F 
ATOM     70  F   UNL A   1      38.504  23.136  25.544  1.00  0.00    -0.200 F 
ATOM     71  C   UNL A   1      40.048  22.113  27.008  1.00  0.00     0.200 A 
ATOM     72  F   UNL A   1      41.608  21.138  28.488  1.00  0.00    -0.200 F 
ATOM     73  F   UNL A   1      39.416  20.938  26.876  1.00  0.00    -0.200 F 
ENDBRANCH  49  63
BRANCH  50  74
ATOM     74  C   UNL A   1      45.752  33.456  28.766  1.00  0.00     0.064 A 
ATOM     75  C   UNL A   1      46.489  33.694  29.933  1.00  0.00     0.173 A 
ATOM     76  C   UNL A   1      45.671  34.493  27.823  1.00  0.00     0.173 A 
ATOM     77  F   UNL A   1      46.578  32.743  30.875  1.00  0.00    -0.203 F 
ATOM     78  C   UNL A   1      47.108  34.923  30.158  1.00  0.00     0.198 A 
ATOM     79  C   UNL A   1      46.313  35.711  28.036  1.00  0.00     0.198 A 
ATOM     80  F   UNL A   1      44.979  34.317  26.689  1.00  0.00    -0.203 F 
ATOM     81  F   UNL A   1      47.772  35.137  31.302  1.00  0.00    -0.200 F 
ATOM     82  C   UNL A   1      47.025  35.927  29.206  1.00  0.00     0.200 A 
ATOM     83  F   UNL A   1      46.243  36.675  27.108  1.00  0.00    -0.200 F 
ATOM     84  F   UNL A   1      47.626  37.106  29.419  1.00  0.00    -0.200 F 
ENDBRANCH  50  74
BRANCH  62  85
ATOM     85  C   UNL A   1      47.678  27.569  25.555  1.00  0.00     0.064 A 
ATOM     86  C   UNL A   1      48.795  27.017  26.197  1.00  0.00     0.173 A 
ATOM     87  C   UNL A   1      47.715  27.690  24.157  1.00  0.00     0.173 A 
ATOM     88  F   UNL A   1      48.815  26.893  27.533  1.00  0.00    -0.203 F 
ATOM     89  C   UNL A   1      49.911  26.613  25.468  1.00  0.00     0.198 A 
ATOM     90  C   UNL A   1      48.819  27.259  23.429  1.00  0.00     0.198 A 
ATOM     91  F   UNL A   1      46.668  28.207  23.496  1.00  0.00    -0.203 F 
ATOM     92  F   UNL A   1      50.983  26.121  26.103  1.00  0.00    -0.200 F 
ATOM     93  C   UNL A   1      49.918  26.725  24.085  1.00  0.00     0.200 A 
ATOM     94  F   UNL A   1      48.818  27.354  22.092  1.00  0.00    -0.200 F 
ATOM     95  F   UNL A   1      50.986  26.321  23.384  1.00  0.00    -0.200 F 
ENDBRANCH  62  85
ENDBRANCH  36  37
ENDBRANCH  29  31
ENDBRANCH  28  29
ENDBRANCH  27  28
ENDBRANCH  26  27
ENDBRANCH  25  26
ENDBRANCH  24  25
ENDBRANCH   1  24
TORSDOF 19
ENDMDL
