MODEL 1
REMARK VINA RESULT:     -11.5      0.000      0.000
REMARK SMILES C#Cc1ccc2c(c1)C=C(C(=O)OCCOCCOC(=O)c1ccc(-c3c4nc(c(-c5c(F)c(F)c(F)c(F)c5F)c5ccc([nH]5)c(-c5c(F)c(F)c(F)c(F)c5F)c5nc(c(-c6c(F)c(F)c(F)c(F)c6F)c6ccc3[nH]6)C=C5)C=C4)cc1)[C@@H](C(F)(F)F)O2
REMARK SMILES IDX 17 1 16 2 15 3 14 4 13 5 11 6 12 7 10 8 3 9 4 10 8 11 5 12
REMARK SMILES IDX 7 13 6 14 9 15 90 16 85 17 2 18 1 19 86 20 87 21 88 22 89 23
REMARK SMILES IDX 18 24 19 25 20 26 21 27 22 28 23 29 84 30 24 31 83 32 25 33
REMARK SMILES IDX 26 34 27 35 77 36 28 37 82 38 76 39 78 40 29 41 81 42 75 43
REMARK SMILES IDX 74 44 30 46 62 47 42 48 61 49 43 50 46 51 60 52 79 53 44 54
REMARK SMILES IDX 45 55 59 57 80 58 47 59 31 60 32 61 40 62 33 63 34 64 38 65
REMARK SMILES IDX 41 66 35 67 36 68 39 69 37 70 63 71 64 72 72 73 65 74 66 75
REMARK SMILES IDX 70 76 73 77 67 78 68 79 71 80 69 81 48 82 49 83 57 84 50 85
REMARK SMILES IDX 51 86 55 87 58 88 52 89 53 90 56 91 54 92
REMARK H PARENT 78 45 46 56
REMARK Flexibility Score: inf
ROOT
ATOM      1  C   UNL A   1      32.060  31.098  26.773  1.00  0.00     0.202 C 
ENDROOT
BRANCH   1   2
ATOM      2  O   UNL A   1      33.385  30.640  26.517  1.00  0.00    -0.374 OA
BRANCH   2   3
ATOM      3  C   UNL A   1      33.866  29.483  27.192  1.00  0.00     0.202 C 
BRANCH   3   4
ATOM      4  C   UNL A   1      34.057  28.186  26.402  1.00  0.00     0.261 C 
BRANCH   4   5
ATOM      5  O   UNL A   1      33.746  28.337  25.010  1.00  0.00    -0.460 OA
BRANCH   5   6
ATOM      6  C   UNL A   1      33.324  27.195  24.414  1.00  0.00     0.338 C 
ATOM      7  O   UNL A   1      33.943  26.147  24.324  1.00  0.00    -0.246 OA
BRANCH   6   8
ATOM      8  C   UNL A   1      31.922  27.346  23.986  1.00  0.00     0.087 C 
ATOM      9  C   UNL A   1      28.625  30.182  21.961  1.00  0.00     0.025 A 
ATOM     10  C   UNL A   1      27.616  29.357  22.461  1.00  0.00     0.021 A 
ATOM     11  C   UNL A   1      29.963  29.833  22.150  1.00  0.00     0.029 A 
ATOM     12  C   UNL A   1      27.944  28.176  23.131  1.00  0.00     0.048 A 
ATOM     13  C   UNL A   1      30.292  28.674  22.860  1.00  0.00     0.018 A 
ATOM     14  C   UNL A   1      29.282  27.835  23.334  1.00  0.00     0.128 A 
ATOM     15  C   UNL A   1      31.675  28.386  23.181  1.00  0.00     0.027 C 
ATOM     16  O   UNL A   1      29.518  26.669  24.004  1.00  0.00    -0.475 OA
ATOM     17  C   UNL A   1      30.867  26.392  24.476  1.00  0.00     0.316 C 
BRANCH   9  18
ATOM     18  C   UNL A   1      28.300  31.401  21.291  1.00  0.00    -0.070 C 
ATOM     19  C   UNL A   1      28.011  32.414  20.710  1.00  0.00     0.010 C 
ENDBRANCH   9  18
BRANCH  17  20
ATOM     20  C   UNL A   1      30.835  26.288  26.008  1.00  0.00     0.430 C 
ATOM     21  F   UNL A   1      29.654  25.783  26.441  1.00  0.00    -0.167 F 
ATOM     22  F   UNL A   1      31.799  25.462  26.476  1.00  0.00    -0.167 F 
ATOM     23  F   UNL A   1      31.007  27.490  26.602  1.00  0.00    -0.167 F 
ENDBRANCH  17  20
ENDBRANCH   6   8
ENDBRANCH   5   6
ENDBRANCH   4   5
ENDBRANCH   3   4
ENDBRANCH   2   3
ENDBRANCH   1   2
BRANCH   1  24
ATOM     24  C   UNL A   1      31.784  32.604  26.887  1.00  0.00     0.261 C 
BRANCH  24  25
ATOM     25  O   UNL A   1      32.964  33.417  26.826  1.00  0.00    -0.460 OA
BRANCH  25  26
ATOM     26  C   UNL A   1      33.315  33.994  28.004  1.00  0.00     0.338 C 
ATOM     27  O   UNL A   1      32.703  34.842  28.628  1.00  0.00    -0.246 OA
BRANCH  26  28
ATOM     28  C   UNL A   1      34.489  33.287  28.549  1.00  0.00     0.060 A 
ATOM     29  C   UNL A   1      35.776  33.626  28.139  1.00  0.00     0.016 A 
ATOM     30  C   UNL A   1      34.283  32.293  29.515  1.00  0.00     0.016 A 
ATOM     31  C   UNL A   1      36.866  32.973  28.714  1.00  0.00     0.010 A 
ATOM     32  C   UNL A   1      35.375  31.643  30.090  1.00  0.00     0.010 A 
ATOM     33  C   UNL A   1      36.677  31.990  29.706  1.00  0.00    -0.014 A 
BRANCH  33  34
ATOM     34  C   UNL A   1      37.850  31.416  30.411  1.00  0.00     0.031 A 
ATOM     35  C   UNL A   1      38.184  31.802  31.820  1.00  0.00     0.074 A 
ATOM     36  C   UNL A   1      38.620  30.527  29.756  1.00  0.00     0.049 A 
ATOM     37  N   UNL A   1      39.128  31.334  32.599  1.00  0.00    -0.248 NA
ATOM     38  C   UNL A   1      37.361  32.854  32.435  1.00  0.00     0.031 C 
ATOM     39  C   UNL A   1      38.413  30.104  28.370  1.00  0.00     0.029 A 
ATOM     40  N   UNL A   1      39.717  29.811  30.164  1.00  0.00    -0.354 N 
ATOM     41  C   UNL A   1      39.000  32.015  33.802  1.00  0.00     0.074 A 
ATOM     42  C   UNL A   1      37.925  32.971  33.631  1.00  0.00     0.031 C 
ATOM     43  C   UNL A   1      39.322  29.169  28.058  1.00  0.00     0.029 A 
ATOM     44  C   UNL A   1      40.202  28.956  29.204  1.00  0.00     0.049 A 
ATOM     45  H   UNL A   1      40.117  29.900  31.059  1.00  0.00     0.167 HD
ATOM     46  C   UNL A   1      39.699  31.835  34.948  1.00  0.00     0.037 A 
ATOM     47  C   UNL A   1      41.237  28.096  29.241  1.00  0.00     0.037 A 
ATOM     48  C   UNL A   1      40.777  30.889  35.104  1.00  0.00     0.049 A 
ATOM     49  C   UNL A   1      42.035  27.960  30.508  1.00  0.00     0.074 A 
ATOM     50  C   UNL A   1      41.523  30.616  36.237  1.00  0.00     0.029 A 
ATOM     51  N   UNL A   1      41.273  30.074  34.096  1.00  0.00    -0.354 N 
ATOM     52  N   UNL A   1      41.855  28.551  31.666  1.00  0.00    -0.248 NA
ATOM     53  C   UNL A   1      43.176  27.036  30.478  1.00  0.00     0.031 C 
ATOM     54  C   UNL A   1      42.513  29.688  35.898  1.00  0.00     0.029 A 
ATOM     55  C   UNL A   1      42.340  29.326  34.572  1.00  0.00     0.049 A 
ATOM     56  H   UNL A   1      40.919  30.032  33.178  1.00  0.00     0.167 HD
ATOM     57  C   UNL A   1      42.843  28.055  32.505  1.00  0.00     0.074 A 
ATOM     58  C   UNL A   1      43.606  27.097  31.731  1.00  0.00     0.031 C 
ATOM     59  C   UNL A   1      43.096  28.372  33.798  1.00  0.00     0.037 A 
BRANCH  46  60
ATOM     60  C   UNL A   1      39.323  32.671  36.139  1.00  0.00     0.064 A 
ATOM     61  C   UNL A   1      38.407  32.211  37.097  1.00  0.00     0.173 A 
ATOM     62  C   UNL A   1      39.942  33.910  36.370  1.00  0.00     0.173 A 
ATOM     63  F   UNL A   1      37.782  31.036  36.925  1.00  0.00    -0.203 F 
ATOM     64  C   UNL A   1      38.111  32.966  38.229  1.00  0.00     0.198 A 
ATOM     65  C   UNL A   1      39.669  34.646  37.520  1.00  0.00     0.198 A 
ATOM     66  F   UNL A   1      40.835  34.394  35.493  1.00  0.00    -0.203 F 
ATOM     67  F   UNL A   1      37.203  32.522  39.110  1.00  0.00    -0.200 F 
ATOM     68  C   UNL A   1      38.749  34.178  38.445  1.00  0.00     0.200 A 
ATOM     69  F   UNL A   1      40.305  35.807  37.737  1.00  0.00    -0.200 F 
ATOM     70  F   UNL A   1      38.478  34.894  39.544  1.00  0.00    -0.200 F 
ENDBRANCH  46  60
BRANCH  47  71
ATOM     71  C   UNL A   1      41.547  27.272  28.043  1.00  0.00     0.064 A 
ATOM     72  C   UNL A   1      40.909  26.042  27.830  1.00  0.00     0.173 A 
ATOM     73  C   UNL A   1      42.460  27.710  27.071  1.00  0.00     0.173 A 
ATOM     74  F   UNL A   1      40.043  25.570  28.738  1.00  0.00    -0.203 F 
ATOM     75  C   UNL A   1      41.179  25.279  26.696  1.00  0.00     0.198 A 
ATOM     76  C   UNL A   1      42.702  26.963  25.922  1.00  0.00     0.198 A 
ATOM     77  F   UNL A   1      43.094  28.882  27.226  1.00  0.00    -0.203 F 
ATOM     78  F   UNL A   1      40.582  24.090  26.534  1.00  0.00    -0.200 F 
ATOM     79  C   UNL A   1      42.066  25.745  25.737  1.00  0.00     0.200 A 
ATOM     80  F   UNL A   1      43.545  27.427  24.990  1.00  0.00    -0.200 F 
ATOM     81  F   UNL A   1      42.309  25.020  24.637  1.00  0.00    -0.200 F 
ENDBRANCH  47  71
BRANCH  59  82
ATOM     82  C   UNL A   1      44.240  27.673  34.481  1.00  0.00     0.064 A 
ATOM     83  C   UNL A   1      44.070  26.439  35.125  1.00  0.00     0.173 A 
ATOM     84  C   UNL A   1      45.538  28.208  34.423  1.00  0.00     0.173 A 
ATOM     85  F   UNL A   1      42.850  25.889  35.221  1.00  0.00    -0.203 F 
ATOM     86  C   UNL A   1      45.151  25.774  35.698  1.00  0.00     0.198 A 
ATOM     87  C   UNL A   1      46.622  27.522  34.965  1.00  0.00     0.198 A 
ATOM     88  F   UNL A   1      45.761  29.381  33.814  1.00  0.00    -0.203 F 
ATOM     89  F   UNL A   1      44.956  24.615  36.344  1.00  0.00    -0.200 F 
ATOM     90  C   UNL A   1      46.427  26.308  35.607  1.00  0.00     0.200 A 
ATOM     91  F   UNL A   1      47.857  28.031  34.856  1.00  0.00    -0.200 F 
ATOM     92  F   UNL A   1      47.469  25.655  36.139  1.00  0.00    -0.200 F 
ENDBRANCH  59  82
ENDBRANCH  33  34
ENDBRANCH  26  28
ENDBRANCH  25  26
ENDBRANCH  24  25
ENDBRANCH   1  24
TORSDOF 16
ENDMDL
MODEL 2
REMARK VINA RESULT:     -11.4      2.294      4.235
REMARK SMILES C#Cc1ccc2c(c1)C=C(C(=O)OCCOCCOC(=O)c1ccc(-c3c4nc(c(-c5c(F)c(F)c(F)c(F)c5F)c5ccc([nH]5)c(-c5c(F)c(F)c(F)c(F)c5F)c5nc(c(-c6c(F)c(F)c(F)c(F)c6F)c6ccc3[nH]6)C=C5)C=C4)cc1)[C@@H](C(F)(F)F)O2
REMARK SMILES IDX 17 1 16 2 15 3 14 4 13 5 11 6 12 7 10 8 3 9 4 10 8 11 5 12
REMARK SMILES IDX 7 13 6 14 9 15 90 16 85 17 2 18 1 19 86 20 87 21 88 22 89 23
REMARK SMILES IDX 18 24 19 25 20 26 21 27 22 28 23 29 84 30 24 31 83 32 25 33
REMARK SMILES IDX 26 34 27 35 77 36 28 37 82 38 76 39 78 40 29 41 81 42 75 43
REMARK SMILES IDX 74 44 30 46 62 47 42 48 61 49 43 50 46 51 60 52 79 53 44 54
REMARK SMILES IDX 45 55 59 57 80 58 47 59 31 60 32 61 40 62 33 63 34 64 38 65
REMARK SMILES IDX 41 66 35 67 36 68 39 69 37 70 63 71 64 72 72 73 65 74 66 75
REMARK SMILES IDX 70 76 73 77 67 78 68 79 71 80 69 81 48 82 49 83 57 84 50 85
REMARK SMILES IDX 51 86 55 87 58 88 52 89 53 90 56 91 54 92
REMARK H PARENT 78 45 46 56
REMARK Flexibility Score: inf
ROOT
ATOM      1  C   UNL A   1      31.409  32.407  26.606  1.00  0.00     0.202 C 
ENDROOT
BRANCH   1   2
ATOM      2  O   UNL A   1      31.618  31.066  26.174  1.00  0.00    -0.374 OA
BRANCH   2   3
ATOM      3  C   UNL A   1      32.741  30.342  26.665  1.00  0.00     0.202 C 
BRANCH   3   4
ATOM      4  C   UNL A   1      33.490  29.401  25.718  1.00  0.00     0.261 C 
BRANCH   4   5
ATOM      5  O   UNL A   1      33.638  28.080  26.256  1.00  0.00    -0.460 OA
BRANCH   5   6
ATOM      6  C   UNL A   1      32.694  27.204  25.833  1.00  0.00     0.338 C 
ATOM      7  O   UNL A   1      31.485  27.336  25.922  1.00  0.00    -0.246 OA
BRANCH   6   8
ATOM      8  C   UNL A   1      33.335  26.092  25.108  1.00  0.00     0.087 C 
ATOM      9  C   UNL A   1      36.936  22.926  24.987  1.00  0.00     0.025 A 
ATOM     10  C   UNL A   1      36.672  22.684  23.638  1.00  0.00     0.021 A 
ATOM     11  C   UNL A   1      36.108  23.781  25.714  1.00  0.00     0.029 A 
ATOM     12  C   UNL A   1      35.569  23.281  23.022  1.00  0.00     0.048 A 
ATOM     13  C   UNL A   1      35.031  24.415  25.085  1.00  0.00     0.018 A 
ATOM     14  C   UNL A   1      34.749  24.150  23.744  1.00  0.00     0.128 A 
ATOM     15  C   UNL A   1      34.258  25.412  25.799  1.00  0.00     0.027 C 
ATOM     16  O   UNL A   1      33.698  24.699  23.068  1.00  0.00    -0.475 OA
ATOM     17  C   UNL A   1      32.971  25.803  23.678  1.00  0.00     0.316 C 
BRANCH   9  18
ATOM     18  C   UNL A   1      38.072  22.334  25.620  1.00  0.00    -0.070 C 
ATOM     19  C   UNL A   1      39.018  21.842  26.176  1.00  0.00     0.010 C 
ENDBRANCH   9  18
BRANCH  17  20
ATOM     20  C   UNL A   1      33.112  27.036  22.774  1.00  0.00     0.430 C 
ATOM     21  F   UNL A   1      33.201  26.681  21.469  1.00  0.00    -0.167 F 
ATOM     22  F   UNL A   1      32.040  27.858  22.874  1.00  0.00    -0.167 F 
ATOM     23  F   UNL A   1      34.210  27.764  23.075  1.00  0.00    -0.167 F 
ENDBRANCH  17  20
ENDBRANCH   6   8
ENDBRANCH   5   6
ENDBRANCH   4   5
ENDBRANCH   3   4
ENDBRANCH   2   3
ENDBRANCH   1   2
BRANCH   1  24
ATOM     24  C   UNL A   1      32.563  33.188  27.251  1.00  0.00     0.261 C 
BRANCH  24  25
ATOM     25  O   UNL A   1      32.218  33.811  28.498  1.00  0.00    -0.460 OA
BRANCH  25  26
ATOM     26  C   UNL A   1      32.980  34.886  28.823  1.00  0.00     0.338 C 
ATOM     27  O   UNL A   1      32.666  36.062  28.776  1.00  0.00    -0.246 OA
BRANCH  26  28
ATOM     28  C   UNL A   1      34.226  34.413  29.453  1.00  0.00     0.060 A 
ATOM     29  C   UNL A   1      34.207  33.838  30.722  1.00  0.00     0.016 A 
ATOM     30  C   UNL A   1      35.424  34.519  28.732  1.00  0.00     0.016 A 
ATOM     31  C   UNL A   1      35.396  33.353  31.266  1.00  0.00     0.010 A 
ATOM     32  C   UNL A   1      36.611  34.031  29.278  1.00  0.00     0.010 A 
ATOM     33  C   UNL A   1      36.604  33.428  30.543  1.00  0.00    -0.014 A 
BRANCH  33  34
ATOM     34  C   UNL A   1      37.825  32.773  31.074  1.00  0.00     0.031 A 
ATOM     35  C   UNL A   1      38.528  33.294  32.291  1.00  0.00     0.074 A 
ATOM     36  C   UNL A   1      38.298  31.686  30.436  1.00  0.00     0.049 A 
ATOM     37  N   UNL A   1      39.560  32.791  32.921  1.00  0.00    -0.248 NA
ATOM     38  C   UNL A   1      38.016  34.543  32.872  1.00  0.00     0.031 C 
ATOM     39  C   UNL A   1      37.718  31.112  29.221  1.00  0.00     0.029 A 
ATOM     40  N   UNL A   1      39.358  30.863  30.722  1.00  0.00    -0.354 N 
ATOM     41  C   UNL A   1      39.808  33.646  33.986  1.00  0.00     0.074 A 
ATOM     42  C   UNL A   1      38.856  34.733  33.882  1.00  0.00     0.031 C 
ATOM     43  C   UNL A   1      38.399  30.005  28.892  1.00  0.00     0.029 A 
ATOM     44  C   UNL A   1      39.489  29.814  29.845  1.00  0.00     0.049 A 
ATOM     45  H   UNL A   1      39.966  31.010  31.482  1.00  0.00     0.167 HD
ATOM     46  C   UNL A   1      40.728  33.516  34.972  1.00  0.00     0.037 A 
ATOM     47  C   UNL A   1      40.384  28.808  29.813  1.00  0.00     0.037 A 
ATOM     48  C   UNL A   1      41.681  32.437  35.060  1.00  0.00     0.049 A 
ATOM     49  C   UNL A   1      41.433  28.722  30.886  1.00  0.00     0.074 A 
ATOM     50  C   UNL A   1      42.632  32.207  36.039  1.00  0.00     0.029 A 
ATOM     51  N   UNL A   1      41.817  31.417  34.128  1.00  0.00    -0.354 N 
ATOM     52  N   UNL A   1      41.609  29.492  31.933  1.00  0.00    -0.248 NA
ATOM     53  C   UNL A   1      42.406  27.627  30.776  1.00  0.00     0.031 C 
ATOM     54  C   UNL A   1      43.386  31.090  35.666  1.00  0.00     0.029 A 
ATOM     55  C   UNL A   1      42.860  30.578  34.491  1.00  0.00     0.049 A 
ATOM     56  H   UNL A   1      41.255  31.306  33.327  1.00  0.00     0.167 HD
ATOM     57  C   UNL A   1      42.695  28.963  32.618  1.00  0.00     0.074 A 
ATOM     58  C   UNL A   1      43.123  27.793  31.880  1.00  0.00     0.031 C 
ATOM     59  C   UNL A   1      43.283  29.413  33.753  1.00  0.00     0.037 A 
BRANCH  46  60
ATOM     60  C   UNL A   1      40.754  34.563  36.051  1.00  0.00     0.064 A 
ATOM     61  C   UNL A   1      39.880  34.506  37.147  1.00  0.00     0.173 A 
ATOM     62  C   UNL A   1      41.714  35.588  36.033  1.00  0.00     0.173 A 
ATOM     63  F   UNL A   1      38.941  33.550  37.214  1.00  0.00    -0.203 F 
ATOM     64  C   UNL A   1      39.953  35.445  38.173  1.00  0.00     0.198 A 
ATOM     65  C   UNL A   1      41.805  36.505  37.078  1.00  0.00     0.198 A 
ATOM     66  F   UNL A   1      42.583  35.684  35.015  1.00  0.00    -0.203 F 
ATOM     67  F   UNL A   1      39.081  35.392  39.190  1.00  0.00    -0.200 F 
ATOM     68  C   UNL A   1      40.921  36.437  38.143  1.00  0.00     0.200 A 
ATOM     69  F   UNL A   1      42.757  37.449  37.056  1.00  0.00    -0.200 F 
ATOM     70  F   UNL A   1      41.001  37.328  39.140  1.00  0.00    -0.200 F 
ENDBRANCH  46  60
BRANCH  47  71
ATOM     71  C   UNL A   1      40.295  27.783  28.738  1.00  0.00     0.064 A 
ATOM     72  C   UNL A   1      40.978  27.949  27.526  1.00  0.00     0.173 A 
ATOM     73  C   UNL A   1      39.553  26.605  28.913  1.00  0.00     0.173 A 
ATOM     74  F   UNL A   1      41.685  29.066  27.302  1.00  0.00    -0.203 F 
ATOM     75  C   UNL A   1      40.917  26.980  26.527  1.00  0.00     0.198 A 
ATOM     76  C   UNL A   1      39.520  25.622  27.928  1.00  0.00     0.198 A 
ATOM     77  F   UNL A   1      38.884  26.397  30.057  1.00  0.00    -0.203 F 
ATOM     78  F   UNL A   1      41.550  27.179  25.363  1.00  0.00    -0.200 F 
ATOM     79  C   UNL A   1      40.197  25.812  26.733  1.00  0.00     0.200 A 
ATOM     80  F   UNL A   1      38.840  24.487  28.140  1.00  0.00    -0.200 F 
ATOM     81  F   UNL A   1      40.155  24.871  25.780  1.00  0.00    -0.200 F 
ENDBRANCH  47  71
BRANCH  59  82
ATOM     82  C   UNL A   1      44.456  28.638  34.290  1.00  0.00     0.064 A 
ATOM     83  C   UNL A   1      45.774  28.960  33.936  1.00  0.00     0.173 A 
ATOM     84  C   UNL A   1      44.262  27.612  35.229  1.00  0.00     0.173 A 
ATOM     85  F   UNL A   1      46.016  29.924  33.035  1.00  0.00    -0.203 F 
ATOM     86  C   UNL A   1      46.853  28.275  34.491  1.00  0.00     0.198 A 
ATOM     87  C   UNL A   1      45.344  26.954  35.808  1.00  0.00     0.198 A 
ATOM     88  F   UNL A   1      43.023  27.266  35.608  1.00  0.00    -0.203 F 
ATOM     89  F   UNL A   1      48.102  28.574  34.107  1.00  0.00    -0.200 F 
ATOM     90  C   UNL A   1      46.639  27.282  35.434  1.00  0.00     0.200 A 
ATOM     91  F   UNL A   1      45.134  26.010  36.736  1.00  0.00    -0.200 F 
ATOM     92  F   UNL A   1      47.679  26.640  35.983  1.00  0.00    -0.200 F 
ENDBRANCH  59  82
ENDBRANCH  33  34
ENDBRANCH  26  28
ENDBRANCH  25  26
ENDBRANCH  24  25
ENDBRANCH   1  24
TORSDOF 16
ENDMDL
MODEL 3
REMARK VINA RESULT:     -11.4      0.644      1.829
REMARK SMILES C#Cc1ccc2c(c1)C=C(C(=O)OCCOCCOC(=O)c1ccc(-c3c4nc(c(-c5c(F)c(F)c(F)c(F)c5F)c5ccc([nH]5)c(-c5c(F)c(F)c(F)c(F)c5F)c5nc(c(-c6c(F)c(F)c(F)c(F)c6F)c6ccc3[nH]6)C=C5)C=C4)cc1)[C@@H](C(F)(F)F)O2
REMARK SMILES IDX 17 1 16 2 15 3 14 4 13 5 11 6 12 7 10 8 3 9 4 10 8 11 5 12
REMARK SMILES IDX 7 13 6 14 9 15 90 16 85 17 2 18 1 19 86 20 87 21 88 22 89 23
REMARK SMILES IDX 18 24 19 25 20 26 21 27 22 28 23 29 84 30 24 31 83 32 25 33
REMARK SMILES IDX 26 34 27 35 77 36 28 37 82 38 76 39 78 40 29 41 81 42 75 43
REMARK SMILES IDX 74 44 30 46 62 47 42 48 61 49 43 50 46 51 60 52 79 53 44 54
REMARK SMILES IDX 45 55 59 57 80 58 47 59 31 60 32 61 40 62 33 63 34 64 38 65
REMARK SMILES IDX 41 66 35 67 36 68 39 69 37 70 63 71 64 72 72 73 65 74 66 75
REMARK SMILES IDX 70 76 73 77 67 78 68 79 71 80 69 81 48 82 49 83 57 84 50 85
REMARK SMILES IDX 51 86 55 87 58 88 52 89 53 90 56 91 54 92
REMARK H PARENT 78 45 46 56
REMARK Flexibility Score: inf
ROOT
ATOM      1  C   UNL A   1      32.734  31.031  26.998  1.00  0.00     0.202 C 
ENDROOT
BRANCH   1   2
ATOM      2  O   UNL A   1      34.143  30.820  27.002  1.00  0.00    -0.374 OA
BRANCH   2   3
ATOM      3  C   UNL A   1      34.653  29.517  27.261  1.00  0.00     0.202 C 
BRANCH   3   4
ATOM      4  C   UNL A   1      33.966  28.309  26.618  1.00  0.00     0.261 C 
BRANCH   4   5
ATOM      5  O   UNL A   1      33.720  28.493  25.218  1.00  0.00    -0.460 OA
BRANCH   5   6
ATOM      6  C   UNL A   1      33.361  27.360  24.569  1.00  0.00     0.338 C 
ATOM      7  O   UNL A   1      34.020  26.338  24.464  1.00  0.00    -0.246 OA
BRANCH   6   8
ATOM      8  C   UNL A   1      31.969  27.476  24.097  1.00  0.00     0.087 C 
ATOM      9  C   UNL A   1      28.655  30.246  22.009  1.00  0.00     0.025 A 
ATOM     10  C   UNL A   1      27.656  29.384  22.463  1.00  0.00     0.021 A 
ATOM     11  C   UNL A   1      29.996  29.934  22.236  1.00  0.00     0.029 A 
ATOM     12  C   UNL A   1      27.998  28.201  23.125  1.00  0.00     0.048 A 
ATOM     13  C   UNL A   1      30.336  28.773  22.939  1.00  0.00     0.018 A 
ATOM     14  C   UNL A   1      29.338  27.897  23.366  1.00  0.00     0.128 A 
ATOM     15  C   UNL A   1      31.717  28.522  23.301  1.00  0.00     0.027 C 
ATOM     16  O   UNL A   1      29.588  26.728  24.026  1.00  0.00    -0.475 OA
ATOM     17  C   UNL A   1      30.928  26.484  24.538  1.00  0.00     0.316 C 
BRANCH   9  18
ATOM     18  C   UNL A   1      28.315  31.466  21.348  1.00  0.00    -0.070 C 
ATOM     19  C   UNL A   1      28.029  32.505  20.814  1.00  0.00     0.010 C 
ENDBRANCH   9  18
BRANCH  17  20
ATOM     20  C   UNL A   1      30.850  26.354  26.065  1.00  0.00     0.430 C 
ATOM     21  F   UNL A   1      30.928  27.567  26.666  1.00  0.00    -0.167 F 
ATOM     22  F   UNL A   1      29.678  25.804  26.464  1.00  0.00    -0.167 F 
ATOM     23  F   UNL A   1      31.847  25.588  26.562  1.00  0.00    -0.167 F 
ENDBRANCH  17  20
ENDBRANCH   6   8
ENDBRANCH   5   6
ENDBRANCH   4   5
ENDBRANCH   3   4
ENDBRANCH   2   3
ENDBRANCH   1   2
BRANCH   1  24
ATOM     24  C   UNL A   1      32.173  32.432  27.284  1.00  0.00     0.261 C 
BRANCH  24  25
ATOM     25  O   UNL A   1      33.151  33.478  27.198  1.00  0.00    -0.460 OA
BRANCH  25  26
ATOM     26  C   UNL A   1      33.286  34.220  28.327  1.00  0.00     0.338 C 
ATOM     27  O   UNL A   1      32.523  35.065  28.757  1.00  0.00    -0.246 OA
BRANCH  26  28
ATOM     28  C   UNL A   1      34.432  33.705  29.099  1.00  0.00     0.060 A 
ATOM     29  C   UNL A   1      34.249  32.729  30.076  1.00  0.00     0.016 A 
ATOM     30  C   UNL A   1      35.713  34.192  28.803  1.00  0.00     0.016 A 
ATOM     31  C   UNL A   1      35.363  32.227  30.751  1.00  0.00     0.010 A 
ATOM     32  C   UNL A   1      36.824  33.686  29.478  1.00  0.00     0.010 A 
ATOM     33  C   UNL A   1      36.659  32.687  30.446  1.00  0.00    -0.014 A 
BRANCH  33  34
ATOM     34  C   UNL A   1      37.840  32.035  31.065  1.00  0.00     0.031 A 
ATOM     35  C   UNL A   1      38.301  32.396  32.444  1.00  0.00     0.074 A 
ATOM     36  C   UNL A   1      38.499  31.098  30.358  1.00  0.00     0.049 A 
ATOM     37  N   UNL A   1      39.267  31.866  33.153  1.00  0.00    -0.248 NA
ATOM     38  C   UNL A   1      37.598  33.500  33.114  1.00  0.00     0.031 C 
ATOM     39  C   UNL A   1      38.163  30.691  28.993  1.00  0.00     0.029 A 
ATOM     40  N   UNL A   1      39.573  30.309  30.687  1.00  0.00    -0.354 N 
ATOM     41  C   UNL A   1      39.273  32.552  34.360  1.00  0.00     0.074 A 
ATOM     42  C   UNL A   1      38.255  33.578  34.265  1.00  0.00     0.031 C 
ATOM     43  C   UNL A   1      38.982  29.698  28.619  1.00  0.00     0.029 A 
ATOM     44  C   UNL A   1      39.928  29.425  29.698  1.00  0.00     0.049 A 
ATOM     45  H   UNL A   1      40.043  30.371  31.550  1.00  0.00     0.167 HD
ATOM     46  C   UNL A   1      40.042  32.324  35.452  1.00  0.00     0.037 A 
ATOM     47  C   UNL A   1      40.904  28.498  29.662  1.00  0.00     0.037 A 
ATOM     48  C   UNL A   1      41.063  31.309  35.532  1.00  0.00     0.049 A 
ATOM     49  C   UNL A   1      41.781  28.308  30.867  1.00  0.00     0.074 A 
ATOM     50  C   UNL A   1      41.871  30.985  36.608  1.00  0.00     0.029 A 
ATOM     51  N   UNL A   1      41.428  30.464  34.493  1.00  0.00    -0.354 N 
ATOM     52  N   UNL A   1      41.727  28.908  32.032  1.00  0.00    -0.248 NA
ATOM     53  C   UNL A   1      42.854  27.310  30.756  1.00  0.00     0.031 C 
ATOM     54  C   UNL A   1      42.769  29.995  36.201  1.00  0.00     0.029 A 
ATOM     55  C   UNL A   1      42.475  29.646  34.893  1.00  0.00     0.049 A 
ATOM     56  H   UNL A   1      41.006  30.447  33.604  1.00  0.00     0.167 HD
ATOM     57  C   UNL A   1      42.739  28.347  32.799  1.00  0.00     0.074 A 
ATOM     58  C   UNL A   1      43.378  27.341  31.975  1.00  0.00     0.031 C 
ATOM     59  C   UNL A   1      43.107  28.645  34.069  1.00  0.00     0.037 A 
BRANCH  46  60
ATOM     60  C   UNL A   1      39.811  33.183  36.665  1.00  0.00     0.064 A 
ATOM     61  C   UNL A   1      40.524  34.374  36.864  1.00  0.00     0.173 A 
ATOM     62  C   UNL A   1      38.811  32.856  37.595  1.00  0.00     0.173 A 
ATOM     63  F   UNL A   1      41.493  34.734  36.008  1.00  0.00    -0.203 F 
ATOM     64  C   UNL A   1      40.261  35.195  37.958  1.00  0.00     0.198 A 
ATOM     65  C   UNL A   1      38.527  33.697  38.669  1.00  0.00     0.198 A 
ATOM     66  F   UNL A   1      38.090  31.735  37.447  1.00  0.00    -0.203 F 
ATOM     67  F   UNL A   1      40.983  36.308  38.148  1.00  0.00    -0.200 F 
ATOM     68  C   UNL A   1      39.256  34.861  38.854  1.00  0.00     0.200 A 
ATOM     69  F   UNL A   1      37.540  33.382  39.520  1.00  0.00    -0.200 F 
ATOM     70  F   UNL A   1      38.991  35.661  39.894  1.00  0.00    -0.200 F 
ENDBRANCH  46  60
BRANCH  47  71
ATOM     71  C   UNL A   1      41.069  27.657  28.447  1.00  0.00     0.064 A 
ATOM     72  C   UNL A   1      40.344  26.467  28.290  1.00  0.00     0.173 A 
ATOM     73  C   UNL A   1      41.927  28.039  27.405  1.00  0.00     0.173 A 
ATOM     74  F   UNL A   1      39.526  26.048  29.267  1.00  0.00    -0.203 F 
ATOM     75  C   UNL A   1      40.478  25.689  27.143  1.00  0.00     0.198 A 
ATOM     76  C   UNL A   1      42.033  27.279  26.244  1.00  0.00     0.198 A 
ATOM     77  F   UNL A   1      42.639  29.172  27.504  1.00  0.00    -0.203 F 
ATOM     78  F   UNL A   1      39.802  24.537  27.034  1.00  0.00    -0.200 F 
ATOM     79  C   UNL A   1      41.314  26.101  26.115  1.00  0.00     0.200 A 
ATOM     80  F   UNL A   1      42.827  27.692  25.246  1.00  0.00    -0.200 F 
ATOM     81  F   UNL A   1      41.426  25.362  25.003  1.00  0.00    -0.200 F 
ENDBRANCH  47  71
BRANCH  59  82
ATOM     82  C   UNL A   1      44.249  27.871  34.668  1.00  0.00     0.064 A 
ATOM     83  C   UNL A   1      45.565  28.357  34.637  1.00  0.00     0.173 A 
ATOM     84  C   UNL A   1      44.014  26.666  35.350  1.00  0.00     0.173 A 
ATOM     85  F   UNL A   1      45.849  29.497  33.988  1.00  0.00    -0.203 F 
ATOM     86  C   UNL A   1      46.602  27.660  35.251  1.00  0.00     0.198 A 
ATOM     87  C   UNL A   1      45.047  25.991  35.995  1.00  0.00     0.198 A 
ATOM     88  F   UNL A   1      42.774  26.157  35.418  1.00  0.00    -0.203 F 
ATOM     89  F   UNL A   1      47.857  28.124  35.173  1.00  0.00    -0.200 F 
ATOM     90  C   UNL A   1      46.341  26.485  35.940  1.00  0.00     0.200 A 
ATOM     91  F   UNL A   1      44.788  24.867  36.678  1.00  0.00    -0.200 F 
ATOM     92  F   UNL A   1      47.337  25.828  36.550  1.00  0.00    -0.200 F 
ENDBRANCH  59  82
ENDBRANCH  33  34
ENDBRANCH  26  28
ENDBRANCH  25  26
ENDBRANCH  24  25
ENDBRANCH   1  24
TORSDOF 16
ENDMDL
