MODEL 1
REMARK VINA RESULT:     -12.3      0.000      0.000
REMARK SMILES Cc1oc(C)c(C(=O)Nc2cc(C(=O)OCCOCCOC(=O)c3ccc(-c4c5nc(c(-c6c(F)c(F)c(F)c(F)c6F)c6ccc([nH]6)c(-c6c(F)c(F)c(F)c(F)c6F)c6nc(c(-c7c(F)c(F)c(F)c(F)c7F)c7ccc4[nH]7)C=C6)C=C5)cc3)ccc2Cl)c1C
REMARK SMILES IDX 18 1 17 2 16 3 15 4 13 5 14 6 12 7 10 8 11 9 89 10 88 11
REMARK SMILES IDX 90 12 87 13 9 14 7 15 8 16 6 18 1 19 2 20 3 21 91 22 4 23
REMARK SMILES IDX 92 24 5 25 19 26 20 27 21 28 22 29 23 30 24 31 25 32 86 33
REMARK SMILES IDX 26 34 85 35 27 36 28 37 29 38 79 39 30 40 84 41 78 42 80 43
REMARK SMILES IDX 31 44 83 45 77 46 76 47 32 49 64 50 44 51 63 52 45 53 48 54
REMARK SMILES IDX 62 55 81 56 46 57 47 58 61 60 82 61 49 62 33 63 34 64 42 65
REMARK SMILES IDX 35 66 36 67 40 68 43 69 37 70 38 71 41 72 39 73 65 74 66 75
REMARK SMILES IDX 74 76 67 77 68 78 72 79 75 80 69 81 70 82 73 83 71 84 50 85
REMARK SMILES IDX 51 86 59 87 52 88 53 89 57 90 60 91 54 92 55 93 58 94 56 95
REMARK H PARENT 9 17 80 48 48 59
REMARK Flexibility Score: inf
ROOT
ATOM      1  O   UNL A   1      41.666  20.758  27.103  1.00  0.00    -0.374 OA
ENDROOT
BRANCH   1   2
ATOM      2  C   UNL A   1      40.412  21.432  27.218  1.00  0.00     0.202 C 
BRANCH   2   3
ATOM      3  C   UNL A   1      39.795  22.061  25.968  1.00  0.00     0.261 C 
BRANCH   3   4
ATOM      4  O   UNL A   1      38.367  22.164  26.089  1.00  0.00    -0.460 OA
BRANCH   4   5
ATOM      5  C   UNL A   1      37.903  23.428  26.052  1.00  0.00     0.338 C 
ATOM      6  O   UNL A   1      38.409  24.417  26.574  1.00  0.00    -0.246 OA
BRANCH   5   7
ATOM      7  C   UNL A   1      36.752  23.547  25.138  1.00  0.00     0.062 A 
ATOM      8  C   UNL A   1      34.356  23.873  25.081  1.00  0.00     0.061 A 
ATOM      9  C   UNL A   1      35.590  24.111  25.682  1.00  0.00     0.043 A 
ATOM     10  C   UNL A   1      34.312  23.248  23.824  1.00  0.00     0.064 A 
ATOM     11  C   UNL A   1      35.501  22.818  23.213  1.00  0.00     0.023 A 
ATOM     12  Cl  UNL A   1      32.831  23.029  22.967  1.00  0.00    -0.082 Cl
ATOM     13  C   UNL A   1      36.726  22.937  23.882  1.00  0.00     0.017 A 
BRANCH   8  14
ATOM     14  N   UNL A   1      33.240  24.189  25.869  1.00  0.00    -0.320 N 
ATOM     15  C   UNL A   1      32.565  25.393  25.993  1.00  0.00     0.259 C 
ATOM     16  O   UNL A   1      31.623  25.414  26.786  1.00  0.00    -0.269 OA
ATOM     17  H   UNL A   1      32.884  23.449  26.412  1.00  0.00     0.170 HD
BRANCH  15  18
ATOM     18  C   UNL A   1      32.937  26.565  25.201  1.00  0.00     0.084 A 
ATOM     19  C   UNL A   1      34.045  28.629  22.340  1.00  0.00     0.088 C 
ATOM     20  C   UNL A   1      33.573  27.986  23.583  1.00  0.00     0.104 A 
ATOM     21  O   UNL A   1      33.981  28.522  24.757  1.00  0.00    -0.466 OA
ATOM     22  C   UNL A   1      32.718  26.929  23.822  1.00  0.00     0.003 A 
ATOM     23  C   UNL A   1      33.489  27.722  25.744  1.00  0.00     0.114 A 
ATOM     24  C   UNL A   1      31.796  26.378  22.805  1.00  0.00     0.049 C 
ATOM     25  C   UNL A   1      33.624  28.267  27.113  1.00  0.00     0.088 C 
ENDBRANCH  15  18
ENDBRANCH   8  14
ENDBRANCH   5   7
ENDBRANCH   4   5
ENDBRANCH   3   4
ENDBRANCH   2   3
ENDBRANCH   1   2
BRANCH   1  26
ATOM     26  C   UNL A   1      41.792  19.564  26.345  1.00  0.00     0.202 C 
BRANCH  26  27
ATOM     27  C   UNL A   1      43.144  19.200  25.743  1.00  0.00     0.261 C 
BRANCH  27  28
ATOM     28  O   UNL A   1      43.504  19.992  24.622  1.00  0.00    -0.460 OA
BRANCH  28  29
ATOM     29  C   UNL A   1      44.806  20.355  24.635  1.00  0.00     0.338 C 
ATOM     30  O   UNL A   1      45.779  19.617  24.655  1.00  0.00    -0.246 OA
BRANCH  29  31
ATOM     31  C   UNL A   1      44.900  21.804  24.820  1.00  0.00     0.060 A 
ATOM     32  C   UNL A   1      45.854  22.236  25.742  1.00  0.00     0.016 A 
ATOM     33  C   UNL A   1      43.865  22.637  24.368  1.00  0.00     0.016 A 
ATOM     34  C   UNL A   1      45.624  23.420  26.399  1.00  0.00     0.010 A 
ATOM     35  C   UNL A   1      43.636  23.820  25.027  1.00  0.00     0.010 A 
ATOM     36  C   UNL A   1      44.463  24.141  26.098  1.00  0.00    -0.014 A 
BRANCH  36  37
ATOM     37  C   UNL A   1      44.194  25.319  26.890  1.00  0.00     0.031 A 
ATOM     38  C   UNL A   1      45.200  26.379  26.675  1.00  0.00     0.074 A 
ATOM     39  C   UNL A   1      43.115  25.436  27.684  1.00  0.00     0.049 A 
ATOM     40  N   UNL A   1      46.079  26.805  27.516  1.00  0.00    -0.248 NA
ATOM     41  C   UNL A   1      45.376  26.883  25.303  1.00  0.00     0.031 C 
ATOM     42  C   UNL A   1      41.944  24.565  27.787  1.00  0.00     0.029 A 
ATOM     43  N   UNL A   1      42.815  26.452  28.534  1.00  0.00    -0.354 N 
ATOM     44  C   UNL A   1      46.802  27.776  26.836  1.00  0.00     0.074 A 
ATOM     45  C   UNL A   1      46.455  27.651  25.445  1.00  0.00     0.031 C 
ATOM     46  C   UNL A   1      40.968  25.211  28.468  1.00  0.00     0.029 A 
ATOM     47  C   UNL A   1      41.494  26.473  28.960  1.00  0.00     0.049 A 
ATOM     48  H   UNL A   1      43.479  27.117  28.825  1.00  0.00     0.167 HD
ATOM     49  C   UNL A   1      47.429  28.773  27.513  1.00  0.00     0.037 A 
ATOM     50  C   UNL A   1      40.891  27.521  29.577  1.00  0.00     0.037 A 
ATOM     51  C   UNL A   1      47.655  28.410  28.889  1.00  0.00     0.049 A 
ATOM     52  C   UNL A   1      41.973  28.366  30.161  1.00  0.00     0.074 A 
ATOM     53  C   UNL A   1      48.344  27.383  29.505  1.00  0.00     0.029 A 
ATOM     54  N   UNL A   1      46.801  28.906  29.844  1.00  0.00    -0.354 N 
ATOM     55  N   UNL A   1      42.731  27.978  31.151  1.00  0.00    -0.248 NA
ATOM     56  C   UNL A   1      42.538  29.410  29.314  1.00  0.00     0.031 C 
ATOM     57  C   UNL A   1      47.516  26.987  30.597  1.00  0.00     0.029 A 
ATOM     58  C   UNL A   1      46.420  27.848  30.633  1.00  0.00     0.049 A 
ATOM     59  H   UNL A   1      46.516  29.842  29.946  1.00  0.00     0.167 HD
ATOM     60  C   UNL A   1      44.006  28.401  30.807  1.00  0.00     0.074 A 
ATOM     61  C   UNL A   1      43.819  29.322  29.688  1.00  0.00     0.031 C 
ATOM     62  C   UNL A   1      45.119  27.745  31.252  1.00  0.00     0.037 A 
BRANCH  49  63
ATOM     63  C   UNL A   1      47.477  30.192  27.014  1.00  0.00     0.064 A 
ATOM     64  C   UNL A   1      48.692  30.899  27.072  1.00  0.00     0.173 A 
ATOM     65  C   UNL A   1      46.326  30.973  26.760  1.00  0.00     0.173 A 
ATOM     66  F   UNL A   1      49.841  30.259  27.337  1.00  0.00    -0.203 F 
ATOM     67  C   UNL A   1      48.738  32.289  26.951  1.00  0.00     0.198 A 
ATOM     68  C   UNL A   1      46.385  32.351  26.584  1.00  0.00     0.198 A 
ATOM     69  F   UNL A   1      45.091  30.461  26.787  1.00  0.00    -0.203 F 
ATOM     70  F   UNL A   1      49.898  32.933  27.138  1.00  0.00    -0.200 F 
ATOM     71  C   UNL A   1      47.584  33.015  26.711  1.00  0.00     0.200 A 
ATOM     72  F   UNL A   1      45.251  33.035  26.373  1.00  0.00    -0.200 F 
ATOM     73  F   UNL A   1      47.618  34.352  26.654  1.00  0.00    -0.200 F 
ENDBRANCH  49  63
BRANCH  50  74
ATOM     74  C   UNL A   1      39.513  28.029  29.351  1.00  0.00     0.064 A 
ATOM     75  C   UNL A   1      38.604  28.167  30.413  1.00  0.00     0.173 A 
ATOM     76  C   UNL A   1      39.148  28.644  28.136  1.00  0.00     0.173 A 
ATOM     77  F   UNL A   1      38.895  27.660  31.619  1.00  0.00    -0.203 F 
ATOM     78  C   UNL A   1      37.412  28.889  30.271  1.00  0.00     0.198 A 
ATOM     79  C   UNL A   1      37.958  29.359  27.995  1.00  0.00     0.198 A 
ATOM     80  F   UNL A   1      39.982  28.650  27.087  1.00  0.00    -0.203 F 
ATOM     81  F   UNL A   1      36.597  29.049  31.324  1.00  0.00    -0.200 F 
ATOM     82  C   UNL A   1      37.095  29.492  29.065  1.00  0.00     0.200 A 
ATOM     83  F   UNL A   1      37.685  29.969  26.833  1.00  0.00    -0.200 F 
ATOM     84  F   UNL A   1      35.985  30.232  28.945  1.00  0.00    -0.200 F 
ENDBRANCH  50  74
BRANCH  62  85
ATOM     85  C   UNL A   1      44.948  26.676  32.297  1.00  0.00     0.064 A 
ATOM     86  C   UNL A   1      44.868  26.930  33.679  1.00  0.00     0.173 A 
ATOM     87  C   UNL A   1      44.692  25.366  31.871  1.00  0.00     0.173 A 
ATOM     88  F   UNL A   1      44.992  28.174  34.159  1.00  0.00    -0.203 F 
ATOM     89  C   UNL A   1      44.587  25.909  34.588  1.00  0.00     0.198 A 
ATOM     90  C   UNL A   1      44.374  24.358  32.777  1.00  0.00     0.198 A 
ATOM     91  F   UNL A   1      44.697  25.074  30.561  1.00  0.00    -0.203 F 
ATOM     92  F   UNL A   1      44.523  26.178  35.901  1.00  0.00    -0.200 F 
ATOM     93  C   UNL A   1      44.332  24.627  34.135  1.00  0.00     0.200 A 
ATOM     94  F   UNL A   1      44.076  23.131  32.327  1.00  0.00    -0.200 F 
ATOM     95  F   UNL A   1      44.017  23.655  35.003  1.00  0.00    -0.200 F 
ENDBRANCH  62  85
ENDBRANCH  36  37
ENDBRANCH  29  31
ENDBRANCH  28  29
ENDBRANCH  27  28
ENDBRANCH  26  27
ENDBRANCH   1  26
TORSDOF 16
ENDMDL
MODEL 2
REMARK VINA RESULT:     -12.1      4.191      7.585
REMARK SMILES Cc1oc(C)c(C(=O)Nc2cc(C(=O)OCCOCCOC(=O)c3ccc(-c4c5nc(c(-c6c(F)c(F)c(F)c(F)c6F)c6ccc([nH]6)c(-c6c(F)c(F)c(F)c(F)c6F)c6nc(c(-c7c(F)c(F)c(F)c(F)c7F)c7ccc4[nH]7)C=C6)C=C5)cc3)ccc2Cl)c1C
REMARK SMILES IDX 18 1 17 2 16 3 15 4 13 5 14 6 12 7 10 8 11 9 89 10 88 11
REMARK SMILES IDX 90 12 87 13 9 14 7 15 8 16 6 18 1 19 2 20 3 21 91 22 4 23
REMARK SMILES IDX 92 24 5 25 19 26 20 27 21 28 22 29 23 30 24 31 25 32 86 33
REMARK SMILES IDX 26 34 85 35 27 36 28 37 29 38 79 39 30 40 84 41 78 42 80 43
REMARK SMILES IDX 31 44 83 45 77 46 76 47 32 49 64 50 44 51 63 52 45 53 48 54
REMARK SMILES IDX 62 55 81 56 46 57 47 58 61 60 82 61 49 62 33 63 34 64 42 65
REMARK SMILES IDX 35 66 36 67 40 68 43 69 37 70 38 71 41 72 39 73 65 74 66 75
REMARK SMILES IDX 74 76 67 77 68 78 72 79 75 80 69 81 70 82 73 83 71 84 50 85
REMARK SMILES IDX 51 86 59 87 52 88 53 89 57 90 60 91 54 92 55 93 58 94 56 95
REMARK H PARENT 9 17 80 48 48 59
REMARK Flexibility Score: inf
ROOT
ATOM      1  O   UNL A   1      43.374  19.514  24.948  1.00  0.00    -0.374 OA
ENDROOT
BRANCH   1   2
ATOM      2  C   UNL A   1      44.770  19.466  25.247  1.00  0.00     0.202 C 
BRANCH   2   3
ATOM      3  C   UNL A   1      45.717  20.405  24.499  1.00  0.00     0.261 C 
BRANCH   3   4
ATOM      4  O   UNL A   1      46.029  21.565  25.288  1.00  0.00    -0.460 OA
BRANCH   4   5
ATOM      5  C   UNL A   1      45.615  22.726  24.744  1.00  0.00     0.338 C 
ATOM      6  O   UNL A   1      45.280  22.919  23.580  1.00  0.00    -0.246 OA
BRANCH   5   7
ATOM      7  C   UNL A   1      45.436  23.765  25.776  1.00  0.00     0.062 A 
ATOM      8  C   UNL A   1      45.461  26.156  26.134  1.00  0.00     0.061 A 
ATOM      9  C   UNL A   1      45.206  25.064  25.307  1.00  0.00     0.043 A 
ATOM     10  C   UNL A   1      45.745  25.940  27.492  1.00  0.00     0.064 A 
ATOM     11  C   UNL A   1      45.826  24.629  27.990  1.00  0.00     0.023 A 
ATOM     12  Cl  UNL A   1      45.952  27.246  28.599  1.00  0.00    -0.082 Cl
ATOM     13  C   UNL A   1      45.704  23.533  27.127  1.00  0.00     0.017 A 
BRANCH   8  14
ATOM     14  N   UNL A   1      45.522  27.395  25.480  1.00  0.00    -0.320 N 
ATOM     15  C   UNL A   1      46.627  28.180  25.187  1.00  0.00     0.259 C 
ATOM     16  O   UNL A   1      46.404  29.253  24.626  1.00  0.00    -0.269 OA
ATOM     17  H   UNL A   1      44.657  27.761  25.186  1.00  0.00     0.170 HD
BRANCH  15  18
ATOM     18  C   UNL A   1      47.986  27.739  25.504  1.00  0.00     0.084 A 
ATOM     19  C   UNL A   1      50.966  25.572  25.798  1.00  0.00     0.088 C 
ATOM     20  C   UNL A   1      49.898  26.590  25.753  1.00  0.00     0.104 A 
ATOM     21  O   UNL A   1      49.836  27.475  26.777  1.00  0.00    -0.466 OA
ATOM     22  C   UNL A   1      48.926  26.886  24.819  1.00  0.00     0.003 A 
ATOM     23  C   UNL A   1      48.739  28.252  26.556  1.00  0.00     0.114 A 
ATOM     24  C   UNL A   1      48.956  26.391  23.426  1.00  0.00     0.049 C 
ATOM     25  C   UNL A   1      48.627  29.435  27.438  1.00  0.00     0.088 C 
ENDBRANCH  15  18
ENDBRANCH   8  14
ENDBRANCH   5   7
ENDBRANCH   4   5
ENDBRANCH   3   4
ENDBRANCH   2   3
ENDBRANCH   1   2
BRANCH   1  26
ATOM     26  C   UNL A   1      42.434  19.994  25.899  1.00  0.00     0.202 C 
BRANCH  26  27
ATOM     27  C   UNL A   1      42.647  21.362  26.534  1.00  0.00     0.261 C 
BRANCH  27  28
ATOM     28  O   UNL A   1      42.075  22.432  25.796  1.00  0.00    -0.460 OA
BRANCH  28  29
ATOM     29  C   UNL A   1      41.134  23.105  26.495  1.00  0.00     0.338 C 
ATOM     30  O   UNL A   1      40.002  22.733  26.759  1.00  0.00    -0.246 OA
BRANCH  29  31
ATOM     31  C   UNL A   1      41.604  24.469  26.742  1.00  0.00     0.060 A 
ATOM     32  C   UNL A   1      42.251  24.674  27.962  1.00  0.00     0.016 A 
ATOM     33  C   UNL A   1      41.112  25.531  25.968  1.00  0.00     0.016 A 
ATOM     34  C   UNL A   1      42.185  25.926  28.523  1.00  0.00     0.010 A 
ATOM     35  C   UNL A   1      41.046  26.782  26.531  1.00  0.00     0.010 A 
ATOM     36  C   UNL A   1      41.494  26.934  27.839  1.00  0.00    -0.014 A 
BRANCH  36  37
ATOM     37  C   UNL A   1      41.343  28.203  28.512  1.00  0.00     0.031 A 
ATOM     38  C   UNL A   1      42.456  29.127  28.216  1.00  0.00     0.074 A 
ATOM     39  C   UNL A   1      40.275  28.506  29.271  1.00  0.00     0.049 A 
ATOM     40  N   UNL A   1      43.367  29.539  29.030  1.00  0.00    -0.248 NA
ATOM     41  C   UNL A   1      42.695  29.477  26.807  1.00  0.00     0.031 C 
ATOM     42  C   UNL A   1      39.018  27.775  29.434  1.00  0.00     0.029 A 
ATOM     43  N   UNL A   1      40.075  29.624  30.016  1.00  0.00    -0.354 N 
ATOM     44  C   UNL A   1      44.194  30.361  28.275  1.00  0.00     0.074 A 
ATOM     45  C   UNL A   1      43.848  30.140  26.896  1.00  0.00     0.031 C 
ATOM     46  C   UNL A   1      38.110  28.581  30.033  1.00  0.00     0.029 A 
ATOM     47  C   UNL A   1      38.760  29.822  30.413  1.00  0.00     0.049 A 
ATOM     48  H   UNL A   1      40.804  30.242  30.256  1.00  0.00     0.167 HD
ATOM     49  C   UNL A   1      44.916  31.347  28.867  1.00  0.00     0.037 A 
ATOM     50  C   UNL A   1      38.266  30.981  30.918  1.00  0.00     0.037 A 
ATOM     51  C   UNL A   1      45.091  31.096  30.275  1.00  0.00     0.049 A 
ATOM     52  C   UNL A   1      39.425  31.762  31.440  1.00  0.00     0.074 A 
ATOM     53  C   UNL A   1      45.664  30.066  30.998  1.00  0.00     0.029 A 
ATOM     54  N   UNL A   1      44.285  31.767  31.164  1.00  0.00    -0.354 N 
ATOM     55  N   UNL A   1      40.129  31.394  32.476  1.00  0.00    -0.248 NA
ATOM     56  C   UNL A   1      40.104  32.655  30.509  1.00  0.00     0.031 C 
ATOM     57  C   UNL A   1      44.789  29.865  32.107  1.00  0.00     0.029 A 
ATOM     58  C   UNL A   1      43.789  30.834  32.041  1.00  0.00     0.049 A 
ATOM     59  H   UNL A   1      44.099  32.733  31.171  1.00  0.00     0.167 HD
ATOM     60  C   UNL A   1      41.445  31.648  32.118  1.00  0.00     0.074 A 
ATOM     61  C   UNL A   1      41.365  32.472  30.914  1.00  0.00     0.031 C 
ATOM     62  C   UNL A   1      42.479  30.926  32.643  1.00  0.00     0.037 A 
BRANCH  49  63
ATOM     63  C   UNL A   1      45.117  32.699  28.238  1.00  0.00     0.064 A 
ATOM     64  C   UNL A   1      43.994  33.496  27.949  1.00  0.00     0.173 A 
ATOM     65  C   UNL A   1      46.331  33.116  27.645  1.00  0.00     0.173 A 
ATOM     66  F   UNL A   1      42.786  33.174  28.437  1.00  0.00    -0.203 F 
ATOM     67  C   UNL A   1      44.072  34.584  27.078  1.00  0.00     0.198 A 
ATOM     68  C   UNL A   1      46.415  34.234  26.823  1.00  0.00     0.198 A 
ATOM     69  F   UNL A   1      47.457  32.399  27.736  1.00  0.00    -0.203 F 
ATOM     70  F   UNL A   1      42.954  35.239  26.733  1.00  0.00    -0.200 F 
ATOM     71  C   UNL A   1      45.281  34.951  26.513  1.00  0.00     0.200 A 
ATOM     72  F   UNL A   1      47.593  34.557  26.270  1.00  0.00    -0.200 F 
ATOM     73  F   UNL A   1      45.345  35.957  25.633  1.00  0.00    -0.200 F 
ENDBRANCH  49  63
BRANCH  50  74
ATOM     74  C   UNL A   1      36.951  31.605  30.619  1.00  0.00     0.064 A 
ATOM     75  C   UNL A   1      36.007  31.836  31.634  1.00  0.00     0.173 A 
ATOM     76  C   UNL A   1      36.701  32.234  29.383  1.00  0.00     0.173 A 
ATOM     77  F   UNL A   1      36.193  31.321  32.858  1.00  0.00    -0.203 F 
ATOM     78  C   UNL A   1      34.891  32.658  31.427  1.00  0.00     0.198 A 
ATOM     79  C   UNL A   1      35.586  33.048  29.176  1.00  0.00     0.198 A 
ATOM     80  F   UNL A   1      37.581  32.153  28.376  1.00  0.00    -0.203 F 
ATOM     81  F   UNL A   1      34.044  32.903  32.437  1.00  0.00    -0.200 F 
ATOM     82  C   UNL A   1      34.687  33.270  30.201  1.00  0.00     0.200 A 
ATOM     83  F   UNL A   1      35.425  33.665  27.998  1.00  0.00    -0.200 F 
ATOM     84  F   UNL A   1      33.654  34.103  30.020  1.00  0.00    -0.200 F 
ENDBRANCH  50  74
BRANCH  62  85
ATOM     85  C   UNL A   1      42.188  29.985  33.781  1.00  0.00     0.064 A 
ATOM     86  C   UNL A   1      41.732  28.664  33.613  1.00  0.00     0.173 A 
ATOM     87  C   UNL A   1      42.540  30.381  35.078  1.00  0.00     0.173 A 
ATOM     88  F   UNL A   1      41.479  28.171  32.394  1.00  0.00    -0.203 F 
ATOM     89  C   UNL A   1      41.597  27.801  34.701  1.00  0.00     0.198 A 
ATOM     90  C   UNL A   1      42.441  29.506  36.155  1.00  0.00     0.198 A 
ATOM     91  F   UNL A   1      43.036  31.610  35.291  1.00  0.00    -0.203 F 
ATOM     92  F   UNL A   1      41.153  26.549  34.515  1.00  0.00    -0.200 F 
ATOM     93  C   UNL A   1      41.959  28.221  35.970  1.00  0.00     0.200 A 
ATOM     94  F   UNL A   1      42.843  29.901  37.371  1.00  0.00    -0.200 F 
ATOM     95  F   UNL A   1      41.873  27.379  37.009  1.00  0.00    -0.200 F 
ENDBRANCH  62  85
ENDBRANCH  36  37
ENDBRANCH  29  31
ENDBRANCH  28  29
ENDBRANCH  27  28
ENDBRANCH  26  27
ENDBRANCH   1  26
TORSDOF 16
ENDMDL
MODEL 3
REMARK VINA RESULT:     -11.9      1.656      2.590
REMARK SMILES Cc1oc(C)c(C(=O)Nc2cc(C(=O)OCCOCCOC(=O)c3ccc(-c4c5nc(c(-c6c(F)c(F)c(F)c(F)c6F)c6ccc([nH]6)c(-c6c(F)c(F)c(F)c(F)c6F)c6nc(c(-c7c(F)c(F)c(F)c(F)c7F)c7ccc4[nH]7)C=C6)C=C5)cc3)ccc2Cl)c1C
REMARK SMILES IDX 18 1 17 2 16 3 15 4 13 5 14 6 12 7 10 8 11 9 89 10 88 11
REMARK SMILES IDX 90 12 87 13 9 14 7 15 8 16 6 18 1 19 2 20 3 21 91 22 4 23
REMARK SMILES IDX 92 24 5 25 19 26 20 27 21 28 22 29 23 30 24 31 25 32 86 33
REMARK SMILES IDX 26 34 85 35 27 36 28 37 29 38 79 39 30 40 84 41 78 42 80 43
REMARK SMILES IDX 31 44 83 45 77 46 76 47 32 49 64 50 44 51 63 52 45 53 48 54
REMARK SMILES IDX 62 55 81 56 46 57 47 58 61 60 82 61 49 62 33 63 34 64 42 65
REMARK SMILES IDX 35 66 36 67 40 68 43 69 37 70 38 71 41 72 39 73 65 74 66 75
REMARK SMILES IDX 74 76 67 77 68 78 72 79 75 80 69 81 70 82 73 83 71 84 50 85
REMARK SMILES IDX 51 86 59 87 52 88 53 89 57 90 60 91 54 92 55 93 58 94 56 95
REMARK H PARENT 9 17 80 48 48 59
REMARK Flexibility Score: inf
ROOT
ATOM      1  O   UNL A   1      42.638  20.331  26.725  1.00  0.00    -0.374 OA
ENDROOT
BRANCH   1   2
ATOM      2  C   UNL A   1      41.371  20.962  26.922  1.00  0.00     0.202 C 
BRANCH   2   3
ATOM      3  C   UNL A   1      40.162  20.447  26.141  1.00  0.00     0.261 C 
BRANCH   3   4
ATOM      4  O   UNL A   1      39.141  21.454  26.041  1.00  0.00    -0.460 OA
BRANCH   4   5
ATOM      5  C   UNL A   1      38.093  21.099  25.273  1.00  0.00     0.338 C 
ATOM      6  O   UNL A   1      37.935  20.033  24.685  1.00  0.00    -0.246 OA
BRANCH   5   7
ATOM      7  C   UNL A   1      37.017  22.105  25.340  1.00  0.00     0.062 A 
ATOM      8  C   UNL A   1      35.227  23.107  24.059  1.00  0.00     0.061 A 
ATOM      9  C   UNL A   1      36.015  22.000  24.366  1.00  0.00     0.043 A 
ATOM     10  C   UNL A   1      35.301  24.251  24.870  1.00  0.00     0.064 A 
ATOM     11  C   UNL A   1      36.207  24.292  25.942  1.00  0.00     0.023 A 
ATOM     12  Cl  UNL A   1      34.271  25.611  24.623  1.00  0.00    -0.082 Cl
ATOM     13  C   UNL A   1      37.093  23.230  26.163  1.00  0.00     0.017 A 
BRANCH   8  14
ATOM     14  N   UNL A   1      34.498  23.005  22.866  1.00  0.00    -0.320 N 
ATOM     15  C   UNL A   1      33.166  22.672  22.676  1.00  0.00     0.259 C 
ATOM     16  O   UNL A   1      32.774  22.623  21.509  1.00  0.00    -0.269 OA
ATOM     17  H   UNL A   1      35.005  23.199  22.044  1.00  0.00     0.170 HD
BRANCH  15  18
ATOM     18  C   UNL A   1      32.270  22.421  23.805  1.00  0.00     0.084 A 
ATOM     19  C   UNL A   1      30.268  22.997  26.859  1.00  0.00     0.088 C 
ATOM     20  C   UNL A   1      30.983  22.576  25.637  1.00  0.00     0.104 A 
ATOM     21  O   UNL A   1      31.452  21.307  25.595  1.00  0.00    -0.466 OA
ATOM     22  C   UNL A   1      31.247  23.213  24.442  1.00  0.00     0.003 A 
ATOM     23  C   UNL A   1      32.132  21.180  24.421  1.00  0.00     0.114 A 
ATOM     24  C   UNL A   1      30.549  24.440  23.999  1.00  0.00     0.049 C 
ATOM     25  C   UNL A   1      32.523  19.796  24.075  1.00  0.00     0.088 C 
ENDBRANCH  15  18
ENDBRANCH   8  14
ENDBRANCH   5   7
ENDBRANCH   4   5
ENDBRANCH   3   4
ENDBRANCH   2   3
ENDBRANCH   1   2
BRANCH   1  26
ATOM     26  C   UNL A   1      42.727  18.970  26.330  1.00  0.00     0.202 C 
BRANCH  26  27
ATOM     27  C   UNL A   1      43.928  18.505  25.516  1.00  0.00     0.261 C 
BRANCH  27  28
ATOM     28  O   UNL A   1      44.941  19.489  25.376  1.00  0.00    -0.460 OA
BRANCH  28  29
ATOM     29  C   UNL A   1      44.795  20.234  24.258  1.00  0.00     0.338 C 
ATOM     30  O   UNL A   1      44.630  19.830  23.117  1.00  0.00    -0.246 OA
BRANCH  29  31
ATOM     31  C   UNL A   1      45.059  21.637  24.576  1.00  0.00     0.060 A 
ATOM     32  C   UNL A   1      45.847  21.864  25.705  1.00  0.00     0.016 A 
ATOM     33  C   UNL A   1      44.277  22.647  23.994  1.00  0.00     0.016 A 
ATOM     34  C   UNL A   1      45.658  23.035  26.398  1.00  0.00     0.010 A 
ATOM     35  C   UNL A   1      44.089  23.817  24.689  1.00  0.00     0.010 A 
ATOM     36  C   UNL A   1      44.706  23.948  25.928  1.00  0.00    -0.014 A 
BRANCH  36  37
ATOM     37  C   UNL A   1      44.450  25.112  26.744  1.00  0.00     0.031 A 
ATOM     38  C   UNL A   1      45.491  26.147  26.583  1.00  0.00     0.074 A 
ATOM     39  C   UNL A   1      43.353  25.240  27.512  1.00  0.00     0.049 A 
ATOM     40  N   UNL A   1      46.359  26.525  27.459  1.00  0.00    -0.248 NA
ATOM     41  C   UNL A   1      45.718  26.681  25.231  1.00  0.00     0.031 C 
ATOM     42  C   UNL A   1      42.155  24.402  27.561  1.00  0.00     0.029 A 
ATOM     43  N   UNL A   1      43.059  26.242  28.381  1.00  0.00    -0.354 N 
ATOM     44  C   UNL A   1      47.127  27.492  26.824  1.00  0.00     0.074 A 
ATOM     45  C   UNL A   1      46.815  27.413  25.422  1.00  0.00     0.031 C 
ATOM     46  C   UNL A   1      41.180  25.059  28.233  1.00  0.00     0.029 A 
ATOM     47  C   UNL A   1      41.728  26.291  28.772  1.00  0.00     0.049 A 
ATOM     48  H   UNL A   1      43.735  26.880  28.707  1.00  0.00     0.167 HD
ATOM     49  C   UNL A   1      47.764  28.452  27.543  1.00  0.00     0.037 A 
ATOM     50  C   UNL A   1      41.140  27.340  29.401  1.00  0.00     0.037 A 
ATOM     51  C   UNL A   1      47.942  28.047  28.915  1.00  0.00     0.049 A 
ATOM     52  C   UNL A   1      42.229  28.137  30.035  1.00  0.00     0.074 A 
ATOM     53  C   UNL A   1      48.585  26.984  29.521  1.00  0.00     0.029 A 
ATOM     54  N   UNL A   1      47.077  28.543  29.861  1.00  0.00    -0.354 N 
ATOM     55  N   UNL A   1      42.948  27.702  31.034  1.00  0.00    -0.248 NA
ATOM     56  C   UNL A   1      42.847  29.185  29.231  1.00  0.00     0.031 C 
ATOM     57  C   UNL A   1      47.717  26.585  30.581  1.00  0.00     0.029 A 
ATOM     58  C   UNL A   1      46.645  27.476  30.611  1.00  0.00     0.049 A 
ATOM     59  H   UNL A   1      46.817  29.484  29.979  1.00  0.00     0.167 HD
ATOM     60  C   UNL A   1      44.245  28.096  30.736  1.00  0.00     0.074 A 
ATOM     61  C   UNL A   1      44.114  29.051  29.637  1.00  0.00     0.031 C 
ATOM     62  C   UNL A   1      45.326  27.396  31.192  1.00  0.00     0.037 A 
BRANCH  49  63
ATOM     63  C   UNL A   1      47.867  29.881  27.084  1.00  0.00     0.064 A 
ATOM     64  C   UNL A   1      49.111  30.534  27.145  1.00  0.00     0.173 A 
ATOM     65  C   UNL A   1      46.747  30.717  26.868  1.00  0.00     0.173 A 
ATOM     66  F   UNL A   1      50.236  29.839  27.376  1.00  0.00    -0.203 F 
ATOM     67  C   UNL A   1      49.215  31.924  27.063  1.00  0.00     0.198 A 
ATOM     68  C   UNL A   1      46.862  32.096  26.730  1.00  0.00     0.198 A 
ATOM     69  F   UNL A   1      45.492  30.258  26.898  1.00  0.00    -0.203 F 
ATOM     70  F   UNL A   1      50.404  32.513  27.251  1.00  0.00    -0.200 F 
ATOM     71  C   UNL A   1      48.091  32.705  26.859  1.00  0.00     0.200 A 
ATOM     72  F   UNL A   1      45.756  32.834  26.554  1.00  0.00    -0.200 F 
ATOM     73  F   UNL A   1      48.181  34.040  26.839  1.00  0.00    -0.200 F 
ENDBRANCH  49  63
BRANCH  50  74
ATOM     74  C   UNL A   1      39.784  27.894  29.152  1.00  0.00     0.064 A 
ATOM     75  C   UNL A   1      38.845  28.016  30.190  1.00  0.00     0.173 A 
ATOM     76  C   UNL A   1      39.474  28.565  27.951  1.00  0.00     0.173 A 
ATOM     77  F   UNL A   1      39.084  27.455  31.384  1.00  0.00    -0.203 F 
ATOM     78  C   UNL A   1      37.677  28.776  30.040  1.00  0.00     0.198 A 
ATOM     79  C   UNL A   1      38.309  29.317  27.801  1.00  0.00     0.198 A 
ATOM     80  F   UNL A   1      40.341  28.589  26.930  1.00  0.00    -0.203 F 
ATOM     81  F   UNL A   1      36.834  28.918  31.072  1.00  0.00    -0.200 F 
ATOM     82  C   UNL A   1      37.415  29.433  28.848  1.00  0.00     0.200 A 
ATOM     83  F   UNL A   1      38.089  29.979  26.657  1.00  0.00    -0.200 F 
ATOM     84  F   UNL A   1      36.329  30.207  28.723  1.00  0.00    -0.200 F 
ENDBRANCH  50  74
BRANCH  62  85
ATOM     85  C   UNL A   1      45.096  26.306  32.203  1.00  0.00     0.064 A 
ATOM     86  C   UNL A   1      44.745  24.985  31.870  1.00  0.00     0.173 A 
ATOM     87  C   UNL A   1      45.402  26.569  33.545  1.00  0.00     0.173 A 
ATOM     88  F   UNL A   1      44.543  24.624  30.597  1.00  0.00    -0.203 F 
ATOM     89  C   UNL A   1      44.664  23.989  32.845  1.00  0.00     0.198 A 
ATOM     90  C   UNL A   1      45.359  25.565  34.509  1.00  0.00     0.198 A 
ATOM     91  F   UNL A   1      45.800  27.797  33.914  1.00  0.00    -0.203 F 
ATOM     92  F   UNL A   1      44.320  22.739  32.502  1.00  0.00    -0.200 F 
ATOM     93  C   UNL A   1      44.980  24.279  34.162  1.00  0.00     0.200 A 
ATOM     94  F   UNL A   1      45.716  25.840  35.771  1.00  0.00    -0.200 F 
ATOM     95  F   UNL A   1      44.947  23.314  35.091  1.00  0.00    -0.200 F 
ENDBRANCH  62  85
ENDBRANCH  36  37
ENDBRANCH  29  31
ENDBRANCH  28  29
ENDBRANCH  27  28
ENDBRANCH  26  27
ENDBRANCH   1  26
TORSDOF 16
ENDMDL
