MODEL 1
REMARK VINA RESULT:     -11.1      0.000      0.000
REMARK SMILES Cc1n[nH]c(C(=O)N[C@H](C(=O)OCCOCCOC(=O)c2ccc(-c3c4nc(c(-c5c(F)c(F)c(F)c(F)c5F)c5ccc([nH]5)c(-c5c(F)c(F)c(F)c(F)c5F)c5nc(c(-c6c(F)c(F)c(F)c(F)c6F)c6ccc3[nH]6)C=C5)C=C4)cc2)C(C)C)n1
REMARK SMILES IDX 15 1 14 2 13 3 12 4 10 5 11 6 9 7 8 8 6 9 7 10 5 12 1 13
REMARK SMILES IDX 2 14 3 15 87 16 4 17 84 19 85 20 86 21 16 22 17 23 18 24
REMARK SMILES IDX 19 25 20 26 21 27 22 28 83 29 23 30 82 31 24 32 25 33 26 34
REMARK SMILES IDX 76 35 27 36 81 37 75 38 77 39 28 40 80 41 74 42 73 43 29 45
REMARK SMILES IDX 61 46 41 47 60 48 42 49 45 50 59 51 78 52 43 53 44 54 58 56
REMARK SMILES IDX 79 57 46 58 30 59 31 60 39 61 32 62 33 63 37 64 40 65 34 66
REMARK SMILES IDX 35 67 38 68 36 69 62 70 63 71 71 72 64 73 65 74 69 75 72 76
REMARK SMILES IDX 66 77 67 78 70 79 68 80 47 81 48 82 56 83 49 84 50 85 54 86
REMARK SMILES IDX 57 87 51 88 52 89 55 90 53 91
REMARK H PARENT 8 11 4 18 77 44 45 55
REMARK Flexibility Score: inf
ROOT
ATOM      1  O   UNL A   1      41.087  19.285  26.506  1.00  0.00    -0.374 OA
ENDROOT
BRANCH   1   2
ATOM      2  C   UNL A   1      39.889  19.936  26.089  1.00  0.00     0.202 C 
BRANCH   2   3
ATOM      3  C   UNL A   1      39.714  21.429  26.388  1.00  0.00     0.261 C 
BRANCH   3   4
ATOM      4  O   UNL A   1      38.870  22.098  25.435  1.00  0.00    -0.462 OA
BRANCH   4   5
ATOM      5  C   UNL A   1      37.932  22.919  25.993  1.00  0.00     0.328 C 
ATOM      6  O   UNL A   1      38.193  23.897  26.681  1.00  0.00    -0.250 OA
BRANCH   5   7
ATOM      7  C   UNL A   1      36.514  22.592  25.454  1.00  0.00     0.195 C 
BRANCH   7   8
ATOM      8  N   UNL A   1      35.561  22.454  26.553  1.00  0.00    -0.336 N 
ATOM      9  C   UNL A   1      34.444  21.675  26.753  1.00  0.00     0.289 C 
ATOM     10  O   UNL A   1      34.005  21.711  27.907  1.00  0.00    -0.266 OA
ATOM     11  H   UNL A   1      35.762  23.044  27.315  1.00  0.00     0.164 HD
BRANCH   9  12
ATOM     12  C   UNL A   1      33.810  20.889  25.707  1.00  0.00     0.214 A 
ATOM     13  C   UNL A   1      32.071  20.560  22.625  1.00  0.00     0.092 C 
ATOM     14  C   UNL A   1      32.777  20.385  23.911  1.00  0.00     0.148 A 
ATOM     15  N   UNL A   1      33.189  19.196  24.360  1.00  0.00    -0.159 NA
ATOM     16  N   UNL A   1      33.110  21.436  24.722  1.00  0.00    -0.207 NA
ATOM     17  N   UNL A   1      33.869  19.548  25.463  1.00  0.00    -0.255 N 
ATOM     18  H   UNL A   1      34.356  18.909  26.032  1.00  0.00     0.192 HD
ENDBRANCH   9  12
ENDBRANCH   7   8
BRANCH   7  19
ATOM     19  C   UNL A   1      36.109  23.653  24.398  1.00  0.00     0.017 C 
ATOM     20  C   UNL A   1      35.777  22.965  23.062  1.00  0.00     0.010 C 
ATOM     21  C   UNL A   1      34.922  24.523  24.807  1.00  0.00     0.010 C 
ENDBRANCH   7  19
ENDBRANCH   5   7
ENDBRANCH   4   5
ENDBRANCH   3   4
ENDBRANCH   2   3
ENDBRANCH   1   2
BRANCH   1  22
ATOM     22  C   UNL A   1      42.356  19.799  26.125  1.00  0.00     0.202 C 
BRANCH  22  23
ATOM     23  C   UNL A   1      43.392  18.863  25.521  1.00  0.00     0.261 C 
BRANCH  23  24
ATOM     24  O   UNL A   1      44.664  19.475  25.359  1.00  0.00    -0.460 OA
BRANCH  24  25
ATOM     25  C   UNL A   1      44.744  20.220  24.232  1.00  0.00     0.338 C 
ATOM     26  O   UNL A   1      44.880  19.814  23.092  1.00  0.00    -0.246 OA
BRANCH  25  27
ATOM     27  C   UNL A   1      44.827  21.639  24.587  1.00  0.00     0.060 A 
ATOM     28  C   UNL A   1      45.661  21.941  25.664  1.00  0.00     0.016 A 
ATOM     29  C   UNL A   1      43.896  22.559  24.082  1.00  0.00     0.016 A 
ATOM     30  C   UNL A   1      45.408  23.088  26.375  1.00  0.00     0.010 A 
ATOM     31  C   UNL A   1      43.648  23.709  24.795  1.00  0.00     0.010 A 
ATOM     32  C   UNL A   1      44.349  23.915  25.978  1.00  0.00    -0.014 A 
BRANCH  32  33
ATOM     33  C   UNL A   1      44.115  25.098  26.775  1.00  0.00     0.031 A 
ATOM     34  C   UNL A   1      45.177  26.107  26.581  1.00  0.00     0.074 A 
ATOM     35  C   UNL A   1      43.038  25.268  27.564  1.00  0.00     0.049 A 
ATOM     36  N   UNL A   1      46.060  26.478  27.446  1.00  0.00    -0.248 NA
ATOM     37  C   UNL A   1      45.415  26.607  25.216  1.00  0.00     0.031 C 
ATOM     38  C   UNL A   1      41.830  24.451  27.655  1.00  0.00     0.029 A 
ATOM     39  N   UNL A   1      42.778  26.292  28.421  1.00  0.00    -0.354 N 
ATOM     40  C   UNL A   1      46.843  27.419  26.793  1.00  0.00     0.074 A 
ATOM     41  C   UNL A   1      46.526  27.324  25.392  1.00  0.00     0.031 C 
ATOM     42  C   UNL A   1      40.880  25.136  28.334  1.00  0.00     0.029 A 
ATOM     43  C   UNL A   1      41.454  26.376  28.830  1.00  0.00     0.049 A 
ATOM     44  H   UNL A   1      43.470  26.922  28.726  1.00  0.00     0.167 HD
ATOM     45  C   UNL A   1      47.468  28.394  27.503  1.00  0.00     0.037 A 
ATOM     46  C   UNL A   1      40.882  27.439  29.456  1.00  0.00     0.037 A 
ATOM     47  C   UNL A   1      47.654  28.004  28.879  1.00  0.00     0.049 A 
ATOM     48  C   UNL A   1      41.981  28.236  30.068  1.00  0.00     0.074 A 
ATOM     49  C   UNL A   1      48.275  26.930  29.491  1.00  0.00     0.029 A 
ATOM     50  N   UNL A   1      46.818  28.535  29.829  1.00  0.00    -0.354 N 
ATOM     51  N   UNL A   1      42.695  27.822  31.079  1.00  0.00    -0.248 NA
ATOM     52  C   UNL A   1      42.602  29.265  29.245  1.00  0.00     0.031 C 
ATOM     53  C   UNL A   1      47.413  26.571  30.569  1.00  0.00     0.029 A 
ATOM     54  C   UNL A   1      46.369  27.494  30.605  1.00  0.00     0.049 A 
ATOM     55  H   UNL A   1      46.583  29.485  29.935  1.00  0.00     0.167 HD
ATOM     56  C   UNL A   1      43.994  28.183  30.759  1.00  0.00     0.074 A 
ATOM     57  C   UNL A   1      43.867  29.127  29.650  1.00  0.00     0.031 C 
ATOM     58  C   UNL A   1      45.062  27.466  31.215  1.00  0.00     0.037 A 
BRANCH  45  59
ATOM     59  C   UNL A   1      47.510  29.823  27.033  1.00  0.00     0.064 A 
ATOM     60  C   UNL A   1      48.705  30.551  27.156  1.00  0.00     0.173 A 
ATOM     61  C   UNL A   1      46.354  30.586  26.746  1.00  0.00     0.173 A 
ATOM     62  F   UNL A   1      49.852  29.930  27.469  1.00  0.00    -0.203 F 
ATOM     63  C   UNL A   1      48.727  31.945  27.059  1.00  0.00     0.198 A 
ATOM     64  C   UNL A   1      46.390  31.967  26.592  1.00  0.00     0.198 A 
ATOM     65  F   UNL A   1      45.128  30.051  26.724  1.00  0.00    -0.203 F 
ATOM     66  F   UNL A   1      49.863  32.609  27.309  1.00  0.00    -0.200 F 
ATOM     67  C   UNL A   1      47.570  32.651  26.778  1.00  0.00     0.200 A 
ATOM     68  F   UNL A   1      45.252  32.632  26.348  1.00  0.00    -0.200 F 
ATOM     69  F   UNL A   1      47.580  33.990  26.742  1.00  0.00    -0.200 F 
ENDBRANCH  45  59
BRANCH  46  70
ATOM     70  C   UNL A   1      39.521  27.999  29.251  1.00  0.00     0.064 A 
ATOM     71  C   UNL A   1      38.630  28.148  30.331  1.00  0.00     0.173 A 
ATOM     72  C   UNL A   1      39.167  28.662  28.060  1.00  0.00     0.173 A 
ATOM     73  F   UNL A   1      38.909  27.590  31.518  1.00  0.00    -0.203 F 
ATOM     74  C   UNL A   1      37.476  28.935  30.230  1.00  0.00     0.198 A 
ATOM     75  C   UNL A   1      38.013  29.442  27.960  1.00  0.00     0.198 A 
ATOM     76  F   UNL A   1      39.980  28.651  26.995  1.00  0.00    -0.203 F 
ATOM     77  F   UNL A   1      36.687  29.106  31.300  1.00  0.00    -0.200 F 
ATOM     78  C   UNL A   1      37.175  29.590  29.048  1.00  0.00     0.200 A 
ATOM     79  F   UNL A   1      37.752  30.097  26.819  1.00  0.00    -0.200 F 
ATOM     80  F   UNL A   1      36.105  30.393  28.969  1.00  0.00    -0.200 F 
ENDBRANCH  46  70
BRANCH  58  81
ATOM     81  C   UNL A   1      44.820  26.423  32.271  1.00  0.00     0.064 A 
ATOM     82  C   UNL A   1      44.535  25.071  32.005  1.00  0.00     0.173 A 
ATOM     83  C   UNL A   1      45.022  26.782  33.612  1.00  0.00     0.173 A 
ATOM     84  F   UNL A   1      44.435  24.619  30.748  1.00  0.00    -0.203 F 
ATOM     85  C   UNL A   1      44.407  24.141  33.037  1.00  0.00     0.198 A 
ATOM     86  C   UNL A   1      44.934  25.844  34.636  1.00  0.00     0.198 A 
ATOM     87  F   UNL A   1      45.351  28.045  33.926  1.00  0.00    -0.203 F 
ATOM     88  F   UNL A   1      44.115  22.861  32.758  1.00  0.00    -0.200 F 
ATOM     89  C   UNL A   1      44.612  24.527  34.351  1.00  0.00     0.200 A 
ATOM     90  F   UNL A   1      45.186  26.214  35.899  1.00  0.00    -0.200 F 
ATOM     91  F   UNL A   1      44.528  23.627  35.340  1.00  0.00    -0.200 F 
ENDBRANCH  58  81
ENDBRANCH  32  33
ENDBRANCH  25  27
ENDBRANCH  24  25
ENDBRANCH  23  24
ENDBRANCH  22  23
ENDBRANCH   1  22
TORSDOF 17
ENDMDL
MODEL 2
REMARK VINA RESULT:     -10.6      5.458     11.018
REMARK SMILES Cc1n[nH]c(C(=O)N[C@H](C(=O)OCCOCCOC(=O)c2ccc(-c3c4nc(c(-c5c(F)c(F)c(F)c(F)c5F)c5ccc([nH]5)c(-c5c(F)c(F)c(F)c(F)c5F)c5nc(c(-c6c(F)c(F)c(F)c(F)c6F)c6ccc3[nH]6)C=C5)C=C4)cc2)C(C)C)n1
REMARK SMILES IDX 15 1 14 2 13 3 12 4 10 5 11 6 9 7 8 8 6 9 7 10 5 12 1 13
REMARK SMILES IDX 2 14 3 15 87 16 4 17 84 19 85 20 86 21 16 22 17 23 18 24
REMARK SMILES IDX 19 25 20 26 21 27 22 28 83 29 23 30 82 31 24 32 25 33 26 34
REMARK SMILES IDX 76 35 27 36 81 37 75 38 77 39 28 40 80 41 74 42 73 43 29 45
REMARK SMILES IDX 61 46 41 47 60 48 42 49 45 50 59 51 78 52 43 53 44 54 58 56
REMARK SMILES IDX 79 57 46 58 30 59 31 60 39 61 32 62 33 63 37 64 40 65 34 66
REMARK SMILES IDX 35 67 38 68 36 69 62 70 63 71 71 72 64 73 65 74 69 75 72 76
REMARK SMILES IDX 66 77 67 78 70 79 68 80 47 81 48 82 56 83 49 84 50 85 54 86
REMARK SMILES IDX 57 87 51 88 52 89 55 90 53 91
REMARK H PARENT 8 11 4 18 77 44 45 55
REMARK Flexibility Score: inf
ROOT
ATOM      1  O   UNL A   1      33.976  33.933  30.427  1.00  0.00    -0.374 OA
ENDROOT
BRANCH   1   2
ATOM      2  C   UNL A   1      34.403  32.787  31.159  1.00  0.00     0.202 C 
BRANCH   2   3
ATOM      3  C   UNL A   1      35.121  32.988  32.499  1.00  0.00     0.261 C 
BRANCH   3   4
ATOM      4  O   UNL A   1      36.553  33.004  32.372  1.00  0.00    -0.462 OA
BRANCH   4   5
ATOM      5  C   UNL A   1      37.183  31.954  32.976  1.00  0.00     0.328 C 
ATOM      6  O   UNL A   1      37.037  30.783  32.651  1.00  0.00    -0.250 OA
BRANCH   5   7
ATOM      7  C   UNL A   1      38.275  32.450  33.960  1.00  0.00     0.195 C 
BRANCH   7   8
ATOM      8  N   UNL A   1      38.998  31.322  34.543  1.00  0.00    -0.336 N 
ATOM      9  C   UNL A   1      39.094  30.807  35.816  1.00  0.00     0.289 C 
ATOM     10  O   UNL A   1      39.668  29.715  35.876  1.00  0.00    -0.266 OA
ATOM     11  H   UNL A   1      39.532  30.823  33.883  1.00  0.00     0.164 HD
BRANCH   9  12
ATOM     12  C   UNL A   1      38.589  31.483  37.000  1.00  0.00     0.214 A 
ATOM     13  C   UNL A   1      36.254  31.880  39.650  1.00  0.00     0.092 C 
ATOM     14  C   UNL A   1      37.361  31.964  38.676  1.00  0.00     0.148 A 
ATOM     15  N   UNL A   1      38.421  32.761  38.846  1.00  0.00    -0.159 NA
ATOM     16  N   UNL A   1      37.414  31.195  37.546  1.00  0.00    -0.207 NA
ATOM     17  N   UNL A   1      39.190  32.406  37.804  1.00  0.00    -0.255 N 
ATOM     18  H   UNL A   1      40.090  32.771  37.640  1.00  0.00     0.192 HD
ENDBRANCH   9  12
ENDBRANCH   7   8
BRANCH   7  19
ATOM     19  C   UNL A   1      39.185  33.480  33.242  1.00  0.00     0.017 C 
ATOM     20  C   UNL A   1      39.969  34.303  34.280  1.00  0.00     0.010 C 
ATOM     21  C   UNL A   1      40.178  32.861  32.260  1.00  0.00     0.010 C 
ENDBRANCH   7  19
ENDBRANCH   5   7
ENDBRANCH   4   5
ENDBRANCH   3   4
ENDBRANCH   2   3
ENDBRANCH   1   2
BRANCH   1  22
ATOM     22  C   UNL A   1      34.830  34.529  29.460  1.00  0.00     0.202 C 
BRANCH  22  23
ATOM     23  C   UNL A   1      34.781  34.045  28.018  1.00  0.00     0.261 C 
BRANCH  23  24
ATOM     24  O   UNL A   1      35.780  33.080  27.724  1.00  0.00    -0.460 OA
BRANCH  24  25
ATOM     25  C   UNL A   1      35.344  31.809  27.893  1.00  0.00     0.338 C 
ATOM     26  O   UNL A   1      34.225  31.383  27.675  1.00  0.00    -0.246 OA
BRANCH  25  27
ATOM     27  C   UNL A   1      36.381  31.020  28.563  1.00  0.00     0.060 A 
ATOM     28  C   UNL A   1      37.468  31.747  29.049  1.00  0.00     0.016 A 
ATOM     29  C   UNL A   1      36.411  29.624  28.436  1.00  0.00     0.016 A 
ATOM     30  C   UNL A   1      38.666  31.093  29.201  1.00  0.00     0.010 A 
ATOM     31  C   UNL A   1      37.612  28.970  28.593  1.00  0.00     0.010 A 
ATOM     32  C   UNL A   1      38.739  29.728  28.890  1.00  0.00    -0.014 A 
BRANCH  32  33
ATOM     33  C   UNL A   1      40.029  29.095  29.048  1.00  0.00     0.031 A 
ATOM     34  C   UNL A   1      40.412  28.983  30.471  1.00  0.00     0.074 A 
ATOM     35  C   UNL A   1      40.766  28.631  28.023  1.00  0.00     0.049 A 
ATOM     36  N   UNL A   1      41.365  29.616  31.068  1.00  0.00    -0.248 NA
ATOM     37  C   UNL A   1      39.513  28.246  31.374  1.00  0.00     0.031 C 
ATOM     38  C   UNL A   1      40.391  28.482  26.618  1.00  0.00     0.029 A 
ATOM     39  N   UNL A   1      42.024  28.114  28.058  1.00  0.00    -0.354 N 
ATOM     40  C   UNL A   1      41.314  29.197  32.390  1.00  0.00     0.074 A 
ATOM     41  C   UNL A   1      40.061  28.510  32.560  1.00  0.00     0.031 C 
ATOM     42  C   UNL A   1      41.305  27.700  25.994  1.00  0.00     0.029 A 
ATOM     43  C   UNL A   1      42.386  27.406  26.919  1.00  0.00     0.049 A 
ATOM     44  H   UNL A   1      42.628  28.232  28.826  1.00  0.00     0.167 HD
ATOM     45  C   UNL A   1      42.442  29.199  33.147  1.00  0.00     0.037 A 
ATOM     46  C   UNL A   1      43.460  26.579  26.807  1.00  0.00     0.037 A 
ATOM     47  C   UNL A   1      43.419  30.126  32.632  1.00  0.00     0.049 A 
ATOM     48  C   UNL A   1      44.422  26.955  27.879  1.00  0.00     0.074 A 
ATOM     49  C   UNL A   1      43.399  31.483  32.362  1.00  0.00     0.029 A 
ATOM     50  N   UNL A   1      44.487  29.629  31.928  1.00  0.00    -0.354 N 
ATOM     51  N   UNL A   1      45.087  28.078  27.889  1.00  0.00    -0.248 NA
ATOM     52  C   UNL A   1      44.268  26.308  29.175  1.00  0.00     0.031 C 
ATOM     53  C   UNL A   1      44.112  31.627  31.136  1.00  0.00     0.029 A 
ATOM     54  C   UNL A   1      44.598  30.370  30.777  1.00  0.00     0.049 A 
ATOM     55  H   UNL A   1      45.066  28.879  32.197  1.00  0.00     0.167 HD
ATOM     56  C   UNL A   1      45.033  28.502  29.208  1.00  0.00     0.074 A 
ATOM     57  C   UNL A   1      44.572  27.341  29.966  1.00  0.00     0.031 C 
ATOM     58  C   UNL A   1      45.074  29.829  29.528  1.00  0.00     0.037 A 
BRANCH  45  59
ATOM     59  C   UNL A   1      42.784  28.065  34.074  1.00  0.00     0.064 A 
ATOM     60  C   UNL A   1      43.071  28.342  35.422  1.00  0.00     0.173 A 
ATOM     61  C   UNL A   1      43.129  26.767  33.629  1.00  0.00     0.173 A 
ATOM     62  F   UNL A   1      42.823  29.556  35.935  1.00  0.00    -0.203 F 
ATOM     63  C   UNL A   1      43.710  27.408  36.242  1.00  0.00     0.198 A 
ATOM     64  C   UNL A   1      43.712  25.821  34.464  1.00  0.00     0.198 A 
ATOM     65  F   UNL A   1      43.033  26.400  32.347  1.00  0.00    -0.203 F 
ATOM     66  F   UNL A   1      44.080  27.758  37.481  1.00  0.00    -0.200 F 
ATOM     67  C   UNL A   1      44.031  26.150  35.763  1.00  0.00     0.200 A 
ATOM     68  F   UNL A   1      44.039  24.619  33.970  1.00  0.00    -0.200 F 
ATOM     69  F   UNL A   1      44.695  25.277  36.530  1.00  0.00    -0.200 F 
ENDBRANCH  45  59
BRANCH  46  70
ATOM     70  C   UNL A   1      43.544  25.280  26.091  1.00  0.00     0.064 A 
ATOM     71  C   UNL A   1      44.616  25.000  25.223  1.00  0.00     0.173 A 
ATOM     72  C   UNL A   1      42.742  24.182  26.457  1.00  0.00     0.173 A 
ATOM     73  F   UNL A   1      45.461  25.976  24.857  1.00  0.00    -0.203 F 
ATOM     74  C   UNL A   1      44.881  23.700  24.776  1.00  0.00     0.198 A 
ATOM     75  C   UNL A   1      43.005  22.887  26.006  1.00  0.00     0.198 A 
ATOM     76  F   UNL A   1      41.741  24.320  27.339  1.00  0.00    -0.203 F 
ATOM     77  F   UNL A   1      45.950  23.464  24.002  1.00  0.00    -0.200 F 
ATOM     78  C   UNL A   1      44.082  22.643  25.177  1.00  0.00     0.200 A 
ATOM     79  F   UNL A   1      42.242  21.869  26.430  1.00  0.00    -0.200 F 
ATOM     80  F   UNL A   1      44.372  21.391  24.800  1.00  0.00    -0.200 F 
ENDBRANCH  46  70
BRANCH  58  81
ATOM     81  C   UNL A   1      45.429  30.811  28.445  1.00  0.00     0.064 A 
ATOM     82  C   UNL A   1      44.524  31.296  27.482  1.00  0.00     0.173 A 
ATOM     83  C   UNL A   1      46.707  31.389  28.470  1.00  0.00     0.173 A 
ATOM     84  F   UNL A   1      43.252  30.879  27.455  1.00  0.00    -0.203 F 
ATOM     85  C   UNL A   1      44.902  32.272  26.559  1.00  0.00     0.198 A 
ATOM     86  C   UNL A   1      47.068  32.391  27.575  1.00  0.00     0.198 A 
ATOM     87  F   UNL A   1      47.596  31.008  29.400  1.00  0.00    -0.203 F 
ATOM     88  F   UNL A   1      44.027  32.703  25.638  1.00  0.00    -0.200 F 
ATOM     89  C   UNL A   1      46.172  32.823  26.611  1.00  0.00     0.200 A 
ATOM     90  F   UNL A   1      48.280  32.957  27.665  1.00  0.00    -0.200 F 
ATOM     91  F   UNL A   1      46.525  33.788  25.751  1.00  0.00    -0.200 F 
ENDBRANCH  58  81
ENDBRANCH  32  33
ENDBRANCH  25  27
ENDBRANCH  24  25
ENDBRANCH  23  24
ENDBRANCH  22  23
ENDBRANCH   1  22
TORSDOF 17
ENDMDL
MODEL 3
REMARK VINA RESULT:     -10.5      2.689      4.319
REMARK SMILES Cc1n[nH]c(C(=O)N[C@H](C(=O)OCCOCCOC(=O)c2ccc(-c3c4nc(c(-c5c(F)c(F)c(F)c(F)c5F)c5ccc([nH]5)c(-c5c(F)c(F)c(F)c(F)c5F)c5nc(c(-c6c(F)c(F)c(F)c(F)c6F)c6ccc3[nH]6)C=C5)C=C4)cc2)C(C)C)n1
REMARK SMILES IDX 15 1 14 2 13 3 12 4 10 5 11 6 9 7 8 8 6 9 7 10 5 12 1 13
REMARK SMILES IDX 2 14 3 15 87 16 4 17 84 19 85 20 86 21 16 22 17 23 18 24
REMARK SMILES IDX 19 25 20 26 21 27 22 28 83 29 23 30 82 31 24 32 25 33 26 34
REMARK SMILES IDX 76 35 27 36 81 37 75 38 77 39 28 40 80 41 74 42 73 43 29 45
REMARK SMILES IDX 61 46 41 47 60 48 42 49 45 50 59 51 78 52 43 53 44 54 58 56
REMARK SMILES IDX 79 57 46 58 30 59 31 60 39 61 32 62 33 63 37 64 40 65 34 66
REMARK SMILES IDX 35 67 38 68 36 69 62 70 63 71 71 72 64 73 65 74 69 75 72 76
REMARK SMILES IDX 66 77 67 78 70 79 68 80 47 81 48 82 56 83 49 84 50 85 54 86
REMARK SMILES IDX 57 87 51 88 52 89 55 90 53 91
REMARK H PARENT 8 11 4 18 77 44 45 55
REMARK Flexibility Score: inf
ROOT
ATOM      1  O   UNL A   1      35.930  21.786  24.353  1.00  0.00    -0.374 OA
ENDROOT
BRANCH   1   2
ATOM      2  C   UNL A   1      35.726  23.053  23.730  1.00  0.00     0.202 C 
BRANCH   2   3
ATOM      3  C   UNL A   1      34.394  23.779  23.949  1.00  0.00     0.261 C 
BRANCH   3   4
ATOM      4  O   UNL A   1      34.220  24.237  25.301  1.00  0.00    -0.462 OA
BRANCH   4   5
ATOM      5  C   UNL A   1      33.399  25.321  25.427  1.00  0.00     0.328 C 
ATOM      6  O   UNL A   1      33.766  26.424  25.813  1.00  0.00    -0.250 OA
BRANCH   5   7
ATOM      7  C   UNL A   1      32.006  25.042  24.804  1.00  0.00     0.195 C 
BRANCH   7   8
ATOM      8  N   UNL A   1      31.079  24.532  25.812  1.00  0.00    -0.336 N 
ATOM      9  C   UNL A   1      30.991  23.352  26.515  1.00  0.00     0.289 C 
ATOM     10  O   UNL A   1      30.160  23.371  27.429  1.00  0.00    -0.266 OA
ATOM     11  H   UNL A   1      30.365  25.171  26.038  1.00  0.00     0.164 HD
BRANCH   9  12
ATOM     12  C   UNL A   1      31.783  22.171  26.212  1.00  0.00     0.214 A 
ATOM     13  C   UNL A   1      32.646  19.392  24.171  1.00  0.00     0.092 C 
ATOM     14  C   UNL A   1      32.516  20.441  25.203  1.00  0.00     0.148 A 
ATOM     15  N   UNL A   1      33.413  20.619  26.177  1.00  0.00    -0.159 NA
ATOM     16  N   UNL A   1      31.492  21.348  25.212  1.00  0.00    -0.207 NA
ATOM     17  N   UNL A   1      32.950  21.733  26.766  1.00  0.00    -0.255 N 
ATOM     18  H   UNL A   1      33.403  22.186  27.514  1.00  0.00     0.192 HD
ENDBRANCH   9  12
ENDBRANCH   7   8
BRANCH   7  19
ATOM     19  C   UNL A   1      31.505  26.315  24.073  1.00  0.00     0.017 C 
ATOM     20  C   UNL A   1      31.837  26.225  22.573  1.00  0.00     0.010 C 
ATOM     21  C   UNL A   1      30.009  26.578  24.227  1.00  0.00     0.010 C 
ENDBRANCH   7  19
ENDBRANCH   5   7
ENDBRANCH   4   5
ENDBRANCH   3   4
ENDBRANCH   2   3
ENDBRANCH   1   2
BRANCH   1  22
ATOM     22  C   UNL A   1      36.751  21.676  25.508  1.00  0.00     0.202 C 
BRANCH  22  23
ATOM     23  C   UNL A   1      38.197  21.225  25.358  1.00  0.00     0.261 C 
BRANCH  23  24
ATOM     24  O   UNL A   1      39.125  22.292  25.485  1.00  0.00    -0.460 OA
BRANCH  24  25
ATOM     25  C   UNL A   1      40.127  22.011  26.352  1.00  0.00     0.338 C 
ATOM     26  O   UNL A   1      40.766  20.978  26.425  1.00  0.00    -0.246 OA
BRANCH  25  27
ATOM     27  C   UNL A   1      40.231  23.084  27.344  1.00  0.00     0.060 A 
ATOM     28  C   UNL A   1      39.232  24.056  27.284  1.00  0.00     0.016 A 
ATOM     29  C   UNL A   1      41.414  23.272  28.073  1.00  0.00     0.016 A 
ATOM     30  C   UNL A   1      39.516  25.306  27.777  1.00  0.00     0.010 A 
ATOM     31  C   UNL A   1      41.695  24.525  28.569  1.00  0.00     0.010 A 
ATOM     32  C   UNL A   1      40.778  25.544  28.340  1.00  0.00    -0.014 A 
BRANCH  32  33
ATOM     33  C   UNL A   1      41.031  26.882  28.823  1.00  0.00     0.031 A 
ATOM     34  C   UNL A   1      42.257  27.455  28.229  1.00  0.00     0.074 A 
ATOM     35  C   UNL A   1      40.224  27.535  29.679  1.00  0.00     0.049 A 
ATOM     36  N   UNL A   1      43.365  27.715  28.838  1.00  0.00    -0.248 NA
ATOM     37  C   UNL A   1      42.330  27.560  26.762  1.00  0.00     0.031 C 
ATOM     38  C   UNL A   1      38.890  27.162  30.145  1.00  0.00     0.029 A 
ATOM     39  N   UNL A   1      40.423  28.746  30.266  1.00  0.00    -0.354 N 
ATOM     40  C   UNL A   1      44.215  28.212  27.861  1.00  0.00     0.074 A 
ATOM     41  C   UNL A   1      43.601  27.924  26.590  1.00  0.00     0.031 C 
ATOM     42  C   UNL A   1      38.313  28.232  30.744  1.00  0.00     0.029 A 
ATOM     43  C   UNL A   1      39.281  29.313  30.815  1.00  0.00     0.049 A 
ATOM     44  H   UNL A   1      41.304  29.184  30.297  1.00  0.00     0.167 HD
ATOM     45  C   UNL A   1      45.206  29.077  28.198  1.00  0.00     0.037 A 
ATOM     46  C   UNL A   1      39.149  30.607  31.213  1.00  0.00     0.037 A 
ATOM     47  C   UNL A   1      45.563  28.950  29.589  1.00  0.00     0.049 A 
ATOM     48  C   UNL A   1      40.520  31.142  31.439  1.00  0.00     0.074 A 
ATOM     49  C   UNL A   1      45.994  27.892  30.371  1.00  0.00     0.029 A 
ATOM     50  N   UNL A   1      45.110  29.898  30.473  1.00  0.00    -0.354 N 
ATOM     51  N   UNL A   1      41.293  30.754  32.416  1.00  0.00    -0.248 NA
ATOM     52  C   UNL A   1      41.206  31.735  30.298  1.00  0.00     0.031 C 
ATOM     53  C   UNL A   1      45.309  28.049  31.613  1.00  0.00     0.029 A 
ATOM     54  C   UNL A   1      44.574  29.232  31.547  1.00  0.00     0.049 A 
ATOM     55  H   UNL A   1      45.159  30.875  30.357  1.00  0.00     0.167 HD
ATOM     56  C   UNL A   1      42.547  30.627  31.838  1.00  0.00     0.074 A 
ATOM     57  C   UNL A   1      42.446  31.308  30.549  1.00  0.00     0.031 C 
ATOM     58  C   UNL A   1      43.461  29.733  32.316  1.00  0.00     0.037 A 
BRANCH  45  59
ATOM     59  C   UNL A   1      45.522  30.293  27.369  1.00  0.00     0.064 A 
ATOM     60  C   UNL A   1      46.864  30.661  27.175  1.00  0.00     0.173 A 
ATOM     61  C   UNL A   1      44.561  31.268  27.012  1.00  0.00     0.173 A 
ATOM     62  F   UNL A   1      47.856  29.827  27.521  1.00  0.00    -0.203 F 
ATOM     63  C   UNL A   1      47.216  31.933  26.715  1.00  0.00     0.198 A 
ATOM     64  C   UNL A   1      44.914  32.511  26.499  1.00  0.00     0.198 A 
ATOM     65  F   UNL A   1      43.256  31.112  27.256  1.00  0.00    -0.203 F 
ATOM     66  F   UNL A   1      48.507  32.286  26.666  1.00  0.00    -0.200 F 
ATOM     67  C   UNL A   1      46.242  32.856  26.379  1.00  0.00     0.200 A 
ATOM     68  F   UNL A   1      43.954  33.399  26.207  1.00  0.00    -0.200 F 
ATOM     69  F   UNL A   1      46.578  34.093  25.993  1.00  0.00    -0.200 F 
ENDBRANCH  45  59
BRANCH  46  70
ATOM     70  C   UNL A   1      37.971  31.498  31.056  1.00  0.00     0.064 A 
ATOM     71  C   UNL A   1      37.426  31.760  29.785  1.00  0.00     0.173 A 
ATOM     72  C   UNL A   1      37.181  31.879  32.158  1.00  0.00     0.173 A 
ATOM     73  F   UNL A   1      38.086  31.390  28.678  1.00  0.00    -0.203 F 
ATOM     74  C   UNL A   1      36.160  32.339  29.632  1.00  0.00     0.198 A 
ATOM     75  C   UNL A   1      35.922  32.461  32.003  1.00  0.00     0.198 A 
ATOM     76  F   UNL A   1      37.569  31.607  33.413  1.00  0.00    -0.203 F 
ATOM     77  F   UNL A   1      35.648  32.513  28.405  1.00  0.00    -0.200 F 
ATOM     78  C   UNL A   1      35.405  32.678  30.741  1.00  0.00     0.200 A 
ATOM     79  F   UNL A   1      35.188  32.753  33.087  1.00  0.00    -0.200 F 
ATOM     80  F   UNL A   1      34.169  33.174  30.596  1.00  0.00    -0.200 F 
ENDBRANCH  46  70
BRANCH  58  81
ATOM     81  C   UNL A   1      43.177  29.060  33.632  1.00  0.00     0.064 A 
ATOM     82  C   UNL A   1      43.511  29.597  34.889  1.00  0.00     0.173 A 
ATOM     83  C   UNL A   1      42.412  27.885  33.620  1.00  0.00     0.173 A 
ATOM     84  F   UNL A   1      44.145  30.772  34.993  1.00  0.00    -0.203 F 
ATOM     85  C   UNL A   1      43.140  28.956  36.072  1.00  0.00     0.198 A 
ATOM     86  C   UNL A   1      42.009  27.270  34.802  1.00  0.00     0.198 A 
ATOM     87  F   UNL A   1      42.016  27.353  32.453  1.00  0.00    -0.203 F 
ATOM     88  F   UNL A   1      43.487  29.479  37.258  1.00  0.00    -0.200 F 
ATOM     89  C   UNL A   1      42.384  27.797  36.027  1.00  0.00     0.200 A 
ATOM     90  F   UNL A   1      41.233  26.178  34.751  1.00  0.00    -0.200 F 
ATOM     91  F   UNL A   1      41.994  27.201  37.162  1.00  0.00    -0.200 F 
ENDBRANCH  58  81
ENDBRANCH  32  33
ENDBRANCH  25  27
ENDBRANCH  24  25
ENDBRANCH  23  24
ENDBRANCH  22  23
ENDBRANCH   1  22
TORSDOF 17
ENDMDL
