MODEL 1
REMARK VINA RESULT:     -13.0      0.000      0.000
REMARK SMILES Cc1ccc2oc(-c3ccc4c(c3)OCO4)c/c(=N\[C@H](C)C(=O)OCCOCCOC(=O)c3ccc(-c4c5nc(c(-c6c(F)c(F)c(F)c(F)c6F)c6ccc([nH]6)c(-c6c(F)c(F)c(F)c(F)c6F)c6nc(c(-c7c(F)c(F)c(F)c(F)c7F)c7ccc4[nH]7)C=C6)C=C5)cc3)c2c1
REMARK SMILES IDX 27 1 26 2 25 3 24 4 22 5 23 6 20 7 21 8 19 9 1 10 2 11 3 12
REMARK SMILES IDX 97 13 4 14 96 15 5 16 18 17 6 18 17 19 7 20 8 21 9 22 13 23
REMARK SMILES IDX 10 24 12 25 11 26 14 27 16 28 15 29 28 30 29 31 30 32 31 33
REMARK SMILES IDX 32 34 33 35 34 36 95 37 35 38 94 39 36 40 37 41 38 42 88 43
REMARK SMILES IDX 39 44 93 45 87 46 89 47 40 48 92 49 86 50 85 51 41 53 73 54
REMARK SMILES IDX 53 55 72 56 54 57 57 58 71 59 90 60 55 61 56 62 70 64 91 65
REMARK SMILES IDX 58 66 42 67 43 68 51 69 44 70 45 71 49 72 52 73 46 74 47 75
REMARK SMILES IDX 50 76 48 77 74 78 75 79 83 80 76 81 77 82 81 83 84 84 78 85
REMARK SMILES IDX 79 86 82 87 80 88 59 89 60 90 68 91 61 92 62 93 66 94 69 95
REMARK SMILES IDX 63 96 64 97 67 98 65 99
REMARK H PARENT 89 52 57 63
REMARK Flexibility Score: inf
ROOT
ATOM      1  O   UNL A   1      41.447  19.543  25.497  1.00  0.00    -0.374 OA
ENDROOT
BRANCH   1   2
ATOM      2  C   UNL A   1      40.480  20.157  26.351  1.00  0.00     0.202 C 
BRANCH   2   3
ATOM      3  C   UNL A   1      39.794  21.388  25.755  1.00  0.00     0.261 C 
BRANCH   3   4
ATOM      4  O   UNL A   1      38.391  21.147  25.532  1.00  0.00    -0.462 OA
BRANCH   4   5
ATOM      5  C   UNL A   1      37.660  22.216  25.099  1.00  0.00     0.330 C 
ATOM      6  O   UNL A   1      37.390  22.446  23.926  1.00  0.00    -0.250 OA
BRANCH   5   7
ATOM      7  C   UNL A   1      37.218  23.120  26.254  1.00  0.00     0.212 C 
ATOM      8  C   UNL A   1      38.156  24.278  26.555  1.00  0.00     0.046 C 
BRANCH   7   9
ATOM      9  N   UNL A   1      35.798  23.461  26.112  1.00  0.00    -0.270 NA
ATOM     10  C   UNL A   1      31.763  26.687  26.218  1.00  0.00     0.044 C 
ATOM     11  C   UNL A   1      31.956  25.201  26.174  1.00  0.00    -0.050 A 
ATOM     12  C   UNL A   1      30.856  24.337  26.228  1.00  0.00     0.007 A 
ATOM     13  C   UNL A   1      33.248  24.668  26.053  1.00  0.00     0.017 A 
ATOM     14  C   UNL A   1      31.040  22.960  26.121  1.00  0.00     0.048 A 
ATOM     15  C   UNL A   1      33.435  23.285  25.956  1.00  0.00     0.043 A 
ATOM     16  C   UNL A   1      32.324  22.444  25.960  1.00  0.00     0.136 A 
ATOM     17  C   UNL A   1      34.802  22.689  25.899  1.00  0.00     0.073 A 
ATOM     18  O   UNL A   1      32.416  21.093  25.794  1.00  0.00    -0.456 OA
ATOM     19  C   UNL A   1      34.818  21.236  25.618  1.00  0.00     0.076 A 
ATOM     20  C   UNL A   1      33.661  20.569  25.547  1.00  0.00     0.136 A 
BRANCH  20  21
ATOM     21  C   UNL A   1      33.629  19.141  25.257  1.00  0.00     0.021 A 
ATOM     22  C   UNL A   1      34.694  18.596  24.528  1.00  0.00     0.016 A 
ATOM     23  C   UNL A   1      32.608  18.318  25.762  1.00  0.00     0.062 A 
ATOM     24  C   UNL A   1      34.758  17.224  24.336  1.00  0.00     0.051 A 
ATOM     25  C   UNL A   1      32.706  16.962  25.538  1.00  0.00     0.166 A 
ATOM     26  C   UNL A   1      33.759  16.431  24.843  1.00  0.00     0.165 A 
ATOM     27  O   UNL A   1      31.843  16.001  25.966  1.00  0.00    -0.454 OA
ATOM     28  O   UNL A   1      33.693  15.081  24.726  1.00  0.00    -0.454 OA
ATOM     29  C   UNL A   1      32.539  14.805  25.543  1.00  0.00     0.468 C 
ENDBRANCH  20  21
ENDBRANCH   7   9
ENDBRANCH   5   7
ENDBRANCH   4   5
ENDBRANCH   3   4
ENDBRANCH   2   3
ENDBRANCH   1   2
BRANCH   1  30
ATOM     30  C   UNL A   1      42.801  19.931  25.715  1.00  0.00     0.202 C 
BRANCH  30  31
ATOM     31  C   UNL A   1      42.990  21.106  26.683  1.00  0.00     0.261 C 
BRANCH  31  32
ATOM     32  O   UNL A   1      43.897  22.101  26.173  1.00  0.00    -0.460 OA
BRANCH  32  33
ATOM     33  C   UNL A   1      43.312  23.133  25.518  1.00  0.00     0.338 C 
ATOM     34  O   UNL A   1      43.019  23.185  24.331  1.00  0.00    -0.246 OA
BRANCH  33  35
ATOM     35  C   UNL A   1      42.948  24.200  26.474  1.00  0.00     0.060 A 
ATOM     36  C   UNL A   1      41.872  24.054  27.344  1.00  0.00     0.016 A 
ATOM     37  C   UNL A   1      43.737  25.358  26.528  1.00  0.00     0.016 A 
ATOM     38  C   UNL A   1      41.595  25.071  28.263  1.00  0.00     0.010 A 
ATOM     39  C   UNL A   1      43.455  26.374  27.453  1.00  0.00     0.010 A 
ATOM     40  C   UNL A   1      42.374  26.250  28.332  1.00  0.00    -0.014 A 
BRANCH  40  41
ATOM     41  C   UNL A   1      42.043  27.288  29.359  1.00  0.00     0.031 A 
ATOM     42  C   UNL A   1      40.913  28.278  29.190  1.00  0.00     0.074 A 
ATOM     43  C   UNL A   1      42.691  27.256  30.540  1.00  0.00     0.049 A 
ATOM     44  N   UNL A   1      40.311  28.995  30.111  1.00  0.00    -0.248 NA
ATOM     45  C   UNL A   1      40.339  28.444  27.846  1.00  0.00     0.031 C 
ATOM     46  C   UNL A   1      43.808  26.367  30.856  1.00  0.00     0.029 A 
ATOM     47  N   UNL A   1      42.487  27.966  31.698  1.00  0.00    -0.354 N 
ATOM     48  C   UNL A   1      39.235  29.609  29.481  1.00  0.00     0.074 A 
ATOM     49  C   UNL A   1      39.300  29.233  28.085  1.00  0.00     0.031 C 
ATOM     50  C   UNL A   1      44.167  26.554  32.133  1.00  0.00     0.029 A 
ATOM     51  C   UNL A   1      43.339  27.610  32.713  1.00  0.00     0.049 A 
ATOM     52  H   UNL A   1      41.797  28.661  31.792  1.00  0.00     0.167 HD
ATOM     53  C   UNL A   1      38.269  30.390  30.021  1.00  0.00     0.037 A 
ATOM     54  C   UNL A   1      43.465  28.085  33.968  1.00  0.00     0.037 A 
ATOM     55  C   UNL A   1      38.252  30.862  31.382  1.00  0.00     0.049 A 
ATOM     56  C   UNL A   1      42.529  29.145  34.468  1.00  0.00     0.074 A 
ATOM     57  C   UNL A   1      37.309  31.662  32.007  1.00  0.00     0.029 A 
ATOM     58  N   UNL A   1      39.253  30.630  32.311  1.00  0.00    -0.354 N 
ATOM     59  N   UNL A   1      41.465  29.640  33.889  1.00  0.00    -0.248 NA
ATOM     60  C   UNL A   1      42.818  29.719  35.789  1.00  0.00     0.031 C 
ATOM     61  C   UNL A   1      37.785  31.989  33.282  1.00  0.00     0.029 A 
ATOM     62  C   UNL A   1      38.995  31.344  33.473  1.00  0.00     0.049 A 
ATOM     63  H   UNL A   1      40.032  30.046  32.168  1.00  0.00     0.167 HD
ATOM     64  C   UNL A   1      40.959  30.587  34.768  1.00  0.00     0.074 A 
ATOM     65  C   UNL A   1      41.820  30.582  35.932  1.00  0.00     0.031 C 
ATOM     66  C   UNL A   1      39.873  31.384  34.614  1.00  0.00     0.037 A 
BRANCH  53  67
ATOM     67  C   UNL A   1      37.139  30.825  29.136  1.00  0.00     0.064 A 
ATOM     68  C   UNL A   1      36.120  29.932  28.773  1.00  0.00     0.173 A 
ATOM     69  C   UNL A   1      37.012  32.166  28.749  1.00  0.00     0.173 A 
ATOM     70  F   UNL A   1      36.198  28.639  29.124  1.00  0.00    -0.203 F 
ATOM     71  C   UNL A   1      35.011  30.369  28.052  1.00  0.00     0.198 A 
ATOM     72  C   UNL A   1      35.895  32.601  28.040  1.00  0.00     0.198 A 
ATOM     73  F   UNL A   1      37.957  33.057  29.083  1.00  0.00    -0.203 F 
ATOM     74  F   UNL A   1      34.047  29.501  27.713  1.00  0.00    -0.200 F 
ATOM     75  C   UNL A   1      34.896  31.705  27.694  1.00  0.00     0.200 A 
ATOM     76  F   UNL A   1      35.780  33.893  27.703  1.00  0.00    -0.200 F 
ATOM     77  F   UNL A   1      33.818  32.128  27.018  1.00  0.00    -0.200 F 
ENDBRANCH  53  67
BRANCH  54  78
ATOM     78  C   UNL A   1      44.568  27.563  34.812  1.00  0.00     0.064 A 
ATOM     79  C   UNL A   1      45.856  28.103  34.745  1.00  0.00     0.173 A 
ATOM     80  C   UNL A   1      44.319  26.563  35.766  1.00  0.00     0.173 A 
ATOM     81  F   UNL A   1      46.144  29.043  33.833  1.00  0.00    -0.203 F 
ATOM     82  C   UNL A   1      46.854  27.677  35.621  1.00  0.00     0.198 A 
ATOM     83  C   UNL A   1      45.308  26.160  36.657  1.00  0.00     0.198 A 
ATOM     84  F   UNL A   1      43.098  26.016  35.863  1.00  0.00    -0.203 F 
ATOM     85  F   UNL A   1      48.083  28.203  35.537  1.00  0.00    -0.200 F 
ATOM     86  C   UNL A   1      46.574  26.719  36.585  1.00  0.00     0.200 A 
ATOM     87  F   UNL A   1      45.026  25.249  37.599  1.00  0.00    -0.200 F 
ATOM     88  F   UNL A   1      47.525  26.337  37.449  1.00  0.00    -0.200 F 
ENDBRANCH  54  78
BRANCH  66  89
ATOM     89  C   UNL A   1      39.566  32.361  35.711  1.00  0.00     0.064 A 
ATOM     90  C   UNL A   1      40.135  33.643  35.720  1.00  0.00     0.173 A 
ATOM     91  C   UNL A   1      38.658  32.041  36.732  1.00  0.00     0.173 A 
ATOM     92  F   UNL A   1      41.021  33.993  34.774  1.00  0.00    -0.203 F 
ATOM     93  C   UNL A   1      39.818  34.563  36.716  1.00  0.00     0.198 A 
ATOM     94  C   UNL A   1      38.323  32.972  37.712  1.00  0.00     0.198 A 
ATOM     95  F   UNL A   1      38.081  30.831  36.769  1.00  0.00    -0.203 F 
ATOM     96  F   UNL A   1      40.401  35.770  36.721  1.00  0.00    -0.200 F 
ATOM     97  C   UNL A   1      38.906  34.230  37.706  1.00  0.00     0.200 A 
ATOM     98  F   UNL A   1      37.432  32.653  38.660  1.00  0.00    -0.200 F 
ATOM     99  F   UNL A   1      38.593  35.120  38.658  1.00  0.00    -0.200 F 
ENDBRANCH  66  89
ENDBRANCH  40  41
ENDBRANCH  33  35
ENDBRANCH  32  33
ENDBRANCH  31  32
ENDBRANCH  30  31
ENDBRANCH   1  30
TORSDOF 16
ENDMDL
MODEL 2
REMARK VINA RESULT:     -12.9      2.836      8.066
REMARK SMILES Cc1ccc2oc(-c3ccc4c(c3)OCO4)c/c(=N\[C@H](C)C(=O)OCCOCCOC(=O)c3ccc(-c4c5nc(c(-c6c(F)c(F)c(F)c(F)c6F)c6ccc([nH]6)c(-c6c(F)c(F)c(F)c(F)c6F)c6nc(c(-c7c(F)c(F)c(F)c(F)c7F)c7ccc4[nH]7)C=C6)C=C5)cc3)c2c1
REMARK SMILES IDX 27 1 26 2 25 3 24 4 22 5 23 6 20 7 21 8 19 9 1 10 2 11 3 12
REMARK SMILES IDX 97 13 4 14 96 15 5 16 18 17 6 18 17 19 7 20 8 21 9 22 13 23
REMARK SMILES IDX 10 24 12 25 11 26 14 27 16 28 15 29 28 30 29 31 30 32 31 33
REMARK SMILES IDX 32 34 33 35 34 36 95 37 35 38 94 39 36 40 37 41 38 42 88 43
REMARK SMILES IDX 39 44 93 45 87 46 89 47 40 48 92 49 86 50 85 51 41 53 73 54
REMARK SMILES IDX 53 55 72 56 54 57 57 58 71 59 90 60 55 61 56 62 70 64 91 65
REMARK SMILES IDX 58 66 42 67 43 68 51 69 44 70 45 71 49 72 52 73 46 74 47 75
REMARK SMILES IDX 50 76 48 77 74 78 75 79 83 80 76 81 77 82 81 83 84 84 78 85
REMARK SMILES IDX 79 86 82 87 80 88 59 89 60 90 68 91 61 92 62 93 66 94 69 95
REMARK SMILES IDX 63 96 64 97 67 98 65 99
REMARK H PARENT 89 52 57 63
REMARK Flexibility Score: inf
ROOT
ATOM      1  O   UNL A   1      30.943  28.003  25.106  1.00  0.00    -0.374 OA
ENDROOT
BRANCH   1   2
ATOM      2  C   UNL A   1      31.526  27.402  26.264  1.00  0.00     0.202 C 
BRANCH   2   3
ATOM      3  C   UNL A   1      31.924  25.935  26.088  1.00  0.00     0.261 C 
BRANCH   3   4
ATOM      4  O   UNL A   1      31.610  25.465  24.763  1.00  0.00    -0.462 OA
BRANCH   4   5
ATOM      5  C   UNL A   1      32.663  25.350  23.902  1.00  0.00     0.330 C 
ATOM      6  O   UNL A   1      33.230  26.295  23.365  1.00  0.00    -0.250 OA
BRANCH   5   7
ATOM      7  C   UNL A   1      33.058  23.890  23.663  1.00  0.00     0.212 C 
ATOM      8  C   UNL A   1      32.961  23.428  22.219  1.00  0.00     0.046 C 
BRANCH   7   9
ATOM      9  N   UNL A   1      34.318  23.589  24.352  1.00  0.00    -0.270 NA
ATOM     10  C   UNL A   1      38.881  24.828  26.438  1.00  0.00     0.044 C 
ATOM     11  C   UNL A   1      38.191  23.562  26.026  1.00  0.00    -0.050 A 
ATOM     12  C   UNL A   1      38.846  22.329  26.117  1.00  0.00     0.007 A 
ATOM     13  C   UNL A   1      36.865  23.607  25.567  1.00  0.00     0.017 A 
ATOM     14  C   UNL A   1      38.175  21.152  25.794  1.00  0.00     0.048 A 
ATOM     15  C   UNL A   1      36.193  22.428  25.233  1.00  0.00     0.043 A 
ATOM     16  C   UNL A   1      36.846  21.206  25.379  1.00  0.00     0.136 A 
ATOM     17  C   UNL A   1      34.809  22.454  24.675  1.00  0.00     0.073 A 
ATOM     18  O   UNL A   1      36.236  20.006  25.146  1.00  0.00    -0.456 OA
ATOM     19  C   UNL A   1      34.182  21.120  24.545  1.00  0.00     0.076 A 
ATOM     20  C   UNL A   1      34.903  20.027  24.821  1.00  0.00     0.136 A 
BRANCH  20  21
ATOM     21  C   UNL A   1      34.321  18.695  24.722  1.00  0.00     0.021 A 
ATOM     22  C   UNL A   1      34.945  17.768  23.876  1.00  0.00     0.016 A 
ATOM     23  C   UNL A   1      33.222  18.320  25.513  1.00  0.00     0.062 A 
ATOM     24  C   UNL A   1      34.491  16.458  23.848  1.00  0.00     0.051 A 
ATOM     25  C   UNL A   1      32.797  17.010  25.444  1.00  0.00     0.166 A 
ATOM     26  C   UNL A   1      33.423  16.103  24.632  1.00  0.00     0.165 A 
ATOM     27  O   UNL A   1      31.778  16.446  26.147  1.00  0.00    -0.454 OA
ATOM     28  O   UNL A   1      32.875  14.863  24.699  1.00  0.00    -0.454 OA
ATOM     29  C   UNL A   1      31.911  15.061  25.750  1.00  0.00     0.468 C 
ENDBRANCH  20  21
ENDBRANCH   7   9
ENDBRANCH   5   7
ENDBRANCH   4   5
ENDBRANCH   3   4
ENDBRANCH   2   3
ENDBRANCH   1   2
BRANCH   1  30
ATOM     30  C   UNL A   1      31.492  29.260  24.718  1.00  0.00     0.202 C 
BRANCH  30  31
ATOM     31  C   UNL A   1      31.746  30.239  25.871  1.00  0.00     0.261 C 
BRANCH  31  32
ATOM     32  O   UNL A   1      33.148  30.414  26.148  1.00  0.00    -0.460 OA
BRANCH  32  33
ATOM     33  C   UNL A   1      33.444  31.409  27.020  1.00  0.00     0.338 C 
ATOM     34  O   UNL A   1      32.742  32.368  27.314  1.00  0.00    -0.246 OA
BRANCH  33  35
ATOM     35  C   UNL A   1      34.729  31.128  27.692  1.00  0.00     0.060 A 
ATOM     36  C   UNL A   1      35.623  32.151  27.999  1.00  0.00     0.016 A 
ATOM     37  C   UNL A   1      35.024  29.809  28.066  1.00  0.00     0.016 A 
ATOM     38  C   UNL A   1      36.805  31.842  28.678  1.00  0.00     0.010 A 
ATOM     39  C   UNL A   1      36.211  29.507  28.749  1.00  0.00     0.010 A 
ATOM     40  C   UNL A   1      37.126  30.519  29.060  1.00  0.00    -0.014 A 
BRANCH  40  41
ATOM     41  C   UNL A   1      38.394  30.259  29.813  1.00  0.00     0.031 A 
ATOM     42  C   UNL A   1      38.662  30.825  31.189  1.00  0.00     0.074 A 
ATOM     43  C   UNL A   1      39.278  29.379  29.302  1.00  0.00     0.049 A 
ATOM     44  N   UNL A   1      39.543  30.428  32.078  1.00  0.00    -0.248 NA
ATOM     45  C   UNL A   1      37.804  31.924  31.659  1.00  0.00     0.031 C 
ATOM     46  C   UNL A   1      39.167  28.752  27.986  1.00  0.00     0.029 A 
ATOM     47  N   UNL A   1      40.422  28.840  29.838  1.00  0.00    -0.354 N 
ATOM     48  C   UNL A   1      39.277  31.151  33.235  1.00  0.00     0.074 A 
ATOM     49  C   UNL A   1      38.194  32.058  32.920  1.00  0.00     0.031 C 
ATOM     50  C   UNL A   1      40.177  27.886  27.830  1.00  0.00     0.029 A 
ATOM     51  C   UNL A   1      41.034  27.930  29.013  1.00  0.00     0.049 A 
ATOM     52  H   UNL A   1      40.769  29.081  30.727  1.00  0.00     0.167 HD
ATOM     53  C   UNL A   1      39.864  31.049  34.452  1.00  0.00     0.037 A 
ATOM     54  C   UNL A   1      42.167  27.219  29.169  1.00  0.00     0.037 A 
ATOM     55  C   UNL A   1      41.012  30.232  34.751  1.00  0.00     0.049 A 
ATOM     56  C   UNL A   1      42.946  27.316  30.447  1.00  0.00     0.074 A 
ATOM     57  C   UNL A   1      41.669  30.076  35.960  1.00  0.00     0.029 A 
ATOM     58  N   UNL A   1      41.713  29.483  33.819  1.00  0.00    -0.354 N 
ATOM     59  N   UNL A   1      42.626  27.930  31.558  1.00  0.00    -0.248 NA
ATOM     60  C   UNL A   1      44.245  26.631  30.490  1.00  0.00     0.031 C 
ATOM     61  C   UNL A   1      42.818  29.308  35.741  1.00  0.00     0.029 A 
ATOM     62  C   UNL A   1      42.845  28.936  34.407  1.00  0.00     0.049 A 
ATOM     63  H   UNL A   1      41.447  29.358  32.880  1.00  0.00     0.167 HD
ATOM     64  C   UNL A   1      43.683  27.713  32.431  1.00  0.00     0.074 A 
ATOM     65  C   UNL A   1      44.646  26.890  31.728  1.00  0.00     0.031 C 
ATOM     66  C   UNL A   1      43.832  28.160  33.702  1.00  0.00     0.037 A 
BRANCH  53  67
ATOM     67  C   UNL A   1      39.297  31.864  35.576  1.00  0.00     0.064 A 
ATOM     68  C   UNL A   1      38.367  31.315  36.471  1.00  0.00     0.173 A 
ATOM     69  C   UNL A   1      39.774  33.158  35.829  1.00  0.00     0.173 A 
ATOM     70  F   UNL A   1      37.885  30.079  36.270  1.00  0.00    -0.203 F 
ATOM     71  C   UNL A   1      37.935  32.034  37.583  1.00  0.00     0.198 A 
ATOM     72  C   UNL A   1      39.350  33.868  36.950  1.00  0.00     0.198 A 
ATOM     73  F   UNL A   1      40.671  33.719  35.006  1.00  0.00    -0.203 F 
ATOM     74  F   UNL A   1      37.046  31.493  38.427  1.00  0.00    -0.200 F 
ATOM     75  C   UNL A   1      38.434  33.306  37.826  1.00  0.00     0.200 A 
ATOM     76  F   UNL A   1      39.839  35.093  37.188  1.00  0.00    -0.200 F 
ATOM     77  F   UNL A   1      38.032  33.990  38.907  1.00  0.00    -0.200 F 
ENDBRANCH  53  67
BRANCH  54  78
ATOM     78  C   UNL A   1      42.636  26.382  28.037  1.00  0.00     0.064 A 
ATOM     79  C   UNL A   1      42.161  25.081  27.845  1.00  0.00     0.173 A 
ATOM     80  C   UNL A   1      43.513  26.914  27.077  1.00  0.00     0.173 A 
ATOM     81  F   UNL A   1      41.341  24.525  28.749  1.00  0.00    -0.203 F 
ATOM     82  C   UNL A   1      42.528  24.347  26.718  1.00  0.00     0.198 A 
ATOM     83  C   UNL A   1      43.855  26.191  25.939  1.00  0.00     0.198 A 
ATOM     84  F   UNL A   1      43.995  28.157  27.224  1.00  0.00    -0.203 F 
ATOM     85  F   UNL A   1      42.066  23.101  26.554  1.00  0.00    -0.200 F 
ATOM     86  C   UNL A   1      43.361  24.908  25.760  1.00  0.00     0.200 A 
ATOM     87  F   UNL A   1      44.643  26.746  25.008  1.00  0.00    -0.200 F 
ATOM     88  F   UNL A   1      43.682  24.215  24.659  1.00  0.00    -0.200 F 
ENDBRANCH  54  78
BRANCH  66  89
ATOM     89  C   UNL A   1      45.104  27.812  34.417  1.00  0.00     0.064 A 
ATOM     90  C   UNL A   1      45.244  26.595  35.099  1.00  0.00     0.173 A 
ATOM     91  C   UNL A   1      46.213  28.672  34.379  1.00  0.00     0.173 A 
ATOM     92  F   UNL A   1      44.209  25.745  35.177  1.00  0.00    -0.203 F 
ATOM     93  C   UNL A   1      46.440  26.256  35.728  1.00  0.00     0.198 A 
ATOM     94  C   UNL A   1      47.416  28.319  34.987  1.00  0.00     0.198 A 
ATOM     95  F   UNL A   1      46.136  29.848  33.737  1.00  0.00    -0.203 F 
ATOM     96  F   UNL A   1      46.537  25.102  36.401  1.00  0.00    -0.200 F 
ATOM     97  C   UNL A   1      47.527  27.114  35.663  1.00  0.00     0.200 A 
ATOM     98  F   UNL A   1      48.469  29.145  34.913  1.00  0.00    -0.200 F 
ATOM     99  F   UNL A   1      48.681  26.783  36.259  1.00  0.00    -0.200 F 
ENDBRANCH  66  89
ENDBRANCH  40  41
ENDBRANCH  33  35
ENDBRANCH  32  33
ENDBRANCH  31  32
ENDBRANCH  30  31
ENDBRANCH   1  30
TORSDOF 16
ENDMDL
MODEL 3
REMARK VINA RESULT:     -12.6      6.195     11.547
REMARK SMILES Cc1ccc2oc(-c3ccc4c(c3)OCO4)c/c(=N\[C@H](C)C(=O)OCCOCCOC(=O)c3ccc(-c4c5nc(c(-c6c(F)c(F)c(F)c(F)c6F)c6ccc([nH]6)c(-c6c(F)c(F)c(F)c(F)c6F)c6nc(c(-c7c(F)c(F)c(F)c(F)c7F)c7ccc4[nH]7)C=C6)C=C5)cc3)c2c1
REMARK SMILES IDX 27 1 26 2 25 3 24 4 22 5 23 6 20 7 21 8 19 9 1 10 2 11 3 12
REMARK SMILES IDX 97 13 4 14 96 15 5 16 18 17 6 18 17 19 7 20 8 21 9 22 13 23
REMARK SMILES IDX 10 24 12 25 11 26 14 27 16 28 15 29 28 30 29 31 30 32 31 33
REMARK SMILES IDX 32 34 33 35 34 36 95 37 35 38 94 39 36 40 37 41 38 42 88 43
REMARK SMILES IDX 39 44 93 45 87 46 89 47 40 48 92 49 86 50 85 51 41 53 73 54
REMARK SMILES IDX 53 55 72 56 54 57 57 58 71 59 90 60 55 61 56 62 70 64 91 65
REMARK SMILES IDX 58 66 42 67 43 68 51 69 44 70 45 71 49 72 52 73 46 74 47 75
REMARK SMILES IDX 50 76 48 77 74 78 75 79 83 80 76 81 77 82 81 83 84 84 78 85
REMARK SMILES IDX 79 86 82 87 80 88 59 89 60 90 68 91 61 92 62 93 66 94 69 95
REMARK SMILES IDX 63 96 64 97 67 98 65 99
REMARK H PARENT 89 52 57 63
REMARK Flexibility Score: inf
ROOT
ATOM      1  O   UNL A   1      34.924  33.788  30.385  1.00  0.00    -0.374 OA
ENDROOT
BRANCH   1   2
ATOM      2  C   UNL A   1      34.031  33.738  29.270  1.00  0.00     0.202 C 
BRANCH   2   3
ATOM      3  C   UNL A   1      34.480  32.813  28.136  1.00  0.00     0.261 C 
BRANCH   3   4
ATOM      4  O   UNL A   1      34.085  31.450  28.389  1.00  0.00    -0.462 OA
BRANCH   4   5
ATOM      5  C   UNL A   1      33.299  30.868  27.437  1.00  0.00     0.330 C 
ATOM      6  O   UNL A   1      32.116  31.133  27.252  1.00  0.00    -0.250 OA
BRANCH   5   7
ATOM      7  C   UNL A   1      34.061  29.821  26.619  1.00  0.00     0.212 C 
ATOM      8  C   UNL A   1      35.484  29.557  27.084  1.00  0.00     0.046 C 
BRANCH   7   9
ATOM      9  N   UNL A   1      33.222  28.636  26.410  1.00  0.00    -0.270 NA
ATOM     10  C   UNL A   1      32.051  23.627  26.905  1.00  0.00     0.044 C 
ATOM     11  C   UNL A   1      31.571  24.768  26.061  1.00  0.00    -0.050 A 
ATOM     12  C   UNL A   1      30.602  24.567  25.071  1.00  0.00     0.007 A 
ATOM     13  C   UNL A   1      32.076  26.059  26.279  1.00  0.00     0.017 A 
ATOM     14  C   UNL A   1      30.114  25.645  24.337  1.00  0.00     0.048 A 
ATOM     15  C   UNL A   1      31.596  27.142  25.536  1.00  0.00     0.043 A 
ATOM     16  C   UNL A   1      30.594  26.928  24.591  1.00  0.00     0.136 A 
ATOM     17  C   UNL A   1      32.167  28.511  25.698  1.00  0.00     0.073 A 
ATOM     18  O   UNL A   1      30.019  27.941  23.878  1.00  0.00    -0.456 OA
ATOM     19  C   UNL A   1      31.427  29.567  24.972  1.00  0.00     0.076 A 
ATOM     20  C   UNL A   1      30.412  29.223  24.171  1.00  0.00     0.136 A 
BRANCH  20  21
ATOM     21  C   UNL A   1      29.646  30.231  23.450  1.00  0.00     0.021 A 
ATOM     22  C   UNL A   1      29.438  31.468  24.074  1.00  0.00     0.016 A 
ATOM     23  C   UNL A   1      29.201  30.005  22.135  1.00  0.00     0.062 A 
ATOM     24  C   UNL A   1      28.817  32.490  23.372  1.00  0.00     0.051 A 
ATOM     25  C   UNL A   1      28.579  31.046  21.480  1.00  0.00     0.166 A 
ATOM     26  C   UNL A   1      28.396  32.259  22.086  1.00  0.00     0.165 A 
ATOM     27  O   UNL A   1      28.107  31.038  20.204  1.00  0.00    -0.454 OA
ATOM     28  O   UNL A   1      27.774  33.164  21.289  1.00  0.00    -0.454 OA
ATOM     29  C   UNL A   1      27.702  32.420  20.058  1.00  0.00     0.468 C 
ENDBRANCH  20  21
ENDBRANCH   7   9
ENDBRANCH   5   7
ENDBRANCH   4   5
ENDBRANCH   3   4
ENDBRANCH   2   3
ENDBRANCH   1   2
BRANCH   1  30
ATOM     30  C   UNL A   1      34.353  34.225  31.616  1.00  0.00     0.202 C 
BRANCH  30  31
ATOM     31  C   UNL A   1      35.115  33.788  32.874  1.00  0.00     0.261 C 
BRANCH  31  32
ATOM     32  O   UNL A   1      35.531  32.412  32.817  1.00  0.00    -0.460 OA
BRANCH  32  33
ATOM     33  C   UNL A   1      36.663  32.123  33.504  1.00  0.00     0.338 C 
ATOM     34  O   UNL A   1      36.820  32.149  34.718  1.00  0.00    -0.246 OA
BRANCH  33  35
ATOM     35  C   UNL A   1      37.709  31.640  32.578  1.00  0.00     0.060 A 
ATOM     36  C   UNL A   1      37.555  31.739  31.198  1.00  0.00     0.016 A 
ATOM     37  C   UNL A   1      38.895  31.114  33.111  1.00  0.00     0.016 A 
ATOM     38  C   UNL A   1      38.592  31.312  30.363  1.00  0.00     0.010 A 
ATOM     39  C   UNL A   1      39.931  30.689  32.268  1.00  0.00     0.010 A 
ATOM     40  C   UNL A   1      39.794  30.774  30.879  1.00  0.00    -0.014 A 
BRANCH  40  41
ATOM     41  C   UNL A   1      40.878  30.362  29.931  1.00  0.00     0.031 A 
ATOM     42  C   UNL A   1      42.038  31.262  29.571  1.00  0.00     0.074 A 
ATOM     43  C   UNL A   1      40.895  29.091  29.484  1.00  0.00     0.049 A 
ATOM     44  N   UNL A   1      43.194  30.933  29.043  1.00  0.00    -0.248 NA
ATOM     45  C   UNL A   1      41.924  32.693  29.894  1.00  0.00     0.031 C 
ATOM     46  C   UNL A   1      39.848  28.102  29.737  1.00  0.00     0.029 A 
ATOM     47  N   UNL A   1      41.834  28.407  28.751  1.00  0.00    -0.354 N 
ATOM     48  C   UNL A   1      43.973  32.083  29.068  1.00  0.00     0.074 A 
ATOM     49  C   UNL A   1      43.140  33.139  29.604  1.00  0.00     0.031 C 
ATOM     50  C   UNL A   1      40.217  26.930  29.205  1.00  0.00     0.029 A 
ATOM     51  C   UNL A   1      41.503  27.094  28.530  1.00  0.00     0.049 A 
ATOM     52  H   UNL A   1      42.664  28.818  28.418  1.00  0.00     0.167 HD
ATOM     53  C   UNL A   1      45.268  32.239  28.703  1.00  0.00     0.037 A 
ATOM     54  C   UNL A   1      42.143  26.125  27.848  1.00  0.00     0.037 A 
ATOM     55  C   UNL A   1      46.075  31.230  28.068  1.00  0.00     0.049 A 
ATOM     56  C   UNL A   1      43.482  26.399  27.230  1.00  0.00     0.074 A 
ATOM     57  C   UNL A   1      47.398  31.310  27.663  1.00  0.00     0.029 A 
ATOM     58  N   UNL A   1      45.620  29.978  27.686  1.00  0.00    -0.354 N 
ATOM     59  N   UNL A   1      44.238  27.461  27.347  1.00  0.00    -0.248 NA
ATOM     60  C   UNL A   1      44.050  25.346  26.377  1.00  0.00     0.031 C 
ATOM     61  C   UNL A   1      47.713  30.144  26.957  1.00  0.00     0.029 A 
ATOM     62  C   UNL A   1      46.607  29.312  26.973  1.00  0.00     0.049 A 
ATOM     63  H   UNL A   1      44.728  29.615  27.891  1.00  0.00     0.167 HD
ATOM     64  C   UNL A   1      45.368  27.210  26.581  1.00  0.00     0.074 A 
ATOM     65  C   UNL A   1      45.209  25.885  26.021  1.00  0.00     0.031 C 
ATOM     66  C   UNL A   1      46.438  28.016  26.370  1.00  0.00     0.037 A 
BRANCH  53  67
ATOM     67  C   UNL A   1      45.914  33.569  28.954  1.00  0.00     0.064 A 
ATOM     68  C   UNL A   1      45.790  34.619  28.032  1.00  0.00     0.173 A 
ATOM     69  C   UNL A   1      46.558  33.831  30.171  1.00  0.00     0.173 A 
ATOM     70  F   UNL A   1      45.179  34.416  26.855  1.00  0.00    -0.203 F 
ATOM     71  C   UNL A   1      46.287  35.887  28.322  1.00  0.00     0.198 A 
ATOM     72  C   UNL A   1      47.042  35.104  30.463  1.00  0.00     0.198 A 
ATOM     73  F   UNL A   1      46.690  32.861  31.087  1.00  0.00    -0.203 F 
ATOM     74  F   UNL A   1      46.160  36.878  27.428  1.00  0.00    -0.200 F 
ATOM     75  C   UNL A   1      46.905  36.131  29.541  1.00  0.00     0.200 A 
ATOM     76  F   UNL A   1      47.629  35.340  31.644  1.00  0.00    -0.200 F 
ATOM     77  F   UNL A   1      47.366  37.357  29.827  1.00  0.00    -0.200 F 
ENDBRANCH  53  67
BRANCH  54  78
ATOM     78  C   UNL A   1      41.473  24.810  27.694  1.00  0.00     0.064 A 
ATOM     79  C   UNL A   1      40.371  24.647  26.848  1.00  0.00     0.173 A 
ATOM     80  C   UNL A   1      41.988  23.672  28.335  1.00  0.00     0.173 A 
ATOM     81  F   UNL A   1      39.832  25.711  26.234  1.00  0.00    -0.203 F 
ATOM     82  C   UNL A   1      39.821  23.385  26.630  1.00  0.00     0.198 A 
ATOM     83  C   UNL A   1      41.454  22.410  28.094  1.00  0.00     0.198 A 
ATOM     84  F   UNL A   1      43.041  23.783  29.157  1.00  0.00    -0.203 F 
ATOM     85  F   UNL A   1      38.762  23.251  25.820  1.00  0.00    -0.200 F 
ATOM     86  C   UNL A   1      40.372  22.267  27.240  1.00  0.00     0.200 A 
ATOM     87  F   UNL A   1      42.004  21.332  28.670  1.00  0.00    -0.200 F 
ATOM     88  F   UNL A   1      39.864  21.051  27.000  1.00  0.00    -0.200 F 
ENDBRANCH  54  78
BRANCH  66  89
ATOM     89  C   UNL A   1      47.516  27.514  25.454  1.00  0.00     0.064 A 
ATOM     90  C   UNL A   1      47.485  27.787  24.079  1.00  0.00     0.173 A 
ATOM     91  C   UNL A   1      48.616  26.802  25.956  1.00  0.00     0.173 A 
ATOM     92  F   UNL A   1      46.447  28.451  23.548  1.00  0.00    -0.203 F 
ATOM     93  C   UNL A   1      48.507  27.356  23.237  1.00  0.00     0.198 A 
ATOM     94  C   UNL A   1      49.650  26.394  25.115  1.00  0.00     0.198 A 
ATOM     95  F   UNL A   1      48.700  26.517  27.264  1.00  0.00    -0.203 F 
ATOM     96  F   UNL A   1      48.438  27.600  21.922  1.00  0.00    -0.200 F 
ATOM     97  C   UNL A   1      49.593  26.668  23.758  1.00  0.00     0.200 A 
ATOM     98  F   UNL A   1      50.705  25.741  25.622  1.00  0.00    -0.200 F 
ATOM     99  F   UNL A   1      50.582  26.262  22.949  1.00  0.00    -0.200 F 
ENDBRANCH  66  89
ENDBRANCH  40  41
ENDBRANCH  33  35
ENDBRANCH  32  33
ENDBRANCH  31  32
ENDBRANCH  30  31
ENDBRANCH   1  30
TORSDOF 16
ENDMDL
