MODEL 1
REMARK VINA RESULT:     -12.7      0.000      0.000
REMARK SMILES Cc1ccc2c(c1)c(-c1ccnc3c(C)cccc13)c(C)n2CC(=O)OCCOCCOC(=O)c1ccc(-c2c3nc(c(-c4c(F)c(F)c(F)c(F)c4F)c4ccc([nH]4)c(-c4c(F)c(F)c(F)c(F)c4F)c4nc(c(-c5c(F)c(F)c(F)c(F)c5F)c5ccc2[nH]5)C=C4)C=C3)cc1
REMARK SMILES IDX 29 1 28 2 27 3 26 4 24 5 25 6 23 7 22 8 1 9 2 10 3 11 7 12
REMARK SMILES IDX 4 13 6 14 5 15 8 16 20 17 21 18 9 19 10 20 19 21 11 22 13 23
REMARK SMILES IDX 18 24 12 25 14 26 17 27 15 28 16 29 30 30 31 31 32 32 33 33
REMARK SMILES IDX 34 34 35 35 36 36 97 37 37 38 96 39 38 40 39 41 40 42 90 43
REMARK SMILES IDX 41 44 95 45 89 46 91 47 42 48 94 49 88 50 87 51 43 53 75 54
REMARK SMILES IDX 55 55 74 56 56 57 59 58 73 59 92 60 57 61 58 62 72 64 93 65
REMARK SMILES IDX 60 66 44 67 45 68 53 69 46 70 47 71 51 72 54 73 48 74 49 75
REMARK SMILES IDX 52 76 50 77 76 78 77 79 85 80 78 81 79 82 83 83 86 84 80 85
REMARK SMILES IDX 81 86 84 87 82 88 61 89 62 90 70 91 63 92 64 93 68 94 71 95
REMARK SMILES IDX 65 96 66 97 69 98 67 99
REMARK H PARENT 91 52 59 63
REMARK Flexibility Score: inf
ROOT
ATOM      1  O   UNL A   1      38.642  21.392  25.795  1.00  0.00    -0.374 OA
ENDROOT
BRANCH   1   2
ATOM      2  C   UNL A   1      37.433  22.133  25.740  1.00  0.00     0.202 C 
BRANCH   2   3
ATOM      3  C   UNL A   1      36.235  21.639  24.913  1.00  0.00     0.261 C 
BRANCH   3   4
ATOM      4  O   UNL A   1      35.297  22.660  24.526  1.00  0.00    -0.462 OA
BRANCH   4   5
ATOM      5  C   UNL A   1      35.345  23.001  23.212  1.00  0.00     0.326 C 
ATOM      6  O   UNL A   1      36.390  23.109  22.573  1.00  0.00    -0.250 OA
BRANCH   5   7
ATOM      7  C   UNL A   1      34.020  23.204  22.523  1.00  0.00     0.244 C 
BRANCH   7   8
ATOM      8  N   UNL A   1      33.014  24.069  23.145  1.00  0.00    -0.333 N 
ATOM      9  C   UNL A   1      29.502  23.094  27.466  1.00  0.00     0.044 C 
ATOM     10  C   UNL A   1      30.341  23.266  26.233  1.00  0.00    -0.050 A 
ATOM     11  C   UNL A   1      30.984  22.165  25.664  1.00  0.00     0.005 A 
ATOM     12  C   UNL A   1      30.550  24.542  25.693  1.00  0.00     0.014 A 
ATOM     13  C   UNL A   1      31.855  22.309  24.577  1.00  0.00     0.027 A 
ATOM     14  C   UNL A   1      31.457  24.718  24.627  1.00  0.00     0.008 A 
ATOM     15  C   UNL A   1      32.111  23.605  24.097  1.00  0.00     0.049 A 
ATOM     16  C   UNL A   1      31.936  25.864  23.935  1.00  0.00     0.011 A 
ATOM     17  C   UNL A   1      33.031  25.461  23.177  1.00  0.00     0.024 A 
ATOM     18  C   UNL A   1      34.089  26.317  22.560  1.00  0.00     0.065 C 
BRANCH  16  19
ATOM     19  C   UNL A   1      31.528  27.257  24.108  1.00  0.00    -0.005 A 
ATOM     20  C   UNL A   1      30.555  27.782  23.263  1.00  0.00     0.029 A 
ATOM     21  C   UNL A   1      32.105  28.078  25.112  1.00  0.00     0.008 A 
ATOM     22  C   UNL A   1      30.144  29.078  23.486  1.00  0.00     0.112 A 
ATOM     23  C   UNL A   1      31.566  29.375  25.302  1.00  0.00     0.074 A 
ATOM     24  C   UNL A   1      33.192  27.668  25.914  1.00  0.00     0.011 A 
ATOM     25  N   UNL A   1      30.598  29.852  24.493  1.00  0.00    -0.256 NA
ATOM     26  C   UNL A   1      32.061  30.166  26.352  1.00  0.00    -0.025 A 
ATOM     27  C   UNL A   1      33.708  28.492  26.905  1.00  0.00     0.001 A 
ATOM     28  C   UNL A   1      31.488  31.522  26.673  1.00  0.00     0.047 C 
ATOM     29  C   UNL A   1      33.115  29.715  27.159  1.00  0.00     0.005 A 
ENDBRANCH  16  19
ENDBRANCH   7   8
ENDBRANCH   5   7
ENDBRANCH   4   5
ENDBRANCH   3   4
ENDBRANCH   2   3
ENDBRANCH   1   2
BRANCH   1  30
ATOM     30  C   UNL A   1      39.775  22.012  26.387  1.00  0.00     0.202 C 
BRANCH  30  31
ATOM     31  C   UNL A   1      41.153  21.329  26.325  1.00  0.00     0.261 C 
BRANCH  31  32
ATOM     32  O   UNL A   1      42.220  22.164  26.769  1.00  0.00    -0.460 OA
BRANCH  32  33
ATOM     33  C   UNL A   1      42.848  22.837  25.761  1.00  0.00     0.338 C 
ATOM     34  O   UNL A   1      42.945  22.534  24.599  1.00  0.00    -0.246 OA
BRANCH  33  35
ATOM     35  C   UNL A   1      42.978  24.215  26.252  1.00  0.00     0.060 A 
ATOM     36  C   UNL A   1      43.794  24.534  27.344  1.00  0.00     0.016 A 
ATOM     37  C   UNL A   1      41.931  25.044  25.833  1.00  0.00     0.016 A 
ATOM     38  C   UNL A   1      43.459  25.644  28.103  1.00  0.00     0.010 A 
ATOM     39  C   UNL A   1      41.568  26.112  26.623  1.00  0.00     0.010 A 
ATOM     40  C   UNL A   1      42.304  26.377  27.780  1.00  0.00    -0.014 A 
BRANCH  40  41
ATOM     41  C   UNL A   1      42.024  27.604  28.514  1.00  0.00     0.031 A 
ATOM     42  C   UNL A   1      43.061  28.627  28.225  1.00  0.00     0.074 A 
ATOM     43  C   UNL A   1      40.884  27.861  29.189  1.00  0.00     0.049 A 
ATOM     44  N   UNL A   1      43.915  29.148  29.043  1.00  0.00    -0.248 NA
ATOM     45  C   UNL A   1      43.308  28.958  26.808  1.00  0.00     0.031 C 
ATOM     46  C   UNL A   1      39.679  27.035  29.266  1.00  0.00     0.029 A 
ATOM     47  N   UNL A   1      40.518  28.980  29.879  1.00  0.00    -0.354 N 
ATOM     48  C   UNL A   1      44.675  30.019  28.266  1.00  0.00     0.074 A 
ATOM     49  C   UNL A   1      44.412  29.698  26.893  1.00  0.00     0.031 C 
ATOM     50  C   UNL A   1      38.656  27.762  29.768  1.00  0.00     0.029 A 
ATOM     51  C   UNL A   1      39.154  29.067  30.153  1.00  0.00     0.049 A 
ATOM     52  H   UNL A   1      41.164  29.669  30.159  1.00  0.00     0.167 HD
ATOM     53  C   UNL A   1      45.209  31.145  28.806  1.00  0.00     0.037 A 
ATOM     54  C   UNL A   1      38.492  30.166  30.598  1.00  0.00     0.037 A 
ATOM     55  C   UNL A   1      45.239  31.068  30.240  1.00  0.00     0.049 A 
ATOM     56  C   UNL A   1      39.509  31.071  31.179  1.00  0.00     0.074 A 
ATOM     57  C   UNL A   1      45.939  30.348  31.182  1.00  0.00     0.029 A 
ATOM     58  N   UNL A   1      44.116  31.555  30.855  1.00  0.00    -0.354 N 
ATOM     59  N   UNL A   1      40.175  30.813  32.267  1.00  0.00    -0.248 NA
ATOM     60  C   UNL A   1      40.052  32.134  30.346  1.00  0.00     0.031 C 
ATOM     61  C   UNL A   1      45.054  30.196  32.292  1.00  0.00     0.029 A 
ATOM     62  C   UNL A   1      43.863  30.865  32.007  1.00  0.00     0.049 A 
ATOM     63  H   UNL A   1      43.569  32.299  30.513  1.00  0.00     0.167 HD
ATOM     64  C   UNL A   1      41.423  31.365  32.044  1.00  0.00     0.074 A 
ATOM     65  C   UNL A   1      41.235  32.299  30.940  1.00  0.00     0.031 C 
ATOM     66  C   UNL A   1      42.534  30.779  32.572  1.00  0.00     0.037 A 
BRANCH  53  67
ATOM     67  C   UNL A   1      45.235  32.470  28.077  1.00  0.00     0.064 A 
ATOM     68  C   UNL A   1      46.472  33.075  27.789  1.00  0.00     0.173 A 
ATOM     69  C   UNL A   1      44.102  33.303  27.912  1.00  0.00     0.173 A 
ATOM     70  F   UNL A   1      47.618  32.400  27.972  1.00  0.00    -0.203 F 
ATOM     71  C   UNL A   1      46.566  34.412  27.392  1.00  0.00     0.198 A 
ATOM     72  C   UNL A   1      44.193  34.614  27.455  1.00  0.00     0.198 A 
ATOM     73  F   UNL A   1      42.878  32.929  28.302  1.00  0.00    -0.203 F 
ATOM     74  F   UNL A   1      47.770  34.978  27.235  1.00  0.00    -0.200 F 
ATOM     75  C   UNL A   1      45.426  35.178  27.217  1.00  0.00     0.200 A 
ATOM     76  F   UNL A   1      43.077  35.347  27.330  1.00  0.00    -0.200 F 
ATOM     77  F   UNL A   1      45.515  36.470  26.875  1.00  0.00    -0.200 F 
ENDBRANCH  53  67
BRANCH  54  78
ATOM     78  C   UNL A   1      37.127  30.658  30.272  1.00  0.00     0.064 A 
ATOM     79  C   UNL A   1      36.287  31.147  31.292  1.00  0.00     0.173 A 
ATOM     80  C   UNL A   1      36.756  30.980  28.955  1.00  0.00     0.173 A 
ATOM     81  F   UNL A   1      36.578  30.905  32.579  1.00  0.00    -0.203 F 
ATOM     82  C   UNL A   1      35.191  31.970  31.014  1.00  0.00     0.198 A 
ATOM     83  C   UNL A   1      35.655  31.796  28.678  1.00  0.00     0.198 A 
ATOM     84  F   UNL A   1      37.512  30.602  27.915  1.00  0.00    -0.203 F 
ATOM     85  F   UNL A   1      34.476  32.494  32.019  1.00  0.00    -0.200 F 
ATOM     86  C   UNL A   1      34.889  32.312  29.708  1.00  0.00     0.200 A 
ATOM     87  F   UNL A   1      35.391  32.147  27.410  1.00  0.00    -0.200 F 
ATOM     88  F   UNL A   1      33.896  33.172  29.444  1.00  0.00    -0.200 F 
ENDBRANCH  54  78
BRANCH  66  89
ATOM     89  C   UNL A   1      42.329  29.836  33.722  1.00  0.00     0.064 A 
ATOM     90  C   UNL A   1      42.038  28.468  33.594  1.00  0.00     0.173 A 
ATOM     91  C   UNL A   1      42.531  30.337  35.016  1.00  0.00     0.173 A 
ATOM     92  F   UNL A   1      41.912  27.898  32.389  1.00  0.00    -0.203 F 
ATOM     93  C   UNL A   1      41.918  27.650  34.716  1.00  0.00     0.198 A 
ATOM     94  C   UNL A   1      42.449  29.511  36.130  1.00  0.00     0.198 A 
ATOM     95  F   UNL A   1      42.851  31.628  35.192  1.00  0.00    -0.203 F 
ATOM     96  F   UNL A   1      41.625  26.349  34.573  1.00  0.00    -0.200 F 
ATOM     97  C   UNL A   1      42.133  28.170  35.982  1.00  0.00     0.200 A 
ATOM     98  F   UNL A   1      42.704  30.010  37.347  1.00  0.00    -0.200 F 
ATOM     99  F   UNL A   1      42.061  27.375  37.060  1.00  0.00    -0.200 F 
ENDBRANCH  66  89
ENDBRANCH  40  41
ENDBRANCH  33  35
ENDBRANCH  32  33
ENDBRANCH  31  32
ENDBRANCH  30  31
ENDBRANCH   1  30
TORSDOF 16
ENDMDL
MODEL 2
REMARK VINA RESULT:     -12.7      3.491      8.791
REMARK SMILES Cc1ccc2c(c1)c(-c1ccnc3c(C)cccc13)c(C)n2CC(=O)OCCOCCOC(=O)c1ccc(-c2c3nc(c(-c4c(F)c(F)c(F)c(F)c4F)c4ccc([nH]4)c(-c4c(F)c(F)c(F)c(F)c4F)c4nc(c(-c5c(F)c(F)c(F)c(F)c5F)c5ccc2[nH]5)C=C4)C=C3)cc1
REMARK SMILES IDX 29 1 28 2 27 3 26 4 24 5 25 6 23 7 22 8 1 9 2 10 3 11 7 12
REMARK SMILES IDX 4 13 6 14 5 15 8 16 20 17 21 18 9 19 10 20 19 21 11 22 13 23
REMARK SMILES IDX 18 24 12 25 14 26 17 27 15 28 16 29 30 30 31 31 32 32 33 33
REMARK SMILES IDX 34 34 35 35 36 36 97 37 37 38 96 39 38 40 39 41 40 42 90 43
REMARK SMILES IDX 41 44 95 45 89 46 91 47 42 48 94 49 88 50 87 51 43 53 75 54
REMARK SMILES IDX 55 55 74 56 56 57 59 58 73 59 92 60 57 61 58 62 72 64 93 65
REMARK SMILES IDX 60 66 44 67 45 68 53 69 46 70 47 71 51 72 54 73 48 74 49 75
REMARK SMILES IDX 52 76 50 77 76 78 77 79 85 80 78 81 79 82 83 83 86 84 80 85
REMARK SMILES IDX 81 86 84 87 82 88 61 89 62 90 70 91 63 92 64 93 68 94 71 95
REMARK SMILES IDX 65 96 66 97 69 98 67 99
REMARK H PARENT 91 52 59 63
REMARK Flexibility Score: inf
ROOT
ATOM      1  O   UNL A   1      33.751  29.962  27.626  1.00  0.00    -0.374 OA
ENDROOT
BRANCH   1   2
ATOM      2  C   UNL A   1      34.392  29.055  26.742  1.00  0.00     0.202 C 
BRANCH   2   3
ATOM      3  C   UNL A   1      33.671  27.796  26.235  1.00  0.00     0.261 C 
BRANCH   3   4
ATOM      4  O   UNL A   1      32.299  27.993  25.847  1.00  0.00    -0.462 OA
BRANCH   4   5
ATOM      5  C   UNL A   1      31.388  27.432  26.685  1.00  0.00     0.326 C 
ATOM      6  O   UNL A   1      31.188  27.823  27.834  1.00  0.00    -0.250 OA
BRANCH   5   7
ATOM      7  C   UNL A   1      30.566  26.301  26.123  1.00  0.00     0.244 C 
BRANCH   7   8
ATOM      8  N   UNL A   1      31.222  25.273  25.312  1.00  0.00    -0.333 N 
ATOM      9  C   UNL A   1      32.902  25.372  19.915  1.00  0.00     0.044 C 
ATOM     10  C   UNL A   1      32.312  25.330  21.295  1.00  0.00    -0.050 A 
ATOM     11  C   UNL A   1      31.452  26.343  21.722  1.00  0.00     0.005 A 
ATOM     12  C   UNL A   1      32.684  24.319  22.191  1.00  0.00     0.014 A 
ATOM     13  C   UNL A   1      30.968  26.387  23.035  1.00  0.00     0.027 A 
ATOM     14  C   UNL A   1      32.246  24.365  23.531  1.00  0.00     0.008 A 
ATOM     15  C   UNL A   1      31.412  25.407  23.940  1.00  0.00     0.049 A 
ATOM     16  C   UNL A   1      32.511  23.559  24.672  1.00  0.00     0.011 A 
ATOM     17  C   UNL A   1      32.039  24.248  25.784  1.00  0.00     0.024 A 
ATOM     18  C   UNL A   1      32.375  24.017  27.221  1.00  0.00     0.065 C 
BRANCH  16  19
ATOM     19  C   UNL A   1      33.305  22.334  24.744  1.00  0.00    -0.005 A 
ATOM     20  C   UNL A   1      32.662  21.107  24.616  1.00  0.00     0.029 A 
ATOM     21  C   UNL A   1      34.711  22.373  24.944  1.00  0.00     0.008 A 
ATOM     22  C   UNL A   1      33.440  19.970  24.625  1.00  0.00     0.112 A 
ATOM     23  C   UNL A   1      35.427  21.153  24.872  1.00  0.00     0.074 A 
ATOM     24  C   UNL A   1      35.417  23.563  25.223  1.00  0.00     0.011 A 
ATOM     25  N   UNL A   1      34.787  19.977  24.713  1.00  0.00    -0.256 NA
ATOM     26  C   UNL A   1      36.828  21.184  24.975  1.00  0.00    -0.025 A 
ATOM     27  C   UNL A   1      36.796  23.562  25.383  1.00  0.00     0.001 A 
ATOM     28  C   UNL A   1      37.671  19.944  24.828  1.00  0.00     0.047 C 
ATOM     29  C   UNL A   1      37.506  22.389  25.212  1.00  0.00     0.005 A 
ENDBRANCH  16  19
ENDBRANCH   7   8
ENDBRANCH   5   7
ENDBRANCH   4   5
ENDBRANCH   3   4
ENDBRANCH   2   3
ENDBRANCH   1   2
BRANCH   1  30
ATOM     30  C   UNL A   1      33.764  31.342  27.288  1.00  0.00     0.202 C 
BRANCH  30  31
ATOM     31  C   UNL A   1      34.404  32.367  28.240  1.00  0.00     0.261 C 
BRANCH  31  32
ATOM     32  O   UNL A   1      34.478  31.917  29.591  1.00  0.00    -0.460 OA
BRANCH  32  33
ATOM     33  C   UNL A   1      35.608  32.317  30.244  1.00  0.00     0.338 C 
ATOM     34  O   UNL A   1      35.703  32.967  31.255  1.00  0.00    -0.246 OA
BRANCH  33  35
ATOM     35  C   UNL A   1      36.663  31.421  29.754  1.00  0.00     0.060 A 
ATOM     36  C   UNL A   1      36.525  30.029  29.794  1.00  0.00     0.016 A 
ATOM     37  C   UNL A   1      37.913  32.047  29.668  1.00  0.00     0.016 A 
ATOM     38  C   UNL A   1      37.677  29.264  29.882  1.00  0.00     0.010 A 
ATOM     39  C   UNL A   1      39.051  31.286  29.813  1.00  0.00     0.010 A 
ATOM     40  C   UNL A   1      38.925  29.904  29.968  1.00  0.00    -0.014 A 
BRANCH  40  41
ATOM     41  C   UNL A   1      40.133  29.091  29.947  1.00  0.00     0.031 A 
ATOM     42  C   UNL A   1      40.618  28.848  31.330  1.00  0.00     0.074 A 
ATOM     43  C   UNL A   1      40.630  28.467  28.858  1.00  0.00     0.049 A 
ATOM     44  N   UNL A   1      41.722  29.246  31.869  1.00  0.00    -0.248 NA
ATOM     45  C   UNL A   1      39.659  28.263  32.289  1.00  0.00     0.031 C 
ATOM     46  C   UNL A   1      40.043  28.394  27.519  1.00  0.00     0.029 A 
ATOM     47  N   UNL A   1      41.729  27.668  28.742  1.00  0.00    -0.354 N 
ATOM     48  C   UNL A   1      41.672  28.785  33.181  1.00  0.00     0.074 A 
ATOM     49  C   UNL A   1      40.315  28.395  33.439  1.00  0.00     0.031 C 
ATOM     50  C   UNL A   1      40.665  27.434  26.798  1.00  0.00     0.029 A 
ATOM     51  C   UNL A   1      41.763  26.899  27.579  1.00  0.00     0.049 A 
ATOM     52  H   UNL A   1      42.439  27.636  29.423  1.00  0.00     0.167 HD
ATOM     53  C   UNL A   1      42.809  28.456  33.847  1.00  0.00     0.037 A 
ATOM     54  C   UNL A   1      42.596  25.858  27.328  1.00  0.00     0.037 A 
ATOM     55  C   UNL A   1      43.965  29.022  33.208  1.00  0.00     0.049 A 
ATOM     56  C   UNL A   1      43.736  25.988  28.262  1.00  0.00     0.074 A 
ATOM     57  C   UNL A   1      44.489  30.285  33.042  1.00  0.00     0.029 A 
ATOM     58  N   UNL A   1      44.535  28.218  32.257  1.00  0.00    -0.354 N 
ATOM     59  N   UNL A   1      44.621  26.941  28.203  1.00  0.00    -0.248 NA
ATOM     60  C   UNL A   1      43.702  25.238  29.511  1.00  0.00     0.031 C 
ATOM     61  C   UNL A   1      45.175  30.259  31.790  1.00  0.00     0.029 A 
ATOM     62  C   UNL A   1      45.082  28.973  31.257  1.00  0.00     0.049 A 
ATOM     63  H   UNL A   1      44.548  27.234  32.290  1.00  0.00     0.167 HD
ATOM     64  C   UNL A   1      44.947  27.190  29.522  1.00  0.00     0.074 A 
ATOM     65  C   UNL A   1      44.491  26.015  30.256  1.00  0.00     0.031 C 
ATOM     66  C   UNL A   1      45.271  28.452  29.921  1.00  0.00     0.037 A 
BRANCH  53  67
ATOM     67  C   UNL A   1      42.909  27.247  34.751  1.00  0.00     0.064 A 
ATOM     68  C   UNL A   1      43.117  27.433  36.130  1.00  0.00     0.173 A 
ATOM     69  C   UNL A   1      43.101  25.925  34.283  1.00  0.00     0.173 A 
ATOM     70  F   UNL A   1      43.025  28.658  36.672  1.00  0.00    -0.203 F 
ATOM     71  C   UNL A   1      43.508  26.383  36.966  1.00  0.00     0.198 A 
ATOM     72  C   UNL A   1      43.428  24.869  35.129  1.00  0.00     0.198 A 
ATOM     73  F   UNL A   1      43.104  25.621  32.980  1.00  0.00    -0.203 F 
ATOM     74  F   UNL A   1      43.801  26.628  38.250  1.00  0.00    -0.200 F 
ATOM     75  C   UNL A   1      43.655  25.101  36.467  1.00  0.00     0.200 A 
ATOM     76  F   UNL A   1      43.601  23.643  34.615  1.00  0.00    -0.200 F 
ATOM     77  F   UNL A   1      44.068  24.102  37.257  1.00  0.00    -0.200 F 
ENDBRANCH  53  67
BRANCH  54  78
ATOM     78  C   UNL A   1      42.346  24.585  26.600  1.00  0.00     0.064 A 
ATOM     79  C   UNL A   1      43.258  24.132  25.628  1.00  0.00     0.173 A 
ATOM     80  C   UNL A   1      41.421  23.637  27.073  1.00  0.00     0.173 A 
ATOM     81  F   UNL A   1      44.189  24.964  25.137  1.00  0.00    -0.203 F 
ATOM     82  C   UNL A   1      43.294  22.797  25.214  1.00  0.00     0.198 A 
ATOM     83  C   UNL A   1      41.452  22.304  26.652  1.00  0.00     0.198 A 
ATOM     84  F   UNL A   1      40.539  23.953  28.031  1.00  0.00    -0.203 F 
ATOM     85  F   UNL A   1      44.241  22.385  24.360  1.00  0.00    -0.200 F 
ATOM     86  C   UNL A   1      42.404  21.879  25.744  1.00  0.00     0.200 A 
ATOM     87  F   UNL A   1      40.605  21.417  27.195  1.00  0.00    -0.200 F 
ATOM     88  F   UNL A   1      42.494  20.582  25.417  1.00  0.00    -0.200 F 
ENDBRANCH  54  78
BRANCH  66  89
ATOM     89  C   UNL A   1      45.692  29.419  28.852  1.00  0.00     0.064 A 
ATOM     90  C   UNL A   1      44.815  30.242  28.127  1.00  0.00     0.173 A 
ATOM     91  C   UNL A   1      47.066  29.577  28.624  1.00  0.00     0.173 A 
ATOM     92  F   UNL A   1      43.494  30.208  28.347  1.00  0.00    -0.203 F 
ATOM     93  C   UNL A   1      45.295  31.155  27.190  1.00  0.00     0.198 A 
ATOM     94  C   UNL A   1      47.543  30.515  27.717  1.00  0.00     0.198 A 
ATOM     95  F   UNL A   1      47.949  28.845  29.320  1.00  0.00    -0.203 F 
ATOM     96  F   UNL A   1      44.439  31.922  26.497  1.00  0.00    -0.200 F 
ATOM     97  C   UNL A   1      46.659  31.298  26.993  1.00  0.00     0.200 A 
ATOM     98  F   UNL A   1      48.864  30.680  27.566  1.00  0.00    -0.200 F 
ATOM     99  F   UNL A   1      47.124  32.206  26.123  1.00  0.00    -0.200 F 
ENDBRANCH  66  89
ENDBRANCH  40  41
ENDBRANCH  33  35
ENDBRANCH  32  33
ENDBRANCH  31  32
ENDBRANCH  30  31
ENDBRANCH   1  30
TORSDOF 16
ENDMDL
MODEL 3
REMARK VINA RESULT:     -12.3      3.236      8.675
REMARK SMILES Cc1ccc2c(c1)c(-c1ccnc3c(C)cccc13)c(C)n2CC(=O)OCCOCCOC(=O)c1ccc(-c2c3nc(c(-c4c(F)c(F)c(F)c(F)c4F)c4ccc([nH]4)c(-c4c(F)c(F)c(F)c(F)c4F)c4nc(c(-c5c(F)c(F)c(F)c(F)c5F)c5ccc2[nH]5)C=C4)C=C3)cc1
REMARK SMILES IDX 29 1 28 2 27 3 26 4 24 5 25 6 23 7 22 8 1 9 2 10 3 11 7 12
REMARK SMILES IDX 4 13 6 14 5 15 8 16 20 17 21 18 9 19 10 20 19 21 11 22 13 23
REMARK SMILES IDX 18 24 12 25 14 26 17 27 15 28 16 29 30 30 31 31 32 32 33 33
REMARK SMILES IDX 34 34 35 35 36 36 97 37 37 38 96 39 38 40 39 41 40 42 90 43
REMARK SMILES IDX 41 44 95 45 89 46 91 47 42 48 94 49 88 50 87 51 43 53 75 54
REMARK SMILES IDX 55 55 74 56 56 57 59 58 73 59 92 60 57 61 58 62 72 64 93 65
REMARK SMILES IDX 60 66 44 67 45 68 53 69 46 70 47 71 51 72 54 73 48 74 49 75
REMARK SMILES IDX 52 76 50 77 76 78 77 79 85 80 78 81 79 82 83 83 86 84 80 85
REMARK SMILES IDX 81 86 84 87 82 88 61 89 62 90 70 91 63 92 64 93 68 94 71 95
REMARK SMILES IDX 65 96 66 97 69 98 67 99
REMARK H PARENT 91 52 59 63
REMARK Flexibility Score: inf
ROOT
ATOM      1  O   UNL A   1      31.867  29.423  26.961  1.00  0.00    -0.374 OA
ENDROOT
BRANCH   1   2
ATOM      2  C   UNL A   1      32.571  28.352  26.352  1.00  0.00     0.202 C 
BRANCH   2   3
ATOM      3  C   UNL A   1      33.776  28.615  25.434  1.00  0.00     0.261 C 
BRANCH   3   4
ATOM      4  O   UNL A   1      33.871  27.748  24.289  1.00  0.00    -0.462 OA
BRANCH   4   5
ATOM      5  C   UNL A   1      32.823  27.832  23.429  1.00  0.00     0.326 C 
ATOM      6  O   UNL A   1      32.493  28.870  22.855  1.00  0.00    -0.250 OA
BRANCH   5   7
ATOM      7  C   UNL A   1      32.077  26.552  23.152  1.00  0.00     0.244 C 
BRANCH   7   8
ATOM      8  N   UNL A   1      32.356  25.370  23.970  1.00  0.00    -0.333 N 
ATOM      9  C   UNL A   1      29.070  22.578  27.626  1.00  0.00     0.044 C 
ATOM     10  C   UNL A   1      29.958  23.427  26.764  1.00  0.00    -0.050 A 
ATOM     11  C   UNL A   1      29.533  24.690  26.348  1.00  0.00     0.005 A 
ATOM     12  C   UNL A   1      31.183  22.927  26.304  1.00  0.00     0.014 A 
ATOM     13  C   UNL A   1      30.292  25.462  25.460  1.00  0.00     0.027 A 
ATOM     14  C   UNL A   1      31.945  23.666  25.375  1.00  0.00     0.008 A 
ATOM     15  C   UNL A   1      31.481  24.913  24.951  1.00  0.00     0.049 A 
ATOM     16  C   UNL A   1      33.154  23.401  24.675  1.00  0.00     0.011 A 
ATOM     17  C   UNL A   1      33.274  24.364  23.678  1.00  0.00     0.024 A 
ATOM     18  C   UNL A   1      34.151  24.333  22.469  1.00  0.00     0.065 C 
BRANCH  16  19
ATOM     19  C   UNL A   1      34.031  22.239  24.801  1.00  0.00    -0.005 A 
ATOM     20  C   UNL A   1      33.506  20.972  24.562  1.00  0.00     0.029 A 
ATOM     21  C   UNL A   1      35.397  22.377  25.162  1.00  0.00     0.008 A 
ATOM     22  C   UNL A   1      34.366  19.899  24.626  1.00  0.00     0.112 A 
ATOM     23  C   UNL A   1      36.212  21.218  25.137  1.00  0.00     0.074 A 
ATOM     24  C   UNL A   1      35.970  23.605  25.557  1.00  0.00     0.011 A 
ATOM     25  N   UNL A   1      35.690  20.005  24.869  1.00  0.00    -0.256 NA
ATOM     26  C   UNL A   1      37.586  21.352  25.401  1.00  0.00    -0.025 A 
ATOM     27  C   UNL A   1      37.318  23.703  25.876  1.00  0.00     0.001 A 
ATOM     28  C   UNL A   1      38.537  20.186  25.314  1.00  0.00     0.047 C 
ATOM     29  C   UNL A   1      38.134  22.594  25.751  1.00  0.00     0.005 A 
ENDBRANCH  16  19
ENDBRANCH   7   8
ENDBRANCH   5   7
ENDBRANCH   4   5
ENDBRANCH   3   4
ENDBRANCH   2   3
ENDBRANCH   1   2
BRANCH   1  30
ATOM     30  C   UNL A   1      32.242  30.748  26.614  1.00  0.00     0.202 C 
BRANCH  30  31
ATOM     31  C   UNL A   1      33.131  31.576  27.559  1.00  0.00     0.261 C 
BRANCH  31  32
ATOM     32  O   UNL A   1      34.192  30.823  28.142  1.00  0.00    -0.460 OA
BRANCH  32  33
ATOM     33  C   UNL A   1      35.103  31.585  28.815  1.00  0.00     0.338 C 
ATOM     34  O   UNL A   1      34.931  32.286  29.781  1.00  0.00    -0.246 OA
BRANCH  33  35
ATOM     35  C   UNL A   1      36.410  31.032  28.438  1.00  0.00     0.060 A 
ATOM     36  C   UNL A   1      36.547  29.721  27.968  1.00  0.00     0.016 A 
ATOM     37  C   UNL A   1      37.483  31.748  28.984  1.00  0.00     0.016 A 
ATOM     38  C   UNL A   1      37.757  29.079  28.176  1.00  0.00     0.010 A 
ATOM     39  C   UNL A   1      38.664  31.087  29.239  1.00  0.00     0.010 A 
ATOM     40  C   UNL A   1      38.778  29.742  28.878  1.00  0.00    -0.014 A 
BRANCH  40  41
ATOM     41  C   UNL A   1      40.081  29.103  28.993  1.00  0.00     0.031 A 
ATOM     42  C   UNL A   1      40.414  28.859  30.420  1.00  0.00     0.074 A 
ATOM     43  C   UNL A   1      40.795  28.606  27.961  1.00  0.00     0.049 A 
ATOM     44  N   UNL A   1      41.374  29.376  31.113  1.00  0.00    -0.248 NA
ATOM     45  C   UNL A   1      39.432  28.104  31.223  1.00  0.00     0.031 C 
ATOM     46  C   UNL A   1      40.402  28.521  26.554  1.00  0.00     0.029 A 
ATOM     47  N   UNL A   1      42.003  27.970  27.968  1.00  0.00    -0.354 N 
ATOM     48  C   UNL A   1      41.221  28.848  32.393  1.00  0.00     0.074 A 
ATOM     49  C   UNL A   1      39.911  28.266  32.455  1.00  0.00     0.031 C 
ATOM     50  C   UNL A   1      41.239  27.691  25.893  1.00  0.00     0.029 A 
ATOM     51  C   UNL A   1      42.292  27.271  26.797  1.00  0.00     0.049 A 
ATOM     52  H   UNL A   1      42.617  28.001  28.737  1.00  0.00     0.167 HD
ATOM     53  C   UNL A   1      42.300  28.644  33.193  1.00  0.00     0.037 A 
ATOM     54  C   UNL A   1      43.289  26.366  26.626  1.00  0.00     0.037 A 
ATOM     55  C   UNL A   1      43.436  29.392  32.732  1.00  0.00     0.049 A 
ATOM     56  C   UNL A   1      44.270  26.603  27.708  1.00  0.00     0.074 A 
ATOM     57  C   UNL A   1      43.794  30.721  32.677  1.00  0.00     0.029 A 
ATOM     58  N   UNL A   1      44.230  28.721  31.841  1.00  0.00    -0.354 N 
ATOM     59  N   UNL A   1      45.012  27.668  27.797  1.00  0.00    -0.248 NA
ATOM     60  C   UNL A   1      44.183  25.795  28.917  1.00  0.00     0.031 C 
ATOM     61  C   UNL A   1      44.631  30.850  31.528  1.00  0.00     0.029 A 
ATOM     62  C   UNL A   1      44.789  29.591  30.947  1.00  0.00     0.049 A 
ATOM     63  H   UNL A   1      44.377  27.747  31.845  1.00  0.00     0.167 HD
ATOM     64  C   UNL A   1      45.129  27.894  29.156  1.00  0.00     0.074 A 
ATOM     65  C   UNL A   1      44.753  26.633  29.785  1.00  0.00     0.031 C 
ATOM     66  C   UNL A   1      45.219  29.167  29.633  1.00  0.00     0.037 A 
BRANCH  53  67
ATOM     67  C   UNL A   1      42.452  27.416  34.064  1.00  0.00     0.064 A 
ATOM     68  C   UNL A   1      42.132  27.498  35.432  1.00  0.00     0.173 A 
ATOM     69  C   UNL A   1      43.170  26.259  33.680  1.00  0.00     0.173 A 
ATOM     70  F   UNL A   1      41.509  28.582  35.921  1.00  0.00    -0.203 F 
ATOM     71  C   UNL A   1      42.521  26.510  36.342  1.00  0.00     0.198 A 
ATOM     72  C   UNL A   1      43.499  25.247  34.576  1.00  0.00     0.198 A 
ATOM     73  F   UNL A   1      43.689  26.114  32.455  1.00  0.00    -0.203 F 
ATOM     74  F   UNL A   1      42.291  26.682  37.650  1.00  0.00    -0.200 F 
ATOM     75  C   UNL A   1      43.197  25.382  35.912  1.00  0.00     0.200 A 
ATOM     76  F   UNL A   1      44.187  24.181  34.141  1.00  0.00    -0.200 F 
ATOM     77  F   UNL A   1      43.605  24.454  36.786  1.00  0.00    -0.200 F 
ENDBRANCH  53  67
BRANCH  54  78
ATOM     78  C   UNL A   1      43.315  25.109  25.833  1.00  0.00     0.064 A 
ATOM     79  C   UNL A   1      44.444  24.783  25.056  1.00  0.00     0.173 A 
ATOM     80  C   UNL A   1      42.411  24.061  26.083  1.00  0.00     0.173 A 
ATOM     81  F   UNL A   1      45.369  25.716  24.786  1.00  0.00    -0.203 F 
ATOM     82  C   UNL A   1      44.692  23.475  24.626  1.00  0.00     0.198 A 
ATOM     83  C   UNL A   1      42.656  22.756  25.646  1.00  0.00     0.198 A 
ATOM     84  F   UNL A   1      41.328  24.254  26.849  1.00  0.00    -0.203 F 
ATOM     85  F   UNL A   1      45.827  23.189  23.974  1.00  0.00    -0.200 F 
ATOM     86  C   UNL A   1      43.808  22.458  24.941  1.00  0.00     0.200 A 
ATOM     87  F   UNL A   1      41.808  21.773  25.983  1.00  0.00    -0.200 F 
ATOM     88  F   UNL A   1      44.087  21.190  24.609  1.00  0.00    -0.200 F 
ENDBRANCH  54  78
BRANCH  66  89
ATOM     89  C   UNL A   1      45.632  30.233  28.661  1.00  0.00     0.064 A 
ATOM     90  C   UNL A   1      44.752  30.941  27.826  1.00  0.00     0.173 A 
ATOM     91  C   UNL A   1      46.981  30.613  28.649  1.00  0.00     0.173 A 
ATOM     92  F   UNL A   1      43.436  30.692  27.841  1.00  0.00    -0.203 F 
ATOM     93  C   UNL A   1      45.213  31.958  26.991  1.00  0.00     0.198 A 
ATOM     94  C   UNL A   1      47.431  31.654  27.845  1.00  0.00     0.198 A 
ATOM     95  F   UNL A   1      47.858  29.998  29.457  1.00  0.00    -0.203 F 
ATOM     96  F   UNL A   1      44.357  32.612  26.191  1.00  0.00    -0.200 F 
ATOM     97  C   UNL A   1      46.550  32.320  27.009  1.00  0.00     0.200 A 
ATOM     98  F   UNL A   1      48.717  32.028  27.900  1.00  0.00    -0.200 F 
ATOM     99  F   UNL A   1      46.987  33.326  26.239  1.00  0.00    -0.200 F 
ENDBRANCH  66  89
ENDBRANCH  40  41
ENDBRANCH  33  35
ENDBRANCH  32  33
ENDBRANCH  31  32
ENDBRANCH  30  31
ENDBRANCH   1  30
TORSDOF 16
ENDMDL
