MODEL 1
REMARK VINA RESULT:     -12.1      0.000      0.000
REMARK SMILES COc1ccc(-c2ccc(C(=O)NCc3ccc(C(=O)OCCOCCOC(=O)c4ccc(-c5c6nc(c(-c7c(F)c(F)c(F)c(F)c7F)c7ccc([nH]7)c(-c7c(F)c(F)c(F)c(F)c7F)c7nc(c(-c8c(F)c(F)c(F)c(F)c8F)c8ccc5[nH]8)C=C7)C=C6)cc4)cc3)o2)c([N+](=O)[O-])c1
REMARK SMILES IDX 22 1 21 2 19 3 20 4 18 5 15 6 16 7 94 8 17 9 93 10 14 11
REMARK SMILES IDX 13 12 11 13 12 14 10 16 7 17 8 18 95 19 9 20 6 21 3 22 4 23
REMARK SMILES IDX 100 24 5 25 96 26 2 27 1 28 97 29 98 30 99 31 23 32 24 33
REMARK SMILES IDX 25 34 26 35 27 36 28 37 29 38 30 39 31 40 92 41 32 42 91 43
REMARK SMILES IDX 33 44 34 45 35 46 85 47 36 48 90 49 84 50 86 51 37 52 89 53
REMARK SMILES IDX 83 54 82 55 38 57 70 58 50 59 69 60 51 61 54 62 68 63 87 64
REMARK SMILES IDX 52 65 53 66 67 68 88 69 55 70 39 71 40 72 48 73 41 74 42 75
REMARK SMILES IDX 46 76 49 77 43 78 44 79 47 80 45 81 71 82 72 83 80 84 73 85
REMARK SMILES IDX 74 86 78 87 81 88 75 89 76 90 79 91 77 92 56 93 57 94 65 95
REMARK SMILES IDX 58 96 59 97 63 98 66 99 60 100 61 101 64 102 62 103
REMARK H PARENT 13 15 86 56 54 67
REMARK Flexibility Score: inf
ROOT
ATOM      1  C   UNL A   1      34.817  31.911  28.666  1.00  0.00     0.261 C 
ENDROOT
BRANCH   1   2
ATOM      2  O   UNL A   1      34.586  31.219  27.427  1.00  0.00    -0.460 OA
BRANCH   2   3
ATOM      3  C   UNL A   1      34.928  29.908  27.450  1.00  0.00     0.338 C 
ATOM      4  O   UNL A   1      35.998  29.440  27.809  1.00  0.00    -0.246 OA
BRANCH   3   5
ATOM      5  C   UNL A   1      33.772  29.051  27.103  1.00  0.00     0.060 A 
ATOM      6  C   UNL A   1      31.666  27.410  26.206  1.00  0.00    -0.029 A 
ATOM      7  C   UNL A   1      33.000  27.082  25.921  1.00  0.00     0.006 A 
ATOM      8  C   UNL A   1      31.409  28.537  27.007  1.00  0.00     0.006 A 
ATOM      9  C   UNL A   1      34.042  27.894  26.366  1.00  0.00     0.016 A 
ATOM     10  C   UNL A   1      32.455  29.358  27.455  1.00  0.00     0.016 A 
BRANCH   6  11
ATOM     11  C   UNL A   1      30.566  26.611  25.544  1.00  0.00     0.152 C 
BRANCH  11  12
ATOM     12  N   UNL A   1      30.143  25.465  26.307  1.00  0.00    -0.345 N 
ATOM     13  C   UNL A   1      30.558  24.155  26.274  1.00  0.00     0.287 C 
ATOM     14  O   UNL A   1      30.207  23.465  27.235  1.00  0.00    -0.266 OA
ATOM     15  H   UNL A   1      29.434  25.651  26.964  1.00  0.00     0.164 HD
BRANCH  13  16
ATOM     16  C   UNL A   1      31.335  23.623  25.166  1.00  0.00     0.192 A 
ATOM     17  C   UNL A   1      33.166  22.708  24.319  1.00  0.00     0.142 A 
ATOM     18  C   UNL A   1      32.265  22.786  23.283  1.00  0.00     0.052 A 
ATOM     19  O   UNL A   1      32.609  23.191  25.460  1.00  0.00    -0.451 OA
ATOM     20  C   UNL A   1      31.094  23.369  23.825  1.00  0.00     0.057 A 
BRANCH  17  21
ATOM     21  C   UNL A   1      34.521  22.201  24.432  1.00  0.00     0.095 A 
ATOM     22  C   UNL A   1      37.202  21.398  24.871  1.00  0.00     0.125 A 
ATOM     23  C   UNL A   1      36.905  22.693  24.438  1.00  0.00     0.047 A 
ATOM     24  C   UNL A   1      36.165  20.490  25.068  1.00  0.00     0.132 A 
ATOM     25  C   UNL A   1      35.582  23.088  24.209  1.00  0.00     0.023 A 
ATOM     26  C   UNL A   1      34.836  20.896  24.845  1.00  0.00     0.284 A 
BRANCH  22  27
ATOM     27  O   UNL A   1      38.528  21.160  25.097  1.00  0.00    -0.497 OA
ATOM     28  C   UNL A   1      39.141  21.897  26.148  1.00  0.00     0.278 C 
ENDBRANCH  22  27
BRANCH  26  29
ATOM     29  N   UNL A   1      33.791  19.905  25.067  1.00  0.00     0.063 N 
ATOM     30  O   UNL A   1      33.268  19.847  26.187  1.00  0.00    -0.258 OA
ATOM     31  O   UNL A   1      33.470  19.202  24.098  1.00  0.00    -0.258 OA
ENDBRANCH  26  29
ENDBRANCH  17  21
ENDBRANCH  13  16
ENDBRANCH  11  12
ENDBRANCH   6  11
ENDBRANCH   3   5
ENDBRANCH   2   3
ENDBRANCH   1   2
BRANCH   1  32
ATOM     32  C   UNL A   1      35.732  33.124  28.471  1.00  0.00     0.202 C 
BRANCH  32  33
ATOM     33  O   UNL A   1      35.203  34.388  28.868  1.00  0.00    -0.374 OA
BRANCH  33  34
ATOM     34  C   UNL A   1      33.903  34.734  28.386  1.00  0.00     0.202 C 
BRANCH  34  35
ATOM     35  C   UNL A   1      33.081  35.684  29.266  1.00  0.00     0.261 C 
BRANCH  35  36
ATOM     36  O   UNL A   1      32.555  35.016  30.428  1.00  0.00    -0.460 OA
BRANCH  36  37
ATOM     37  C   UNL A   1      32.822  35.618  31.608  1.00  0.00     0.338 C 
ATOM     38  O   UNL A   1      32.177  36.500  32.157  1.00  0.00    -0.246 OA
BRANCH  37  39
ATOM     39  C   UNL A   1      33.940  34.927  32.276  1.00  0.00     0.060 A 
ATOM     40  C   UNL A   1      35.202  35.536  32.234  1.00  0.00     0.016 A 
ATOM     41  C   UNL A   1      33.773  33.679  32.877  1.00  0.00     0.016 A 
ATOM     42  C   UNL A   1      36.314  34.877  32.754  1.00  0.00     0.010 A 
ATOM     43  C   UNL A   1      34.890  33.014  33.388  1.00  0.00     0.010 A 
ATOM     44  C   UNL A   1      36.170  33.594  33.298  1.00  0.00    -0.014 A 
BRANCH  44  45
ATOM     45  C   UNL A   1      37.368  32.785  33.623  1.00  0.00     0.031 A 
ATOM     46  C   UNL A   1      38.093  33.057  34.911  1.00  0.00     0.074 A 
ATOM     47  C   UNL A   1      37.805  31.829  32.787  1.00  0.00     0.049 A 
ATOM     48  N   UNL A   1      39.219  32.561  35.354  1.00  0.00    -0.248 NA
ATOM     49  C   UNL A   1      37.462  34.028  35.821  1.00  0.00     0.031 C 
ATOM     50  C   UNL A   1      37.156  31.436  31.539  1.00  0.00     0.029 A 
ATOM     51  N   UNL A   1      38.916  31.024  32.859  1.00  0.00    -0.354 N 
ATOM     52  C   UNL A   1      39.437  33.165  36.584  1.00  0.00     0.074 A 
ATOM     53  C   UNL A   1      38.342  34.083  36.810  1.00  0.00     0.031 C 
ATOM     54  C   UNL A   1      37.890  30.476  30.951  1.00  0.00     0.029 A 
ATOM     55  C   UNL A   1      39.080  30.218  31.761  1.00  0.00     0.049 A 
ATOM     56  H   UNL A   1      39.533  31.025  33.625  1.00  0.00     0.167 HD
ATOM     57  C   UNL A   1      40.459  32.967  37.450  1.00  0.00     0.037 A 
ATOM     58  C   UNL A   1      40.094  29.394  31.435  1.00  0.00     0.037 A 
ATOM     59  C   UNL A   1      41.546  32.053  37.223  1.00  0.00     0.049 A 
ATOM     60  C   UNL A   1      41.265  29.254  32.375  1.00  0.00     0.074 A 
ATOM     61  C   UNL A   1      42.626  31.773  38.041  1.00  0.00     0.029 A 
ATOM     62  N   UNL A   1      41.692  31.272  36.085  1.00  0.00    -0.354 N 
ATOM     63  N   UNL A   1      41.463  29.822  33.541  1.00  0.00    -0.248 NA
ATOM     64  C   UNL A   1      42.354  28.363  31.952  1.00  0.00     0.031 C 
ATOM     65  C   UNL A   1      43.451  30.859  37.378  1.00  0.00     0.029 A 
ATOM     66  C   UNL A   1      42.857  30.529  36.170  1.00  0.00     0.049 A 
ATOM     67  H   UNL A   1      41.061  31.251  35.329  1.00  0.00     0.167 HD
ATOM     68  C   UNL A   1      42.677  29.330  34.005  1.00  0.00     0.074 A 
ATOM     69  C   UNL A   1      43.169  28.416  32.996  1.00  0.00     0.031 C 
ATOM     70  C   UNL A   1      43.322  29.606  35.165  1.00  0.00     0.037 A 
BRANCH  57  71
ATOM     71  C   UNL A   1      40.465  33.780  38.711  1.00  0.00     0.064 A 
ATOM     72  C   UNL A   1      39.746  33.382  39.849  1.00  0.00     0.173 A 
ATOM     73  C   UNL A   1      41.223  34.957  38.794  1.00  0.00     0.173 A 
ATOM     74  F   UNL A   1      38.993  32.272  39.818  1.00  0.00    -0.203 F 
ATOM     75  C   UNL A   1      39.765  34.148  41.012  1.00  0.00     0.198 A 
ATOM     76  C   UNL A   1      41.262  35.705  39.967  1.00  0.00     0.198 A 
ATOM     77  F   UNL A   1      41.932  35.381  37.736  1.00  0.00    -0.203 F 
ATOM     78  F   UNL A   1      39.031  33.774  42.071  1.00  0.00    -0.200 F 
ATOM     79  C   UNL A   1      40.527  35.305  41.073  1.00  0.00     0.200 A 
ATOM     80  F   UNL A   1      42.009  36.815  40.028  1.00  0.00    -0.200 F 
ATOM     81  F   UNL A   1      40.549  36.037  42.194  1.00  0.00    -0.200 F 
ENDBRANCH  57  71
BRANCH  58  82
ATOM     82  C   UNL A   1      40.059  28.644  30.152  1.00  0.00     0.064 A 
ATOM     83  C   UNL A   1      39.453  27.383  30.069  1.00  0.00     0.173 A 
ATOM     84  C   UNL A   1      40.644  29.165  28.987  1.00  0.00     0.173 A 
ATOM     85  F   UNL A   1      38.903  26.832  31.162  1.00  0.00    -0.203 F 
ATOM     86  C   UNL A   1      39.446  26.664  28.876  1.00  0.00     0.198 A 
ATOM     87  C   UNL A   1      40.612  28.457  27.788  1.00  0.00     0.198 A 
ATOM     88  F   UNL A   1      41.239  30.365  29.014  1.00  0.00    -0.203 F 
ATOM     89  F   UNL A   1      38.899  25.443  28.835  1.00  0.00    -0.200 F 
ATOM     90  C   UNL A   1      40.020  27.204  27.735  1.00  0.00     0.200 A 
ATOM     91  F   UNL A   1      41.159  28.988  26.686  1.00  0.00    -0.200 F 
ATOM     92  F   UNL A   1      40.010  26.514  26.586  1.00  0.00    -0.200 F 
ENDBRANCH  58  82
BRANCH  70  93
ATOM     93  C   UNL A   1      44.604  28.876  35.439  1.00  0.00     0.064 A 
ATOM     94  C   UNL A   1      45.850  29.418  35.098  1.00  0.00     0.173 A 
ATOM     95  C   UNL A   1      44.584  27.647  36.117  1.00  0.00     0.173 A 
ATOM     96  F   UNL A   1      45.922  30.584  34.437  1.00  0.00    -0.203 F 
ATOM     97  C   UNL A   1      47.030  28.748  35.412  1.00  0.00     0.198 A 
ATOM     98  C   UNL A   1      45.765  26.995  36.454  1.00  0.00     0.198 A 
ATOM     99  F   UNL A   1      43.416  27.090  36.471  1.00  0.00    -0.203 F 
ATOM    100  F   UNL A   1      48.210  29.268  35.045  1.00  0.00    -0.200 F 
ATOM    101  C   UNL A   1      46.988  27.543  36.098  1.00  0.00     0.200 A 
ATOM    102  F   UNL A   1      45.722  25.837  37.129  1.00  0.00    -0.200 F 
ATOM    103  F   UNL A   1      48.125  26.908  36.412  1.00  0.00    -0.200 F 
ENDBRANCH  70  93
ENDBRANCH  44  45
ENDBRANCH  37  39
ENDBRANCH  36  37
ENDBRANCH  35  36
ENDBRANCH  34  35
ENDBRANCH  33  34
ENDBRANCH  32  33
ENDBRANCH   1  32
TORSDOF 20
ENDMDL
MODEL 2
REMARK VINA RESULT:     -11.7      1.431      2.500
REMARK SMILES COc1ccc(-c2ccc(C(=O)NCc3ccc(C(=O)OCCOCCOC(=O)c4ccc(-c5c6nc(c(-c7c(F)c(F)c(F)c(F)c7F)c7ccc([nH]7)c(-c7c(F)c(F)c(F)c(F)c7F)c7nc(c(-c8c(F)c(F)c(F)c(F)c8F)c8ccc5[nH]8)C=C7)C=C6)cc4)cc3)o2)c([N+](=O)[O-])c1
REMARK SMILES IDX 22 1 21 2 19 3 20 4 18 5 15 6 16 7 94 8 17 9 93 10 14 11
REMARK SMILES IDX 13 12 11 13 12 14 10 16 7 17 8 18 95 19 9 20 6 21 3 22 4 23
REMARK SMILES IDX 100 24 5 25 96 26 2 27 1 28 97 29 98 30 99 31 23 32 24 33
REMARK SMILES IDX 25 34 26 35 27 36 28 37 29 38 30 39 31 40 92 41 32 42 91 43
REMARK SMILES IDX 33 44 34 45 35 46 85 47 36 48 90 49 84 50 86 51 37 52 89 53
REMARK SMILES IDX 83 54 82 55 38 57 70 58 50 59 69 60 51 61 54 62 68 63 87 64
REMARK SMILES IDX 52 65 53 66 67 68 88 69 55 70 39 71 40 72 48 73 41 74 42 75
REMARK SMILES IDX 46 76 49 77 43 78 44 79 47 80 45 81 71 82 72 83 80 84 73 85
REMARK SMILES IDX 74 86 78 87 81 88 75 89 76 90 79 91 77 92 56 93 57 94 65 95
REMARK SMILES IDX 58 96 59 97 63 98 66 99 60 100 61 101 64 102 62 103
REMARK H PARENT 13 15 86 56 54 67
REMARK Flexibility Score: inf
ROOT
ATOM      1  C   UNL A   1      36.202  32.854  28.251  1.00  0.00     0.261 C 
ENDROOT
BRANCH   1   2
ATOM      2  O   UNL A   1      35.188  32.049  27.626  1.00  0.00    -0.460 OA
BRANCH   2   3
ATOM      3  C   UNL A   1      35.446  30.719  27.639  1.00  0.00     0.338 C 
ATOM      4  O   UNL A   1      36.475  30.179  28.019  1.00  0.00    -0.246 OA
BRANCH   3   5
ATOM      5  C   UNL A   1      34.247  29.942  27.251  1.00  0.00     0.060 A 
ATOM      6  C   UNL A   1      32.096  28.389  26.306  1.00  0.00    -0.029 A 
ATOM      7  C   UNL A   1      33.393  27.858  26.357  1.00  0.00     0.006 A 
ATOM      8  C   UNL A   1      31.883  29.689  26.799  1.00  0.00     0.006 A 
ATOM      9  C   UNL A   1      34.458  28.626  26.826  1.00  0.00     0.016 A 
ATOM     10  C   UNL A   1      32.952  30.466  27.270  1.00  0.00     0.016 A 
BRANCH   6  11
ATOM     11  C   UNL A   1      31.014  27.592  25.614  1.00  0.00     0.152 C 
BRANCH  11  12
ATOM     12  N   UNL A   1      30.808  27.965  24.238  1.00  0.00    -0.345 N 
ATOM     13  C   UNL A   1      31.170  27.341  23.070  1.00  0.00     0.287 C 
ATOM     14  O   UNL A   1      30.614  27.760  22.051  1.00  0.00    -0.266 OA
ATOM     15  H   UNL A   1      30.324  28.813  24.114  1.00  0.00     0.164 HD
BRANCH  13  16
ATOM     16  C   UNL A   1      32.162  26.278  23.042  1.00  0.00     0.192 A 
ATOM     17  C   UNL A   1      32.790  24.177  23.353  1.00  0.00     0.142 A 
ATOM     18  C   UNL A   1      33.878  24.823  22.817  1.00  0.00     0.052 A 
ATOM     19  O   UNL A   1      31.747  25.038  23.474  1.00  0.00    -0.451 OA
ATOM     20  C   UNL A   1      33.476  26.167  22.616  1.00  0.00     0.057 A 
BRANCH  17  21
ATOM     21  C   UNL A   1      32.541  22.807  23.763  1.00  0.00     0.095 A 
ATOM     22  C   UNL A   1      32.294  20.061  24.416  1.00  0.00     0.125 A 
ATOM     23  C   UNL A   1      32.190  20.493  23.091  1.00  0.00     0.047 A 
ATOM     24  C   UNL A   1      32.502  20.998  25.425  1.00  0.00     0.132 A 
ATOM     25  C   UNL A   1      32.299  21.850  22.767  1.00  0.00     0.023 A 
ATOM     26  C   UNL A   1      32.621  22.361  25.091  1.00  0.00     0.284 A 
BRANCH  22  27
ATOM     27  O   UNL A   1      32.212  18.708  24.585  1.00  0.00    -0.497 OA
ATOM     28  C   UNL A   1      32.801  18.173  25.764  1.00  0.00     0.278 C 
ENDBRANCH  22  27
BRANCH  26  29
ATOM     29  N   UNL A   1      32.838  23.298  26.187  1.00  0.00     0.063 N 
ATOM     30  O   UNL A   1      31.848  23.810  26.724  1.00  0.00    -0.258 OA
ATOM     31  O   UNL A   1      34.013  23.494  26.531  1.00  0.00    -0.258 OA
ENDBRANCH  26  29
ENDBRANCH  17  21
ENDBRANCH  13  16
ENDBRANCH  11  12
ENDBRANCH   6  11
ENDBRANCH   3   5
ENDBRANCH   2   3
ENDBRANCH   1   2
BRANCH   1  32
ATOM     32  C   UNL A   1      35.613  33.762  29.334  1.00  0.00     0.202 C 
BRANCH  32  33
ATOM     33  O   UNL A   1      34.873  34.894  28.880  1.00  0.00    -0.374 OA
BRANCH  33  34
ATOM     34  C   UNL A   1      33.449  34.829  28.982  1.00  0.00     0.202 C 
BRANCH  34  35
ATOM     35  C   UNL A   1      32.753  36.050  29.595  1.00  0.00     0.261 C 
BRANCH  35  36
ATOM     36  O   UNL A   1      33.304  36.388  30.883  1.00  0.00    -0.460 OA
BRANCH  36  37
ATOM     37  C   UNL A   1      32.853  35.641  31.915  1.00  0.00     0.338 C 
ATOM     38  O   UNL A   1      31.691  35.409  32.215  1.00  0.00    -0.246 OA
BRANCH  37  39
ATOM     39  C   UNL A   1      33.987  34.959  32.565  1.00  0.00     0.060 A 
ATOM     40  C   UNL A   1      35.240  35.585  32.518  1.00  0.00     0.016 A 
ATOM     41  C   UNL A   1      33.842  33.703  33.156  1.00  0.00     0.016 A 
ATOM     42  C   UNL A   1      36.367  34.936  33.020  1.00  0.00     0.010 A 
ATOM     43  C   UNL A   1      34.974  33.048  33.650  1.00  0.00     0.010 A 
ATOM     44  C   UNL A   1      36.244  33.646  33.553  1.00  0.00    -0.014 A 
BRANCH  44  45
ATOM     45  C   UNL A   1      37.456  32.850  33.859  1.00  0.00     0.031 A 
ATOM     46  C   UNL A   1      38.191  33.120  35.142  1.00  0.00     0.074 A 
ATOM     47  C   UNL A   1      37.898  31.907  33.010  1.00  0.00     0.049 A 
ATOM     48  N   UNL A   1      39.327  32.634  35.569  1.00  0.00    -0.248 NA
ATOM     49  C   UNL A   1      37.556  34.075  36.066  1.00  0.00     0.031 C 
ATOM     50  C   UNL A   1      37.241  31.517  31.765  1.00  0.00     0.029 A 
ATOM     51  N   UNL A   1      39.019  31.116  33.064  1.00  0.00    -0.354 N 
ATOM     52  C   UNL A   1      39.551  33.231  36.802  1.00  0.00     0.074 A 
ATOM     53  C   UNL A   1      38.446  34.133  37.047  1.00  0.00     0.031 C 
ATOM     54  C   UNL A   1      37.981  30.572  31.161  1.00  0.00     0.029 A 
ATOM     55  C   UNL A   1      39.183  30.322  31.956  1.00  0.00     0.049 A 
ATOM     56  H   UNL A   1      39.644  31.119  33.823  1.00  0.00     0.167 HD
ATOM     57  C   UNL A   1      40.584  33.039  37.656  1.00  0.00     0.037 A 
ATOM     58  C   UNL A   1      40.204  29.514  31.613  1.00  0.00     0.037 A 
ATOM     59  C   UNL A   1      41.680  32.141  37.409  1.00  0.00     0.049 A 
ATOM     60  C   UNL A   1      41.386  29.382  32.540  1.00  0.00     0.074 A 
ATOM     61  C   UNL A   1      42.772  31.868  38.215  1.00  0.00     0.029 A 
ATOM     62  N   UNL A   1      41.825  31.373  36.263  1.00  0.00    -0.354 N 
ATOM     63  N   UNL A   1      41.589  29.941  33.709  1.00  0.00    -0.248 NA
ATOM     64  C   UNL A   1      42.482  28.508  32.098  1.00  0.00     0.031 C 
ATOM     65  C   UNL A   1      43.602  30.971  37.535  1.00  0.00     0.029 A 
ATOM     66  C   UNL A   1      43.000  30.644  36.330  1.00  0.00     0.049 A 
ATOM     67  H   UNL A   1      41.186  31.350  35.514  1.00  0.00     0.167 HD
ATOM     68  C   UNL A   1      42.813  29.461  34.156  1.00  0.00     0.074 A 
ATOM     69  C   UNL A   1      43.307  28.563  33.134  1.00  0.00     0.031 C 
ATOM     70  C   UNL A   1      43.466  29.736  35.312  1.00  0.00     0.037 A 
BRANCH  57  71
ATOM     71  C   UNL A   1      40.591  33.840  38.924  1.00  0.00     0.064 A 
ATOM     72  C   UNL A   1      39.949  33.388  40.087  1.00  0.00     0.173 A 
ATOM     73  C   UNL A   1      41.275  35.064  38.987  1.00  0.00     0.173 A 
ATOM     74  F   UNL A   1      39.269  32.232  40.076  1.00  0.00    -0.203 F 
ATOM     75  C   UNL A   1      39.969  34.144  41.256  1.00  0.00     0.198 A 
ATOM     76  C   UNL A   1      41.317  35.804  40.165  1.00  0.00     0.198 A 
ATOM     77  F   UNL A   1      41.908  35.541  37.904  1.00  0.00    -0.203 F 
ATOM     78  F   UNL A   1      39.308  33.716  42.341  1.00  0.00    -0.200 F 
ATOM     79  C   UNL A   1      40.657  35.348  41.297  1.00  0.00     0.200 A 
ATOM     80  F   UNL A   1      41.993  36.959  40.205  1.00  0.00    -0.200 F 
ATOM     81  F   UNL A   1      40.681  36.071  42.424  1.00  0.00    -0.200 F 
ENDBRANCH  57  71
BRANCH  58  82
ATOM     82  C   UNL A   1      40.165  28.775  30.324  1.00  0.00     0.064 A 
ATOM     83  C   UNL A   1      40.741  29.313  29.166  1.00  0.00     0.173 A 
ATOM     84  C   UNL A   1      39.538  27.523  30.220  1.00  0.00     0.173 A 
ATOM     85  F   UNL A   1      41.329  30.518  29.209  1.00  0.00    -0.203 F 
ATOM     86  C   UNL A   1      40.678  28.637  27.949  1.00  0.00     0.198 A 
ATOM     87  C   UNL A   1      39.500  26.836  29.009  1.00  0.00     0.198 A 
ATOM     88  F   UNL A   1      38.969  26.966  31.299  1.00  0.00    -0.203 F 
ATOM     89  F   UNL A   1      41.198  29.195  26.848  1.00  0.00    -0.200 F 
ATOM     90  C   UNL A   1      40.063  27.397  27.873  1.00  0.00     0.200 A 
ATOM     91  F   UNL A   1      38.914  25.632  28.944  1.00  0.00    -0.200 F 
ATOM     92  F   UNL A   1      40.006  26.745  26.704  1.00  0.00    -0.200 F 
ENDBRANCH  58  82
BRANCH  70  93
ATOM     93  C   UNL A   1      44.761  29.021  35.566  1.00  0.00     0.064 A 
ATOM     94  C   UNL A   1      44.802  27.771  36.199  1.00  0.00     0.173 A 
ATOM     95  C   UNL A   1      45.970  29.566  35.105  1.00  0.00     0.173 A 
ATOM     96  F   UNL A   1      43.676  27.214  36.669  1.00  0.00    -0.203 F 
ATOM     97  C   UNL A   1      46.009  27.099  36.374  1.00  0.00     0.198 A 
ATOM     98  C   UNL A   1      47.170  28.879  35.257  1.00  0.00     0.198 A 
ATOM     99  F   UNL A   1      45.982  30.756  34.487  1.00  0.00    -0.203 F 
ATOM    100  F   UNL A   1      46.031  25.921  37.013  1.00  0.00    -0.200 F 
ATOM    101  C   UNL A   1      47.190  27.648  35.895  1.00  0.00     0.200 A 
ATOM    102  F   UNL A   1      48.307  29.404  34.781  1.00  0.00    -0.200 F 
ATOM    103  F   UNL A   1      48.348  26.993  36.052  1.00  0.00    -0.200 F 
ENDBRANCH  70  93
ENDBRANCH  44  45
ENDBRANCH  37  39
ENDBRANCH  36  37
ENDBRANCH  35  36
ENDBRANCH  34  35
ENDBRANCH  33  34
ENDBRANCH  32  33
ENDBRANCH   1  32
TORSDOF 20
ENDMDL
MODEL 3
REMARK VINA RESULT:     -11.4      4.791     10.001
REMARK SMILES COc1ccc(-c2ccc(C(=O)NCc3ccc(C(=O)OCCOCCOC(=O)c4ccc(-c5c6nc(c(-c7c(F)c(F)c(F)c(F)c7F)c7ccc([nH]7)c(-c7c(F)c(F)c(F)c(F)c7F)c7nc(c(-c8c(F)c(F)c(F)c(F)c8F)c8ccc5[nH]8)C=C7)C=C6)cc4)cc3)o2)c([N+](=O)[O-])c1
REMARK SMILES IDX 22 1 21 2 19 3 20 4 18 5 15 6 16 7 94 8 17 9 93 10 14 11
REMARK SMILES IDX 13 12 11 13 12 14 10 16 7 17 8 18 95 19 9 20 6 21 3 22 4 23
REMARK SMILES IDX 100 24 5 25 96 26 2 27 1 28 97 29 98 30 99 31 23 32 24 33
REMARK SMILES IDX 25 34 26 35 27 36 28 37 29 38 30 39 31 40 92 41 32 42 91 43
REMARK SMILES IDX 33 44 34 45 35 46 85 47 36 48 90 49 84 50 86 51 37 52 89 53
REMARK SMILES IDX 83 54 82 55 38 57 70 58 50 59 69 60 51 61 54 62 68 63 87 64
REMARK SMILES IDX 52 65 53 66 67 68 88 69 55 70 39 71 40 72 48 73 41 74 42 75
REMARK SMILES IDX 46 76 49 77 43 78 44 79 47 80 45 81 71 82 72 83 80 84 73 85
REMARK SMILES IDX 74 86 78 87 81 88 75 89 76 90 79 91 77 92 56 93 57 94 65 95
REMARK SMILES IDX 58 96 59 97 63 98 66 99 60 100 61 101 64 102 62 103
REMARK H PARENT 13 15 86 56 54 67
REMARK Flexibility Score: inf
ROOT
ATOM      1  C   UNL A   1      33.286  20.231  24.105  1.00  0.00     0.261 C 
ENDROOT
BRANCH   1   2
ATOM      2  O   UNL A   1      32.342  20.729  25.068  1.00  0.00    -0.460 OA
BRANCH   2   3
ATOM      3  C   UNL A   1      32.785  21.790  25.784  1.00  0.00     0.338 C 
ATOM      4  O   UNL A   1      33.236  21.766  26.920  1.00  0.00    -0.246 OA
BRANCH   3   5
ATOM      5  C   UNL A   1      32.790  23.021  24.962  1.00  0.00     0.060 A 
ATOM      6  C   UNL A   1      32.739  25.216  23.198  1.00  0.00    -0.029 A 
ATOM      7  C   UNL A   1      31.689  24.286  23.213  1.00  0.00     0.006 A 
ATOM      8  C   UNL A   1      33.782  25.065  24.129  1.00  0.00     0.006 A 
ATOM      9  C   UNL A   1      31.713  23.200  24.087  1.00  0.00     0.016 A 
ATOM     10  C   UNL A   1      33.811  23.973  25.009  1.00  0.00     0.016 A 
BRANCH   6  11
ATOM     11  C   UNL A   1      32.763  26.264  22.108  1.00  0.00     0.152 C 
BRANCH  11  12
ATOM     12  N   UNL A   1      31.487  26.889  21.877  1.00  0.00    -0.345 N 
ATOM     13  C   UNL A   1      30.758  27.767  22.644  1.00  0.00     0.287 C 
ATOM     14  O   UNL A   1      29.836  28.340  22.060  1.00  0.00    -0.266 OA
ATOM     15  H   UNL A   1      31.062  26.647  21.022  1.00  0.00     0.164 HD
BRANCH  13  16
ATOM     16  C   UNL A   1      31.046  27.976  24.054  1.00  0.00     0.192 A 
ATOM     17  C   UNL A   1      31.705  29.237  25.752  1.00  0.00     0.142 A 
ATOM     18  C   UNL A   1      31.330  28.032  26.296  1.00  0.00     0.052 A 
ATOM     19  O   UNL A   1      31.521  29.220  24.406  1.00  0.00    -0.451 OA
ATOM     20  C   UNL A   1      30.906  27.226  25.211  1.00  0.00     0.057 A 
BRANCH  17  21
ATOM     21  C   UNL A   1      32.205  30.478  26.314  1.00  0.00     0.095 A 
ATOM     22  C   UNL A   1      32.967  32.881  27.607  1.00  0.00     0.125 A 
ATOM     23  C   UNL A   1      31.734  32.779  26.956  1.00  0.00     0.047 A 
ATOM     24  C   UNL A   1      33.835  31.792  27.600  1.00  0.00     0.132 A 
ATOM     25  C   UNL A   1      31.361  31.597  26.306  1.00  0.00     0.023 A 
ATOM     26  C   UNL A   1      33.449  30.603  26.952  1.00  0.00     0.284 A 
BRANCH  22  27
ATOM     27  O   UNL A   1      33.185  34.074  28.237  1.00  0.00    -0.497 OA
ATOM     28  C   UNL A   1      34.489  34.629  28.122  1.00  0.00     0.278 C 
ENDBRANCH  22  27
BRANCH  26  29
ATOM     29  N   UNL A   1      34.396  29.495  26.976  1.00  0.00     0.063 N 
ATOM     30  O   UNL A   1      34.745  29.047  28.075  1.00  0.00    -0.258 OA
ATOM     31  O   UNL A   1      34.766  29.051  25.879  1.00  0.00    -0.258 OA
ENDBRANCH  26  29
ENDBRANCH  17  21
ENDBRANCH  13  16
ENDBRANCH  11  12
ENDBRANCH   6  11
ENDBRANCH   3   5
ENDBRANCH   2   3
ENDBRANCH   1   2
BRANCH   1  32
ATOM     32  C   UNL A   1      33.971  18.952  24.596  1.00  0.00     0.202 C 
BRANCH  32  33
ATOM     33  O   UNL A   1      35.397  18.970  24.635  1.00  0.00    -0.374 OA
BRANCH  33  34
ATOM     34  C   UNL A   1      36.026  20.198  25.008  1.00  0.00     0.202 C 
BRANCH  34  35
ATOM     35  C   UNL A   1      37.544  20.274  24.803  1.00  0.00     0.261 C 
BRANCH  35  36
ATOM     36  O   UNL A   1      38.122  21.394  25.501  1.00  0.00    -0.460 OA
BRANCH  36  37
ATOM     37  C   UNL A   1      39.272  21.130  26.160  1.00  0.00     0.338 C 
ATOM     38  O   UNL A   1      39.893  20.077  26.183  1.00  0.00    -0.246 OA
BRANCH  37  39
ATOM     39  C   UNL A   1      39.811  22.376  26.734  1.00  0.00     0.060 A 
ATOM     40  C   UNL A   1      39.289  23.590  26.267  1.00  0.00     0.016 A 
ATOM     41  C   UNL A   1      40.850  22.362  27.666  1.00  0.00     0.016 A 
ATOM     42  C   UNL A   1      39.836  24.799  26.694  1.00  0.00     0.010 A 
ATOM     43  C   UNL A   1      41.406  23.573  28.085  1.00  0.00     0.010 A 
ATOM     44  C   UNL A   1      40.925  24.794  27.576  1.00  0.00    -0.014 A 
BRANCH  44  45
ATOM     45  C   UNL A   1      41.671  26.046  27.843  1.00  0.00     0.031 A 
ATOM     46  C   UNL A   1      40.987  27.144  28.607  1.00  0.00     0.074 A 
ATOM     47  C   UNL A   1      42.932  26.206  27.408  1.00  0.00     0.049 A 
ATOM     48  N   UNL A   1      41.394  28.360  28.862  1.00  0.00    -0.248 NA
ATOM     49  C   UNL A   1      39.658  26.825  29.156  1.00  0.00     0.031 C 
ATOM     50  C   UNL A   1      43.718  25.195  26.705  1.00  0.00     0.029 A 
ATOM     51  N   UNL A   1      43.767  27.293  27.483  1.00  0.00    -0.354 N 
ATOM     52  C   UNL A   1      40.370  28.955  29.587  1.00  0.00     0.074 A 
ATOM     53  C   UNL A   1      39.312  27.976  29.713  1.00  0.00     0.031 C 
ATOM     54  C   UNL A   1      44.918  25.716  26.396  1.00  0.00     0.029 A 
ATOM     55  C   UNL A   1      44.967  27.107  26.842  1.00  0.00     0.049 A 
ATOM     56  H   UNL A   1      43.529  28.125  27.951  1.00  0.00     0.167 HD
ATOM     57  C   UNL A   1      40.320  30.204  30.105  1.00  0.00     0.037 A 
ATOM     58  C   UNL A   1      45.971  27.975  26.615  1.00  0.00     0.037 A 
ATOM     59  C   UNL A   1      41.375  31.175  29.978  1.00  0.00     0.049 A 
ATOM     60  C   UNL A   1      45.857  29.389  27.127  1.00  0.00     0.074 A 
ATOM     61  C   UNL A   1      41.426  32.465  30.475  1.00  0.00     0.029 A 
ATOM     62  N   UNL A   1      42.565  30.958  29.298  1.00  0.00    -0.354 N 
ATOM     63  N   UNL A   1      44.891  29.944  27.818  1.00  0.00    -0.248 NA
ATOM     64  C   UNL A   1      46.972  30.298  26.822  1.00  0.00     0.031 C 
ATOM     65  C   UNL A   1      42.626  33.047  30.053  1.00  0.00     0.029 A 
ATOM     66  C   UNL A   1      43.347  32.100  29.342  1.00  0.00     0.049 A 
ATOM     67  H   UNL A   1      42.816  30.117  28.852  1.00  0.00     0.167 HD
ATOM     68  C   UNL A   1      45.296  31.250  28.063  1.00  0.00     0.074 A 
ATOM     69  C   UNL A   1      46.597  31.405  27.447  1.00  0.00     0.031 C 
ATOM     70  C   UNL A   1      44.650  32.230  28.741  1.00  0.00     0.037 A 
BRANCH  57  71
ATOM     71  C   UNL A   1      39.070  30.603  30.832  1.00  0.00     0.064 A 
ATOM     72  C   UNL A   1      37.964  31.143  30.157  1.00  0.00     0.173 A 
ATOM     73  C   UNL A   1      38.964  30.417  32.218  1.00  0.00     0.173 A 
ATOM     74  F   UNL A   1      38.020  31.356  28.833  1.00  0.00    -0.203 F 
ATOM     75  C   UNL A   1      36.811  31.506  30.847  1.00  0.00     0.198 A 
ATOM     76  C   UNL A   1      37.798  30.754  32.901  1.00  0.00     0.198 A 
ATOM     77  F   UNL A   1      39.991  29.901  32.912  1.00  0.00    -0.203 F 
ATOM     78  F   UNL A   1      35.785  32.065  30.188  1.00  0.00    -0.200 F 
ATOM     79  C   UNL A   1      36.726  31.305  32.217  1.00  0.00     0.200 A 
ATOM     80  F   UNL A   1      37.714  30.548  34.222  1.00  0.00    -0.200 F 
ATOM     81  F   UNL A   1      35.613  31.649  32.878  1.00  0.00    -0.200 F 
ENDBRANCH  57  71
BRANCH  58  82
ATOM     82  C   UNL A   1      47.171  27.540  25.852  1.00  0.00     0.064 A 
ATOM     83  C   UNL A   1      48.288  27.007  26.507  1.00  0.00     0.173 A 
ATOM     84  C   UNL A   1      47.230  27.663  24.455  1.00  0.00     0.173 A 
ATOM     85  F   UNL A   1      48.289  26.893  27.844  1.00  0.00    -0.203 F 
ATOM     86  C   UNL A   1      49.426  26.628  25.799  1.00  0.00     0.198 A 
ATOM     87  C   UNL A   1      48.358  27.258  23.745  1.00  0.00     0.198 A 
ATOM     88  F   UNL A   1      46.189  28.170  23.781  1.00  0.00    -0.203 F 
ATOM     89  F   UNL A   1      50.497  26.162  26.454  1.00  0.00    -0.200 F 
ATOM     90  C   UNL A   1      49.458  26.747  24.417  1.00  0.00     0.200 A 
ATOM     91  F   UNL A   1      48.379  27.365  22.409  1.00  0.00    -0.200 F 
ATOM     92  F   UNL A   1      50.551  26.379  23.735  1.00  0.00    -0.200 F 
ENDBRANCH  58  82
BRANCH  70  93
ATOM     93  C   UNL A   1      45.357  33.544  28.905  1.00  0.00     0.064 A 
ATOM     94  C   UNL A   1      45.191  34.591  27.989  1.00  0.00     0.173 A 
ATOM     95  C   UNL A   1      46.156  33.778  30.035  1.00  0.00     0.173 A 
ATOM     96  F   UNL A   1      44.448  34.413  26.886  1.00  0.00    -0.203 F 
ATOM     97  C   UNL A   1      45.812  35.822  28.190  1.00  0.00     0.198 A 
ATOM     98  C   UNL A   1      46.753  35.017  30.247  1.00  0.00     0.198 A 
ATOM     99  F   UNL A   1      46.341  32.810  30.945  1.00  0.00    -0.203 F 
ATOM    100  F   UNL A   1      45.668  36.799  27.284  1.00  0.00    -0.200 F 
ATOM    101  C   UNL A   1      46.584  36.037  29.323  1.00  0.00     0.200 A 
ATOM    102  F   UNL A   1      47.487  35.227  31.349  1.00  0.00    -0.200 F 
ATOM    103  F   UNL A   1      47.169  37.226  29.522  1.00  0.00    -0.200 F 
ENDBRANCH  70  93
ENDBRANCH  44  45
ENDBRANCH  37  39
ENDBRANCH  36  37
ENDBRANCH  35  36
ENDBRANCH  34  35
ENDBRANCH  33  34
ENDBRANCH  32  33
ENDBRANCH   1  32
TORSDOF 20
ENDMDL
