MODEL 1
REMARK VINA RESULT:     -11.7      0.000      0.000
REMARK SMILES Cc1oc(C)c(S(=O)(=O)Nn2c(C)ccc2C)c1C(=O)OCCOCCOC(=O)c1ccc(-c2c3nc(c(-c4c(F)c(F)c(F)c(F)c4F)c4ccc([nH]4)c(-c4c(F)c(F)c(F)c(F)c4F)c4nc(c(-c5c(F)c(F)c(F)c(F)c5F)c5ccc2[nH]5)C=C4)C=C3)cc1
REMARK SMILES IDX 23 1 22 2 21 3 19 4 20 5 18 6 1 7 2 8 3 9 4 10 6 11 5 12
REMARK SMILES IDX 7 13 8 14 9 15 10 16 11 18 12 19 16 20 13 21 14 22 15 23
REMARK SMILES IDX 17 24 24 25 25 26 26 27 27 28 28 29 29 30 30 31 31 32 92 33
REMARK SMILES IDX 32 34 91 35 33 36 34 37 35 38 85 39 36 40 90 41 84 42 86 43
REMARK SMILES IDX 37 44 89 45 83 46 82 47 38 49 70 50 50 51 69 52 51 53 54 54
REMARK SMILES IDX 68 55 87 56 52 57 53 58 67 60 88 61 55 62 39 63 40 64 48 65
REMARK SMILES IDX 41 66 42 67 46 68 49 69 43 70 44 71 47 72 45 73 71 74 72 75
REMARK SMILES IDX 80 76 73 77 74 78 78 79 81 80 75 81 76 82 79 83 77 84 56 85
REMARK SMILES IDX 57 86 65 87 58 88 59 89 63 90 66 91 60 92 61 93 64 94 62 95
REMARK H PARENT 10 17 86 48 54 59
REMARK Flexibility Score: inf
ROOT
ATOM      1  C   UNL A   1      33.437  22.522  26.320  1.00  0.00     0.202 C 
ENDROOT
BRANCH   1   2
ATOM      2  C   UNL A   1      32.519  23.711  26.749  1.00  0.00     0.261 C 
BRANCH   2   3
ATOM      3  O   UNL A   1      31.626  24.180  25.715  1.00  0.00    -0.460 OA
BRANCH   3   4
ATOM      4  C   UNL A   1      30.662  25.106  26.036  1.00  0.00     0.343 C 
ATOM      5  O   UNL A   1      29.723  24.902  26.824  1.00  0.00    -0.246 OA
BRANCH   4   6
ATOM      6  C   UNL A   1      30.818  26.348  25.296  1.00  0.00     0.122 A 
ATOM      7  C   UNL A   1      28.643  26.116  23.796  1.00  0.00     0.088 C 
ATOM      8  C   UNL A   1      29.900  26.704  24.308  1.00  0.00     0.117 A 
ATOM      9  O   UNL A   1      30.240  27.874  23.723  1.00  0.00    -0.464 OA
ATOM     10  C   UNL A   1      31.371  28.318  24.319  1.00  0.00     0.122 A 
ATOM     11  C   UNL A   1      31.774  27.440  25.317  1.00  0.00     0.145 A 
ATOM     12  C   UNL A   1      31.885  29.597  23.771  1.00  0.00     0.089 C 
BRANCH  11  13
ATOM     13  S   UNL A   1      33.181  27.810  26.245  1.00  0.00     0.279 S 
ATOM     14  O   UNL A   1      32.699  27.893  27.611  1.00  0.00    -0.200 OA
ATOM     15  O   UNL A   1      34.094  26.746  25.884  1.00  0.00    -0.200 OA
BRANCH  13  16
ATOM     16  N   UNL A   1      33.989  29.218  26.022  1.00  0.00    -0.216 N 
ATOM     17  H   UNL A   1      34.461  29.333  25.165  1.00  0.00     0.202 HD
BRANCH  16  18
ATOM     18  N   UNL A   1      34.065  30.253  26.922  1.00  0.00    -0.256 N 
ATOM     19  C   UNL A   1      33.169  31.252  27.200  1.00  0.00     0.038 A 
ATOM     20  C   UNL A   1      35.213  30.409  27.660  1.00  0.00     0.038 A 
ATOM     21  C   UNL A   1      31.744  31.359  26.782  1.00  0.00     0.067 C 
ATOM     22  C   UNL A   1      33.878  32.165  27.963  1.00  0.00     0.025 A 
ATOM     23  C   UNL A   1      35.178  31.683  28.176  1.00  0.00     0.025 A 
ATOM     24  C   UNL A   1      36.321  29.423  27.740  1.00  0.00     0.067 C 
ENDBRANCH  16  18
ENDBRANCH  13  16
ENDBRANCH  11  13
ENDBRANCH   4   6
ENDBRANCH   3   4
ENDBRANCH   2   3
ENDBRANCH   1   2
BRANCH   1  25
ATOM     25  O   UNL A   1      34.693  22.794  25.695  1.00  0.00    -0.374 OA
BRANCH  25  26
ATOM     26  C   UNL A   1      35.281  21.740  24.928  1.00  0.00     0.202 C 
BRANCH  26  27
ATOM     27  C   UNL A   1      36.670  21.226  25.382  1.00  0.00     0.261 C 
BRANCH  27  28
ATOM     28  O   UNL A   1      37.849  22.016  24.997  1.00  0.00    -0.460 OA
BRANCH  28  29
ATOM     29  C   UNL A   1      38.928  21.901  25.823  1.00  0.00     0.338 C 
ATOM     30  O   UNL A   1      39.669  20.921  25.799  1.00  0.00    -0.246 OA
BRANCH  29  31
ATOM     31  C   UNL A   1      39.247  23.068  26.776  1.00  0.00     0.060 A 
ATOM     32  C   UNL A   1      38.268  24.027  26.830  1.00  0.00     0.016 A 
ATOM     33  C   UNL A   1      40.381  23.409  27.549  1.00  0.00     0.016 A 
ATOM     34  C   UNL A   1      38.426  25.216  27.608  1.00  0.00     0.010 A 
ATOM     35  C   UNL A   1      40.551  24.730  28.295  1.00  0.00     0.010 A 
ATOM     36  C   UNL A   1      39.569  25.738  28.335  1.00  0.00    -0.014 A 
BRANCH  36  37
ATOM     37  C   UNL A   1      39.468  27.372  28.919  1.00  0.00     0.031 A 
ATOM     38  C   UNL A   1      40.661  27.984  28.284  1.00  0.00     0.074 A 
ATOM     39  C   UNL A   1      38.952  28.335  29.841  1.00  0.00     0.049 A 
ATOM     40  N   UNL A   1      41.782  27.539  28.754  1.00  0.00    -0.248 NA
ATOM     41  C   UNL A   1      40.757  28.600  26.959  1.00  0.00     0.031 C 
ATOM     42  C   UNL A   1      37.963  28.181  30.930  1.00  0.00     0.029 A 
ATOM     43  N   UNL A   1      39.277  29.755  30.079  1.00  0.00    -0.354 N 
ATOM     44  C   UNL A   1      42.764  27.799  27.843  1.00  0.00     0.074 A 
ATOM     45  C   UNL A   1      42.080  28.469  26.736  1.00  0.00     0.031 C 
ATOM     46  C   UNL A   1      37.661  29.367  31.560  1.00  0.00     0.029 A 
ATOM     47  C   UNL A   1      38.466  30.493  31.061  1.00  0.00     0.049 A 
ATOM     48  H   UNL A   1      40.014  30.195  29.597  1.00  0.00     0.167 HD
ATOM     49  C   UNL A   1      43.996  27.917  28.398  1.00  0.00     0.037 A 
ATOM     50  C   UNL A   1      38.524  31.829  31.543  1.00  0.00     0.037 A 
ATOM     51  C   UNL A   1      44.156  29.288  28.803  1.00  0.00     0.049 A 
ATOM     52  C   UNL A   1      39.951  32.158  31.530  1.00  0.00     0.074 A 
ATOM     53  C   UNL A   1      43.764  30.457  28.171  1.00  0.00     0.029 A 
ATOM     54  N   UNL A   1      44.131  29.543  30.158  1.00  0.00    -0.354 N 
ATOM     55  N   UNL A   1      40.755  31.691  32.435  1.00  0.00    -0.248 NA
ATOM     56  C   UNL A   1      40.518  33.152  30.626  1.00  0.00     0.031 C 
ATOM     57  C   UNL A   1      42.922  31.066  29.125  1.00  0.00     0.029 A 
ATOM     58  C   UNL A   1      43.234  30.558  30.381  1.00  0.00     0.049 A 
ATOM     59  H   UNL A   1      44.662  29.079  30.844  1.00  0.00     0.167 HD
ATOM     60  C   UNL A   1      41.968  31.882  31.864  1.00  0.00     0.074 A 
ATOM     61  C   UNL A   1      41.803  32.998  30.948  1.00  0.00     0.031 C 
ATOM     62  C   UNL A   1      42.701  30.757  31.697  1.00  0.00     0.037 A 
BRANCH  49  63
ATOM     63  C   UNL A   1      44.331  26.720  29.290  1.00  0.00     0.064 A 
ATOM     64  C   UNL A   1      44.262  25.440  28.736  1.00  0.00     0.173 A 
ATOM     65  C   UNL A   1      44.572  26.784  30.689  1.00  0.00     0.173 A 
ATOM     66  F   UNL A   1      44.115  25.291  27.411  1.00  0.00    -0.203 F 
ATOM     67  C   UNL A   1      44.351  24.296  29.537  1.00  0.00     0.198 A 
ATOM     68  C   UNL A   1      44.557  25.650  31.495  1.00  0.00     0.198 A 
ATOM     69  F   UNL A   1      44.865  27.943  31.301  1.00  0.00    -0.203 F 
ATOM     70  F   UNL A   1      44.336  23.082  28.970  1.00  0.00    -0.200 F 
ATOM     71  C   UNL A   1      44.450  24.402  30.917  1.00  0.00     0.200 A 
ATOM     72  F   UNL A   1      44.667  25.773  32.826  1.00  0.00    -0.200 F 
ATOM     73  F   UNL A   1      44.481  23.304  31.685  1.00  0.00    -0.200 F 
ENDBRANCH  49  63
BRANCH  50  74
ATOM     74  C   UNL A   1      37.844  33.048  32.351  1.00  0.00     0.064 A 
ATOM     75  C   UNL A   1      36.863  33.935  31.746  1.00  0.00     0.173 A 
ATOM     76  C   UNL A   1      37.730  33.032  33.754  1.00  0.00     0.173 A 
ATOM     77  F   UNL A   1      36.811  34.120  30.421  1.00  0.00    -0.203 F 
ATOM     78  C   UNL A   1      35.839  34.615  32.451  1.00  0.00     0.198 A 
ATOM     79  C   UNL A   1      36.718  33.751  34.466  1.00  0.00     0.198 A 
ATOM     80  F   UNL A   1      38.532  32.238  34.474  1.00  0.00    -0.203 F 
ATOM     81  F   UNL A   1      34.896  35.305  31.785  1.00  0.00    -0.200 F 
ATOM     82  C   UNL A   1      35.756  34.510  33.815  1.00  0.00     0.200 A 
ATOM     83  F   UNL A   1      36.631  33.640  35.801  1.00  0.00    -0.200 F 
ATOM     84  F   UNL A   1      34.749  35.092  34.487  1.00  0.00    -0.200 F 
ENDBRANCH  50  74
BRANCH  62  85
ATOM     85  C   UNL A   1      42.708  29.762  32.839  1.00  0.00     0.064 A 
ATOM     86  C   UNL A   1      41.943  28.575  32.933  1.00  0.00     0.173 A 
ATOM     87  C   UNL A   1      43.471  30.087  33.967  1.00  0.00     0.173 A 
ATOM     88  F   UNL A   1      41.252  28.095  31.894  1.00  0.00    -0.203 F 
ATOM     89  C   UNL A   1      41.877  27.827  34.113  1.00  0.00     0.198 A 
ATOM     90  C   UNL A   1      43.442  29.313  35.128  1.00  0.00     0.198 A 
ATOM     91  F   UNL A   1      44.271  31.163  33.942  1.00  0.00    -0.203 F 
ATOM     92  F   UNL A   1      41.085  26.745  34.182  1.00  0.00    -0.200 F 
ATOM     93  C   UNL A   1      42.623  28.202  35.212  1.00  0.00     0.200 A 
ATOM     94  F   UNL A   1      44.216  29.654  36.167  1.00  0.00    -0.200 F 
ATOM     95  F   UNL A   1      42.567  27.487  36.345  1.00  0.00    -0.200 F 
ENDBRANCH  62  85
ENDBRANCH  36  37
ENDBRANCH  29  31
ENDBRANCH  28  29
ENDBRANCH  27  28
ENDBRANCH  26  27
ENDBRANCH  25  26
ENDBRANCH   1  25
TORSDOF 17
ENDMDL
MODEL 2
REMARK VINA RESULT:     -11.4      2.967      8.838
REMARK SMILES Cc1oc(C)c(S(=O)(=O)Nn2c(C)ccc2C)c1C(=O)OCCOCCOC(=O)c1ccc(-c2c3nc(c(-c4c(F)c(F)c(F)c(F)c4F)c4ccc([nH]4)c(-c4c(F)c(F)c(F)c(F)c4F)c4nc(c(-c5c(F)c(F)c(F)c(F)c5F)c5ccc2[nH]5)C=C4)C=C3)cc1
REMARK SMILES IDX 23 1 22 2 21 3 19 4 20 5 18 6 1 7 2 8 3 9 4 10 6 11 5 12
REMARK SMILES IDX 7 13 8 14 9 15 10 16 11 18 12 19 16 20 13 21 14 22 15 23
REMARK SMILES IDX 17 24 24 25 25 26 26 27 27 28 28 29 29 30 30 31 31 32 92 33
REMARK SMILES IDX 32 34 91 35 33 36 34 37 35 38 85 39 36 40 90 41 84 42 86 43
REMARK SMILES IDX 37 44 89 45 83 46 82 47 38 49 70 50 50 51 69 52 51 53 54 54
REMARK SMILES IDX 68 55 87 56 52 57 53 58 67 60 88 61 55 62 39 63 40 64 48 65
REMARK SMILES IDX 41 66 42 67 46 68 49 69 43 70 44 71 47 72 45 73 71 74 72 75
REMARK SMILES IDX 80 76 73 77 74 78 78 79 81 80 75 81 76 82 79 83 77 84 56 85
REMARK SMILES IDX 57 86 65 87 58 88 59 89 63 90 66 91 60 92 61 93 64 94 62 95
REMARK H PARENT 10 17 86 48 54 59
REMARK Flexibility Score: inf
ROOT
ATOM      1  C   UNL A   1      34.171  29.085  26.403  1.00  0.00     0.202 C 
ENDROOT
BRANCH   1   2
ATOM      2  C   UNL A   1      33.526  28.859  24.999  1.00  0.00     0.261 C 
BRANCH   2   3
ATOM      3  O   UNL A   1      34.314  28.045  24.102  1.00  0.00    -0.460 OA
BRANCH   3   4
ATOM      4  C   UNL A   1      33.816  27.753  22.855  1.00  0.00     0.343 C 
ATOM      5  O   UNL A   1      34.218  28.266  21.797  1.00  0.00    -0.246 OA
BRANCH   4   6
ATOM      6  C   UNL A   1      32.706  26.815  22.907  1.00  0.00     0.122 A 
ATOM      7  C   UNL A   1      30.781  28.546  22.332  1.00  0.00     0.088 C 
ATOM      8  C   UNL A   1      31.399  27.252  22.692  1.00  0.00     0.117 A 
ATOM      9  O   UNL A   1      30.517  26.234  22.813  1.00  0.00    -0.464 OA
ATOM     10  C   UNL A   1      31.220  25.112  23.091  1.00  0.00     0.122 A 
ATOM     11  C   UNL A   1      32.581  25.388  23.141  1.00  0.00     0.145 A 
ATOM     12  C   UNL A   1      30.384  23.900  23.270  1.00  0.00     0.089 C 
BRANCH  11  13
ATOM     13  S   UNL A   1      33.690  24.102  23.450  1.00  0.00     0.279 S 
ATOM     14  O   UNL A   1      34.095  23.652  22.132  1.00  0.00    -0.200 OA
ATOM     15  O   UNL A   1      34.669  24.723  24.315  1.00  0.00    -0.200 OA
BRANCH  13  16
ATOM     16  N   UNL A   1      33.198  22.732  24.204  1.00  0.00    -0.216 N 
ATOM     17  H   UNL A   1      32.746  22.054  23.652  1.00  0.00     0.202 HD
BRANCH  16  18
ATOM     18  N   UNL A   1      33.363  22.444  25.538  1.00  0.00    -0.256 N 
ATOM     19  C   UNL A   1      32.800  23.025  26.644  1.00  0.00     0.038 A 
ATOM     20  C   UNL A   1      34.258  21.468  25.901  1.00  0.00     0.038 A 
ATOM     21  C   UNL A   1      31.653  23.974  26.709  1.00  0.00     0.067 C 
ATOM     22  C   UNL A   1      33.536  22.543  27.713  1.00  0.00     0.025 A 
ATOM     23  C   UNL A   1      34.502  21.640  27.243  1.00  0.00     0.025 A 
ATOM     24  C   UNL A   1      34.921  20.523  24.968  1.00  0.00     0.067 C 
ENDBRANCH  16  18
ENDBRANCH  13  16
ENDBRANCH  11  13
ENDBRANCH   4   6
ENDBRANCH   3   4
ENDBRANCH   2   3
ENDBRANCH   1   2
BRANCH   1  25
ATOM     25  O   UNL A   1      33.376  29.614  27.465  1.00  0.00    -0.374 OA
BRANCH  25  26
ATOM     26  C   UNL A   1      32.390  30.591  27.117  1.00  0.00     0.202 C 
BRANCH  26  27
ATOM     27  C   UNL A   1      32.821  32.077  27.166  1.00  0.00     0.261 C 
BRANCH  27  28
ATOM     28  O   UNL A   1      33.583  32.529  28.340  1.00  0.00    -0.460 OA
BRANCH  28  29
ATOM     29  C   UNL A   1      34.922  32.690  28.145  1.00  0.00     0.338 C 
ATOM     30  O   UNL A   1      35.387  33.678  27.580  1.00  0.00    -0.246 OA
BRANCH  29  31
ATOM     31  C   UNL A   1      35.877  31.618  28.701  1.00  0.00     0.060 A 
ATOM     32  C   UNL A   1      37.015  31.444  27.956  1.00  0.00     0.016 A 
ATOM     33  C   UNL A   1      35.791  30.705  29.778  1.00  0.00     0.016 A 
ATOM     34  C   UNL A   1      37.980  30.442  28.284  1.00  0.00     0.010 A 
ATOM     35  C   UNL A   1      36.797  29.588  30.044  1.00  0.00     0.010 A 
ATOM     36  C   UNL A   1      37.955  29.377  29.270  1.00  0.00    -0.014 A 
BRANCH  36  37
ATOM     37  C   UNL A   1      39.196  28.165  29.172  1.00  0.00     0.031 A 
ATOM     38  C   UNL A   1      39.739  28.187  30.553  1.00  0.00     0.074 A 
ATOM     39  C   UNL A   1      40.070  27.337  28.400  1.00  0.00     0.049 A 
ATOM     40  N   UNL A   1      40.371  29.278  30.842  1.00  0.00    -0.248 NA
ATOM     41  C   UNL A   1      39.270  27.429  31.714  1.00  0.00     0.031 C 
ATOM     42  C   UNL A   1      40.184  27.174  26.934  1.00  0.00     0.029 A 
ATOM     43  N   UNL A   1      41.186  26.447  28.777  1.00  0.00    -0.354 N 
ATOM     44  C   UNL A   1      40.428  29.396  32.199  1.00  0.00     0.074 A 
ATOM     45  C   UNL A   1      39.730  28.214  32.708  1.00  0.00     0.031 C 
ATOM     46  C   UNL A   1      41.103  26.218  26.565  1.00  0.00     0.029 A 
ATOM     47  C   UNL A   1      41.821  25.649  27.717  1.00  0.00     0.049 A 
ATOM     48  H   UNL A   1      41.496  26.390  29.710  1.00  0.00     0.167 HD
ATOM     49  C   UNL A   1      41.487  30.123  32.634  1.00  0.00     0.037 A 
ATOM     50  C   UNL A   1      42.911  24.737  27.724  1.00  0.00     0.037 A 
ATOM     51  C   UNL A   1      42.600  29.221  32.772  1.00  0.00     0.049 A 
ATOM     52  C   UNL A   1      43.820  25.266  28.744  1.00  0.00     0.074 A 
ATOM     53  C   UNL A   1      42.641  27.920  33.248  1.00  0.00     0.029 A 
ATOM     54  N   UNL A   1      43.611  29.334  31.842  1.00  0.00    -0.354 N 
ATOM     55  N   UNL A   1      44.561  26.305  28.508  1.00  0.00    -0.248 NA
ATOM     56  C   UNL A   1      44.078  24.571  30.000  1.00  0.00     0.031 C 
ATOM     57  C   UNL A   1      43.170  27.200  32.156  1.00  0.00     0.029 A 
ATOM     58  C   UNL A   1      43.863  28.083  31.336  1.00  0.00     0.049 A 
ATOM     59  H   UNL A   1      44.072  30.165  31.586  1.00  0.00     0.167 HD
ATOM     60  C   UNL A   1      44.918  26.688  29.756  1.00  0.00     0.074 A 
ATOM     61  C   UNL A   1      44.861  25.486  30.572  1.00  0.00     0.031 C 
ATOM     62  C   UNL A   1      44.558  27.949  30.090  1.00  0.00     0.037 A 
BRANCH  49  63
ATOM     63  C   UNL A   1      41.572  31.478  31.928  1.00  0.00     0.064 A 
ATOM     64  C   UNL A   1      40.495  32.358  32.052  1.00  0.00     0.173 A 
ATOM     65  C   UNL A   1      42.599  31.869  31.028  1.00  0.00     0.173 A 
ATOM     66  F   UNL A   1      39.520  32.103  32.937  1.00  0.00    -0.203 F 
ATOM     67  C   UNL A   1      40.411  33.518  31.273  1.00  0.00     0.198 A 
ATOM     68  C   UNL A   1      42.464  32.966  30.183  1.00  0.00     0.198 A 
ATOM     69  F   UNL A   1      43.774  31.220  30.975  1.00  0.00    -0.203 F 
ATOM     70  F   UNL A   1      39.394  34.370  31.454  1.00  0.00    -0.200 F 
ATOM     71  C   UNL A   1      41.369  33.795  30.308  1.00  0.00     0.200 A 
ATOM     72  F   UNL A   1      43.407  33.224  29.265  1.00  0.00    -0.200 F 
ATOM     73  F   UNL A   1      41.257  34.878  29.527  1.00  0.00    -0.200 F 
ENDBRANCH  49  63
BRANCH  50  74
ATOM     74  C   UNL A   1      43.769  23.587  26.988  1.00  0.00     0.064 A 
ATOM     75  C   UNL A   1      43.376  22.187  27.005  1.00  0.00     0.173 A 
ATOM     76  C   UNL A   1      44.603  23.875  25.891  1.00  0.00     0.173 A 
ATOM     77  F   UNL A   1      42.601  21.690  27.979  1.00  0.00    -0.203 F 
ATOM     78  C   UNL A   1      43.684  21.244  25.994  1.00  0.00     0.198 A 
ATOM     79  C   UNL A   1      44.946  22.909  24.892  1.00  0.00     0.198 A 
ATOM     80  F   UNL A   1      45.032  25.128  25.698  1.00  0.00    -0.203 F 
ATOM     81  F   UNL A   1      43.160  20.006  26.033  1.00  0.00    -0.200 F 
ATOM     82  C   UNL A   1      44.460  21.611  24.924  1.00  0.00     0.200 A 
ATOM     83  F   UNL A   1      45.697  23.271  23.840  1.00  0.00    -0.200 F 
ATOM     84  F   UNL A   1      44.701  20.746  23.925  1.00  0.00    -0.200 F 
ENDBRANCH  50  74
BRANCH  62  85
ATOM     85  C   UNL A   1      44.749  29.022  29.036  1.00  0.00     0.064 A 
ATOM     86  C   UNL A   1      43.754  29.561  28.187  1.00  0.00     0.173 A 
ATOM     87  C   UNL A   1      46.056  29.464  28.802  1.00  0.00     0.173 A 
ATOM     88  F   UNL A   1      42.454  29.304  28.367  1.00  0.00    -0.203 F 
ATOM     89  C   UNL A   1      44.070  30.406  27.118  1.00  0.00     0.198 A 
ATOM     90  C   UNL A   1      46.365  30.345  27.766  1.00  0.00     0.198 A 
ATOM     91  F   UNL A   1      47.052  29.049  29.599  1.00  0.00    -0.203 F 
ATOM     92  F   UNL A   1      43.104  30.841  26.294  1.00  0.00    -0.200 F 
ATOM     93  C   UNL A   1      45.378  30.792  26.906  1.00  0.00     0.200 A 
ATOM     94  F   UNL A   1      47.628  30.759  27.606  1.00  0.00    -0.200 F 
ATOM     95  F   UNL A   1      45.687  31.605  25.885  1.00  0.00    -0.200 F 
ENDBRANCH  62  85
ENDBRANCH  36  37
ENDBRANCH  29  31
ENDBRANCH  28  29
ENDBRANCH  27  28
ENDBRANCH  26  27
ENDBRANCH  25  26
ENDBRANCH   1  25
TORSDOF 17
ENDMDL
MODEL 3
REMARK VINA RESULT:     -11.4      2.747      5.107
REMARK SMILES Cc1oc(C)c(S(=O)(=O)Nn2c(C)ccc2C)c1C(=O)OCCOCCOC(=O)c1ccc(-c2c3nc(c(-c4c(F)c(F)c(F)c(F)c4F)c4ccc([nH]4)c(-c4c(F)c(F)c(F)c(F)c4F)c4nc(c(-c5c(F)c(F)c(F)c(F)c5F)c5ccc2[nH]5)C=C4)C=C3)cc1
REMARK SMILES IDX 23 1 22 2 21 3 19 4 20 5 18 6 1 7 2 8 3 9 4 10 6 11 5 12
REMARK SMILES IDX 7 13 8 14 9 15 10 16 11 18 12 19 16 20 13 21 14 22 15 23
REMARK SMILES IDX 17 24 24 25 25 26 26 27 27 28 28 29 29 30 30 31 31 32 92 33
REMARK SMILES IDX 32 34 91 35 33 36 34 37 35 38 85 39 36 40 90 41 84 42 86 43
REMARK SMILES IDX 37 44 89 45 83 46 82 47 38 49 70 50 50 51 69 52 51 53 54 54
REMARK SMILES IDX 68 55 87 56 52 57 53 58 67 60 88 61 55 62 39 63 40 64 48 65
REMARK SMILES IDX 41 66 42 67 46 68 49 69 43 70 44 71 47 72 45 73 71 74 72 75
REMARK SMILES IDX 80 76 73 77 74 78 78 79 81 80 75 81 76 82 79 83 77 84 56 85
REMARK SMILES IDX 57 86 65 87 58 88 59 89 63 90 66 91 60 92 61 93 64 94 62 95
REMARK H PARENT 10 17 86 48 54 59
REMARK Flexibility Score: inf
ROOT
ATOM      1  C   UNL A   1      38.160  22.435  25.833  1.00  0.00     0.202 C 
ENDROOT
BRANCH   1   2
ATOM      2  C   UNL A   1      36.829  23.239  25.969  1.00  0.00     0.261 C 
BRANCH   2   3
ATOM      3  O   UNL A   1      36.497  24.047  24.818  1.00  0.00    -0.460 OA
BRANCH   3   4
ATOM      4  C   UNL A   1      35.513  23.615  23.961  1.00  0.00     0.343 C 
ATOM      5  O   UNL A   1      35.701  23.296  22.775  1.00  0.00    -0.246 OA
BRANCH   4   6
ATOM      6  C   UNL A   1      34.195  23.635  24.575  1.00  0.00     0.122 A 
ATOM      7  C   UNL A   1      33.552  26.119  23.903  1.00  0.00     0.088 C 
ATOM      8  C   UNL A   1      33.409  24.786  24.528  1.00  0.00     0.117 A 
ATOM      9  O   UNL A   1      32.238  24.605  25.180  1.00  0.00    -0.464 OA
ATOM     10  C   UNL A   1      32.222  23.338  25.652  1.00  0.00     0.122 A 
ATOM     11  C   UNL A   1      33.387  22.669  25.297  1.00  0.00     0.145 A 
ATOM     12  C   UNL A   1      30.998  22.988  26.413  1.00  0.00     0.089 C 
BRANCH  11  13
ATOM     13  S   UNL A   1      33.586  21.019  25.762  1.00  0.00     0.279 S 
ATOM     14  O   UNL A   1      34.748  20.574  25.016  1.00  0.00    -0.200 OA
ATOM     15  O   UNL A   1      33.662  21.098  27.205  1.00  0.00    -0.200 OA
BRANCH  13  16
ATOM     16  N   UNL A   1      32.436  19.904  25.413  1.00  0.00    -0.216 N 
ATOM     17  H   UNL A   1      31.604  19.939  25.937  1.00  0.00     0.202 HD
BRANCH  16  18
ATOM     18  N   UNL A   1      32.531  18.926  24.453  1.00  0.00    -0.256 N 
ATOM     19  C   UNL A   1      32.820  17.591  24.573  1.00  0.00     0.038 A 
ATOM     20  C   UNL A   1      32.376  19.273  23.133  1.00  0.00     0.038 A 
ATOM     21  C   UNL A   1      32.870  16.764  25.812  1.00  0.00     0.067 C 
ATOM     22  C   UNL A   1      33.067  17.161  23.281  1.00  0.00     0.025 A 
ATOM     23  C   UNL A   1      32.877  18.229  22.391  1.00  0.00     0.025 A 
ATOM     24  C   UNL A   1      31.893  20.590  22.644  1.00  0.00     0.067 C 
ENDBRANCH  16  18
ENDBRANCH  13  16
ENDBRANCH  11  13
ENDBRANCH   4   6
ENDBRANCH   3   4
ENDBRANCH   2   3
ENDBRANCH   1   2
BRANCH   1  25
ATOM     25  O   UNL A   1      38.117  21.071  25.409  1.00  0.00    -0.374 OA
BRANCH  25  26
ATOM     26  C   UNL A   1      39.248  20.255  25.726  1.00  0.00     0.202 C 
BRANCH  26  27
ATOM     27  C   UNL A   1      40.431  20.939  26.454  1.00  0.00     0.261 C 
BRANCH  27  28
ATOM     28  O   UNL A   1      41.358  21.744  25.645  1.00  0.00    -0.460 OA
BRANCH  28  29
ATOM     29  C   UNL A   1      42.305  22.431  26.345  1.00  0.00     0.338 C 
ATOM     30  O   UNL A   1      43.495  22.128  26.308  1.00  0.00    -0.246 OA
BRANCH  29  31
ATOM     31  C   UNL A   1      41.861  23.658  27.163  1.00  0.00     0.060 A 
ATOM     32  C   UNL A   1      40.986  24.482  26.503  1.00  0.00     0.016 A 
ATOM     33  C   UNL A   1      42.234  24.168  28.429  1.00  0.00     0.016 A 
ATOM     34  C   UNL A   1      40.523  25.703  27.083  1.00  0.00     0.010 A 
ATOM     35  C   UNL A   1      41.790  25.521  28.977  1.00  0.00     0.010 A 
ATOM     36  C   UNL A   1      40.916  26.393  28.299  1.00  0.00    -0.014 A 
BRANCH  36  37
ATOM     37  C   UNL A   1      40.336  28.016  28.522  1.00  0.00     0.031 A 
ATOM     38  C   UNL A   1      41.575  28.803  28.302  1.00  0.00     0.074 A 
ATOM     39  C   UNL A   1      39.348  28.930  29.004  1.00  0.00     0.049 A 
ATOM     40  N   UNL A   1      42.460  28.643  29.231  1.00  0.00    -0.248 NA
ATOM     41  C   UNL A   1      42.106  29.304  27.033  1.00  0.00     0.031 C 
ATOM     42  C   UNL A   1      38.037  28.673  29.640  1.00  0.00     0.029 A 
ATOM     43  N   UNL A   1      39.325  30.402  29.111  1.00  0.00    -0.354 N 
ATOM     44  C   UNL A   1      43.675  29.017  28.738  1.00  0.00     0.074 A 
ATOM     45  C   UNL A   1      43.408  29.430  27.359  1.00  0.00     0.031 C 
ATOM     46  C   UNL A   1      37.327  29.822  29.902  1.00  0.00     0.029 A 
ATOM     47  C   UNL A   1      38.082  31.041  29.572  1.00  0.00     0.049 A 
ATOM     48  H   UNL A   1      40.117  30.940  28.883  1.00  0.00     0.167 HD
ATOM     49  C   UNL A   1      44.540  29.436  29.695  1.00  0.00     0.037 A 
ATOM     50  C   UNL A   1      37.732  32.398  29.812  1.00  0.00     0.037 A 
ATOM     51  C   UNL A   1      44.309  30.841  29.898  1.00  0.00     0.049 A 
ATOM     52  C   UNL A   1      38.972  33.012  30.293  1.00  0.00     0.074 A 
ATOM     53  C   UNL A   1      44.034  31.844  28.981  1.00  0.00     0.029 A 
ATOM     54  N   UNL A   1      43.695  31.206  31.078  1.00  0.00    -0.354 N 
ATOM     55  N   UNL A   1      39.398  32.804  31.500  1.00  0.00    -0.248 NA
ATOM     56  C   UNL A   1      39.697  34.017  29.524  1.00  0.00     0.031 C 
ATOM     57  C   UNL A   1      42.794  32.348  29.425  1.00  0.00     0.029 A 
ATOM     58  C   UNL A   1      42.640  32.029  30.770  1.00  0.00     0.049 A 
ATOM     59  H   UNL A   1      43.965  30.925  31.981  1.00  0.00     0.167 HD
ATOM     60  C   UNL A   1      40.693  33.190  31.414  1.00  0.00     0.074 A 
ATOM     61  C   UNL A   1      40.747  34.162  30.335  1.00  0.00     0.031 C 
ATOM     62  C   UNL A   1      41.595  32.231  31.729  1.00  0.00     0.037 A 
BRANCH  49  63
ATOM     63  C   UNL A   1      44.663  28.420  30.831  1.00  0.00     0.064 A 
ATOM     64  C   UNL A   1      44.832  27.073  30.501  1.00  0.00     0.173 A 
ATOM     65  C   UNL A   1      44.474  28.707  32.210  1.00  0.00     0.173 A 
ATOM     66  F   UNL A   1      45.093  26.723  29.233  1.00  0.00    -0.203 F 
ATOM     67  C   UNL A   1      44.744  26.070  31.473  1.00  0.00     0.198 A 
ATOM     68  C   UNL A   1      44.285  27.703  33.155  1.00  0.00     0.198 A 
ATOM     69  F   UNL A   1      44.508  29.964  32.678  1.00  0.00    -0.203 F 
ATOM     70  F   UNL A   1      44.966  24.793  31.134  1.00  0.00    -0.200 F 
ATOM     71  C   UNL A   1      44.424  26.381  32.786  1.00  0.00     0.200 A 
ATOM     72  F   UNL A   1      43.988  28.025  34.422  1.00  0.00    -0.200 F 
ATOM     73  F   UNL A   1      44.287  25.413  33.703  1.00  0.00    -0.200 F 
ENDBRANCH  49  63
BRANCH  50  74
ATOM     74  C   UNL A   1      36.603  33.517  30.085  1.00  0.00     0.064 A 
ATOM     75  C   UNL A   1      35.737  34.026  29.033  1.00  0.00     0.173 A 
ATOM     76  C   UNL A   1      36.026  33.689  31.357  1.00  0.00     0.173 A 
ATOM     77  F   UNL A   1      36.104  33.985  27.745  1.00  0.00    -0.203 F 
ATOM     78  C   UNL A   1      34.427  34.528  29.231  1.00  0.00     0.198 A 
ATOM     79  C   UNL A   1      34.717  34.233  31.557  1.00  0.00     0.198 A 
ATOM     80  F   UNL A   1      36.671  33.243  32.442  1.00  0.00    -0.203 F 
ATOM     81  F   UNL A   1      33.653  34.849  28.179  1.00  0.00    -0.200 F 
ATOM     82  C   UNL A   1      33.908  34.617  30.497  1.00  0.00     0.200 A 
ATOM     83  F   UNL A   1      34.206  34.311  32.795  1.00  0.00    -0.200 F 
ATOM     84  F   UNL A   1      32.643  35.025  30.691  1.00  0.00    -0.200 F 
ENDBRANCH  50  74
BRANCH  62  85
ATOM     85  C   UNL A   1      41.288  31.364  32.934  1.00  0.00     0.064 A 
ATOM     86  C   UNL A   1      41.289  31.769  34.290  1.00  0.00     0.173 A 
ATOM     87  C   UNL A   1      41.077  29.999  32.704  1.00  0.00     0.173 A 
ATOM     88  F   UNL A   1      41.376  33.055  34.644  1.00  0.00    -0.203 F 
ATOM     89  C   UNL A   1      41.183  30.849  35.338  1.00  0.00     0.198 A 
ATOM     90  C   UNL A   1      40.923  29.089  33.749  1.00  0.00     0.198 A 
ATOM     91  F   UNL A   1      41.002  29.540  31.446  1.00  0.00    -0.203 F 
ATOM     92  F   UNL A   1      41.257  31.266  36.611  1.00  0.00    -0.200 F 
ATOM     93  C   UNL A   1      41.006  29.507  35.065  1.00  0.00     0.200 A 
ATOM     94  F   UNL A   1      40.693  27.799  33.472  1.00  0.00    -0.200 F 
ATOM     95  F   UNL A   1      40.901  28.621  36.065  1.00  0.00    -0.200 F 
ENDBRANCH  62  85
ENDBRANCH  36  37
ENDBRANCH  29  31
ENDBRANCH  28  29
ENDBRANCH  27  28
ENDBRANCH  26  27
ENDBRANCH  25  26
ENDBRANCH   1  25
TORSDOF 17
ENDMDL
