MODEL 1
REMARK VINA RESULT:     -12.1      0.000      0.000
REMARK SMILES Cc1ncccc1NC(=O)Nc1ccc(C(=O)OCCOCCOC(=O)c2ccc(-c3c4nc(c(-c5c(F)c(F)c(F)c(F)c5F)c5ccc([nH]5)c(-c5c(F)c(F)c(F)c(F)c5F)c5nc(c(-c6c(F)c(F)c(F)c(F)c6F)c6ccc3[nH]6)C=C5)C=C4)cc2)c(O)c1
REMARK SMILES IDX 21 1 20 2 19 3 18 4 16 5 17 6 15 7 12 8 13 9 92 10 14 11
REMARK SMILES IDX 90 12 11 13 8 14 9 15 10 17 7 19 1 20 2 21 3 22 4 23 6 24
REMARK SMILES IDX 5 25 91 26 22 28 23 29 24 30 25 31 26 32 27 33 28 34 89 35
REMARK SMILES IDX 29 36 88 37 30 38 31 39 32 40 82 41 33 42 87 43 81 44 83 45
REMARK SMILES IDX 34 46 86 47 80 48 79 49 35 51 67 52 47 53 66 54 48 55 51 56
REMARK SMILES IDX 65 57 84 58 49 59 50 60 64 62 85 63 52 64 36 65 37 66 45 67
REMARK SMILES IDX 38 68 39 69 43 70 46 71 40 72 41 73 44 74 42 75 68 76 69 77
REMARK SMILES IDX 77 78 70 79 71 80 75 81 78 82 72 83 73 84 76 85 74 86 53 87
REMARK SMILES IDX 54 88 62 89 55 90 56 91 60 92 63 93 57 94 58 95 61 96 59 97
REMARK H PARENT 8 16 11 18 91 27 83 50 51 61
REMARK Flexibility Score: inf
ROOT
ATOM      1  O   UNL A   1      31.684  30.163  25.584  1.00  0.00    -0.374 OA
ENDROOT
BRANCH   1   2
ATOM      2  C   UNL A   1      31.507  29.490  24.338  1.00  0.00     0.202 C 
BRANCH   2   3
ATOM      3  C   UNL A   1      31.847  27.998  24.382  1.00  0.00     0.261 C 
BRANCH   3   4
ATOM      4  O   UNL A   1      30.772  27.236  24.977  1.00  0.00    -0.460 OA
BRANCH   4   5
ATOM      5  C   UNL A   1      31.057  26.645  26.168  1.00  0.00     0.341 C 
ATOM      6  O   UNL A   1      31.014  27.176  27.265  1.00  0.00    -0.246 OA
BRANCH   5   7
ATOM      7  C   UNL A   1      31.344  25.199  25.978  1.00  0.00     0.101 A 
ATOM      8  C   UNL A   1      31.876  22.438  25.876  1.00  0.00     0.046 A 
ATOM      9  C   UNL A   1      32.479  23.229  26.854  1.00  0.00     0.027 A 
ATOM     10  C   UNL A   1      31.092  23.044  24.888  1.00  0.00     0.073 A 
ATOM     11  C   UNL A   1      32.226  24.604  26.895  1.00  0.00     0.022 A 
ATOM     12  C   UNL A   1      30.781  24.405  24.973  1.00  0.00     0.132 A 
BRANCH   8  13
ATOM     13  N   UNL A   1      31.952  21.035  25.870  1.00  0.00    -0.308 N 
ATOM     14  N   UNL A   1      33.747  20.456  24.394  1.00  0.00    -0.306 N 
ATOM     15  C   UNL A   1      32.593  20.168  25.048  1.00  0.00     0.323 C 
ATOM     16  H   UNL A   1      33.927  19.852  23.638  1.00  0.00     0.171 HD
ATOM     17  O   UNL A   1      32.125  19.032  24.915  1.00  0.00    -0.248 OA
ATOM     18  H   UNL A   1      31.448  20.601  26.596  1.00  0.00     0.171 HD
BRANCH  14  19
ATOM     19  C   UNL A   1      34.744  21.439  24.575  1.00  0.00     0.064 A 
ATOM     20  C   UNL A   1      33.859  22.941  22.692  1.00  0.00     0.069 C 
ATOM     21  C   UNL A   1      34.684  22.677  23.916  1.00  0.00     0.061 A 
ATOM     22  N   UNL A   1      35.472  23.731  24.269  1.00  0.00    -0.259 NA
ATOM     23  C   UNL A   1      36.391  23.537  25.231  1.00  0.00     0.111 A 
ATOM     24  C   UNL A   1      35.837  21.240  25.415  1.00  0.00     0.030 A 
ATOM     25  C   UNL A   1      36.646  22.304  25.788  1.00  0.00     0.022 A 
ENDBRANCH  14  19
ENDBRANCH   8  13
BRANCH  12  26
ATOM     26  O   UNL A   1      29.879  24.862  24.050  1.00  0.00    -0.507 OA
ATOM     27  H   UNL A   1      29.606  24.308  23.347  1.00  0.00     0.293 HD
ENDBRANCH  12  26
ENDBRANCH   5   7
ENDBRANCH   4   5
ENDBRANCH   3   4
ENDBRANCH   2   3
ENDBRANCH   1   2
BRANCH   1  28
ATOM     28  C   UNL A   1      30.924  31.361  25.757  1.00  0.00     0.202 C 
BRANCH  28  29
ATOM     29  C   UNL A   1      31.525  32.321  26.790  1.00  0.00     0.261 C 
BRANCH  29  30
ATOM     30  O   UNL A   1      32.830  31.868  27.187  1.00  0.00    -0.460 OA
BRANCH  30  31
ATOM     31  C   UNL A   1      33.620  32.837  27.704  1.00  0.00     0.338 C 
ATOM     32  O   UNL A   1      33.311  33.980  27.986  1.00  0.00    -0.246 OA
BRANCH  31  33
ATOM     33  C   UNL A   1      34.919  32.254  28.077  1.00  0.00     0.060 A 
ATOM     34  C   UNL A   1      34.941  30.880  28.337  1.00  0.00     0.016 A 
ATOM     35  C   UNL A   1      36.068  33.033  28.231  1.00  0.00     0.016 A 
ATOM     36  C   UNL A   1      36.101  30.285  28.817  1.00  0.00     0.010 A 
ATOM     37  C   UNL A   1      37.234  32.434  28.716  1.00  0.00     0.010 A 
ATOM     38  C   UNL A   1      37.241  31.067  29.050  1.00  0.00    -0.014 A 
BRANCH  38  39
ATOM     39  C   UNL A   1      38.376  30.475  29.791  1.00  0.00     0.031 A 
ATOM     40  C   UNL A   1      38.594  30.867  31.225  1.00  0.00     0.074 A 
ATOM     41  C   UNL A   1      39.174  29.566  29.204  1.00  0.00     0.049 A 
ATOM     42  N   UNL A   1      39.513  30.468  32.066  1.00  0.00    -0.248 NA
ATOM     43  C   UNL A   1      37.648  31.844  31.785  1.00  0.00     0.031 C 
ATOM     44  C   UNL A   1      39.038  29.093  27.829  1.00  0.00     0.029 A 
ATOM     45  N   UNL A   1      40.257  28.883  29.694  1.00  0.00    -0.354 N 
ATOM     46  C   UNL A   1      39.262  31.151  33.249  1.00  0.00     0.074 A 
ATOM     47  C   UNL A   1      38.125  32.013  33.009  1.00  0.00     0.031 C 
ATOM     48  C   UNL A   1      40.013  28.202  27.578  1.00  0.00     0.029 A 
ATOM     49  C   UNL A   1      40.852  28.065  28.768  1.00  0.00     0.049 A 
ATOM     50  H   UNL A   1      40.577  28.973  30.620  1.00  0.00     0.167 HD
ATOM     51  C   UNL A   1      39.918  31.059  34.430  1.00  0.00     0.037 A 
ATOM     52  C   UNL A   1      41.960  27.307  28.866  1.00  0.00     0.037 A 
ATOM     53  C   UNL A   1      41.045  30.195  34.661  1.00  0.00     0.049 A 
ATOM     54  C   UNL A   1      42.699  27.252  30.177  1.00  0.00     0.074 A 
ATOM     55  C   UNL A   1      41.754  29.994  35.832  1.00  0.00     0.029 A 
ATOM     56  N   UNL A   1      41.636  29.395  33.692  1.00  0.00    -0.354 N 
ATOM     57  N   UNL A   1      42.430  27.865  31.304  1.00  0.00    -0.248 NA
ATOM     58  C   UNL A   1      43.891  26.395  30.230  1.00  0.00     0.031 C 
ATOM     59  C   UNL A   1      42.810  29.116  35.556  1.00  0.00     0.029 A 
ATOM     60  C   UNL A   1      42.723  28.726  34.229  1.00  0.00     0.049 A 
ATOM     61  H   UNL A   1      41.327  29.317  32.761  1.00  0.00     0.167 HD
ATOM     62  C   UNL A   1      43.403  27.455  32.206  1.00  0.00     0.074 A 
ATOM     63  C   UNL A   1      44.261  26.528  31.496  1.00  0.00     0.031 C 
ATOM     64  C   UNL A   1      43.570  27.811  33.504  1.00  0.00     0.037 A 
BRANCH  51  65
ATOM     65  C   UNL A   1      39.452  31.948  35.548  1.00  0.00     0.064 A 
ATOM     66  C   UNL A   1      38.507  31.520  36.493  1.00  0.00     0.173 A 
ATOM     67  C   UNL A   1      39.967  33.246  35.680  1.00  0.00     0.173 A 
ATOM     68  F   UNL A   1      37.972  30.292  36.405  1.00  0.00    -0.203 F 
ATOM     69  C   UNL A   1      38.068  32.371  37.504  1.00  0.00     0.198 A 
ATOM     70  C   UNL A   1      39.549  34.085  36.709  1.00  0.00     0.198 A 
ATOM     71  F   UNL A   1      40.876  33.705  34.805  1.00  0.00    -0.203 F 
ATOM     72  F   UNL A   1      37.121  31.961  38.359  1.00  0.00    -0.200 F 
ATOM     73  C   UNL A   1      38.593  33.649  37.615  1.00  0.00     0.200 A 
ATOM     74  F   UNL A   1      40.065  35.316  36.821  1.00  0.00    -0.200 F 
ATOM     75  F   UNL A   1      38.169  34.469  38.588  1.00  0.00    -0.200 F 
ENDBRANCH  51  65
BRANCH  52  76
ATOM     76  C   UNL A   1      42.432  26.547  27.680  1.00  0.00     0.064 A 
ATOM     77  C   UNL A   1      43.394  27.079  26.810  1.00  0.00     0.173 A 
ATOM     78  C   UNL A   1      41.946  25.259  27.410  1.00  0.00     0.173 A 
ATOM     79  F   UNL A   1      43.871  28.314  27.016  1.00  0.00    -0.203 F 
ATOM     80  C   UNL A   1      43.846  26.353  25.711  1.00  0.00     0.198 A 
ATOM     81  C   UNL A   1      42.419  24.524  26.326  1.00  0.00     0.198 A 
ATOM     82  F   UNL A   1      41.028  24.705  28.215  1.00  0.00    -0.203 F 
ATOM     83  F   UNL A   1      44.743  26.895  24.877  1.00  0.00    -0.200 F 
ATOM     84  C   UNL A   1      43.365  25.073  25.474  1.00  0.00     0.200 A 
ATOM     85  F   UNL A   1      41.963  23.282  26.110  1.00  0.00    -0.200 F 
ATOM     86  F   UNL A   1      43.813  24.369  24.425  1.00  0.00    -0.200 F 
ENDBRANCH  52  76
BRANCH  64  87
ATOM     87  C   UNL A   1      44.712  27.183  34.248  1.00  0.00     0.064 A 
ATOM     88  C   UNL A   1      45.959  27.817  34.354  1.00  0.00     0.173 A 
ATOM     89  C   UNL A   1      44.544  25.952  34.901  1.00  0.00     0.173 A 
ATOM     90  F   UNL A   1      46.176  28.987  33.736  1.00  0.00    -0.203 F 
ATOM     91  C   UNL A   1      47.002  27.230  35.067  1.00  0.00     0.198 A 
ATOM     92  C   UNL A   1      45.578  25.384  35.639  1.00  0.00     0.198 A 
ATOM     93  F   UNL A   1      43.369  25.308  34.837  1.00  0.00    -0.203 F 
ATOM     94  F   UNL A   1      48.198  27.832  35.117  1.00  0.00    -0.200 F 
ATOM     95  C   UNL A   1      46.808  26.019  35.714  1.00  0.00     0.200 A 
ATOM     96  F   UNL A   1      45.384  24.221  36.277  1.00  0.00    -0.200 F 
ATOM     97  F   UNL A   1      47.811  25.461  36.408  1.00  0.00    -0.200 F 
ENDBRANCH  64  87
ENDBRANCH  38  39
ENDBRANCH  31  33
ENDBRANCH  30  31
ENDBRANCH  29  30
ENDBRANCH  28  29
ENDBRANCH   1  28
TORSDOF 17
ENDMDL
MODEL 2
REMARK VINA RESULT:     -12.1      1.203      2.284
REMARK SMILES Cc1ncccc1NC(=O)Nc1ccc(C(=O)OCCOCCOC(=O)c2ccc(-c3c4nc(c(-c5c(F)c(F)c(F)c(F)c5F)c5ccc([nH]5)c(-c5c(F)c(F)c(F)c(F)c5F)c5nc(c(-c6c(F)c(F)c(F)c(F)c6F)c6ccc3[nH]6)C=C5)C=C4)cc2)c(O)c1
REMARK SMILES IDX 21 1 20 2 19 3 18 4 16 5 17 6 15 7 12 8 13 9 92 10 14 11
REMARK SMILES IDX 90 12 11 13 8 14 9 15 10 17 7 19 1 20 2 21 3 22 4 23 6 24
REMARK SMILES IDX 5 25 91 26 22 28 23 29 24 30 25 31 26 32 27 33 28 34 89 35
REMARK SMILES IDX 29 36 88 37 30 38 31 39 32 40 82 41 33 42 87 43 81 44 83 45
REMARK SMILES IDX 34 46 86 47 80 48 79 49 35 51 67 52 47 53 66 54 48 55 51 56
REMARK SMILES IDX 65 57 84 58 49 59 50 60 64 62 85 63 52 64 36 65 37 66 45 67
REMARK SMILES IDX 38 68 39 69 43 70 46 71 40 72 41 73 44 74 42 75 68 76 69 77
REMARK SMILES IDX 77 78 70 79 71 80 75 81 78 82 72 83 73 84 76 85 74 86 53 87
REMARK SMILES IDX 54 88 62 89 55 90 56 91 60 92 63 93 57 94 58 95 61 96 59 97
REMARK H PARENT 8 16 11 18 91 27 83 50 51 61
REMARK Flexibility Score: inf
ROOT
ATOM      1  O   UNL A   1      31.757  28.623  26.360  1.00  0.00    -0.374 OA
ENDROOT
BRANCH   1   2
ATOM      2  C   UNL A   1      31.299  27.376  25.842  1.00  0.00     0.202 C 
BRANCH   2   3
ATOM      3  C   UNL A   1      30.894  27.424  24.366  1.00  0.00     0.261 C 
BRANCH   3   4
ATOM      4  O   UNL A   1      31.883  26.777  23.534  1.00  0.00    -0.460 OA
BRANCH   4   5
ATOM      5  C   UNL A   1      31.784  25.423  23.445  1.00  0.00     0.341 C 
ATOM      6  O   UNL A   1      30.773  24.788  23.196  1.00  0.00    -0.246 OA
BRANCH   5   7
ATOM      7  C   UNL A   1      33.120  24.791  23.598  1.00  0.00     0.101 A 
ATOM      8  C   UNL A   1      35.609  23.595  24.141  1.00  0.00     0.046 A 
ATOM      9  C   UNL A   1      35.145  24.635  24.945  1.00  0.00     0.027 A 
ATOM     10  C   UNL A   1      34.879  23.225  23.005  1.00  0.00     0.073 A 
ATOM     11  C   UNL A   1      33.914  25.239  24.666  1.00  0.00     0.022 A 
ATOM     12  C   UNL A   1      33.617  23.778  22.768  1.00  0.00     0.132 A 
BRANCH   8  13
ATOM     13  N   UNL A   1      36.750  22.835  24.452  1.00  0.00    -0.308 N 
ATOM     14  N   UNL A   1      36.073  21.225  26.088  1.00  0.00    -0.306 N 
ATOM     15  C   UNL A   1      37.016  21.977  25.466  1.00  0.00     0.323 C 
ATOM     16  H   UNL A   1      36.365  20.881  26.964  1.00  0.00     0.171 HD
ATOM     17  O   UNL A   1      38.190  21.834  25.820  1.00  0.00    -0.248 OA
ATOM     18  H   UNL A   1      37.493  22.948  23.815  1.00  0.00     0.171 HD
BRANCH  14  19
ATOM     19  C   UNL A   1      34.762  20.832  25.742  1.00  0.00     0.064 A 
ATOM     20  C   UNL A   1      33.653  22.305  27.526  1.00  0.00     0.069 C 
ATOM     21  C   UNL A   1      33.635  21.474  26.278  1.00  0.00     0.061 A 
ATOM     22  N   UNL A   1      32.383  21.300  25.769  1.00  0.00    -0.259 NA
ATOM     23  C   UNL A   1      32.227  20.417  24.768  1.00  0.00     0.111 A 
ATOM     24  C   UNL A   1      34.512  19.792  24.849  1.00  0.00     0.030 A 
ATOM     25  C   UNL A   1      33.244  19.605  24.317  1.00  0.00     0.022 A 
ENDBRANCH  14  19
ENDBRANCH   8  13
BRANCH  12  26
ATOM     26  O   UNL A   1      32.920  23.232  21.724  1.00  0.00    -0.507 OA
ATOM     27  H   UNL A   1      32.293  22.556  21.883  1.00  0.00     0.293 HD
ENDBRANCH  12  26
ENDBRANCH   5   7
ENDBRANCH   4   5
ENDBRANCH   3   4
ENDBRANCH   2   3
ENDBRANCH   1   2
BRANCH   1  28
ATOM     28  C   UNL A   1      31.721  29.725  25.451  1.00  0.00     0.202 C 
BRANCH  28  29
ATOM     29  C   UNL A   1      31.800  31.091  26.143  1.00  0.00     0.261 C 
BRANCH  29  30
ATOM     30  O   UNL A   1      32.605  30.999  27.330  1.00  0.00    -0.460 OA
BRANCH  30  31
ATOM     31  C   UNL A   1      33.410  32.065  27.539  1.00  0.00     0.338 C 
ATOM     32  O   UNL A   1      33.097  33.241  27.575  1.00  0.00    -0.246 OA
BRANCH  31  33
ATOM     33  C   UNL A   1      34.750  31.592  27.923  1.00  0.00     0.060 A 
ATOM     34  C   UNL A   1      34.885  30.223  28.180  1.00  0.00     0.016 A 
ATOM     35  C   UNL A   1      35.829  32.464  28.087  1.00  0.00     0.016 A 
ATOM     36  C   UNL A   1      36.086  29.727  28.670  1.00  0.00     0.010 A 
ATOM     37  C   UNL A   1      37.036  31.963  28.582  1.00  0.00     0.010 A 
ATOM     38  C   UNL A   1      37.155  30.601  28.914  1.00  0.00    -0.014 A 
BRANCH  38  39
ATOM     39  C   UNL A   1      38.329  30.103  29.664  1.00  0.00     0.031 A 
ATOM     40  C   UNL A   1      38.532  30.555  31.082  1.00  0.00     0.074 A 
ATOM     41  C   UNL A   1      39.176  29.226  29.100  1.00  0.00     0.049 A 
ATOM     42  N   UNL A   1      39.479  30.242  31.927  1.00  0.00    -0.248 NA
ATOM     43  C   UNL A   1      37.532  31.492  31.618  1.00  0.00     0.031 C 
ATOM     44  C   UNL A   1      39.061  28.700  27.742  1.00  0.00     0.029 A 
ATOM     45  N   UNL A   1      40.303  28.627  29.602  1.00  0.00    -0.354 N 
ATOM     46  C   UNL A   1      39.196  30.947  33.089  1.00  0.00     0.074 A 
ATOM     47  C   UNL A   1      38.006  31.729  32.831  1.00  0.00     0.031 C 
ATOM     48  C   UNL A   1      40.086  27.862  27.512  1.00  0.00     0.029 A 
ATOM     49  C   UNL A   1      40.940  27.816  28.698  1.00  0.00     0.049 A 
ATOM     50  H   UNL A   1      40.623  28.766  30.522  1.00  0.00     0.167 HD
ATOM     51  C   UNL A   1      39.864  30.935  34.267  1.00  0.00     0.037 A 
ATOM     52  C   UNL A   1      42.093  27.130  28.811  1.00  0.00     0.037 A 
ATOM     53  C   UNL A   1      41.043  30.149  34.517  1.00  0.00     0.049 A 
ATOM     54  C   UNL A   1      42.843  27.164  30.117  1.00  0.00     0.074 A 
ATOM     55  C   UNL A   1      41.772  30.030  35.687  1.00  0.00     0.029 A 
ATOM     56  N   UNL A   1      41.675  29.355  33.569  1.00  0.00    -0.354 N 
ATOM     57  N   UNL A   1      42.544  27.796  31.225  1.00  0.00    -0.248 NA
ATOM     58  C   UNL A   1      44.085  26.383  30.187  1.00  0.00     0.031 C 
ATOM     59  C   UNL A   1      42.876  29.210  35.431  1.00  0.00     0.029 A 
ATOM     60  C   UNL A   1      42.804  28.771  34.118  1.00  0.00     0.049 A 
ATOM     61  H   UNL A   1      41.365  29.226  32.644  1.00  0.00     0.167 HD
ATOM     62  C   UNL A   1      43.547  27.476  32.132  1.00  0.00     0.074 A 
ATOM     63  C   UNL A   1      44.455  26.580  31.445  1.00  0.00     0.031 C 
ATOM     64  C   UNL A   1      43.701  27.886  33.416  1.00  0.00     0.037 A 
BRANCH  51  65
ATOM     65  C   UNL A   1      39.353  31.830  35.360  1.00  0.00     0.064 A 
ATOM     66  C   UNL A   1      39.704  33.187  35.433  1.00  0.00     0.173 A 
ATOM     67  C   UNL A   1      38.491  31.323  36.343  1.00  0.00     0.173 A 
ATOM     68  F   UNL A   1      40.537  33.719  34.525  1.00  0.00    -0.203 F 
ATOM     69  C   UNL A   1      39.241  33.992  36.472  1.00  0.00     0.198 A 
ATOM     70  C   UNL A   1      38.006  32.137  37.364  1.00  0.00     0.198 A 
ATOM     71  F   UNL A   1      38.121  30.033  36.319  1.00  0.00    -0.203 F 
ATOM     72  F   UNL A   1      39.637  35.269  36.555  1.00  0.00    -0.200 F 
ATOM     73  C   UNL A   1      38.389  33.468  37.432  1.00  0.00     0.200 A 
ATOM     74  F   UNL A   1      37.175  31.631  38.284  1.00  0.00    -0.200 F 
ATOM     75  F   UNL A   1      37.945  34.243  38.432  1.00  0.00    -0.200 F 
ENDBRANCH  51  65
BRANCH  52  76
ATOM     76  C   UNL A   1      42.603  26.361  27.647  1.00  0.00     0.064 A 
ATOM     77  C   UNL A   1      43.546  26.910  26.769  1.00  0.00     0.173 A 
ATOM     78  C   UNL A   1      42.172  25.048  27.407  1.00  0.00     0.173 A 
ATOM     79  F   UNL A   1      43.971  28.169  26.945  1.00  0.00    -0.203 F 
ATOM     80  C   UNL A   1      44.034  26.177  25.690  1.00  0.00     0.198 A 
ATOM     81  C   UNL A   1      42.680  24.306  26.344  1.00  0.00     0.198 A 
ATOM     82  F   UNL A   1      41.273  24.477  28.222  1.00  0.00    -0.203 F 
ATOM     83  F   UNL A   1      44.912  26.735  24.846  1.00  0.00    -0.200 F 
ATOM     84  C   UNL A   1      43.608  24.872  25.482  1.00  0.00     0.200 A 
ATOM     85  F   UNL A   1      42.277  23.042  26.157  1.00  0.00    -0.200 F 
ATOM     86  F   UNL A   1      44.090  24.162  24.453  1.00  0.00    -0.200 F 
ENDBRANCH  52  76
BRANCH  64  87
ATOM     87  C   UNL A   1      44.885  27.353  34.170  1.00  0.00     0.064 A 
ATOM     88  C   UNL A   1      46.103  28.047  34.213  1.00  0.00     0.173 A 
ATOM     89  C   UNL A   1      44.785  26.156  34.896  1.00  0.00     0.173 A 
ATOM     90  F   UNL A   1      46.254  29.188  33.525  1.00  0.00    -0.203 F 
ATOM     91  C   UNL A   1      47.184  27.549  34.936  1.00  0.00     0.198 A 
ATOM     92  C   UNL A   1      45.857  25.678  35.642  1.00  0.00     0.198 A 
ATOM     93  F   UNL A   1      43.639  25.458  34.894  1.00  0.00    -0.203 F 
ATOM     94  F   UNL A   1      48.353  28.205  34.926  1.00  0.00    -0.200 F 
ATOM     95  C   UNL A   1      47.059  26.371  35.655  1.00  0.00     0.200 A 
ATOM     96  F   UNL A   1      45.729  24.547  36.350  1.00  0.00    -0.200 F 
ATOM     97  F   UNL A   1      48.098  25.899  36.358  1.00  0.00    -0.200 F 
ENDBRANCH  64  87
ENDBRANCH  38  39
ENDBRANCH  31  33
ENDBRANCH  30  31
ENDBRANCH  29  30
ENDBRANCH  28  29
ENDBRANCH   1  28
TORSDOF 17
ENDMDL
MODEL 3
REMARK VINA RESULT:     -11.9      1.288      7.542
REMARK SMILES Cc1ncccc1NC(=O)Nc1ccc(C(=O)OCCOCCOC(=O)c2ccc(-c3c4nc(c(-c5c(F)c(F)c(F)c(F)c5F)c5ccc([nH]5)c(-c5c(F)c(F)c(F)c(F)c5F)c5nc(c(-c6c(F)c(F)c(F)c(F)c6F)c6ccc3[nH]6)C=C5)C=C4)cc2)c(O)c1
REMARK SMILES IDX 21 1 20 2 19 3 18 4 16 5 17 6 15 7 12 8 13 9 92 10 14 11
REMARK SMILES IDX 90 12 11 13 8 14 9 15 10 17 7 19 1 20 2 21 3 22 4 23 6 24
REMARK SMILES IDX 5 25 91 26 22 28 23 29 24 30 25 31 26 32 27 33 28 34 89 35
REMARK SMILES IDX 29 36 88 37 30 38 31 39 32 40 82 41 33 42 87 43 81 44 83 45
REMARK SMILES IDX 34 46 86 47 80 48 79 49 35 51 67 52 47 53 66 54 48 55 51 56
REMARK SMILES IDX 65 57 84 58 49 59 50 60 64 62 85 63 52 64 36 65 37 66 45 67
REMARK SMILES IDX 38 68 39 69 43 70 46 71 40 72 41 73 44 74 42 75 68 76 69 77
REMARK SMILES IDX 77 78 70 79 71 80 75 81 78 82 72 83 73 84 76 85 74 86 53 87
REMARK SMILES IDX 54 88 62 89 55 90 56 91 60 92 63 93 57 94 58 95 61 96 59 97
REMARK H PARENT 8 16 11 18 91 27 83 50 51 61
REMARK Flexibility Score: inf
ROOT
ATOM      1  O   UNL A   1      32.776  29.259  24.304  1.00  0.00    -0.374 OA
ENDROOT
BRANCH   1   2
ATOM      2  C   UNL A   1      32.296  28.838  23.029  1.00  0.00     0.202 C 
BRANCH   2   3
ATOM      3  C   UNL A   1      32.837  27.479  22.576  1.00  0.00     0.261 C 
BRANCH   3   4
ATOM      4  O   UNL A   1      31.897  26.421  22.867  1.00  0.00    -0.460 OA
BRANCH   4   5
ATOM      5  C   UNL A   1      32.103  25.754  24.034  1.00  0.00     0.341 C 
ATOM      6  O   UNL A   1      31.347  25.722  24.990  1.00  0.00    -0.246 OA
BRANCH   5   7
ATOM      7  C   UNL A   1      33.358  24.961  23.968  1.00  0.00     0.101 A 
ATOM      8  C   UNL A   1      35.724  23.442  24.100  1.00  0.00     0.046 A 
ATOM      9  C   UNL A   1      35.490  24.452  25.033  1.00  0.00     0.027 A 
ATOM     10  C   UNL A   1      34.826  23.263  23.040  1.00  0.00     0.073 A 
ATOM     11  C   UNL A   1      34.320  25.216  24.959  1.00  0.00     0.022 A 
ATOM     12  C   UNL A   1      33.624  23.978  23.008  1.00  0.00     0.132 A 
BRANCH   8  13
ATOM     13  N   UNL A   1      36.789  22.531  24.205  1.00  0.00    -0.308 N 
ATOM     14  N   UNL A   1      36.086  20.833  25.739  1.00  0.00    -0.306 N 
ATOM     15  C   UNL A   1      37.047  21.541  25.093  1.00  0.00     0.323 C 
ATOM     16  H   UNL A   1      36.418  20.364  26.538  1.00  0.00     0.171 HD
ATOM     17  O   UNL A   1      38.224  21.231  25.299  1.00  0.00    -0.248 OA
ATOM     18  H   UNL A   1      37.474  22.632  23.504  1.00  0.00     0.171 HD
BRANCH  14  19
ATOM     19  C   UNL A   1      34.709  20.628  25.503  1.00  0.00     0.064 A 
ATOM     20  C   UNL A   1      33.966  22.145  27.434  1.00  0.00     0.069 C 
ATOM     21  C   UNL A   1      33.728  21.383  26.165  1.00  0.00     0.061 A 
ATOM     22  N   UNL A   1      32.424  21.396  25.769  1.00  0.00    -0.259 NA
ATOM     23  C   UNL A   1      32.066  20.589  24.755  1.00  0.00     0.111 A 
ATOM     24  C   UNL A   1      34.246  19.673  24.601  1.00  0.00     0.030 A 
ATOM     25  C   UNL A   1      32.923  19.675  24.183  1.00  0.00     0.022 A 
ENDBRANCH  14  19
ENDBRANCH   8  13
BRANCH  12  26
ATOM     26  O   UNL A   1      32.748  23.612  22.022  1.00  0.00    -0.507 OA
ATOM     27  H   UNL A   1      32.541  22.709  21.890  1.00  0.00     0.293 HD
ENDBRANCH  12  26
ENDBRANCH   5   7
ENDBRANCH   4   5
ENDBRANCH   3   4
ENDBRANCH   2   3
ENDBRANCH   1   2
BRANCH   1  28
ATOM     28  C   UNL A   1      31.789  29.383  25.330  1.00  0.00     0.202 C 
BRANCH  28  29
ATOM     29  C   UNL A   1      31.736  30.779  25.962  1.00  0.00     0.261 C 
BRANCH  29  30
ATOM     30  O   UNL A   1      32.500  30.801  27.179  1.00  0.00    -0.460 OA
BRANCH  30  31
ATOM     31  C   UNL A   1      33.262  31.907  27.337  1.00  0.00     0.338 C 
ATOM     32  O   UNL A   1      32.914  33.071  27.254  1.00  0.00    -0.246 OA
BRANCH  31  33
ATOM     33  C   UNL A   1      34.592  31.514  27.829  1.00  0.00     0.060 A 
ATOM     34  C   UNL A   1      34.769  30.164  28.152  1.00  0.00     0.016 A 
ATOM     35  C   UNL A   1      35.617  32.441  28.029  1.00  0.00     0.016 A 
ATOM     36  C   UNL A   1      35.955  29.743  28.742  1.00  0.00     0.010 A 
ATOM     37  C   UNL A   1      36.808  32.017  28.624  1.00  0.00     0.010 A 
ATOM     38  C   UNL A   1      36.964  30.676  29.020  1.00  0.00    -0.014 A 
BRANCH  38  39
ATOM     39  C   UNL A   1      38.104  30.264  29.867  1.00  0.00     0.031 A 
ATOM     40  C   UNL A   1      39.109  29.293  29.314  1.00  0.00     0.074 A 
ATOM     41  C   UNL A   1      38.264  30.783  31.097  1.00  0.00     0.049 A 
ATOM     42  N   UNL A   1      40.186  28.804  29.870  1.00  0.00    -0.248 NA
ATOM     43  C   UNL A   1      38.862  28.808  27.947  1.00  0.00     0.031 C 
ATOM     44  C   UNL A   1      37.366  31.751  31.723  1.00  0.00     0.029 A 
ATOM     45  N   UNL A   1      39.237  30.564  32.037  1.00  0.00    -0.354 N 
ATOM     46  C   UNL A   1      40.740  27.947  28.928  1.00  0.00     0.074 A 
ATOM     47  C   UNL A   1      39.864  27.959  27.776  1.00  0.00     0.031 C 
ATOM     48  C   UNL A   1      37.825  32.035  32.954  1.00  0.00     0.029 A 
ATOM     49  C   UNL A   1      39.032  31.250  33.207  1.00  0.00     0.049 A 
ATOM     50  H   UNL A   1      40.009  29.972  31.886  1.00  0.00     0.167 HD
ATOM     51  C   UNL A   1      41.881  27.222  29.015  1.00  0.00     0.037 A 
ATOM     52  C   UNL A   1      39.730  31.228  34.357  1.00  0.00     0.037 A 
ATOM     53  C   UNL A   1      42.749  27.221  30.163  1.00  0.00     0.049 A 
ATOM     54  C   UNL A   1      40.973  30.383  34.448  1.00  0.00     0.074 A 
ATOM     55  C   UNL A   1      43.951  26.558  30.337  1.00  0.00     0.029 A 
ATOM     56  N   UNL A   1      42.497  27.911  31.341  1.00  0.00    -0.354 N 
ATOM     57  N   UNL A   1      41.516  29.611  33.537  1.00  0.00    -0.248 NA
ATOM     58  C   UNL A   1      41.704  30.412  35.722  1.00  0.00     0.031 C 
ATOM     59  C   UNL A   1      44.397  26.801  31.641  1.00  0.00     0.029 A 
ATOM     60  C   UNL A   1      43.503  27.662  32.260  1.00  0.00     0.049 A 
ATOM     61  H   UNL A   1      41.719  28.491  31.500  1.00  0.00     0.167 HD
ATOM     62  C   UNL A   1      42.660  29.078  34.118  1.00  0.00     0.074 A 
ATOM     63  C   UNL A   1      42.740  29.629  35.455  1.00  0.00     0.031 C 
ATOM     64  C   UNL A   1      43.562  28.214  33.591  1.00  0.00     0.037 A 
BRANCH  51  65
ATOM     65  C   UNL A   1      42.230  26.342  27.849  1.00  0.00     0.064 A 
ATOM     66  C   UNL A   1      43.157  26.737  26.871  1.00  0.00     0.173 A 
ATOM     67  C   UNL A   1      41.633  25.081  27.713  1.00  0.00     0.173 A 
ATOM     68  F   UNL A   1      43.746  27.940  26.947  1.00  0.00    -0.203 F 
ATOM     69  C   UNL A   1      43.443  25.917  25.783  1.00  0.00     0.198 A 
ATOM     70  C   UNL A   1      41.943  24.250  26.639  1.00  0.00     0.198 A 
ATOM     71  F   UNL A   1      40.742  24.652  28.621  1.00  0.00    -0.203 F 
ATOM     72  F   UNL A   1      44.286  26.340  24.831  1.00  0.00    -0.200 F 
ATOM     73  C   UNL A   1      42.841  24.673  25.670  1.00  0.00     0.200 A 
ATOM     74  F   UNL A   1      41.369  23.045  26.538  1.00  0.00    -0.200 F 
ATOM     75  F   UNL A   1      43.116  23.885  24.622  1.00  0.00    -0.200 F 
ENDBRANCH  51  65
BRANCH  52  76
ATOM     76  C   UNL A   1      39.258  32.032  35.513  1.00  0.00     0.064 A 
ATOM     77  C   UNL A   1      38.430  31.476  36.498  1.00  0.00     0.173 A 
ATOM     78  C   UNL A   1      39.649  33.370  35.668  1.00  0.00     0.173 A 
ATOM     79  F   UNL A   1      38.013  30.207  36.382  1.00  0.00    -0.203 F 
ATOM     80  C   UNL A   1      38.006  32.230  37.589  1.00  0.00     0.198 A 
ATOM     81  C   UNL A   1      39.246  34.116  36.773  1.00  0.00     0.198 A 
ATOM     82  F   UNL A   1      40.443  33.948  34.754  1.00  0.00    -0.203 F 
ATOM     83  F   UNL A   1      37.189  31.685  38.501  1.00  0.00    -0.200 F 
ATOM     84  C   UNL A   1      38.420  33.547  37.731  1.00  0.00     0.200 A 
ATOM     85  F   UNL A   1      39.662  35.382  36.913  1.00  0.00    -0.200 F 
ATOM     86  F   UNL A   1      38.024  34.267  38.789  1.00  0.00    -0.200 F 
ENDBRANCH  52  76
BRANCH  64  87
ATOM     87  C   UNL A   1      44.726  27.824  34.455  1.00  0.00     0.064 A 
ATOM     88  C   UNL A   1      45.918  28.565  34.463  1.00  0.00     0.173 A 
ATOM     89  C   UNL A   1      44.633  26.722  35.318  1.00  0.00     0.173 A 
ATOM     90  F   UNL A   1      46.062  29.618  33.646  1.00  0.00    -0.203 F 
ATOM     91  C   UNL A   1      46.980  28.202  35.288  1.00  0.00     0.198 A 
ATOM     92  C   UNL A   1      45.685  26.381  36.163  1.00  0.00     0.198 A 
ATOM     93  F   UNL A   1      43.513  25.984  35.355  1.00  0.00    -0.203 F 
ATOM     94  F   UNL A   1      48.125  28.897  35.246  1.00  0.00    -0.200 F 
ATOM     95  C   UNL A   1      46.860  27.117  36.141  1.00  0.00     0.200 A 
ATOM     96  F   UNL A   1      45.561  25.340  36.999  1.00  0.00    -0.200 F 
ATOM     97  F   UNL A   1      47.881  26.775  36.940  1.00  0.00    -0.200 F 
ENDBRANCH  64  87
ENDBRANCH  38  39
ENDBRANCH  31  33
ENDBRANCH  30  31
ENDBRANCH  29  30
ENDBRANCH  28  29
ENDBRANCH   1  28
TORSDOF 17
ENDMDL
