MODEL 1
REMARK VINA RESULT:     -10.8      0.000      0.000
REMARK SMILES N#C[C@H]1CN(c2cc(C(=O)OCCOCCOC(=O)c3ccc(-c4c5nc(c(-c6c(F)c(F)c(F)c(F)c6F)c6ccc([nH]6)c(-c6c(F)c(F)c(F)c(F)c6F)c6nc(c(-c7c(F)c(F)c(F)c(F)c7F)c7ccc4[nH]7)C=C6)C=C5)cc3)c(N)cc2F)CCO1
REMARK SMILES IDX 14 1 13 2 12 3 11 4 9 5 10 6 8 7 6 8 7 9 86 10 85 11 87 12
REMARK SMILES IDX 83 13 5 14 3 15 4 16 90 17 89 18 88 19 2 20 1 21 84 22 15 25
REMARK SMILES IDX 16 26 17 27 18 28 19 29 20 30 21 31 82 32 22 33 81 34 23 35
REMARK SMILES IDX 24 36 25 37 75 38 26 39 80 40 74 41 76 42 27 43 79 44 73 45
REMARK SMILES IDX 72 46 28 48 60 49 40 50 59 51 41 52 44 53 58 54 77 55 42 56
REMARK SMILES IDX 43 57 57 59 78 60 45 61 29 62 30 63 38 64 31 65 32 66 36 67
REMARK SMILES IDX 39 68 33 69 34 70 37 71 35 72 61 73 62 74 70 75 63 76 64 77
REMARK SMILES IDX 68 78 71 79 65 80 66 81 69 82 67 83 46 84 47 85 55 86 48 87
REMARK SMILES IDX 49 88 53 89 56 90 50 91 51 92 54 93 52 94
REMARK H PARENT 84 23 84 24 76 47 44 58
REMARK Flexibility Score: inf
ROOT
ATOM      1  O   UNL A   1      38.954  22.217  25.785  1.00  0.00    -0.374 OA
ENDROOT
BRANCH   1   2
ATOM      2  C   UNL A   1      38.085  23.274  26.179  1.00  0.00     0.202 C 
BRANCH   2   3
ATOM      3  C   UNL A   1      36.995  23.733  25.208  1.00  0.00     0.261 C 
BRANCH   3   4
ATOM      4  O   UNL A   1      35.755  23.997  25.880  1.00  0.00    -0.460 OA
BRANCH   4   5
ATOM      5  C   UNL A   1      34.767  23.109  25.596  1.00  0.00     0.340 C 
ATOM      6  O   UNL A   1      34.912  21.913  25.389  1.00  0.00    -0.246 OA
BRANCH   5   7
ATOM      7  C   UNL A   1      33.427  23.729  25.750  1.00  0.00     0.085 A 
ATOM      8  C   UNL A   1      32.163  25.794  25.423  1.00  0.00     0.074 A 
ATOM      9  C   UNL A   1      33.319  25.041  25.242  1.00  0.00     0.047 A 
ATOM     10  C   UNL A   1      31.113  25.192  26.129  1.00  0.00     0.148 A 
ATOM     11  C   UNL A   1      31.181  23.873  26.579  1.00  0.00     0.067 A 
ATOM     12  F   UNL A   1      29.995  25.896  26.379  1.00  0.00    -0.205 F 
ATOM     13  C   UNL A   1      32.324  23.098  26.354  1.00  0.00     0.049 A 
BRANCH   8  14
ATOM     14  N   UNL A   1      32.094  27.095  24.996  1.00  0.00    -0.363 N 
ATOM     15  C   UNL A   1      30.579  28.695  23.912  1.00  0.00     0.240 C 
ATOM     16  C   UNL A   1      31.542  27.500  23.700  1.00  0.00     0.164 C 
ATOM     17  O   UNL A   1      31.227  29.761  24.651  1.00  0.00    -0.360 OA
ATOM     18  C   UNL A   1      31.663  29.298  25.942  1.00  0.00     0.183 C 
ATOM     19  C   UNL A   1      32.679  28.158  25.813  1.00  0.00     0.145 C 
BRANCH  15  20
ATOM     20  C   UNL A   1      30.106  29.197  22.611  1.00  0.00     0.096 C 
ATOM     21  N   UNL A   1      29.707  29.583  21.587  1.00  0.00    -0.195 NA
ENDBRANCH  15  20
ENDBRANCH   8  14
BRANCH  13  22
ATOM     22  N   UNL A   1      32.362  21.808  26.871  1.00  0.00    -0.398 N 
ATOM     23  H   UNL A   1      32.870  21.623  27.694  1.00  0.00     0.156 HD
ATOM     24  H   UNL A   1      31.882  21.079  26.415  1.00  0.00     0.156 HD
ENDBRANCH  13  22
ENDBRANCH   5   7
ENDBRANCH   4   5
ENDBRANCH   3   4
ENDBRANCH   2   3
ENDBRANCH   1   2
BRANCH   1  25
ATOM     25  C   UNL A   1      38.383  20.969  25.401  1.00  0.00     0.202 C 
BRANCH  25  26
ATOM     26  C   UNL A   1      39.265  19.712  25.394  1.00  0.00     0.261 C 
BRANCH  26  27
ATOM     27  O   UNL A   1      40.155  19.620  26.518  1.00  0.00    -0.460 OA
BRANCH  27  28
ATOM     28  C   UNL A   1      41.470  19.557  26.188  1.00  0.00     0.338 C 
ATOM     29  O   UNL A   1      42.039  18.684  25.557  1.00  0.00    -0.246 OA
BRANCH  28  30
ATOM     30  C   UNL A   1      42.125  20.825  26.552  1.00  0.00     0.060 A 
ATOM     31  C   UNL A   1      42.275  21.127  27.912  1.00  0.00     0.016 A 
ATOM     32  C   UNL A   1      42.526  21.731  25.571  1.00  0.00     0.016 A 
ATOM     33  C   UNL A   1      42.816  22.350  28.299  1.00  0.00     0.010 A 
ATOM     34  C   UNL A   1      43.058  22.962  25.962  1.00  0.00     0.010 A 
ATOM     35  C   UNL A   1      43.187  23.286  27.326  1.00  0.00    -0.014 A 
BRANCH  35  36
ATOM     36  C   UNL A   1      43.630  24.644  27.722  1.00  0.00     0.031 A 
ATOM     37  C   UNL A   1      42.606  25.684  28.069  1.00  0.00     0.074 A 
ATOM     38  C   UNL A   1      44.940  24.946  27.754  1.00  0.00     0.049 A 
ATOM     39  N   UNL A   1      42.770  26.951  28.353  1.00  0.00    -0.248 NA
ATOM     40  C   UNL A   1      41.206  25.235  28.087  1.00  0.00     0.031 C 
ATOM     41  C   UNL A   1      46.027  24.008  27.485  1.00  0.00     0.029 A 
ATOM     42  N   UNL A   1      45.572  26.134  28.016  1.00  0.00    -0.354 N 
ATOM     43  C   UNL A   1      41.495  27.455  28.573  1.00  0.00     0.074 A 
ATOM     44  C   UNL A   1      40.568  26.366  28.344  1.00  0.00     0.031 C 
ATOM     45  C   UNL A   1      47.197  24.658  27.597  1.00  0.00     0.029 A 
ATOM     46  C   UNL A   1      46.937  26.064  27.897  1.00  0.00     0.049 A 
ATOM     47  H   UNL A   1      45.093  26.957  28.267  1.00  0.00     0.167 HD
ATOM     48  C   UNL A   1      41.133  28.709  28.940  1.00  0.00     0.037 A 
ATOM     49  C   UNL A   1      47.867  27.033  27.995  1.00  0.00     0.037 A 
ATOM     50  C   UNL A   1      42.064  29.789  29.145  1.00  0.00     0.049 A 
ATOM     51  C   UNL A   1      47.434  28.444  28.288  1.00  0.00     0.074 A 
ATOM     52  C   UNL A   1      41.806  31.092  29.534  1.00  0.00     0.029 A 
ATOM     53  N   UNL A   1      43.437  29.696  28.956  1.00  0.00    -0.354 N 
ATOM     54  N   UNL A   1      46.232  28.912  28.525  1.00  0.00    -0.248 NA
ATOM     55  C   UNL A   1      48.491  29.464  28.324  1.00  0.00     0.031 C 
ATOM     56  C   UNL A   1      43.009  31.806  29.502  1.00  0.00     0.029 A 
ATOM     57  C   UNL A   1      44.032  30.930  29.175  1.00  0.00     0.049 A 
ATOM     58  H   UNL A   1      43.918  28.875  28.705  1.00  0.00     0.167 HD
ATOM     59  C   UNL A   1      46.390  30.270  28.772  1.00  0.00     0.074 A 
ATOM     60  C   UNL A   1      47.808  30.548  28.667  1.00  0.00     0.031 C 
ATOM     61  C   UNL A   1      45.446  31.199  29.065  1.00  0.00     0.037 A 
BRANCH  48  62
ATOM     62  C   UNL A   1      39.661  28.983  29.090  1.00  0.00     0.064 A 
ATOM     63  C   UNL A   1      38.857  29.354  27.999  1.00  0.00     0.173 A 
ATOM     64  C   UNL A   1      39.045  28.886  30.348  1.00  0.00     0.173 A 
ATOM     65  F   UNL A   1      39.393  29.468  26.774  1.00  0.00    -0.203 F 
ATOM     66  C   UNL A   1      37.514  29.678  28.173  1.00  0.00     0.198 A 
ATOM     67  C   UNL A   1      37.690  29.168  30.510  1.00  0.00     0.198 A 
ATOM     68  F   UNL A   1      39.756  28.523  31.426  1.00  0.00    -0.203 F 
ATOM     69  F   UNL A   1      36.791  30.113  27.131  1.00  0.00    -0.200 F 
ATOM     70  C   UNL A   1      36.930  29.581  29.427  1.00  0.00     0.200 A 
ATOM     71  F   UNL A   1      37.124  29.053  31.720  1.00  0.00    -0.200 F 
ATOM     72  F   UNL A   1      35.640  29.900  29.595  1.00  0.00    -0.200 F 
ENDBRANCH  48  62
BRANCH  49  73
ATOM     73  C   UNL A   1      49.304  26.693  27.827  1.00  0.00     0.064 A 
ATOM     74  C   UNL A   1      50.125  26.497  28.946  1.00  0.00     0.173 A 
ATOM     75  C   UNL A   1      49.883  26.543  26.559  1.00  0.00     0.173 A 
ATOM     76  F   UNL A   1      49.622  26.651  30.180  1.00  0.00    -0.203 F 
ATOM     77  C   UNL A   1      51.472  26.173  28.803  1.00  0.00     0.198 A 
ATOM     78  C   UNL A   1      51.223  26.190  26.417  1.00  0.00     0.198 A 
ATOM     79  F   UNL A   1      49.140  26.719  25.455  1.00  0.00    -0.203 F 
ATOM     80  F   UNL A   1      52.242  26.030  29.890  1.00  0.00    -0.200 F 
ATOM     81  C   UNL A   1      52.018  26.011  27.538  1.00  0.00     0.200 A 
ATOM     82  F   UNL A   1      51.742  26.016  25.193  1.00  0.00    -0.200 F 
ATOM     83  F   UNL A   1      53.311  25.687  27.402  1.00  0.00    -0.200 F 
ENDBRANCH  49  73
BRANCH  61  84
ATOM     84  C   UNL A   1      45.914  32.605  29.329  1.00  0.00     0.064 A 
ATOM     85  C   UNL A   1      45.980  33.569  28.312  1.00  0.00     0.173 A 
ATOM     86  C   UNL A   1      46.256  33.006  30.631  1.00  0.00     0.173 A 
ATOM     87  F   UNL A   1      45.679  33.238  27.047  1.00  0.00    -0.203 F 
ATOM     88  C   UNL A   1      46.395  34.871  28.583  1.00  0.00     0.198 A 
ATOM     89  C   UNL A   1      46.633  34.317  30.905  1.00  0.00     0.198 A 
ATOM     90  F   UNL A   1      46.207  32.127  31.644  1.00  0.00    -0.203 F 
ATOM     91  F   UNL A   1      46.501  35.759  27.585  1.00  0.00    -0.200 F 
ATOM     92  C   UNL A   1      46.711  35.247  29.880  1.00  0.00     0.200 A 
ATOM     93  F   UNL A   1      46.919  34.682  32.162  1.00  0.00    -0.200 F 
ATOM     94  F   UNL A   1      47.096  36.504  30.141  1.00  0.00    -0.200 F 
ENDBRANCH  61  84
ENDBRANCH  35  36
ENDBRANCH  28  30
ENDBRANCH  27  28
ENDBRANCH  26  27
ENDBRANCH  25  26
ENDBRANCH   1  25
TORSDOF 17
ENDMDL
MODEL 2
REMARK VINA RESULT:     -10.7      5.354     10.794
REMARK SMILES N#C[C@H]1CN(c2cc(C(=O)OCCOCCOC(=O)c3ccc(-c4c5nc(c(-c6c(F)c(F)c(F)c(F)c6F)c6ccc([nH]6)c(-c6c(F)c(F)c(F)c(F)c6F)c6nc(c(-c7c(F)c(F)c(F)c(F)c7F)c7ccc4[nH]7)C=C6)C=C5)cc3)c(N)cc2F)CCO1
REMARK SMILES IDX 14 1 13 2 12 3 11 4 9 5 10 6 8 7 6 8 7 9 86 10 85 11 87 12
REMARK SMILES IDX 83 13 5 14 3 15 4 16 90 17 89 18 88 19 2 20 1 21 84 22 15 25
REMARK SMILES IDX 16 26 17 27 18 28 19 29 20 30 21 31 82 32 22 33 81 34 23 35
REMARK SMILES IDX 24 36 25 37 75 38 26 39 80 40 74 41 76 42 27 43 79 44 73 45
REMARK SMILES IDX 72 46 28 48 60 49 40 50 59 51 41 52 44 53 58 54 77 55 42 56
REMARK SMILES IDX 43 57 57 59 78 60 45 61 29 62 30 63 38 64 31 65 32 66 36 67
REMARK SMILES IDX 39 68 33 69 34 70 37 71 35 72 61 73 62 74 70 75 63 76 64 77
REMARK SMILES IDX 68 78 71 79 65 80 66 81 69 82 67 83 46 84 47 85 55 86 48 87
REMARK SMILES IDX 49 88 53 89 56 90 50 91 51 92 54 93 52 94
REMARK H PARENT 84 23 84 24 76 47 44 58
REMARK Flexibility Score: inf
ROOT
ATOM      1  O   UNL A   1      32.370  30.721  26.997  1.00  0.00    -0.374 OA
ENDROOT
BRANCH   1   2
ATOM      2  C   UNL A   1      32.402  29.320  27.249  1.00  0.00     0.202 C 
BRANCH   2   3
ATOM      3  C   UNL A   1      33.686  28.546  26.946  1.00  0.00     0.261 C 
BRANCH   3   4
ATOM      4  O   UNL A   1      33.442  27.411  26.103  1.00  0.00    -0.460 OA
BRANCH   4   5
ATOM      5  C   UNL A   1      33.682  27.634  24.784  1.00  0.00     0.340 C 
ATOM      6  O   UNL A   1      34.145  28.657  24.300  1.00  0.00    -0.246 OA
BRANCH   5   7
ATOM      7  C   UNL A   1      33.488  26.398  23.985  1.00  0.00     0.085 A 
ATOM      8  C   UNL A   1      33.759  23.970  24.017  1.00  0.00     0.074 A 
ATOM      9  C   UNL A   1      33.776  25.198  24.671  1.00  0.00     0.047 A 
ATOM     10  C   UNL A   1      33.443  23.977  22.652  1.00  0.00     0.148 A 
ATOM     11  C   UNL A   1      33.093  25.147  21.978  1.00  0.00     0.067 A 
ATOM     12  F   UNL A   1      33.467  22.824  21.963  1.00  0.00    -0.205 F 
ATOM     13  C   UNL A   1      33.061  26.376  22.646  1.00  0.00     0.049 A 
BRANCH   8  14
ATOM     14  N   UNL A   1      34.117  22.819  24.671  1.00  0.00    -0.363 N 
ATOM     15  C   UNL A   1      33.802  20.384  24.605  1.00  0.00     0.240 C 
ATOM     16  C   UNL A   1      33.176  21.744  25.002  1.00  0.00     0.164 C 
ATOM     17  O   UNL A   1      35.123  20.229  25.184  1.00  0.00    -0.360 OA
ATOM     18  C   UNL A   1      36.002  21.279  24.740  1.00  0.00     0.183 C 
ATOM     19  C   UNL A   1      35.485  22.658  25.162  1.00  0.00     0.145 C 
BRANCH  15  20
ATOM     20  C   UNL A   1      32.928  19.281  25.040  1.00  0.00     0.096 C 
ATOM     21  N   UNL A   1      32.250  18.410  25.409  1.00  0.00    -0.195 NA
ENDBRANCH  15  20
ENDBRANCH   8  14
BRANCH  13  22
ATOM     22  N   UNL A   1      32.759  27.520  21.914  1.00  0.00    -0.398 N 
ATOM     23  H   UNL A   1      32.410  27.440  20.997  1.00  0.00     0.156 HD
ATOM     24  H   UNL A   1      32.893  28.410  22.314  1.00  0.00     0.156 HD
ENDBRANCH  13  22
ENDBRANCH   5   7
ENDBRANCH   4   5
ENDBRANCH   3   4
ENDBRANCH   2   3
ENDBRANCH   1   2
BRANCH   1  25
ATOM     25  C   UNL A   1      33.323  31.556  27.650  1.00  0.00     0.202 C 
BRANCH  25  26
ATOM     26  C   UNL A   1      33.341  33.059  27.335  1.00  0.00     0.261 C 
BRANCH  26  27
ATOM     27  O   UNL A   1      32.446  33.834  28.148  1.00  0.00    -0.460 OA
BRANCH  27  28
ATOM     28  C   UNL A   1      33.025  34.899  28.760  1.00  0.00     0.338 C 
ATOM     29  O   UNL A   1      32.605  36.040  28.825  1.00  0.00    -0.246 OA
BRANCH  28  30
ATOM     30  C   UNL A   1      34.197  34.442  29.526  1.00  0.00     0.060 A 
ATOM     31  C   UNL A   1      35.467  34.617  28.961  1.00  0.00     0.016 A 
ATOM     32  C   UNL A   1      34.044  33.794  30.751  1.00  0.00     0.016 A 
ATOM     33  C   UNL A   1      36.595  34.129  29.615  1.00  0.00     0.010 A 
ATOM     34  C   UNL A   1      35.176  33.295  31.399  1.00  0.00     0.010 A 
ATOM     35  C   UNL A   1      36.452  33.441  30.826  1.00  0.00    -0.014 A 
BRANCH  35  36
ATOM     36  C   UNL A   1      37.624  32.792  31.462  1.00  0.00     0.031 A 
ATOM     37  C   UNL A   1      38.285  31.630  30.782  1.00  0.00     0.074 A 
ATOM     38  C   UNL A   1      38.080  33.232  32.648  1.00  0.00     0.049 A 
ATOM     39  N   UNL A   1      39.261  30.864  31.202  1.00  0.00    -0.248 NA
ATOM     40  C   UNL A   1      37.769  31.278  29.452  1.00  0.00     0.031 C 
ATOM     41  C   UNL A   1      37.551  34.379  33.381  1.00  0.00     0.029 A 
ATOM     42  N   UNL A   1      39.086  32.752  33.447  1.00  0.00    -0.354 N 
ATOM     43  C   UNL A   1      39.468  29.933  30.193  1.00  0.00     0.074 A 
ATOM     44  C   UNL A   1      38.487  30.203  29.164  1.00  0.00     0.031 C 
ATOM     45  C   UNL A   1      38.240  34.517  34.526  1.00  0.00     0.029 A 
ATOM     46  C   UNL A   1      39.222  33.439  34.626  1.00  0.00     0.049 A 
ATOM     47  H   UNL A   1      39.656  31.989  33.198  1.00  0.00     0.167 HD
ATOM     48  C   UNL A   1      40.398  28.948  30.130  1.00  0.00     0.037 A 
ATOM     49  C   UNL A   1      40.031  33.209  35.677  1.00  0.00     0.037 A 
ATOM     50  C   UNL A   1      41.356  28.677  31.171  1.00  0.00     0.049 A 
ATOM     51  C   UNL A   1      40.977  32.037  35.636  1.00  0.00     0.074 A 
ATOM     52  C   UNL A   1      42.351  27.715  31.202  1.00  0.00     0.029 A 
ATOM     53  N   UNL A   1      41.425  29.358  32.380  1.00  0.00    -0.354 N 
ATOM     54  N   UNL A   1      41.192  31.177  34.671  1.00  0.00    -0.248 NA
ATOM     55  C   UNL A   1      41.791  31.805  36.837  1.00  0.00     0.031 C 
ATOM     56  C   UNL A   1      42.968  27.761  32.457  1.00  0.00     0.029 A 
ATOM     57  C   UNL A   1      42.414  28.806  33.181  1.00  0.00     0.049 A 
ATOM     58  H   UNL A   1      40.855  30.120  32.631  1.00  0.00     0.167 HD
ATOM     59  C   UNL A   1      42.187  30.324  35.131  1.00  0.00     0.074 A 
ATOM     60  C   UNL A   1      42.541  30.780  36.460  1.00  0.00     0.031 C 
ATOM     61  C   UNL A   1      42.759  29.265  34.505  1.00  0.00     0.037 A 
BRANCH  48  62
ATOM     62  C   UNL A   1      40.380  28.063  28.913  1.00  0.00     0.064 A 
ATOM     63  C   UNL A   1      39.645  26.867  28.872  1.00  0.00     0.173 A 
ATOM     64  C   UNL A   1      41.121  28.411  27.772  1.00  0.00     0.173 A 
ATOM     65  F   UNL A   1      38.923  26.481  29.935  1.00  0.00    -0.203 F 
ATOM     66  C   UNL A   1      39.703  26.025  27.764  1.00  0.00     0.198 A 
ATOM     67  C   UNL A   1      41.141  27.587  26.649  1.00  0.00     0.198 A 
ATOM     68  F   UNL A   1      41.832  29.548  27.745  1.00  0.00    -0.203 F 
ATOM     69  F   UNL A   1      39.063  24.848  27.785  1.00  0.00    -0.200 F 
ATOM     70  C   UNL A   1      40.449  26.387  26.652  1.00  0.00     0.200 A 
ATOM     71  F   UNL A   1      41.846  27.950  25.567  1.00  0.00    -0.200 F 
ATOM     72  F   UNL A   1      40.510  25.573  25.589  1.00  0.00    -0.200 F 
ENDBRANCH  48  62
BRANCH  49  73
ATOM     73  C   UNL A   1      39.991  34.118  36.851  1.00  0.00     0.064 A 
ATOM     74  C   UNL A   1      40.812  35.253  36.902  1.00  0.00     0.173 A 
ATOM     75  C   UNL A   1      39.131  33.886  37.935  1.00  0.00     0.173 A 
ATOM     76  F   UNL A   1      41.667  35.506  35.900  1.00  0.00    -0.203 F 
ATOM     77  C   UNL A   1      40.780  36.117  37.994  1.00  0.00     0.198 A 
ATOM     78  C   UNL A   1      39.078  34.766  39.013  1.00  0.00     0.198 A 
ATOM     79  F   UNL A   1      38.324  32.814  37.935  1.00  0.00    -0.203 F 
ATOM     80  F   UNL A   1      41.602  37.173  38.034  1.00  0.00    -0.200 F 
ATOM     81  C   UNL A   1      39.906  35.877  39.045  1.00  0.00     0.200 A 
ATOM     82  F   UNL A   1      38.219  34.540  40.017  1.00  0.00    -0.200 F 
ATOM     83  F   UNL A   1      39.867  36.715  40.090  1.00  0.00    -0.200 F 
ENDBRANCH  49  73
BRANCH  61  84
ATOM     84  C   UNL A   1      43.856  28.537  35.235  1.00  0.00     0.064 A 
ATOM     85  C   UNL A   1      43.588  27.479  36.117  1.00  0.00     0.173 A 
ATOM     86  C   UNL A   1      45.201  28.874  35.011  1.00  0.00     0.173 A 
ATOM     87  F   UNL A   1      42.321  27.124  36.379  1.00  0.00    -0.203 F 
ATOM     88  C   UNL A   1      44.620  26.805  36.764  1.00  0.00     0.198 A 
ATOM     89  C   UNL A   1      46.232  28.173  35.630  1.00  0.00     0.198 A 
ATOM     90  F   UNL A   1      45.518  29.875  34.174  1.00  0.00    -0.203 F 
ATOM     91  F   UNL A   1      44.337  25.833  37.642  1.00  0.00    -0.200 F 
ATOM     92  C   UNL A   1      45.941  27.145  36.513  1.00  0.00     0.200 A 
ATOM     93  F   UNL A   1      47.507  28.492  35.370  1.00  0.00    -0.200 F 
ATOM     94  F   UNL A   1      46.934  26.486  37.126  1.00  0.00    -0.200 F 
ENDBRANCH  61  84
ENDBRANCH  35  36
ENDBRANCH  28  30
ENDBRANCH  27  28
ENDBRANCH  26  27
ENDBRANCH  25  26
ENDBRANCH   1  25
TORSDOF 17
ENDMDL
MODEL 3
REMARK VINA RESULT:     -10.7      5.101     10.600
REMARK SMILES N#C[C@H]1CN(c2cc(C(=O)OCCOCCOC(=O)c3ccc(-c4c5nc(c(-c6c(F)c(F)c(F)c(F)c6F)c6ccc([nH]6)c(-c6c(F)c(F)c(F)c(F)c6F)c6nc(c(-c7c(F)c(F)c(F)c(F)c7F)c7ccc4[nH]7)C=C6)C=C5)cc3)c(N)cc2F)CCO1
REMARK SMILES IDX 14 1 13 2 12 3 11 4 9 5 10 6 8 7 6 8 7 9 86 10 85 11 87 12
REMARK SMILES IDX 83 13 5 14 3 15 4 16 90 17 89 18 88 19 2 20 1 21 84 22 15 25
REMARK SMILES IDX 16 26 17 27 18 28 19 29 20 30 21 31 82 32 22 33 81 34 23 35
REMARK SMILES IDX 24 36 25 37 75 38 26 39 80 40 74 41 76 42 27 43 79 44 73 45
REMARK SMILES IDX 72 46 28 48 60 49 40 50 59 51 41 52 44 53 58 54 77 55 42 56
REMARK SMILES IDX 43 57 57 59 78 60 45 61 29 62 30 63 38 64 31 65 32 66 36 67
REMARK SMILES IDX 39 68 33 69 34 70 37 71 35 72 61 73 62 74 70 75 63 76 64 77
REMARK SMILES IDX 68 78 71 79 65 80 66 81 69 82 67 83 46 84 47 85 55 86 48 87
REMARK SMILES IDX 49 88 53 89 56 90 50 91 51 92 54 93 52 94
REMARK H PARENT 84 23 84 24 76 47 44 58
REMARK Flexibility Score: inf
ROOT
ATOM      1  O   UNL A   1      33.126  30.532  27.156  1.00  0.00    -0.374 OA
ENDROOT
BRANCH   1   2
ATOM      2  C   UNL A   1      33.128  29.112  27.259  1.00  0.00     0.202 C 
BRANCH   2   3
ATOM      3  C   UNL A   1      31.796  28.365  27.172  1.00  0.00     0.261 C 
BRANCH   3   4
ATOM      4  O   UNL A   1      31.868  27.241  26.283  1.00  0.00    -0.460 OA
BRANCH   4   5
ATOM      5  C   UNL A   1      31.465  27.508  25.013  1.00  0.00     0.340 C 
ATOM      6  O   UNL A   1      30.984  28.560  24.617  1.00  0.00    -0.246 OA
BRANCH   5   7
ATOM      7  C   UNL A   1      31.853  26.416  24.085  1.00  0.00     0.085 A 
ATOM      8  C   UNL A   1      32.829  24.180  23.975  1.00  0.00     0.074 A 
ATOM      9  C   UNL A   1      32.316  25.241  24.714  1.00  0.00     0.047 A 
ATOM     10  C   UNL A   1      32.864  24.328  22.582  1.00  0.00     0.148 A 
ATOM     11  C   UNL A   1      32.349  25.457  21.944  1.00  0.00     0.067 A 
ATOM     12  F   UNL A   1      33.401  23.355  21.826  1.00  0.00    -0.205 F 
ATOM     13  C   UNL A   1      31.788  26.504  22.682  1.00  0.00     0.049 A 
BRANCH   8  14
ATOM     14  N   UNL A   1      33.349  23.073  24.597  1.00  0.00    -0.363 N 
ATOM     15  C   UNL A   1      33.399  20.622  24.454  1.00  0.00     0.240 C 
ATOM     16  C   UNL A   1      32.576  21.862  24.886  1.00  0.00     0.164 C 
ATOM     17  O   UNL A   1      34.725  20.646  25.042  1.00  0.00    -0.360 OA
ATOM     18  C   UNL A   1      35.442  21.828  24.638  1.00  0.00     0.183 C 
ATOM     19  C   UNL A   1      34.724  23.101  25.096  1.00  0.00     0.145 C 
BRANCH  15  20
ATOM     20  C   UNL A   1      32.696  19.389  24.847  1.00  0.00     0.096 C 
ATOM     21  N   UNL A   1      32.153  18.415  25.182  1.00  0.00    -0.195 NA
ENDBRANCH  15  20
ENDBRANCH   8  14
BRANCH  13  22
ATOM     22  N   UNL A   1      31.339  27.631  22.001  1.00  0.00    -0.398 N 
ATOM     23  H   UNL A   1      31.275  28.495  22.468  1.00  0.00     0.156 HD
ATOM     24  H   UNL A   1      31.088  27.565  21.051  1.00  0.00     0.156 HD
ENDBRANCH  13  22
ENDBRANCH   5   7
ENDBRANCH   4   5
ENDBRANCH   3   4
ENDBRANCH   2   3
ENDBRANCH   1   2
BRANCH   1  25
ATOM     25  C   UNL A   1      31.914  31.191  26.797  1.00  0.00     0.202 C 
BRANCH  25  26
ATOM     26  C   UNL A   1      31.792  32.705  27.018  1.00  0.00     0.261 C 
BRANCH  26  27
ATOM     27  O   UNL A   1      33.053  33.391  27.061  1.00  0.00    -0.460 OA
BRANCH  27  28
ATOM     28  C   UNL A   1      33.197  34.232  28.117  1.00  0.00     0.338 C 
ATOM     29  O   UNL A   1      32.463  35.146  28.447  1.00  0.00    -0.246 OA
BRANCH  28  30
ATOM     30  C   UNL A   1      34.313  33.769  28.959  1.00  0.00     0.060 A 
ATOM     31  C   UNL A   1      35.593  34.278  28.702  1.00  0.00     0.016 A 
ATOM     32  C   UNL A   1      34.114  32.802  29.943  1.00  0.00     0.016 A 
ATOM     33  C   UNL A   1      36.688  33.808  29.422  1.00  0.00     0.010 A 
ATOM     34  C   UNL A   1      35.216  32.324  30.656  1.00  0.00     0.010 A 
ATOM     35  C   UNL A   1      36.509  32.809  30.386  1.00  0.00    -0.014 A 
BRANCH  35  36
ATOM     36  C   UNL A   1      37.680  32.197  31.059  1.00  0.00     0.031 A 
ATOM     37  C   UNL A   1      38.455  31.120  30.360  1.00  0.00     0.074 A 
ATOM     38  C   UNL A   1      38.036  32.595  32.293  1.00  0.00     0.049 A 
ATOM     39  N   UNL A   1      39.452  30.393  30.799  1.00  0.00    -0.248 NA
ATOM     40  C   UNL A   1      38.043  30.814  28.982  1.00  0.00     0.031 C 
ATOM     41  C   UNL A   1      37.390  33.663  33.052  1.00  0.00     0.029 A 
ATOM     42  N   UNL A   1      39.021  32.133  33.126  1.00  0.00    -0.354 N 
ATOM     43  C   UNL A   1      39.779  29.536  29.756  1.00  0.00     0.074 A 
ATOM     44  C   UNL A   1      38.845  29.804  28.683  1.00  0.00     0.031 C 
ATOM     45  C   UNL A   1      37.999  33.777  34.243  1.00  0.00     0.029 A 
ATOM     46  C   UNL A   1      39.042  32.758  34.347  1.00  0.00     0.049 A 
ATOM     47  H   UNL A   1      39.654  31.422  32.873  1.00  0.00     0.167 HD
ATOM     48  C   UNL A   1      40.773  28.615  29.699  1.00  0.00     0.037 A 
ATOM     49  C   UNL A   1      39.800  32.517  35.433  1.00  0.00     0.037 A 
ATOM     50  C   UNL A   1      41.683  28.344  30.783  1.00  0.00     0.049 A 
ATOM     51  C   UNL A   1      40.821  31.411  35.389  1.00  0.00     0.074 A 
ATOM     52  C   UNL A   1      42.735  27.445  30.824  1.00  0.00     0.029 A 
ATOM     53  N   UNL A   1      41.635  28.957  32.028  1.00  0.00    -0.354 N 
ATOM     54  N   UNL A   1      41.149  30.623  34.394  1.00  0.00    -0.248 NA
ATOM     55  C   UNL A   1      41.575  31.160  36.625  1.00  0.00     0.031 C 
ATOM     56  C   UNL A   1      43.272  27.457  32.116  1.00  0.00     0.029 A 
ATOM     57  C   UNL A   1      42.609  28.422  32.858  1.00  0.00     0.049 A 
ATOM     58  H   UNL A   1      41.004  29.667  32.283  1.00  0.00     0.167 HD
ATOM     59  C   UNL A   1      42.168  29.808  34.870  1.00  0.00     0.074 A 
ATOM     60  C   UNL A   1      42.412  30.206  36.241  1.00  0.00     0.031 C 
ATOM     61  C   UNL A   1      42.843  28.823  34.225  1.00  0.00     0.037 A 
BRANCH  48  62
ATOM     62  C   UNL A   1      40.885  27.803  28.437  1.00  0.00     0.064 A 
ATOM     63  C   UNL A   1      40.210  26.582  28.274  1.00  0.00     0.173 A 
ATOM     64  C   UNL A   1      41.692  28.247  27.377  1.00  0.00     0.173 A 
ATOM     65  F   UNL A   1      39.430  26.106  29.256  1.00  0.00    -0.203 F 
ATOM     66  C   UNL A   1      40.389  25.809  27.130  1.00  0.00     0.198 A 
ATOM     67  C   UNL A   1      41.833  27.491  26.215  1.00  0.00     0.198 A 
ATOM     68  F   UNL A   1      42.351  29.412  27.467  1.00  0.00    -0.203 F 
ATOM     69  F   UNL A   1      39.802  24.608  27.036  1.00  0.00    -0.200 F 
ATOM     70  C   UNL A   1      41.197  26.266  26.099  1.00  0.00     0.200 A 
ATOM     71  F   UNL A   1      42.598  27.946  25.212  1.00  0.00    -0.200 F 
ATOM     72  F   UNL A   1      41.373  25.518  25.001  1.00  0.00    -0.200 F 
ENDBRANCH  48  62
BRANCH  49  73
ATOM     73  C   UNL A   1      39.631  33.353  36.650  1.00  0.00     0.064 A 
ATOM     74  C   UNL A   1      38.692  33.003  37.630  1.00  0.00     0.173 A 
ATOM     75  C   UNL A   1      40.405  34.502  36.869  1.00  0.00     0.173 A 
ATOM     76  F   UNL A   1      37.913  31.925  37.455  1.00  0.00    -0.203 F 
ATOM     77  C   UNL A   1      38.526  33.774  38.778  1.00  0.00     0.198 A 
ATOM     78  C   UNL A   1      40.260  35.256  38.032  1.00  0.00     0.198 A 
ATOM     79  F   UNL A   1      41.319  34.880  35.963  1.00  0.00    -0.203 F 
ATOM     80  F   UNL A   1      37.595  33.438  39.679  1.00  0.00    -0.200 F 
ATOM     81  C   UNL A   1      39.318  34.896  38.982  1.00  0.00     0.200 A 
ATOM     82  F   UNL A   1      41.039  36.328  38.233  1.00  0.00    -0.200 F 
ATOM     83  F   UNL A   1      39.167  35.631  40.092  1.00  0.00    -0.200 F 
ENDBRANCH  49  73
BRANCH  61  84
ATOM     84  C   UNL A   1      43.940  28.124  34.983  1.00  0.00     0.064 A 
ATOM     85  C   UNL A   1      43.715  26.929  35.682  1.00  0.00     0.173 A 
ATOM     86  C   UNL A   1      45.249  28.634  34.967  1.00  0.00     0.173 A 
ATOM     87  F   UNL A   1      42.482  26.404  35.743  1.00  0.00    -0.203 F 
ATOM     88  C   UNL A   1      44.750  26.286  36.357  1.00  0.00     0.198 A 
ATOM     89  C   UNL A   1      46.289  27.969  35.610  1.00  0.00     0.198 A 
ATOM     90  F   UNL A   1      45.524  29.771  34.309  1.00  0.00    -0.203 F 
ATOM     91  F   UNL A   1      44.500  25.175  37.063  1.00  0.00    -0.200 F 
ATOM     92  C   UNL A   1      46.038  26.801  36.313  1.00  0.00     0.200 A 
ATOM     93  F   UNL A   1      47.535  28.459  35.549  1.00  0.00    -0.200 F 
ATOM     94  F   UNL A   1      47.035  26.174  36.951  1.00  0.00    -0.200 F 
ENDBRANCH  61  84
ENDBRANCH  35  36
ENDBRANCH  28  30
ENDBRANCH  27  28
ENDBRANCH  26  27
ENDBRANCH  25  26
ENDBRANCH   1  25
TORSDOF 17
ENDMDL
