MODEL 1
REMARK VINA RESULT:     -10.6      0.000      0.000
REMARK SMILES CC(=O)c1cc2c(cc1NC(=O)/C=C/C(=O)OCCOCCOC(=O)c1ccc(-c3c4nc(c(-c5c(F)c(F)c(F)c(F)c5F)c5ccc([nH]5)c(-c5c(F)c(F)c(F)c(F)c5F)c5nc(c(-c6c(F)c(F)c(F)c(F)c6F)c6ccc3[nH]6)C=C5)C=C4)cc1)OCO2
REMARK SMILES IDX 19 1 18 2 17 3 15 4 16 5 14 6 13 7 11 8 10 9 12 11 9 12 4 13
REMARK SMILES IDX 5 14 6 15 8 16 7 17 91 18 89 19 90 20 2 21 1 22 3 23 20 24
REMARK SMILES IDX 21 25 22 26 23 27 24 28 25 29 26 30 27 31 88 32 28 33 87 34
REMARK SMILES IDX 29 35 30 36 31 37 81 38 32 39 86 40 80 41 82 42 33 43 85 44
REMARK SMILES IDX 79 45 78 46 34 48 66 49 46 50 65 51 47 52 50 53 64 54 83 55
REMARK SMILES IDX 48 56 49 57 63 59 84 60 51 61 35 62 36 63 44 64 37 65 38 66
REMARK SMILES IDX 42 67 45 68 39 69 40 70 43 71 41 72 67 73 68 74 76 75 69 76
REMARK SMILES IDX 70 77 74 78 77 79 71 80 72 81 75 82 73 83 52 84 53 85 61 86
REMARK SMILES IDX 54 87 55 88 59 89 62 90 56 91 57 92 60 93 58 94
REMARK H PARENT 10 10 82 47 50 58
REMARK Flexibility Score: inf
ROOT
ATOM      1  C   UNL A   1      33.801  36.586  28.709  1.00  0.00     0.202 C 
ENDROOT
BRANCH   1   2
ATOM      2  C   UNL A   1      32.879  36.392  29.917  1.00  0.00     0.261 C 
BRANCH   2   3
ATOM      3  O   UNL A   1      32.940  37.516  30.818  1.00  0.00    -0.460 OA
BRANCH   3   4
ATOM      4  C   UNL A   1      33.451  37.237  32.042  1.00  0.00     0.331 C 
ATOM      5  O   UNL A   1      33.753  38.053  32.899  1.00  0.00    -0.247 OA
BRANCH   4   6
ATOM      6  C   UNL A   1      33.526  35.788  32.311  1.00  0.00     0.099 C 
ATOM      7  C   UNL A   1      34.281  35.207  33.256  1.00  0.00     0.079 C 
BRANCH   7   8
ATOM      8  C   UNL A   1      34.354  33.730  33.345  1.00  0.00     0.248 C 
ATOM      9  N   UNL A   1      35.558  33.085  33.479  1.00  0.00    -0.322 N 
ATOM     10  H   UNL A   1      35.496  32.110  33.366  1.00  0.00     0.170 HD
ATOM     11  O   UNL A   1      33.305  33.093  33.277  1.00  0.00    -0.270 OA
BRANCH   9  12
ATOM     12  C   UNL A   1      36.872  33.543  33.749  1.00  0.00     0.056 A 
ATOM     13  C   UNL A   1      37.785  33.784  32.683  1.00  0.00     0.045 A 
ATOM     14  C   UNL A   1      39.011  34.438  32.919  1.00  0.00     0.064 A 
ATOM     15  C   UNL A   1      39.317  34.786  34.214  1.00  0.00     0.166 A 
ATOM     16  C   UNL A   1      37.311  33.773  35.053  1.00  0.00     0.077 A 
ATOM     17  C   UNL A   1      38.502  34.433  35.254  1.00  0.00     0.167 A 
ATOM     18  O   UNL A   1      40.415  35.468  34.630  1.00  0.00    -0.454 OA
ATOM     19  O   UNL A   1      38.991  34.828  36.457  1.00  0.00    -0.454 OA
ATOM     20  C   UNL A   1      40.140  35.593  36.044  1.00  0.00     0.468 C 
BRANCH  13  21
ATOM     21  C   UNL A   1      37.473  33.326  31.301  1.00  0.00     0.162 C 
ATOM     22  C   UNL A   1      38.099  34.072  30.149  1.00  0.00     0.093 C 
ATOM     23  O   UNL A   1      36.806  32.309  31.130  1.00  0.00    -0.294 OA
ENDBRANCH  13  21
ENDBRANCH   9  12
ENDBRANCH   7   8
ENDBRANCH   4   6
ENDBRANCH   3   4
ENDBRANCH   2   3
ENDBRANCH   1   2
BRANCH   1  24
ATOM     24  O   UNL A   1      34.436  35.415  28.196  1.00  0.00    -0.374 OA
BRANCH  24  25
ATOM     25  C   UNL A   1      33.641  34.235  28.118  1.00  0.00     0.202 C 
BRANCH  25  26
ATOM     26  C   UNL A   1      34.147  33.002  28.875  1.00  0.00     0.261 C 
BRANCH  26  27
ATOM     27  O   UNL A   1      35.105  32.252  28.114  1.00  0.00    -0.460 OA
BRANCH  27  28
ATOM     28  C   UNL A   1      34.892  30.918  28.103  1.00  0.00     0.338 C 
ATOM     29  O   UNL A   1      33.851  30.327  27.835  1.00  0.00    -0.246 OA
BRANCH  28  30
ATOM     30  C   UNL A   1      36.170  30.216  28.288  1.00  0.00     0.060 A 
ATOM     31  C   UNL A   1      36.391  29.582  29.518  1.00  0.00     0.016 A 
ATOM     32  C   UNL A   1      37.155  30.222  27.298  1.00  0.00     0.016 A 
ATOM     33  C   UNL A   1      37.618  28.984  29.780  1.00  0.00     0.010 A 
ATOM     34  C   UNL A   1      38.392  29.634  27.569  1.00  0.00     0.010 A 
ATOM     35  C   UNL A   1      38.638  29.042  28.822  1.00  0.00    -0.014 A 
BRANCH  35  36
ATOM     36  C   UNL A   1      40.011  28.628  29.190  1.00  0.00     0.031 A 
ATOM     37  C   UNL A   1      40.840  29.554  30.034  1.00  0.00     0.074 A 
ATOM     38  C   UNL A   1      40.500  27.441  28.795  1.00  0.00     0.049 A 
ATOM     39  N   UNL A   1      42.084  29.439  30.419  1.00  0.00    -0.248 NA
ATOM     40  C   UNL A   1      40.173  30.778  30.508  1.00  0.00     0.031 C 
ATOM     41  C   UNL A   1      39.771  26.446  28.009  1.00  0.00     0.029 A 
ATOM     42  N   UNL A   1      41.736  26.878  28.990  1.00  0.00    -0.354 N 
ATOM     43  C   UNL A   1      42.349  30.570  31.177  1.00  0.00     0.074 A 
ATOM     44  C   UNL A   1      41.149  31.378  31.174  1.00  0.00     0.031 C 
ATOM     45  C   UNL A   1      40.584  25.403  27.768  1.00  0.00     0.029 A 
ATOM     46  C   UNL A   1      41.895  25.671  28.354  1.00  0.00     0.049 A 
ATOM     47  H   UNL A   1      42.440  27.298  29.535  1.00  0.00     0.167 HD
ATOM     48  C   UNL A   1      43.489  30.899  31.829  1.00  0.00     0.037 A 
ATOM     49  C   UNL A   1      42.989  24.893  28.236  1.00  0.00     0.037 A 
ATOM     50  C   UNL A   1      44.683  30.097  31.820  1.00  0.00     0.049 A 
ATOM     51  C   UNL A   1      44.269  25.319  28.909  1.00  0.00     0.074 A 
ATOM     52  C   UNL A   1      45.897  30.346  32.435  1.00  0.00     0.029 A 
ATOM     53  N   UNL A   1      44.811  28.884  31.159  1.00  0.00    -0.354 N 
ATOM     54  N   UNL A   1      44.510  26.385  29.633  1.00  0.00    -0.248 NA
ATOM     55  C   UNL A   1      45.428  24.429  28.753  1.00  0.00     0.031 C 
ATOM     56  C   UNL A   1      46.772  29.304  32.112  1.00  0.00     0.029 A 
ATOM     57  C   UNL A   1      46.087  28.380  31.339  1.00  0.00     0.049 A 
ATOM     58  H   UNL A   1      44.098  28.447  30.638  1.00  0.00     0.167 HD
ATOM     59  C   UNL A   1      45.832  26.279  30.043  1.00  0.00     0.074 A 
ATOM     60  C   UNL A   1      46.340  25.037  29.498  1.00  0.00     0.031 C 
ATOM     61  C   UNL A   1      46.564  27.131  30.803  1.00  0.00     0.037 A 
BRANCH  48  62
ATOM     62  C   UNL A   1      43.505  32.190  32.592  1.00  0.00     0.064 A 
ATOM     63  C   UNL A   1      43.173  32.240  33.954  1.00  0.00     0.173 A 
ATOM     64  C   UNL A   1      43.896  33.384  31.968  1.00  0.00     0.173 A 
ATOM     65  F   UNL A   1      42.776  31.128  34.594  1.00  0.00    -0.203 F 
ATOM     66  C   UNL A   1      43.215  33.440  34.658  1.00  0.00     0.198 A 
ATOM     67  C   UNL A   1      43.963  34.577  32.681  1.00  0.00     0.198 A 
ATOM     68  F   UNL A   1      44.224  33.390  30.667  1.00  0.00    -0.203 F 
ATOM     69  F   UNL A   1      42.857  33.471  35.950  1.00  0.00    -0.200 F 
ATOM     70  C   UNL A   1      43.619  34.605  34.024  1.00  0.00     0.200 A 
ATOM     71  F   UNL A   1      44.363  35.700  32.069  1.00  0.00    -0.200 F 
ATOM     72  F   UNL A   1      43.669  35.757  34.706  1.00  0.00    -0.200 F 
ENDBRANCH  48  62
BRANCH  49  73
ATOM     73  C   UNL A   1      42.934  23.648  27.427  1.00  0.00     0.064 A 
ATOM     74  C   UNL A   1      42.466  22.446  27.974  1.00  0.00     0.173 A 
ATOM     75  C   UNL A   1      43.382  23.627  26.097  1.00  0.00     0.173 A 
ATOM     76  F   UNL A   1      42.050  22.408  29.249  1.00  0.00    -0.203 F 
ATOM     77  C   UNL A   1      42.475  21.265  27.234  1.00  0.00     0.198 A 
ATOM     78  C   UNL A   1      43.362  22.453  25.347  1.00  0.00     0.198 A 
ATOM     79  F   UNL A   1      43.840  24.750  25.526  1.00  0.00    -0.203 F 
ATOM     80  F   UNL A   1      42.077  20.118  27.801  1.00  0.00    -0.200 F 
ATOM     81  C   UNL A   1      42.919  21.271  25.920  1.00  0.00     0.200 A 
ATOM     82  F   UNL A   1      43.782  22.466  24.075  1.00  0.00    -0.200 F 
ATOM     83  F   UNL A   1      42.932  20.135  25.209  1.00  0.00    -0.200 F 
ENDBRANCH  49  73
BRANCH  61  84
ATOM     84  C   UNL A   1      47.972  26.729  31.132  1.00  0.00     0.064 A 
ATOM     85  C   UNL A   1      49.060  27.145  30.351  1.00  0.00     0.173 A 
ATOM     86  C   UNL A   1      48.238  25.959  32.275  1.00  0.00     0.173 A 
ATOM     87  F   UNL A   1      48.856  27.870  29.242  1.00  0.00    -0.203 F 
ATOM     88  C   UNL A   1      50.361  26.783  30.689  1.00  0.00     0.198 A 
ATOM     89  C   UNL A   1      49.542  25.625  32.627  1.00  0.00     0.198 A 
ATOM     90  F   UNL A   1      47.232  25.544  33.060  1.00  0.00    -0.203 F 
ATOM     91  F   UNL A   1      51.382  27.154  29.904  1.00  0.00    -0.200 F 
ATOM     92  C   UNL A   1      50.602  26.031  31.830  1.00  0.00     0.200 A 
ATOM     93  F   UNL A   1      49.774  24.912  33.736  1.00  0.00    -0.200 F 
ATOM     94  F   UNL A   1      51.856  25.693  32.159  1.00  0.00    -0.200 F 
ENDBRANCH  61  84
ENDBRANCH  35  36
ENDBRANCH  28  30
ENDBRANCH  27  28
ENDBRANCH  26  27
ENDBRANCH  25  26
ENDBRANCH  24  25
ENDBRANCH   1  24
TORSDOF 17
ENDMDL
MODEL 2
REMARK VINA RESULT:     -10.4      0.515      2.058
REMARK SMILES CC(=O)c1cc2c(cc1NC(=O)/C=C/C(=O)OCCOCCOC(=O)c1ccc(-c3c4nc(c(-c5c(F)c(F)c(F)c(F)c5F)c5ccc([nH]5)c(-c5c(F)c(F)c(F)c(F)c5F)c5nc(c(-c6c(F)c(F)c(F)c(F)c6F)c6ccc3[nH]6)C=C5)C=C4)cc1)OCO2
REMARK SMILES IDX 19 1 18 2 17 3 15 4 16 5 14 6 13 7 11 8 10 9 12 11 9 12 4 13
REMARK SMILES IDX 5 14 6 15 8 16 7 17 91 18 89 19 90 20 2 21 1 22 3 23 20 24
REMARK SMILES IDX 21 25 22 26 23 27 24 28 25 29 26 30 27 31 88 32 28 33 87 34
REMARK SMILES IDX 29 35 30 36 31 37 81 38 32 39 86 40 80 41 82 42 33 43 85 44
REMARK SMILES IDX 79 45 78 46 34 48 66 49 46 50 65 51 47 52 50 53 64 54 83 55
REMARK SMILES IDX 48 56 49 57 63 59 84 60 51 61 35 62 36 63 44 64 37 65 38 66
REMARK SMILES IDX 42 67 45 68 39 69 40 70 43 71 41 72 67 73 68 74 76 75 69 76
REMARK SMILES IDX 70 77 74 78 77 79 71 80 72 81 75 82 73 83 52 84 53 85 61 86
REMARK SMILES IDX 54 87 55 88 59 89 62 90 56 91 57 92 60 93 58 94
REMARK H PARENT 10 10 82 47 50 58
REMARK Flexibility Score: inf
ROOT
ATOM      1  C   UNL A   1      34.047  35.813  28.360  1.00  0.00     0.202 C 
ENDROOT
BRANCH   1   2
ATOM      2  C   UNL A   1      33.049  35.814  29.523  1.00  0.00     0.261 C 
BRANCH   2   3
ATOM      3  O   UNL A   1      33.038  37.081  30.213  1.00  0.00    -0.460 OA
BRANCH   3   4
ATOM      4  C   UNL A   1      33.229  37.000  31.552  1.00  0.00     0.331 C 
ATOM      5  O   UNL A   1      33.279  37.940  32.331  1.00  0.00    -0.247 OA
BRANCH   4   6
ATOM      6  C   UNL A   1      33.275  35.606  32.038  1.00  0.00     0.099 C 
ATOM      7  C   UNL A   1      34.155  35.118  32.926  1.00  0.00     0.079 C 
BRANCH   7   8
ATOM      8  C   UNL A   1      34.166  33.670  33.241  1.00  0.00     0.248 C 
ATOM      9  N   UNL A   1      35.341  33.005  33.486  1.00  0.00    -0.322 N 
ATOM     10  H   UNL A   1      35.240  32.028  33.522  1.00  0.00     0.170 HD
ATOM     11  O   UNL A   1      33.092  33.073  33.259  1.00  0.00    -0.270 OA
BRANCH   9  12
ATOM     12  C   UNL A   1      36.672  33.447  33.697  1.00  0.00     0.056 A 
ATOM     13  C   UNL A   1      37.549  33.647  32.594  1.00  0.00     0.045 A 
ATOM     14  C   UNL A   1      38.793  34.285  32.770  1.00  0.00     0.064 A 
ATOM     15  C   UNL A   1      39.152  34.656  34.045  1.00  0.00     0.166 A 
ATOM     16  C   UNL A   1      37.162  33.698  34.979  1.00  0.00     0.077 A 
ATOM     17  C   UNL A   1      38.371  34.341  35.122  1.00  0.00     0.167 A 
ATOM     18  O   UNL A   1      40.276  35.328  34.404  1.00  0.00    -0.454 OA
ATOM     19  O   UNL A   1      38.910  34.754  36.296  1.00  0.00    -0.454 OA
ATOM     20  C   UNL A   1      40.055  35.490  35.824  1.00  0.00     0.468 C 
BRANCH  13  21
ATOM     21  C   UNL A   1      37.179  33.163  31.235  1.00  0.00     0.162 C 
ATOM     22  C   UNL A   1      37.743  33.898  30.044  1.00  0.00     0.093 C 
ATOM     23  O   UNL A   1      36.516  32.137  31.111  1.00  0.00    -0.294 OA
ENDBRANCH  13  21
ENDBRANCH   9  12
ENDBRANCH   7   8
ENDBRANCH   4   6
ENDBRANCH   3   4
ENDBRANCH   2   3
ENDBRANCH   1   2
BRANCH   1  24
ATOM     24  O   UNL A   1      34.216  34.578  27.666  1.00  0.00    -0.374 OA
BRANCH  24  25
ATOM     25  C   UNL A   1      33.394  33.490  28.080  1.00  0.00     0.202 C 
BRANCH  25  26
ATOM     26  C   UNL A   1      34.105  32.211  28.535  1.00  0.00     0.261 C 
BRANCH  26  27
ATOM     27  O   UNL A   1      34.525  31.400  27.428  1.00  0.00    -0.460 OA
BRANCH  27  28
ATOM     28  C   UNL A   1      34.717  30.097  27.728  1.00  0.00     0.338 C 
ATOM     29  O   UNL A   1      33.989  29.148  27.453  1.00  0.00    -0.246 OA
BRANCH  28  30
ATOM     30  C   UNL A   1      36.059  29.918  28.301  1.00  0.00     0.060 A 
ATOM     31  C   UNL A   1      37.156  30.309  27.521  1.00  0.00     0.016 A 
ATOM     32  C   UNL A   1      36.244  29.329  29.553  1.00  0.00     0.016 A 
ATOM     33  C   UNL A   1      38.449  30.076  27.976  1.00  0.00     0.010 A 
ATOM     34  C   UNL A   1      37.543  29.082  30.001  1.00  0.00     0.010 A 
ATOM     35  C   UNL A   1      38.648  29.425  29.200  1.00  0.00    -0.014 A 
BRANCH  35  36
ATOM     36  C   UNL A   1      40.004  28.958  29.567  1.00  0.00     0.031 A 
ATOM     37  C   UNL A   1      40.856  29.837  30.438  1.00  0.00     0.074 A 
ATOM     38  C   UNL A   1      40.457  27.765  29.148  1.00  0.00     0.049 A 
ATOM     39  N   UNL A   1      42.093  29.674  30.828  1.00  0.00    -0.248 NA
ATOM     40  C   UNL A   1      40.226  31.071  30.936  1.00  0.00     0.031 C 
ATOM     41  C   UNL A   1      39.702  26.813  28.335  1.00  0.00     0.029 A 
ATOM     42  N   UNL A   1      41.673  27.158  29.338  1.00  0.00    -0.354 N 
ATOM     43  C   UNL A   1      42.389  30.778  31.614  1.00  0.00     0.074 A 
ATOM     44  C   UNL A   1      41.215  31.624  31.622  1.00  0.00     0.031 C 
ATOM     45  C   UNL A   1      40.483  25.750  28.075  1.00  0.00     0.029 A 
ATOM     46  C   UNL A   1      41.798  25.963  28.676  1.00  0.00     0.049 A 
ATOM     47  H   UNL A   1      42.386  27.543  29.897  1.00  0.00     0.167 HD
ATOM     48  C   UNL A   1      43.535  31.055  32.280  1.00  0.00     0.037 A 
ATOM     49  C   UNL A   1      42.867  25.153  28.546  1.00  0.00     0.037 A 
ATOM     50  C   UNL A   1      44.702  30.215  32.260  1.00  0.00     0.049 A 
ATOM     51  C   UNL A   1      44.155  25.521  29.237  1.00  0.00     0.074 A 
ATOM     52  C   UNL A   1      45.919  30.411  32.888  1.00  0.00     0.029 A 
ATOM     53  N   UNL A   1      44.795  29.015  31.572  1.00  0.00    -0.354 N 
ATOM     54  N   UNL A   1      44.426  26.562  29.987  1.00  0.00    -0.248 NA
ATOM     55  C   UNL A   1      45.287  24.598  29.067  1.00  0.00     0.031 C 
ATOM     56  C   UNL A   1      46.762  29.349  32.547  1.00  0.00     0.029 A 
ATOM     57  C   UNL A   1      46.053  28.466  31.748  1.00  0.00     0.049 A 
ATOM     58  H   UNL A   1      44.073  28.613  31.036  1.00  0.00     0.167 HD
ATOM     59  C   UNL A   1      45.741  26.404  30.403  1.00  0.00     0.074 A 
ATOM     60  C   UNL A   1      46.212  25.159  29.832  1.00  0.00     0.031 C 
ATOM     61  C   UNL A   1      46.494  27.215  31.187  1.00  0.00     0.037 A 
BRANCH  48  62
ATOM     62  C   UNL A   1      43.586  32.327  33.073  1.00  0.00     0.064 A 
ATOM     63  C   UNL A   1      43.939  33.547  32.480  1.00  0.00     0.173 A 
ATOM     64  C   UNL A   1      43.238  32.334  34.433  1.00  0.00     0.173 A 
ATOM     65  F   UNL A   1      44.297  33.590  31.186  1.00  0.00    -0.203 F 
ATOM     66  C   UNL A   1      43.959  34.725  33.221  1.00  0.00     0.198 A 
ATOM     67  C   UNL A   1      43.233  33.518  35.164  1.00  0.00     0.198 A 
ATOM     68  F   UNL A   1      42.892  31.194  35.049  1.00  0.00    -0.203 F 
ATOM     69  F   UNL A   1      44.337  35.874  32.641  1.00  0.00    -0.200 F 
ATOM     70  C   UNL A   1      43.597  34.712  34.560  1.00  0.00     0.200 A 
ATOM     71  F   UNL A   1      42.873  33.505  36.455  1.00  0.00    -0.200 F 
ATOM     72  F   UNL A   1      43.607  35.849  35.268  1.00  0.00    -0.200 F 
ENDBRANCH  48  62
BRANCH  49  73
ATOM     73  C   UNL A   1      42.778  23.928  27.708  1.00  0.00     0.064 A 
ATOM     74  C   UNL A   1      43.075  23.962  26.339  1.00  0.00     0.173 A 
ATOM     75  C   UNL A   1      42.360  22.706  28.254  1.00  0.00     0.173 A 
ATOM     76  F   UNL A   1      43.455  25.112  25.764  1.00  0.00    -0.203 F 
ATOM     77  C   UNL A   1      42.930  22.828  25.542  1.00  0.00     0.198 A 
ATOM     78  C   UNL A   1      42.245  21.564  27.463  1.00  0.00     0.198 A 
ATOM     79  F   UNL A   1      42.063  22.619  29.558  1.00  0.00    -0.203 F 
ATOM     80  F   UNL A   1      43.164  22.902  24.225  1.00  0.00    -0.200 F 
ATOM     81  C   UNL A   1      42.519  21.629  26.106  1.00  0.00     0.200 A 
ATOM     82  F   UNL A   1      41.858  20.406  28.014  1.00  0.00    -0.200 F 
ATOM     83  F   UNL A   1      42.376  20.539  25.339  1.00  0.00    -0.200 F 
ENDBRANCH  49  73
BRANCH  61  84
ATOM     84  C   UNL A   1      47.886  26.759  31.515  1.00  0.00     0.064 A 
ATOM     85  C   UNL A   1      48.162  25.991  32.654  1.00  0.00     0.173 A 
ATOM     86  C   UNL A   1      48.948  27.054  30.646  1.00  0.00     0.173 A 
ATOM     87  F   UNL A   1      47.183  25.695  33.522  1.00  0.00    -0.203 F 
ATOM     88  C   UNL A   1      49.456  25.555  32.926  1.00  0.00     0.198 A 
ATOM     89  C   UNL A   1      50.235  26.591  30.904  1.00  0.00     0.198 A 
ATOM     90  F   UNL A   1      48.734  27.778  29.537  1.00  0.00    -0.203 F 
ATOM     91  F   UNL A   1      49.705  24.860  34.044  1.00  0.00    -0.200 F 
ATOM     92  C   UNL A   1      50.489  25.847  32.047  1.00  0.00     0.200 A 
ATOM     93  F   UNL A   1      51.228  26.862  30.048  1.00  0.00    -0.200 F 
ATOM     94  F   UNL A   1      51.732  25.418  32.305  1.00  0.00    -0.200 F 
ENDBRANCH  61  84
ENDBRANCH  35  36
ENDBRANCH  28  30
ENDBRANCH  27  28
ENDBRANCH  26  27
ENDBRANCH  25  26
ENDBRANCH  24  25
ENDBRANCH   1  24
TORSDOF 17
ENDMDL
MODEL 3
REMARK VINA RESULT:     -10.4      4.965      8.665
REMARK SMILES CC(=O)c1cc2c(cc1NC(=O)/C=C/C(=O)OCCOCCOC(=O)c1ccc(-c3c4nc(c(-c5c(F)c(F)c(F)c(F)c5F)c5ccc([nH]5)c(-c5c(F)c(F)c(F)c(F)c5F)c5nc(c(-c6c(F)c(F)c(F)c(F)c6F)c6ccc3[nH]6)C=C5)C=C4)cc1)OCO2
REMARK SMILES IDX 19 1 18 2 17 3 15 4 16 5 14 6 13 7 11 8 10 9 12 11 9 12 4 13
REMARK SMILES IDX 5 14 6 15 8 16 7 17 91 18 89 19 90 20 2 21 1 22 3 23 20 24
REMARK SMILES IDX 21 25 22 26 23 27 24 28 25 29 26 30 27 31 88 32 28 33 87 34
REMARK SMILES IDX 29 35 30 36 31 37 81 38 32 39 86 40 80 41 82 42 33 43 85 44
REMARK SMILES IDX 79 45 78 46 34 48 66 49 46 50 65 51 47 52 50 53 64 54 83 55
REMARK SMILES IDX 48 56 49 57 63 59 84 60 51 61 35 62 36 63 44 64 37 65 38 66
REMARK SMILES IDX 42 67 45 68 39 69 40 70 43 71 41 72 67 73 68 74 76 75 69 76
REMARK SMILES IDX 70 77 74 78 77 79 71 80 72 81 75 82 73 83 52 84 53 85 61 86
REMARK SMILES IDX 54 87 55 88 59 89 62 90 56 91 57 92 60 93 58 94
REMARK H PARENT 10 10 82 47 50 58
REMARK Flexibility Score: inf
ROOT
ATOM      1  C   UNL A   1      32.555  28.830  26.439  1.00  0.00     0.202 C 
ENDROOT
BRANCH   1   2
ATOM      2  C   UNL A   1      31.608  27.842  25.748  1.00  0.00     0.261 C 
BRANCH   2   3
ATOM      3  O   UNL A   1      30.973  26.962  26.698  1.00  0.00    -0.460 OA
BRANCH   3   4
ATOM      4  C   UNL A   1      30.294  25.927  26.148  1.00  0.00     0.331 C 
ATOM      5  O   UNL A   1      29.379  25.308  26.669  1.00  0.00    -0.247 OA
BRANCH   4   6
ATOM      6  C   UNL A   1      30.700  25.655  24.755  1.00  0.00     0.099 C 
ATOM      7  C   UNL A   1      31.307  24.538  24.323  1.00  0.00     0.079 C 
BRANCH   7   8
ATOM      8  C   UNL A   1      31.768  24.440  22.919  1.00  0.00     0.248 C 
ATOM      9  N   UNL A   1      32.580  23.413  22.508  1.00  0.00    -0.322 N 
ATOM     10  H   UNL A   1      32.949  23.541  21.605  1.00  0.00     0.170 HD
ATOM     11  O   UNL A   1      31.418  25.316  22.131  1.00  0.00    -0.270 OA
BRANCH   9  12
ATOM     12  C   UNL A   1      32.993  22.205  23.124  1.00  0.00     0.056 A 
ATOM     13  C   UNL A   1      34.198  22.158  23.883  1.00  0.00     0.045 A 
ATOM     14  C   UNL A   1      34.507  21.033  24.673  1.00  0.00     0.064 A 
ATOM     15  C   UNL A   1      33.638  19.967  24.643  1.00  0.00     0.166 A 
ATOM     16  C   UNL A   1      32.242  21.035  23.012  1.00  0.00     0.077 A 
ATOM     17  C   UNL A   1      32.554  19.958  23.811  1.00  0.00     0.167 A 
ATOM     18  O   UNL A   1      33.735  18.826  25.374  1.00  0.00    -0.454 OA
ATOM     19  O   UNL A   1      31.841  18.806  23.894  1.00  0.00    -0.454 OA
ATOM     20  C   UNL A   1      32.522  18.145  24.978  1.00  0.00     0.468 C 
BRANCH  13  21
ATOM     21  C   UNL A   1      35.166  23.288  23.836  1.00  0.00     0.162 C 
ATOM     22  C   UNL A   1      35.291  24.164  25.058  1.00  0.00     0.093 C 
ATOM     23  O   UNL A   1      35.902  23.423  22.863  1.00  0.00    -0.294 OA
ENDBRANCH  13  21
ENDBRANCH   9  12
ENDBRANCH   7   8
ENDBRANCH   4   6
ENDBRANCH   3   4
ENDBRANCH   2   3
ENDBRANCH   1   2
BRANCH   1  24
ATOM     24  O   UNL A   1      31.947  29.936  27.106  1.00  0.00    -0.374 OA
BRANCH  24  25
ATOM     25  C   UNL A   1      31.618  31.068  26.306  1.00  0.00     0.202 C 
BRANCH  25  26
ATOM     26  C   UNL A   1      31.669  32.440  26.985  1.00  0.00     0.261 C 
BRANCH  26  27
ATOM     27  O   UNL A   1      32.940  33.085  26.814  1.00  0.00    -0.460 OA
BRANCH  27  28
ATOM     28  C   UNL A   1      33.446  33.635  27.940  1.00  0.00     0.338 C 
ATOM     29  O   UNL A   1      32.934  34.495  28.650  1.00  0.00    -0.246 OA
BRANCH  28  30
ATOM     30  C   UNL A   1      34.667  32.918  28.330  1.00  0.00     0.060 A 
ATOM     31  C   UNL A   1      34.546  31.563  28.668  1.00  0.00     0.016 A 
ATOM     32  C   UNL A   1      35.899  33.570  28.417  1.00  0.00     0.016 A 
ATOM     33  C   UNL A   1      35.653  30.862  29.133  1.00  0.00     0.010 A 
ATOM     34  C   UNL A   1      37.006  32.868  28.899  1.00  0.00     0.010 A 
ATOM     35  C   UNL A   1      36.878  31.523  29.289  1.00  0.00    -0.014 A 
BRANCH  35  36
ATOM     36  C   UNL A   1      37.983  30.851  30.010  1.00  0.00     0.031 A 
ATOM     37  C   UNL A   1      38.223  31.206  31.449  1.00  0.00     0.074 A 
ATOM     38  C   UNL A   1      38.745  29.930  29.397  1.00  0.00     0.049 A 
ATOM     39  N   UNL A   1      39.169  30.806  32.259  1.00  0.00    -0.248 NA
ATOM     40  C   UNL A   1      37.264  32.143  32.060  1.00  0.00     0.031 C 
ATOM     41  C   UNL A   1      38.576  29.477  28.016  1.00  0.00     0.029 A 
ATOM     42  N   UNL A   1      39.824  29.219  29.856  1.00  0.00    -0.354 N 
ATOM     43  C   UNL A   1      38.920  31.438  33.469  1.00  0.00     0.074 A 
ATOM     44  C   UNL A   1      37.755  32.275  33.283  1.00  0.00     0.031 C 
ATOM     45  C   UNL A   1      39.537  28.581  27.733  1.00  0.00     0.029 A 
ATOM     46  C   UNL A   1      40.403  28.422  28.900  1.00  0.00     0.049 A 
ATOM     47  H   UNL A   1      40.151  29.274  30.783  1.00  0.00     0.167 HD
ATOM     48  C   UNL A   1      39.598  31.320  34.635  1.00  0.00     0.037 A 
ATOM     49  C   UNL A   1      41.524  27.677  28.957  1.00  0.00     0.037 A 
ATOM     50  C   UNL A   1      40.762  30.493  34.812  1.00  0.00     0.049 A 
ATOM     51  C   UNL A   1      42.304  27.620  30.245  1.00  0.00     0.074 A 
ATOM     52  C   UNL A   1      41.531  30.315  35.947  1.00  0.00     0.029 A 
ATOM     53  N   UNL A   1      41.325  29.706  33.818  1.00  0.00    -0.354 N 
ATOM     54  N   UNL A   1      42.058  28.213  31.390  1.00  0.00    -0.248 NA
ATOM     55  C   UNL A   1      43.514  26.787  30.253  1.00  0.00     0.031 C 
ATOM     56  C   UNL A   1      42.584  29.450  35.629  1.00  0.00     0.029 A 
ATOM     57  C   UNL A   1      42.440  29.050  34.310  1.00  0.00     0.049 A 
ATOM     58  H   UNL A   1      40.982  29.626  32.898  1.00  0.00     0.167 HD
ATOM     59  C   UNL A   1      43.060  27.801  32.257  1.00  0.00     0.074 A 
ATOM     60  C   UNL A   1      43.912  26.897  31.513  1.00  0.00     0.031 C 
ATOM     61  C   UNL A   1      43.261  28.138  33.556  1.00  0.00     0.037 A 
BRANCH  48  62
ATOM     62  C   UNL A   1      39.106  32.116  35.807  1.00  0.00     0.064 A 
ATOM     63  C   UNL A   1      38.247  31.557  36.764  1.00  0.00     0.173 A 
ATOM     64  C   UNL A   1      39.532  33.439  36.000  1.00  0.00     0.173 A 
ATOM     65  F   UNL A   1      37.799  30.300  36.617  1.00  0.00    -0.203 F 
ATOM     66  C   UNL A   1      37.818  32.298  37.861  1.00  0.00     0.198 A 
ATOM     67  C   UNL A   1      39.122  34.169  37.112  1.00  0.00     0.198 A 
ATOM     68  F   UNL A   1      40.354  34.021  35.114  1.00  0.00    -0.203 F 
ATOM     69  F   UNL A   1      36.966  31.756  38.744  1.00  0.00    -0.200 F 
ATOM     70  C   UNL A   1      38.262  33.600  38.039  1.00  0.00     0.200 A 
ATOM     71  F   UNL A   1      39.560  35.423  37.288  1.00  0.00    -0.200 F 
ATOM     72  F   UNL A   1      37.856  34.308  39.102  1.00  0.00    -0.200 F 
ENDBRANCH  48  62
BRANCH  49  73
ATOM     73  C   UNL A   1      41.996  26.945  27.752  1.00  0.00     0.064 A 
ATOM     74  C   UNL A   1      41.590  25.628  27.496  1.00  0.00     0.173 A 
ATOM     75  C   UNL A   1      42.890  27.538  26.848  1.00  0.00     0.173 A 
ATOM     76  F   UNL A   1      40.754  25.009  28.343  1.00  0.00    -0.203 F 
ATOM     77  C   UNL A   1      42.083  24.922  26.400  1.00  0.00     0.198 A 
ATOM     78  C   UNL A   1      43.359  26.842  25.736  1.00  0.00     0.198 A 
ATOM     79  F   UNL A   1      43.310  28.795  27.047  1.00  0.00    -0.203 F 
ATOM     80  F   UNL A   1      41.724  23.645  26.212  1.00  0.00    -0.200 F 
ATOM     81  C   UNL A   1      42.964  25.531  25.519  1.00  0.00     0.200 A 
ATOM     82  F   UNL A   1      44.202  27.438  24.881  1.00  0.00    -0.200 F 
ATOM     83  F   UNL A   1      43.441  24.851  24.468  1.00  0.00    -0.200 F 
ENDBRANCH  49  73
BRANCH  61  84
ATOM     84  C   UNL A   1      44.413  27.492  34.268  1.00  0.00     0.064 A 
ATOM     85  C   UNL A   1      44.294  26.234  34.874  1.00  0.00     0.173 A 
ATOM     86  C   UNL A   1      45.668  28.120  34.295  1.00  0.00     0.173 A 
ATOM     87  F   UNL A   1      43.112  25.599  34.886  1.00  0.00    -0.203 F 
ATOM     88  C   UNL A   1      45.383  25.639  35.505  1.00  0.00     0.198 A 
ATOM     89  C   UNL A   1      46.762  27.509  34.901  1.00  0.00     0.198 A 
ATOM     90  F   UNL A   1      45.836  29.321  33.720  1.00  0.00    -0.203 F 
ATOM     91  F   UNL A   1      45.235  24.456  36.118  1.00  0.00    -0.200 F 
ATOM     92  C   UNL A   1      46.617  26.272  35.511  1.00  0.00     0.200 A 
ATOM     93  F   UNL A   1      47.956  28.115  34.892  1.00  0.00    -0.200 F 
ATOM     94  F   UNL A   1      47.666  25.693  36.110  1.00  0.00    -0.200 F 
ENDBRANCH  61  84
ENDBRANCH  35  36
ENDBRANCH  28  30
ENDBRANCH  27  28
ENDBRANCH  26  27
ENDBRANCH  25  26
ENDBRANCH  24  25
ENDBRANCH   1  24
TORSDOF 17
ENDMDL
