MODEL 1
REMARK VINA RESULT:     -10.0      0.000      0.000
REMARK SMILES C#CCN(CC(=O)OCCOCCOC(=O)c1ccc(-c2c3nc(c(-c4c(F)c(F)c(F)c(F)c4F)c4ccc([nH]4)c(-c4c(F)c(F)c(F)c(F)c4F)c4nc(c(-c5c(F)c(F)c(F)c(F)c5F)c5ccc2[nH]5)C=C4)C=C3)cc1)C(=O)Cc1csc(-c2ccsc2)n1
REMARK SMILES IDX 9 1 8 2 6 3 7 4 5 5 4 6 3 7 2 8 1 9 80 10 81 11 82 12 83 13
REMARK SMILES IDX 84 14 92 15 85 16 86 17 87 18 88 19 91 20 89 21 90 22 10 23
REMARK SMILES IDX 11 24 12 25 13 26 14 27 15 28 16 29 17 30 18 31 79 32 19 33
REMARK SMILES IDX 78 34 20 35 21 36 22 37 72 38 23 39 77 40 71 41 73 42 24 43
REMARK SMILES IDX 76 44 70 45 69 46 25 48 57 49 37 50 56 51 38 52 41 53 55 54
REMARK SMILES IDX 74 55 39 56 40 57 54 59 75 60 42 61 26 62 27 63 35 64 28 65
REMARK SMILES IDX 29 66 33 67 36 68 30 69 31 70 34 71 32 72 58 73 59 74 67 75
REMARK SMILES IDX 60 76 61 77 65 78 68 79 62 80 63 81 66 82 64 83 43 84 44 85
REMARK SMILES IDX 52 86 45 87 46 88 50 89 53 90 47 91 48 92 51 93 49 94
REMARK H PARENT 73 47 41 58
REMARK Flexibility Score: inf
ROOT
ATOM      1  C   UNL A   1      33.514  28.179  25.713  1.00  0.00     0.261 C 
ENDROOT
BRANCH   1   2
ATOM      2  O   UNL A   1      32.781  26.958  25.969  1.00  0.00    -0.462 OA
BRANCH   2   3
ATOM      3  C   UNL A   1      33.510  25.813  25.852  1.00  0.00     0.325 C 
ATOM      4  O   UNL A   1      34.578  25.736  25.250  1.00  0.00    -0.250 OA
BRANCH   3   5
ATOM      5  C   UNL A   1      32.857  24.584  26.492  1.00  0.00     0.243 C 
BRANCH   5   6
ATOM      6  N   UNL A   1      32.491  23.433  25.662  1.00  0.00    -0.320 N 
BRANCH   6   7
ATOM      7  C   UNL A   1      33.513  22.371  25.547  1.00  0.00     0.210 C 
BRANCH   7   8
ATOM      8  C   UNL A   1      34.238  22.662  24.244  1.00  0.00    -0.085 C 
ATOM      9  C   UNL A   1      34.861  22.912  23.125  1.00  0.00     0.006 C 
ENDBRANCH   7   8
ENDBRANCH   6   7
BRANCH   6  10
ATOM     10  C   UNL A   1      31.244  23.163  25.096  1.00  0.00     0.229 C 
ATOM     11  O   UNL A   1      30.453  22.426  25.710  1.00  0.00    -0.274 OA
BRANCH  10  12
ATOM     12  C   UNL A   1      30.778  23.624  23.717  1.00  0.00     0.157 C 
BRANCH  12  13
ATOM     13  C   UNL A   1      31.025  25.008  23.239  1.00  0.00     0.061 A 
ATOM     14  C   UNL A   1      32.159  25.484  22.605  1.00  0.00     0.091 A 
ATOM     15  N   UNL A   1      30.161  26.006  23.655  1.00  0.00    -0.241 NA
ATOM     16  S   UNL A   1      31.998  27.164  22.301  1.00  0.00    -0.122 S 
ATOM     17  C   UNL A   1      30.480  27.155  23.101  1.00  0.00     0.124 A 
BRANCH  17  18
ATOM     18  C   UNL A   1      29.524  28.310  23.155  1.00  0.00     0.021 A 
ATOM     19  C   UNL A   1      28.102  28.176  23.096  1.00  0.00     0.023 A 
ATOM     20  C   UNL A   1      29.911  29.632  23.200  1.00  0.00     0.076 A 
ATOM     21  C   UNL A   1      27.464  29.397  23.091  1.00  0.00     0.065 A 
ATOM     22  S   UNL A   1      28.572  30.699  23.145  1.00  0.00    -0.152 S 
ENDBRANCH  17  18
ENDBRANCH  12  13
ENDBRANCH  10  12
ENDBRANCH   6  10
ENDBRANCH   5   6
ENDBRANCH   3   5
ENDBRANCH   2   3
ENDBRANCH   1   2
BRANCH   1  23
ATOM     23  C   UNL A   1      33.192  29.284  26.731  1.00  0.00     0.202 C 
BRANCH  23  24
ATOM     24  O   UNL A   1      32.912  30.582  26.196  1.00  0.00    -0.374 OA
BRANCH  24  25
ATOM     25  C   UNL A   1      31.660  31.151  26.561  1.00  0.00     0.202 C 
BRANCH  25  26
ATOM     26  C   UNL A   1      31.680  32.621  26.998  1.00  0.00     0.261 C 
BRANCH  26  27
ATOM     27  O   UNL A   1      32.995  33.177  26.947  1.00  0.00    -0.460 OA
BRANCH  27  28
ATOM     28  C   UNL A   1      33.461  33.566  28.150  1.00  0.00     0.338 C 
ATOM     29  O   UNL A   1      32.878  34.223  29.007  1.00  0.00    -0.246 OA
BRANCH  28  30
ATOM     30  C   UNL A   1      34.758  32.936  28.405  1.00  0.00     0.060 A 
ATOM     31  C   UNL A   1      34.728  31.670  28.995  1.00  0.00     0.016 A 
ATOM     32  C   UNL A   1      35.965  33.594  28.155  1.00  0.00     0.016 A 
ATOM     33  C   UNL A   1      35.910  31.087  29.418  1.00  0.00     0.010 A 
ATOM     34  C   UNL A   1      37.158  33.003  28.579  1.00  0.00     0.010 A 
ATOM     35  C   UNL A   1      37.123  31.772  29.257  1.00  0.00    -0.014 A 
BRANCH  35  36
ATOM     36  C   UNL A   1      38.311  31.229  29.946  1.00  0.00     0.031 A 
ATOM     37  C   UNL A   1      38.570  31.633  31.369  1.00  0.00     0.074 A 
ATOM     38  C   UNL A   1      39.065  30.299  29.337  1.00  0.00     0.049 A 
ATOM     39  N   UNL A   1      39.441  31.154  32.220  1.00  0.00    -0.248 NA
ATOM     40  C   UNL A   1      37.735  32.717  31.911  1.00  0.00     0.031 C 
ATOM     41  C   UNL A   1      38.881  29.840  27.960  1.00  0.00     0.029 A 
ATOM     42  N   UNL A   1      40.116  29.556  29.804  1.00  0.00    -0.354 N 
ATOM     43  C   UNL A   1      39.253  31.872  33.394  1.00  0.00     0.074 A 
ATOM     44  C   UNL A   1      38.212  32.844  33.140  1.00  0.00     0.031 C 
ATOM     45  C   UNL A   1      39.785  28.881  27.696  1.00  0.00     0.029 A 
ATOM     46  C   UNL A   1      40.610  28.667  28.883  1.00  0.00     0.049 A 
ATOM     47  H   UNL A   1      40.482  29.651  30.713  1.00  0.00     0.167 HD
ATOM     48  C   UNL A   1      39.886  31.719  34.580  1.00  0.00     0.037 A 
ATOM     49  C   UNL A   1      41.611  27.777  28.995  1.00  0.00     0.037 A 
ATOM     50  C   UNL A   1      40.913  30.739  34.818  1.00  0.00     0.049 A 
ATOM     51  C   UNL A   1      42.301  27.633  30.326  1.00  0.00     0.074 A 
ATOM     52  C   UNL A   1      41.595  30.468  35.989  1.00  0.00     0.029 A 
ATOM     53  N   UNL A   1      41.409  29.874  33.853  1.00  0.00    -0.354 N 
ATOM     54  N   UNL A   1      42.073  28.268  31.450  1.00  0.00    -0.248 NA
ATOM     55  C   UNL A   1      43.376  26.635  30.409  1.00  0.00     0.031 C 
ATOM     56  C   UNL A   1      42.540  29.471  35.720  1.00  0.00     0.029 A 
ATOM     57  C   UNL A   1      42.412  29.086  34.395  1.00  0.00     0.049 A 
ATOM     58  H   UNL A   1      41.095  29.826  32.921  1.00  0.00     0.167 HD
ATOM     59  C   UNL A   1      42.960  27.740  32.377  1.00  0.00     0.074 A 
ATOM     60  C   UNL A   1      43.712  26.709  31.689  1.00  0.00     0.031 C 
ATOM     61  C   UNL A   1      43.147  28.077  33.678  1.00  0.00     0.037 A 
BRANCH  48  62
ATOM     62  C   UNL A   1      39.505  32.641  35.700  1.00  0.00     0.064 A 
ATOM     63  C   UNL A   1      38.498  32.312  36.620  1.00  0.00     0.173 A 
ATOM     64  C   UNL A   1      40.181  33.857  35.877  1.00  0.00     0.173 A 
ATOM     65  F   UNL A   1      37.808  31.169  36.486  1.00  0.00    -0.203 F 
ATOM     66  C   UNL A   1      38.173  33.173  37.666  1.00  0.00     0.198 A 
ATOM     67  C   UNL A   1      39.871  34.704  36.937  1.00  0.00     0.198 A 
ATOM     68  F   UNL A   1      41.152  34.220  35.024  1.00  0.00    -0.203 F 
ATOM     69  F   UNL A   1      37.182  32.855  38.512  1.00  0.00    -0.200 F 
ATOM     70  C   UNL A   1      38.864  34.364  37.827  1.00  0.00     0.200 A 
ATOM     71  F   UNL A   1      40.546  35.852  37.096  1.00  0.00    -0.200 F 
ATOM     72  F   UNL A   1      38.557  35.188  38.839  1.00  0.00    -0.200 F 
ENDBRANCH  48  62
BRANCH  49  73
ATOM     73  C   UNL A   1      42.009  26.952  27.825  1.00  0.00     0.064 A 
ATOM     74  C   UNL A   1      41.407  25.715  27.562  1.00  0.00     0.173 A 
ATOM     75  C   UNL A   1      43.011  27.390  26.945  1.00  0.00     0.173 A 
ATOM     76  F   UNL A   1      40.456  25.244  28.383  1.00  0.00    -0.203 F 
ATOM     77  C   UNL A   1      41.807  24.936  26.477  1.00  0.00     0.198 A 
ATOM     78  C   UNL A   1      43.389  26.625  25.845  1.00  0.00     0.198 A 
ATOM     79  F   UNL A   1      43.616  28.570  27.148  1.00  0.00    -0.203 F 
ATOM     80  F   UNL A   1      41.247  23.735  26.275  1.00  0.00    -0.200 F 
ATOM     81  C   UNL A   1      42.794  25.393  25.616  1.00  0.00     0.200 A 
ATOM     82  F   UNL A   1      44.333  27.078  25.007  1.00  0.00    -0.200 F 
ATOM     83  F   UNL A   1      43.175  24.646  24.572  1.00  0.00    -0.200 F 
ENDBRANCH  49  73
BRANCH  61  84
ATOM     84  C   UNL A   1      44.200  27.317  34.429  1.00  0.00     0.064 A 
ATOM     85  C   UNL A   1      43.906  26.107  35.076  1.00  0.00     0.173 A 
ATOM     86  C   UNL A   1      45.518  27.792  34.486  1.00  0.00     0.173 A 
ATOM     87  F   UNL A   1      42.656  25.621  35.061  1.00  0.00    -0.203 F 
ATOM     88  C   UNL A   1      44.887  25.420  35.782  1.00  0.00     0.198 A 
ATOM     89  C   UNL A   1      46.504  27.084  35.167  1.00  0.00     0.198 A 
ATOM     90  F   UNL A   1      45.852  28.940  33.876  1.00  0.00    -0.203 F 
ATOM     91  F   UNL A   1      44.571  24.296  36.441  1.00  0.00    -0.200 F 
ATOM     92  C   UNL A   1      46.185  25.905  35.824  1.00  0.00     0.200 A 
ATOM     93  F   UNL A   1      47.761  27.548  35.195  1.00  0.00    -0.200 F 
ATOM     94  F   UNL A   1      47.128  25.241  36.505  1.00  0.00    -0.200 F 
ENDBRANCH  61  84
ENDBRANCH  35  36
ENDBRANCH  28  30
ENDBRANCH  27  28
ENDBRANCH  26  27
ENDBRANCH  25  26
ENDBRANCH  24  25
ENDBRANCH  23  24
ENDBRANCH   1  23
TORSDOF 21
ENDMDL
MODEL 2
REMARK VINA RESULT:      -9.9      1.378      3.360
REMARK SMILES C#CCN(CC(=O)OCCOCCOC(=O)c1ccc(-c2c3nc(c(-c4c(F)c(F)c(F)c(F)c4F)c4ccc([nH]4)c(-c4c(F)c(F)c(F)c(F)c4F)c4nc(c(-c5c(F)c(F)c(F)c(F)c5F)c5ccc2[nH]5)C=C4)C=C3)cc1)C(=O)Cc1csc(-c2ccsc2)n1
REMARK SMILES IDX 9 1 8 2 6 3 7 4 5 5 4 6 3 7 2 8 1 9 80 10 81 11 82 12 83 13
REMARK SMILES IDX 84 14 92 15 85 16 86 17 87 18 88 19 91 20 89 21 90 22 10 23
REMARK SMILES IDX 11 24 12 25 13 26 14 27 15 28 16 29 17 30 18 31 79 32 19 33
REMARK SMILES IDX 78 34 20 35 21 36 22 37 72 38 23 39 77 40 71 41 73 42 24 43
REMARK SMILES IDX 76 44 70 45 69 46 25 48 57 49 37 50 56 51 38 52 41 53 55 54
REMARK SMILES IDX 74 55 39 56 40 57 54 59 75 60 42 61 26 62 27 63 35 64 28 65
REMARK SMILES IDX 29 66 33 67 36 68 30 69 31 70 34 71 32 72 58 73 59 74 67 75
REMARK SMILES IDX 60 76 61 77 65 78 68 79 62 80 63 81 66 82 64 83 43 84 44 85
REMARK SMILES IDX 52 86 45 87 46 88 50 89 53 90 47 91 48 92 51 93 49 94
REMARK H PARENT 73 47 41 58
REMARK Flexibility Score: inf
ROOT
ATOM      1  C   UNL A   1      33.488  28.272  25.873  1.00  0.00     0.261 C 
ENDROOT
BRANCH   1   2
ATOM      2  O   UNL A   1      33.174  27.068  26.612  1.00  0.00    -0.462 OA
BRANCH   2   3
ATOM      3  C   UNL A   1      31.954  26.525  26.338  1.00  0.00     0.325 C 
ATOM      4  O   UNL A   1      31.590  25.420  26.730  1.00  0.00    -0.250 OA
BRANCH   3   5
ATOM      5  C   UNL A   1      31.071  27.390  25.434  1.00  0.00     0.243 C 
BRANCH   5   6
ATOM      6  N   UNL A   1      30.675  26.901  24.111  1.00  0.00    -0.320 N 
BRANCH   6   7
ATOM      7  C   UNL A   1      29.225  26.692  23.909  1.00  0.00     0.210 C 
BRANCH   7   8
ATOM      8  C   UNL A   1      28.724  27.985  23.286  1.00  0.00    -0.085 C 
ATOM      9  C   UNL A   1      28.295  29.094  22.752  1.00  0.00     0.006 C 
ENDBRANCH   7   8
ENDBRANCH   6   7
BRANCH   6  10
ATOM     10  C   UNL A   1      31.489  26.752  22.987  1.00  0.00     0.229 C 
ATOM     11  O   UNL A   1      31.923  27.771  22.421  1.00  0.00    -0.274 OA
BRANCH  10  12
ATOM     12  C   UNL A   1      31.836  25.427  22.312  1.00  0.00     0.157 C 
BRANCH  12  13
ATOM     13  C   UNL A   1      32.299  24.256  23.099  1.00  0.00     0.061 A 
ATOM     14  C   UNL A   1      31.557  23.147  23.465  1.00  0.00     0.091 A 
ATOM     15  N   UNL A   1      33.518  24.347  23.749  1.00  0.00    -0.241 NA
ATOM     16  S   UNL A   1      32.513  22.092  24.420  1.00  0.00    -0.122 S 
ATOM     17  C   UNL A   1      33.808  23.214  24.349  1.00  0.00     0.124 A 
BRANCH  17  18
ATOM     18  C   UNL A   1      35.197  22.965  24.860  1.00  0.00     0.021 A 
ATOM     19  C   UNL A   1      36.042  23.978  25.410  1.00  0.00     0.023 A 
ATOM     20  C   UNL A   1      35.837  21.746  24.796  1.00  0.00     0.076 A 
ATOM     21  C   UNL A   1      37.291  23.495  25.735  1.00  0.00     0.065 A 
ATOM     22  S   UNL A   1      37.450  21.832  25.368  1.00  0.00    -0.152 S 
ENDBRANCH  17  18
ENDBRANCH  12  13
ENDBRANCH  10  12
ENDBRANCH   6  10
ENDBRANCH   5   6
ENDBRANCH   3   5
ENDBRANCH   2   3
ENDBRANCH   1   2
BRANCH   1  23
ATOM     23  C   UNL A   1      33.804  29.462  26.792  1.00  0.00     0.202 C 
BRANCH  23  24
ATOM     24  O   UNL A   1      33.312  30.740  26.374  1.00  0.00    -0.374 OA
BRANCH  24  25
ATOM     25  C   UNL A   1      31.984  31.058  26.775  1.00  0.00     0.202 C 
BRANCH  25  26
ATOM     26  C   UNL A   1      31.732  32.508  27.208  1.00  0.00     0.261 C 
BRANCH  26  27
ATOM     27  O   UNL A   1      32.913  33.308  27.117  1.00  0.00    -0.460 OA
BRANCH  27  28
ATOM     28  C   UNL A   1      33.398  33.688  28.315  1.00  0.00     0.338 C 
ATOM     29  O   UNL A   1      32.841  34.366  29.173  1.00  0.00    -0.246 OA
BRANCH  28  30
ATOM     30  C   UNL A   1      34.677  33.021  28.564  1.00  0.00     0.060 A 
ATOM     31  C   UNL A   1      34.626  31.833  29.298  1.00  0.00     0.016 A 
ATOM     32  C   UNL A   1      35.896  33.580  28.170  1.00  0.00     0.016 A 
ATOM     33  C   UNL A   1      35.804  31.237  29.715  1.00  0.00     0.010 A 
ATOM     34  C   UNL A   1      37.084  32.976  28.588  1.00  0.00     0.010 A 
ATOM     35  C   UNL A   1      37.035  31.832  29.404  1.00  0.00    -0.014 A 
BRANCH  35  36
ATOM     36  C   UNL A   1      38.238  31.307  30.081  1.00  0.00     0.031 A 
ATOM     37  C   UNL A   1      38.514  31.725  31.496  1.00  0.00     0.074 A 
ATOM     38  C   UNL A   1      38.992  30.379  29.468  1.00  0.00     0.049 A 
ATOM     39  N   UNL A   1      39.401  31.261  32.338  1.00  0.00    -0.248 NA
ATOM     40  C   UNL A   1      37.676  32.805  32.041  1.00  0.00     0.031 C 
ATOM     41  C   UNL A   1      38.793  29.907  28.097  1.00  0.00     0.029 A 
ATOM     42  N   UNL A   1      40.057  29.650  29.926  1.00  0.00    -0.354 N 
ATOM     43  C   UNL A   1      39.224  31.987  33.510  1.00  0.00     0.074 A 
ATOM     44  C   UNL A   1      38.170  32.946  33.262  1.00  0.00     0.031 C 
ATOM     45  C   UNL A   1      39.702  28.956  27.828  1.00  0.00     0.029 A 
ATOM     46  C   UNL A   1      40.546  28.759  29.005  1.00  0.00     0.049 A 
ATOM     47  H   UNL A   1      40.435  29.756  30.828  1.00  0.00     0.167 HD
ATOM     48  C   UNL A   1      39.875  31.850  34.688  1.00  0.00     0.037 A 
ATOM     49  C   UNL A   1      41.558  27.879  29.109  1.00  0.00     0.037 A 
ATOM     50  C   UNL A   1      40.914  30.882  34.918  1.00  0.00     0.049 A 
ATOM     51  C   UNL A   1      42.268  27.752  30.431  1.00  0.00     0.074 A 
ATOM     52  C   UNL A   1      41.616  30.626  36.082  1.00  0.00     0.029 A 
ATOM     53  N   UNL A   1      41.405  30.014  33.953  1.00  0.00    -0.354 N 
ATOM     54  N   UNL A   1      42.050  28.394  31.554  1.00  0.00    -0.248 NA
ATOM     55  C   UNL A   1      43.354  26.766  30.507  1.00  0.00     0.031 C 
ATOM     56  C   UNL A   1      42.566  29.637  35.806  1.00  0.00     0.029 A 
ATOM     57  C   UNL A   1      42.423  29.240  34.486  1.00  0.00     0.049 A 
ATOM     58  H   UNL A   1      41.078  29.955  33.026  1.00  0.00     0.167 HD
ATOM     59  C   UNL A   1      42.956  27.883  32.471  1.00  0.00     0.074 A 
ATOM     60  C   UNL A   1      43.708  26.854  31.781  1.00  0.00     0.031 C 
ATOM     61  C   UNL A   1      43.158  28.232  33.767  1.00  0.00     0.037 A 
BRANCH  48  62
ATOM     62  C   UNL A   1      39.501  32.777  35.805  1.00  0.00     0.064 A 
ATOM     63  C   UNL A   1      38.512  32.444  36.744  1.00  0.00     0.173 A 
ATOM     64  C   UNL A   1      40.166  34.002  35.961  1.00  0.00     0.173 A 
ATOM     65  F   UNL A   1      37.834  31.292  36.631  1.00  0.00    -0.203 F 
ATOM     66  C   UNL A   1      38.194  33.311  37.787  1.00  0.00     0.198 A 
ATOM     67  C   UNL A   1      39.863  34.855  37.018  1.00  0.00     0.198 A 
ATOM     68  F   UNL A   1      41.118  34.369  35.090  1.00  0.00    -0.203 F 
ATOM     69  F   UNL A   1      37.221  32.989  38.652  1.00  0.00    -0.200 F 
ATOM     70  C   UNL A   1      38.873  34.511  37.928  1.00  0.00     0.200 A 
ATOM     71  F   UNL A   1      40.527  36.011  37.157  1.00  0.00    -0.200 F 
ATOM     72  F   UNL A   1      38.573  35.340  38.937  1.00  0.00    -0.200 F 
ENDBRANCH  48  62
BRANCH  49  73
ATOM     73  C   UNL A   1      41.947  27.049  27.940  1.00  0.00     0.064 A 
ATOM     74  C   UNL A   1      42.857  27.515  26.982  1.00  0.00     0.173 A 
ATOM     75  C   UNL A   1      41.408  25.767  27.758  1.00  0.00     0.173 A 
ATOM     76  F   UNL A   1      43.387  28.741  27.101  1.00  0.00    -0.203 F 
ATOM     77  C   UNL A   1      43.194  26.740  25.874  1.00  0.00     0.198 A 
ATOM     78  C   UNL A   1      41.768  24.981  26.666  1.00  0.00     0.198 A 
ATOM     79  F   UNL A   1      40.537  25.271  28.650  1.00  0.00    -0.203 F 
ATOM     80  F   UNL A   1      44.030  27.228  24.946  1.00  0.00    -0.200 F 
ATOM     81  C   UNL A   1      42.654  25.471  25.719  1.00  0.00     0.200 A 
ATOM     82  F   UNL A   1      41.255  23.750  26.530  1.00  0.00    -0.200 F 
ATOM     83  F   UNL A   1      42.981  24.726  24.655  1.00  0.00    -0.200 F 
ENDBRANCH  49  73
BRANCH  61  84
ATOM     84  C   UNL A   1      44.229  27.489  34.508  1.00  0.00     0.064 A 
ATOM     85  C   UNL A   1      43.956  26.282  35.170  1.00  0.00     0.173 A 
ATOM     86  C   UNL A   1      45.543  27.976  34.542  1.00  0.00     0.173 A 
ATOM     87  F   UNL A   1      42.710  25.784  35.178  1.00  0.00    -0.203 F 
ATOM     88  C   UNL A   1      44.954  25.609  35.868  1.00  0.00     0.198 A 
ATOM     89  C   UNL A   1      46.546  27.283  35.214  1.00  0.00     0.198 A 
ATOM     90  F   UNL A   1      45.857  29.122  33.917  1.00  0.00    -0.203 F 
ATOM     91  F   UNL A   1      44.658  24.488  36.540  1.00  0.00    -0.200 F 
ATOM     92  C   UNL A   1      46.248  26.107  35.886  1.00  0.00     0.200 A 
ATOM     93  F   UNL A   1      47.799  27.759  35.219  1.00  0.00    -0.200 F 
ATOM     94  F   UNL A   1      47.207  25.458  36.558  1.00  0.00    -0.200 F 
ENDBRANCH  61  84
ENDBRANCH  35  36
ENDBRANCH  28  30
ENDBRANCH  27  28
ENDBRANCH  26  27
ENDBRANCH  25  26
ENDBRANCH  24  25
ENDBRANCH  23  24
ENDBRANCH   1  23
TORSDOF 21
ENDMDL
MODEL 3
REMARK VINA RESULT:      -9.8      1.782      4.006
REMARK SMILES C#CCN(CC(=O)OCCOCCOC(=O)c1ccc(-c2c3nc(c(-c4c(F)c(F)c(F)c(F)c4F)c4ccc([nH]4)c(-c4c(F)c(F)c(F)c(F)c4F)c4nc(c(-c5c(F)c(F)c(F)c(F)c5F)c5ccc2[nH]5)C=C4)C=C3)cc1)C(=O)Cc1csc(-c2ccsc2)n1
REMARK SMILES IDX 9 1 8 2 6 3 7 4 5 5 4 6 3 7 2 8 1 9 80 10 81 11 82 12 83 13
REMARK SMILES IDX 84 14 92 15 85 16 86 17 87 18 88 19 91 20 89 21 90 22 10 23
REMARK SMILES IDX 11 24 12 25 13 26 14 27 15 28 16 29 17 30 18 31 79 32 19 33
REMARK SMILES IDX 78 34 20 35 21 36 22 37 72 38 23 39 77 40 71 41 73 42 24 43
REMARK SMILES IDX 76 44 70 45 69 46 25 48 57 49 37 50 56 51 38 52 41 53 55 54
REMARK SMILES IDX 74 55 39 56 40 57 54 59 75 60 42 61 26 62 27 63 35 64 28 65
REMARK SMILES IDX 29 66 33 67 36 68 30 69 31 70 34 71 32 72 58 73 59 74 67 75
REMARK SMILES IDX 60 76 61 77 65 78 68 79 62 80 63 81 66 82 64 83 43 84 44 85
REMARK SMILES IDX 52 86 45 87 46 88 50 89 53 90 47 91 48 92 51 93 49 94
REMARK H PARENT 73 47 41 58
REMARK Flexibility Score: inf
ROOT
ATOM      1  C   UNL A   1      33.996  28.974  26.282  1.00  0.00     0.261 C 
ENDROOT
BRANCH   1   2
ATOM      2  O   UNL A   1      33.503  27.727  26.826  1.00  0.00    -0.462 OA
BRANCH   2   3
ATOM      3  C   UNL A   1      32.443  27.188  26.160  1.00  0.00     0.325 C 
ATOM      4  O   UNL A   1      32.081  26.020  26.275  1.00  0.00    -0.250 OA
BRANCH   3   5
ATOM      5  C   UNL A   1      31.755  28.151  25.189  1.00  0.00     0.243 C 
BRANCH   5   6
ATOM      6  N   UNL A   1      31.324  27.680  23.870  1.00  0.00    -0.320 N 
BRANCH   6   7
ATOM      7  C   UNL A   1      29.875  27.785  23.591  1.00  0.00     0.210 C 
BRANCH   7   8
ATOM      8  C   UNL A   1      29.737  28.994  22.681  1.00  0.00    -0.085 C 
ATOM      9  C   UNL A   1      29.618  30.031  21.900  1.00  0.00     0.006 C 
ENDBRANCH   7   8
ENDBRANCH   6   7
BRANCH   6  10
ATOM     10  C   UNL A   1      32.136  27.284  22.807  1.00  0.00     0.229 C 
ATOM     11  O   UNL A   1      32.975  28.087  22.362  1.00  0.00    -0.274 OA
BRANCH  10  12
ATOM     12  C   UNL A   1      32.034  25.957  22.058  1.00  0.00     0.157 C 
BRANCH  12  13
ATOM     13  C   UNL A   1      32.221  24.660  22.754  1.00  0.00     0.061 A 
ATOM     14  C   UNL A   1      31.236  23.779  23.164  1.00  0.00     0.091 A 
ATOM     15  N   UNL A   1      33.472  24.371  23.271  1.00  0.00    -0.241 NA
ATOM     16  S   UNL A   1      31.943  22.446  23.977  1.00  0.00    -0.122 S 
ATOM     17  C   UNL A   1      33.489  23.168  23.801  1.00  0.00     0.124 A 
BRANCH  17  18
ATOM     18  C   UNL A   1      34.794  22.515  24.151  1.00  0.00     0.021 A 
ATOM     19  C   UNL A   1      36.054  22.893  23.592  1.00  0.00     0.023 A 
ATOM     20  C   UNL A   1      34.914  21.435  24.999  1.00  0.00     0.076 A 
ATOM     21  C   UNL A   1      37.081  22.085  24.029  1.00  0.00     0.065 A 
ATOM     22  S   UNL A   1      36.528  20.869  25.097  1.00  0.00    -0.152 S 
ENDBRANCH  17  18
ENDBRANCH  12  13
ENDBRANCH  10  12
ENDBRANCH   6  10
ENDBRANCH   5   6
ENDBRANCH   3   5
ENDBRANCH   2   3
ENDBRANCH   1   2
BRANCH   1  23
ATOM     23  C   UNL A   1      34.732  29.823  27.330  1.00  0.00     0.202 C 
BRANCH  23  24
ATOM     24  O   UNL A   1      34.153  31.095  27.641  1.00  0.00    -0.374 OA
BRANCH  24  25
ATOM     25  C   UNL A   1      32.780  31.254  27.305  1.00  0.00     0.202 C 
BRANCH  25  26
ATOM     26  C   UNL A   1      32.222  32.681  27.370  1.00  0.00     0.261 C 
BRANCH  26  27
ATOM     27  O   UNL A   1      33.262  33.662  27.374  1.00  0.00    -0.460 OA
BRANCH  27  28
ATOM     28  C   UNL A   1      33.268  34.434  28.478  1.00  0.00     0.338 C 
ATOM     29  O   UNL A   1      32.407  35.227  28.849  1.00  0.00    -0.246 OA
BRANCH  28  30
ATOM     30  C   UNL A   1      34.406  34.075  29.325  1.00  0.00     0.060 A 
ATOM     31  C   UNL A   1      35.666  34.481  28.877  1.00  0.00     0.016 A 
ATOM     32  C   UNL A   1      34.261  33.296  30.476  1.00  0.00     0.016 A 
ATOM     33  C   UNL A   1      36.800  34.035  29.535  1.00  0.00     0.010 A 
ATOM     34  C   UNL A   1      35.405  32.850  31.141  1.00  0.00     0.010 A 
ATOM     35  C   UNL A   1      36.676  33.179  30.639  1.00  0.00    -0.014 A 
BRANCH  35  36
ATOM     36  C   UNL A   1      37.904  32.533  31.144  1.00  0.00     0.031 A 
ATOM     37  C   UNL A   1      38.410  32.904  32.507  1.00  0.00     0.074 A 
ATOM     38  C   UNL A   1      38.474  31.545  30.433  1.00  0.00     0.049 A 
ATOM     39  N   UNL A   1      39.356  32.347  33.219  1.00  0.00    -0.248 NA
ATOM     40  C   UNL A   1      37.763  34.053  33.162  1.00  0.00     0.031 C 
ATOM     41  C   UNL A   1      38.043  31.112  29.104  1.00  0.00     0.029 A 
ATOM     42  N   UNL A   1      39.516  30.712  30.740  1.00  0.00    -0.354 N 
ATOM     43  C   UNL A   1      39.412  33.072  34.403  1.00  0.00     0.074 A 
ATOM     44  C   UNL A   1      38.431  34.131  34.303  1.00  0.00     0.031 C 
ATOM     45  C   UNL A   1      38.811  30.081  28.712  1.00  0.00     0.029 A 
ATOM     46  C   UNL A   1      39.786  29.790  29.761  1.00  0.00     0.049 A 
ATOM     47  H   UNL A   1      40.023  30.770  31.582  1.00  0.00     0.167 HD
ATOM     48  C   UNL A   1      40.202  32.858  35.480  1.00  0.00     0.037 A 
ATOM     49  C   UNL A   1      40.713  28.816  29.726  1.00  0.00     0.037 A 
ATOM     50  C   UNL A   1      41.165  31.793  35.566  1.00  0.00     0.049 A 
ATOM     51  C   UNL A   1      41.582  28.605  30.937  1.00  0.00     0.074 A 
ATOM     52  C   UNL A   1      41.992  31.456  36.622  1.00  0.00     0.029 A 
ATOM     53  N   UNL A   1      41.433  30.894  34.543  1.00  0.00    -0.354 N 
ATOM     54  N   UNL A   1      41.583  29.251  32.079  1.00  0.00    -0.248 NA
ATOM     55  C   UNL A   1      42.568  27.519  30.863  1.00  0.00     0.031 C 
ATOM     56  C   UNL A   1      42.796  30.384  36.219  1.00  0.00     0.029 A 
ATOM     57  C   UNL A   1      42.435  30.020  34.931  1.00  0.00     0.049 A 
ATOM     58  H   UNL A   1      40.978  30.879  33.670  1.00  0.00     0.167 HD
ATOM     59  C   UNL A   1      42.553  28.644  32.863  1.00  0.00     0.074 A 
ATOM     60  C   UNL A   1      43.100  27.556  32.076  1.00  0.00     0.031 C 
ATOM     61  C   UNL A   1      42.964  28.956  34.118  1.00  0.00     0.037 A 
BRANCH  48  62
ATOM     62  C   UNL A   1      40.076  33.803  36.638  1.00  0.00     0.064 A 
ATOM     63  C   UNL A   1      40.818  34.992  36.708  1.00  0.00     0.173 A 
ATOM     64  C   UNL A   1      39.173  33.533  37.677  1.00  0.00     0.173 A 
ATOM     65  F   UNL A   1      41.707  35.290  35.748  1.00  0.00    -0.203 F 
ATOM     66  C   UNL A   1      40.671  35.867  37.782  1.00  0.00     0.198 A 
ATOM     67  C   UNL A   1      39.011  34.420  38.737  1.00  0.00     0.198 A 
ATOM     68  F   UNL A   1      38.441  32.408  37.660  1.00  0.00    -0.203 F 
ATOM     69  F   UNL A   1      41.416  36.979  37.846  1.00  0.00    -0.200 F 
ATOM     70  C   UNL A   1      39.763  35.584  38.791  1.00  0.00     0.200 A 
ATOM     71  F   UNL A   1      38.127  34.149  39.708  1.00  0.00    -0.200 F 
ATOM     72  F   UNL A   1      39.616  36.431  39.820  1.00  0.00    -0.200 F 
ENDBRANCH  48  62
BRANCH  49  73
ATOM     73  C   UNL A   1      40.856  27.967  28.515  1.00  0.00     0.064 A 
ATOM     74  C   UNL A   1      41.652  28.364  27.432  1.00  0.00     0.173 A 
ATOM     75  C   UNL A   1      40.190  26.736  28.417  1.00  0.00     0.173 A 
ATOM     76  F   UNL A   1      42.296  29.540  27.469  1.00  0.00    -0.203 F 
ATOM     77  C   UNL A   1      41.757  27.574  26.289  1.00  0.00     0.198 A 
ATOM     78  C   UNL A   1      40.319  25.934  27.286  1.00  0.00     0.198 A 
ATOM     79  F   UNL A   1      39.420  26.307  29.428  1.00  0.00    -0.203 F 
ATOM     80  F   UNL A   1      42.488  27.999  25.248  1.00  0.00    -0.200 F 
ATOM     81  C   UNL A   1      41.095  26.357  26.218  1.00  0.00     0.200 A 
ATOM     82  F   UNL A   1      39.689  24.752  27.230  1.00  0.00    -0.200 F 
ATOM     83  F   UNL A   1      41.200  25.597  25.120  1.00  0.00    -0.200 F 
ENDBRANCH  49  73
BRANCH  61  84
ATOM     84  C   UNL A   1      44.050  28.104  34.705  1.00  0.00     0.064 A 
ATOM     85  C   UNL A   1      45.402  28.464  34.594  1.00  0.00     0.173 A 
ATOM     86  C   UNL A   1      43.737  26.927  35.401  1.00  0.00     0.173 A 
ATOM     87  F   UNL A   1      45.751  29.573  33.924  1.00  0.00    -0.203 F 
ATOM     88  C   UNL A   1      46.401  27.657  35.128  1.00  0.00     0.198 A 
ATOM     89  C   UNL A   1      44.738  26.140  35.961  1.00  0.00     0.198 A 
ATOM     90  F   UNL A   1      42.458  26.544  35.542  1.00  0.00    -0.203 F 
ATOM     91  F   UNL A   1      47.688  27.991  34.960  1.00  0.00    -0.200 F 
ATOM     92  C   UNL A   1      46.069  26.500  35.815  1.00  0.00     0.200 A 
ATOM     93  F   UNL A   1      44.414  25.028  36.637  1.00  0.00    -0.200 F 
ATOM     94  F   UNL A   1      47.033  25.725  36.328  1.00  0.00    -0.200 F 
ENDBRANCH  61  84
ENDBRANCH  35  36
ENDBRANCH  28  30
ENDBRANCH  27  28
ENDBRANCH  26  27
ENDBRANCH  25  26
ENDBRANCH  24  25
ENDBRANCH  23  24
ENDBRANCH   1  23
TORSDOF 21
ENDMDL
