MODEL 1
REMARK VINA RESULT:     -12.5      0.000      0.000
REMARK SMILES Cc1c(Cl)cccc1NC(=O)NCc1cn([C@@H]2C[NH2+][C@H](C(=O)OCCOCCOC(=O)c3ccc(-c4c5nc(c(-c6c(F)c(F)c(F)c(F)c6F)c6ccc([nH]6)c(-c6c(F)c(F)c(F)c(F)c6F)c6nc(c(-c7c(F)c(F)c(F)c(F)c7F)c7ccc4[nH]7)C=C6)C=C5)cc3)C2)nn1
REMARK SMILES IDX 25 1 24 2 23 3 21 4 22 5 20 6 17 7 18 8 95 9 19 10 16 13
REMARK SMILES IDX 14 14 15 15 97 16 96 17 13 18 12 19 9 20 10 21 11 23 8 25
REMARK SMILES IDX 1 26 2 27 3 28 4 29 5 30 7 31 6 32 26 33 27 34 28 35 29 36
REMARK SMILES IDX 30 37 31 38 32 39 33 40 94 41 34 42 93 43 35 44 36 45 37 46
REMARK SMILES IDX 87 47 38 48 92 49 86 50 88 51 39 52 91 53 85 54 84 55 40 57
REMARK SMILES IDX 72 58 52 59 71 60 53 61 56 62 70 63 89 64 54 65 55 66 69 68
REMARK SMILES IDX 90 69 57 70 41 71 42 72 50 73 43 74 44 75 48 76 51 77 45 78
REMARK SMILES IDX 46 79 49 80 47 81 73 82 74 83 82 84 75 85 76 86 80 87 83 88
REMARK SMILES IDX 77 89 78 90 81 91 79 92 58 93 59 94 67 95 60 96 61 97 65 98
REMARK SMILES IDX 68 99 62 100 63 101 66 102 64 103
REMARK H PARENT 19 11 19 12 9 22 12 24 88 56 56 67
REMARK Flexibility Score: inf
ROOT
ATOM      1  C   UNL A   1      39.328  22.084  26.196  1.00  0.00     0.202 C 
ENDROOT
BRANCH   1   2
ATOM      2  C   UNL A   1      38.238  21.352  25.411  1.00  0.00     0.261 C 
BRANCH   2   3
ATOM      3  O   UNL A   1      37.431  22.258  24.643  1.00  0.00    -0.459 OA
BRANCH   3   4
ATOM      4  C   UNL A   1      36.262  22.643  25.231  1.00  0.00     0.365 C 
ATOM      5  O   UNL A   1      35.824  23.787  25.213  1.00  0.00    -0.245 OA
BRANCH   4   6
ATOM      6  C   UNL A   1      35.463  21.438  25.769  1.00  0.00     0.295 C 
ATOM      7  C   UNL A   1      33.064  21.673  26.104  1.00  0.00     0.170 C 
ATOM      8  C   UNL A   1      33.865  22.200  27.295  1.00  0.00     0.289 C 
ATOM      9  C   UNL A   1      34.117  21.296  25.063  1.00  0.00     0.110 C 
ATOM     10  N   UNL A   1      35.171  21.536  27.220  1.00  0.00    -0.333 N 
ATOM     11  H   UNL A   1      35.128  20.608  27.639  1.00  0.00     0.347 HD
ATOM     12  H   UNL A   1      35.894  22.049  27.723  1.00  0.00     0.347 HD
BRANCH   7  13
ATOM     13  N   UNL A   1      32.119  22.646  25.609  1.00  0.00    -0.243 N 
ATOM     14  C   UNL A   1      30.989  24.000  24.367  1.00  0.00     0.102 A 
ATOM     15  C   UNL A   1      31.993  23.062  24.326  1.00  0.00     0.137 A 
ATOM     16  N   UNL A   1      30.504  24.075  25.645  1.00  0.00    -0.134 NA
ATOM     17  N   UNL A   1      31.209  23.234  26.403  1.00  0.00    -0.067 NA
BRANCH  14  18
ATOM     18  C   UNL A   1      30.505  24.746  23.192  1.00  0.00     0.178 C 
BRANCH  18  19
ATOM     19  N   UNL A   1      31.462  24.967  22.153  1.00  0.00    -0.332 N 
ATOM     20  N   UNL A   1      32.864  26.870  22.631  1.00  0.00    -0.308 N 
ATOM     21  C   UNL A   1      32.539  25.732  21.996  1.00  0.00     0.319 C 
ATOM     22  H   UNL A   1      33.733  27.204  22.311  1.00  0.00     0.171 HD
ATOM     23  O   UNL A   1      33.302  25.400  21.077  1.00  0.00    -0.248 OA
ATOM     24  H   UNL A   1      31.280  24.415  21.358  1.00  0.00     0.165 HD
BRANCH  20  25
ATOM     25  C   UNL A   1      32.341  27.729  23.618  1.00  0.00     0.047 A 
ATOM     26  C   UNL A   1      33.628  26.463  25.452  1.00  0.00     0.048 C 
ATOM     27  C   UNL A   1      32.799  27.625  24.955  1.00  0.00    -0.009 A 
ATOM     28  C   UNL A   1      32.397  28.613  25.888  1.00  0.00     0.046 A 
ATOM     29  Cl  UNL A   1      32.912  28.580  27.541  1.00  0.00    -0.084 Cl
ATOM     30  C   UNL A   1      31.545  29.653  25.521  1.00  0.00     0.021 A 
ATOM     31  C   UNL A   1      31.316  28.636  23.360  1.00  0.00     0.026 A 
ATOM     32  C   UNL A   1      30.965  29.638  24.264  1.00  0.00     0.004 A 
ENDBRANCH  20  25
ENDBRANCH  18  19
ENDBRANCH  14  18
ENDBRANCH   7  13
ENDBRANCH   4   6
ENDBRANCH   3   4
ENDBRANCH   2   3
ENDBRANCH   1   2
BRANCH   1  33
ATOM     33  O   UNL A   1      40.672  21.604  26.139  1.00  0.00    -0.374 OA
BRANCH  33  34
ATOM     34  C   UNL A   1      41.060  20.418  26.823  1.00  0.00     0.202 C 
BRANCH  34  35
ATOM     35  C   UNL A   1      42.323  19.684  26.387  1.00  0.00     0.261 C 
BRANCH  35  36
ATOM     36  O   UNL A   1      42.816  20.171  25.153  1.00  0.00    -0.460 OA
BRANCH  36  37
ATOM     37  C   UNL A   1      44.161  20.189  25.082  1.00  0.00     0.338 C 
ATOM     38  O   UNL A   1      44.927  19.242  25.251  1.00  0.00    -0.246 OA
BRANCH  37  39
ATOM     39  C   UNL A   1      44.613  21.571  24.908  1.00  0.00     0.060 A 
ATOM     40  C   UNL A   1      45.678  21.925  25.737  1.00  0.00     0.016 A 
ATOM     41  C   UNL A   1      43.687  22.504  24.423  1.00  0.00     0.016 A 
ATOM     42  C   UNL A   1      45.579  23.119  26.401  1.00  0.00     0.010 A 
ATOM     43  C   UNL A   1      43.575  23.686  25.104  1.00  0.00     0.010 A 
ATOM     44  C   UNL A   1      44.456  23.914  26.158  1.00  0.00    -0.014 A 
BRANCH  44  45
ATOM     45  C   UNL A   1      44.271  25.077  26.987  1.00  0.00     0.031 A 
ATOM     46  C   UNL A   1      45.366  26.047  26.808  1.00  0.00     0.074 A 
ATOM     47  C   UNL A   1      43.176  25.242  27.749  1.00  0.00     0.049 A 
ATOM     48  N   UNL A   1      46.261  26.381  27.674  1.00  0.00    -0.248 NA
ATOM     49  C   UNL A   1      45.635  26.525  25.442  1.00  0.00     0.031 C 
ATOM     50  C   UNL A   1      41.959  24.426  27.805  1.00  0.00     0.029 A 
ATOM     51  N   UNL A   1      42.890  26.274  28.584  1.00  0.00    -0.354 N 
ATOM     52  C   UNL A   1      47.100  27.266  27.011  1.00  0.00     0.074 A 
ATOM     53  C   UNL A   1      46.801  27.147  25.610  1.00  0.00     0.031 C 
ATOM     54  C   UNL A   1      40.989  25.120  28.445  1.00  0.00     0.029 A 
ATOM     55  C   UNL A   1      41.549  26.365  28.937  1.00  0.00     0.049 A 
ATOM     56  H   UNL A   1      43.574  26.903  28.911  1.00  0.00     0.167 HD
ATOM     57  C   UNL A   1      47.780  28.221  27.697  1.00  0.00     0.037 A 
ATOM     58  C   UNL A   1      40.970  27.463  29.489  1.00  0.00     0.037 A 
ATOM     59  C   UNL A   1      47.852  27.892  29.098  1.00  0.00     0.049 A 
ATOM     60  C   UNL A   1      42.069  28.283  30.079  1.00  0.00     0.074 A 
ATOM     61  C   UNL A   1      48.414  26.851  29.813  1.00  0.00     0.029 A 
ATOM     62  N   UNL A   1      46.944  28.485  29.943  1.00  0.00    -0.354 N 
ATOM     63  N   UNL A   1      42.762  27.901  31.119  1.00  0.00    -0.248 NA
ATOM     64  C   UNL A   1      42.727  29.257  29.216  1.00  0.00     0.031 C 
ATOM     65  C   UNL A   1      47.490  26.580  30.862  1.00  0.00     0.029 A 
ATOM     66  C   UNL A   1      46.455  27.513  30.778  1.00  0.00     0.049 A 
ATOM     67  H   UNL A   1      46.690  29.437  29.948  1.00  0.00     0.167 HD
ATOM     68  C   UNL A   1      44.074  28.242  30.814  1.00  0.00     0.074 A 
ATOM     69  C   UNL A   1      43.983  29.130  29.659  1.00  0.00     0.031 C 
ATOM     70  C   UNL A   1      45.122  27.534  31.330  1.00  0.00     0.037 A 
BRANCH  57  71
ATOM     71  C   UNL A   1      48.016  29.613  27.177  1.00  0.00     0.064 A 
ATOM     72  C   UNL A   1      49.323  30.135  27.221  1.00  0.00     0.173 A 
ATOM     73  C   UNL A   1      46.991  30.555  26.930  1.00  0.00     0.173 A 
ATOM     74  F   UNL A   1      50.371  29.331  27.452  1.00  0.00    -0.203 F 
ATOM     75  C   UNL A   1      49.570  31.505  27.129  1.00  0.00     0.198 A 
ATOM     76  C   UNL A   1      47.249  31.914  26.782  1.00  0.00     0.198 A 
ATOM     77  F   UNL A   1      45.694  30.231  26.934  1.00  0.00    -0.203 F 
ATOM     78  F   UNL A   1      50.812  31.968  27.315  1.00  0.00    -0.200 F 
ATOM     79  C   UNL A   1      48.532  32.395  26.919  1.00  0.00     0.200 A 
ATOM     80  F   UNL A   1      46.225  32.760  26.594  1.00  0.00    -0.200 F 
ATOM     81  F   UNL A   1      48.757  33.714  26.901  1.00  0.00    -0.200 F 
ENDBRANCH  57  71
BRANCH  58  82
ATOM     82  C   UNL A   1      39.612  28.000  29.226  1.00  0.00     0.064 A 
ATOM     83  C   UNL A   1      38.670  28.138  30.259  1.00  0.00     0.173 A 
ATOM     84  C   UNL A   1      39.293  28.630  28.007  1.00  0.00     0.173 A 
ATOM     85  F   UNL A   1      38.913  27.614  31.469  1.00  0.00    -0.203 F 
ATOM     86  C   UNL A   1      37.490  28.873  30.085  1.00  0.00     0.198 A 
ATOM     87  C   UNL A   1      38.114  29.356  27.831  1.00  0.00     0.198 A 
ATOM     88  F   UNL A   1      40.160  28.636  26.985  1.00  0.00    -0.203 F 
ATOM     89  F   UNL A   1      36.639  29.028  31.110  1.00  0.00    -0.200 F 
ATOM     90  C   UNL A   1      37.217  29.487  28.873  1.00  0.00     0.200 A 
ATOM     91  F   UNL A   1      37.884  29.975  26.665  1.00  0.00    -0.200 F 
ATOM     92  F   UNL A   1      36.116  30.236  28.722  1.00  0.00    -0.200 F 
ENDBRANCH  58  82
BRANCH  70  93
ATOM     93  C   UNL A   1      44.826  26.521  32.400  1.00  0.00     0.064 A 
ATOM     94  C   UNL A   1      44.548  25.167  32.140  1.00  0.00     0.173 A 
ATOM     95  C   UNL A   1      45.002  26.896  33.738  1.00  0.00     0.173 A 
ATOM     96  F   UNL A   1      44.473  24.709  30.884  1.00  0.00    -0.203 F 
ATOM     97  C   UNL A   1      44.411  24.244  33.175  1.00  0.00     0.198 A 
ATOM     98  C   UNL A   1      44.903  25.965  34.767  1.00  0.00     0.198 A 
ATOM     99  F   UNL A   1      45.331  28.161  34.041  1.00  0.00    -0.203 F 
ATOM    100  F   UNL A   1      44.141  22.959  32.900  1.00  0.00    -0.200 F 
ATOM    101  C   UNL A   1      44.598  24.643  34.488  1.00  0.00     0.200 A 
ATOM    102  F   UNL A   1      45.140  26.345  36.030  1.00  0.00    -0.200 F 
ATOM    103  F   UNL A   1      44.515  23.747  35.482  1.00  0.00    -0.200 F 
ENDBRANCH  70  93
ENDBRANCH  44  45
ENDBRANCH  37  39
ENDBRANCH  36  37
ENDBRANCH  35  36
ENDBRANCH  34  35
ENDBRANCH  33  34
ENDBRANCH   1  33
TORSDOF 18
ENDMDL
MODEL 2
REMARK VINA RESULT:     -12.4      1.268      2.097
REMARK SMILES Cc1c(Cl)cccc1NC(=O)NCc1cn([C@@H]2C[NH2+][C@H](C(=O)OCCOCCOC(=O)c3ccc(-c4c5nc(c(-c6c(F)c(F)c(F)c(F)c6F)c6ccc([nH]6)c(-c6c(F)c(F)c(F)c(F)c6F)c6nc(c(-c7c(F)c(F)c(F)c(F)c7F)c7ccc4[nH]7)C=C6)C=C5)cc3)C2)nn1
REMARK SMILES IDX 25 1 24 2 23 3 21 4 22 5 20 6 17 7 18 8 95 9 19 10 16 13
REMARK SMILES IDX 14 14 15 15 97 16 96 17 13 18 12 19 9 20 10 21 11 23 8 25
REMARK SMILES IDX 1 26 2 27 3 28 4 29 5 30 7 31 6 32 26 33 27 34 28 35 29 36
REMARK SMILES IDX 30 37 31 38 32 39 33 40 94 41 34 42 93 43 35 44 36 45 37 46
REMARK SMILES IDX 87 47 38 48 92 49 86 50 88 51 39 52 91 53 85 54 84 55 40 57
REMARK SMILES IDX 72 58 52 59 71 60 53 61 56 62 70 63 89 64 54 65 55 66 69 68
REMARK SMILES IDX 90 69 57 70 41 71 42 72 50 73 43 74 44 75 48 76 51 77 45 78
REMARK SMILES IDX 46 79 49 80 47 81 73 82 74 83 82 84 75 85 76 86 80 87 83 88
REMARK SMILES IDX 77 89 78 90 81 91 79 92 58 93 59 94 67 95 60 96 61 97 65 98
REMARK SMILES IDX 68 99 62 100 63 101 66 102 64 103
REMARK H PARENT 19 11 19 12 9 22 12 24 88 56 56 67
REMARK Flexibility Score: inf
ROOT
ATOM      1  C   UNL A   1      39.346  21.842  26.245  1.00  0.00     0.202 C 
ENDROOT
BRANCH   1   2
ATOM      2  C   UNL A   1      37.955  21.998  25.626  1.00  0.00     0.261 C 
BRANCH   2   3
ATOM      3  O   UNL A   1      37.515  23.364  25.634  1.00  0.00    -0.459 OA
BRANCH   3   4
ATOM      4  C   UNL A   1      36.168  23.546  25.522  1.00  0.00     0.365 C 
ATOM      5  O   UNL A   1      35.567  24.531  25.936  1.00  0.00    -0.245 OA
BRANCH   4   6
ATOM      6  C   UNL A   1      35.508  22.454  24.657  1.00  0.00     0.295 C 
ATOM      7  C   UNL A   1      33.880  23.111  22.971  1.00  0.00     0.170 C 
ATOM      8  C   UNL A   1      33.250  22.975  24.357  1.00  0.00     0.289 C 
ATOM      9  C   UNL A   1      35.375  22.894  23.201  1.00  0.00     0.110 C 
ATOM     10  N   UNL A   1      34.145  22.094  25.116  1.00  0.00    -0.333 N 
ATOM     11  H   UNL A   1      33.944  21.115  24.911  1.00  0.00     0.347 HD
ATOM     12  H   UNL A   1      34.035  22.208  26.123  1.00  0.00     0.347 HD
BRANCH   7  13
ATOM     13  N   UNL A   1      33.594  24.389  22.365  1.00  0.00    -0.243 N 
ATOM     14  C   UNL A   1      33.260  26.490  22.003  1.00  0.00     0.102 A 
ATOM     15  C   UNL A   1      33.633  25.597  22.979  1.00  0.00     0.137 A 
ATOM     16  N   UNL A   1      33.069  25.811  20.829  1.00  0.00    -0.134 NA
ATOM     17  N   UNL A   1      33.279  24.515  21.064  1.00  0.00    -0.067 NA
BRANCH  14  18
ATOM     18  C   UNL A   1      33.145  27.944  22.212  1.00  0.00     0.178 C 
BRANCH  18  19
ATOM     19  N   UNL A   1      31.895  28.532  21.842  1.00  0.00    -0.332 N 
ATOM     20  N   UNL A   1      30.738  29.429  23.758  1.00  0.00    -0.308 N 
ATOM     21  C   UNL A   1      30.982  29.289  22.446  1.00  0.00     0.319 C 
ATOM     22  H   UNL A   1      30.007  30.072  23.904  1.00  0.00     0.171 HD
ATOM     23  O   UNL A   1      30.192  29.877  21.692  1.00  0.00    -0.248 OA
ATOM     24  H   UNL A   1      31.650  28.328  20.911  1.00  0.00     0.165 HD
BRANCH  20  25
ATOM     25  C   UNL A   1      31.211  28.936  24.991  1.00  0.00     0.047 A 
ATOM     26  C   UNL A   1      30.320  26.587  24.433  1.00  0.00     0.048 C 
ATOM     27  C   UNL A   1      31.130  27.549  25.270  1.00  0.00    -0.009 A 
ATOM     28  C   UNL A   1      31.774  27.053  26.431  1.00  0.00     0.046 A 
ATOM     29  Cl  UNL A   1      31.743  25.374  26.853  1.00  0.00    -0.084 Cl
ATOM     30  C   UNL A   1      32.449  27.904  27.305  1.00  0.00     0.021 A 
ATOM     31  C   UNL A   1      31.685  29.768  26.003  1.00  0.00     0.026 A 
ATOM     32  C   UNL A   1      32.365  29.272  27.115  1.00  0.00     0.004 A 
ENDBRANCH  20  25
ENDBRANCH  18  19
ENDBRANCH  14  18
ENDBRANCH   7  13
ENDBRANCH   4   6
ENDBRANCH   3   4
ENDBRANCH   2   3
ENDBRANCH   1   2
BRANCH   1  33
ATOM     33  O   UNL A   1      40.021  20.588  26.139  1.00  0.00    -0.374 OA
BRANCH  33  34
ATOM     34  C   UNL A   1      41.349  20.423  26.624  1.00  0.00     0.202 C 
BRANCH  34  35
ATOM     35  C   UNL A   1      42.341  19.594  25.817  1.00  0.00     0.261 C 
BRANCH  35  36
ATOM     36  O   UNL A   1      43.651  20.126  25.888  1.00  0.00    -0.460 OA
BRANCH  36  37
ATOM     37  C   UNL A   1      44.227  20.297  24.683  1.00  0.00     0.338 C 
ATOM     38  O   UNL A   1      44.445  19.434  23.834  1.00  0.00    -0.246 OA
BRANCH  37  39
ATOM     39  C   UNL A   1      44.706  21.677  24.573  1.00  0.00     0.060 A 
ATOM     40  C   UNL A   1      45.767  21.976  25.428  1.00  0.00     0.016 A 
ATOM     41  C   UNL A   1      43.803  22.646  24.117  1.00  0.00     0.016 A 
ATOM     42  C   UNL A   1      45.682  23.142  26.141  1.00  0.00     0.010 A 
ATOM     43  C   UNL A   1      43.704  23.800  24.846  1.00  0.00     0.010 A 
ATOM     44  C   UNL A   1      44.576  23.968  25.919  1.00  0.00    -0.014 A 
BRANCH  44  45
ATOM     45  C   UNL A   1      44.402  25.098  26.794  1.00  0.00     0.031 A 
ATOM     46  C   UNL A   1      45.499  26.070  26.643  1.00  0.00     0.074 A 
ATOM     47  C   UNL A   1      43.313  25.236  27.570  1.00  0.00     0.049 A 
ATOM     48  N   UNL A   1      46.402  26.367  27.515  1.00  0.00    -0.248 NA
ATOM     49  C   UNL A   1      45.759  26.600  25.295  1.00  0.00     0.031 C 
ATOM     50  C   UNL A   1      42.095  24.423  27.605  1.00  0.00     0.029 A 
ATOM     51  N   UNL A   1      43.038  26.236  28.447  1.00  0.00    -0.354 N 
ATOM     52  C   UNL A   1      47.239  27.275  26.880  1.00  0.00     0.074 A 
ATOM     53  C   UNL A   1      46.928  27.212  25.478  1.00  0.00     0.031 C 
ATOM     54  C   UNL A   1      41.132  25.095  28.279  1.00  0.00     0.029 A 
ATOM     55  C   UNL A   1      41.701  26.318  28.815  1.00  0.00     0.049 A 
ATOM     56  H   UNL A   1      43.727  26.849  28.793  1.00  0.00     0.167 HD
ATOM     57  C   UNL A   1      47.928  28.200  27.597  1.00  0.00     0.037 A 
ATOM     58  C   UNL A   1      41.130  27.395  29.413  1.00  0.00     0.037 A 
ATOM     59  C   UNL A   1      48.010  27.817  28.983  1.00  0.00     0.049 A 
ATOM     60  C   UNL A   1      42.236  28.188  30.026  1.00  0.00     0.074 A 
ATOM     61  C   UNL A   1      48.574  26.746  29.652  1.00  0.00     0.029 A 
ATOM     62  N   UNL A   1      47.111  28.379  29.858  1.00  0.00    -0.354 N 
ATOM     63  N   UNL A   1      42.937  27.764  31.045  1.00  0.00    -0.248 NA
ATOM     64  C   UNL A   1      42.891  29.192  29.196  1.00  0.00     0.031 C 
ATOM     65  C   UNL A   1      47.657  26.438  30.697  1.00  0.00     0.029 A 
ATOM     66  C   UNL A   1      46.625  27.377  30.658  1.00  0.00     0.049 A 
ATOM     67  H   UNL A   1      46.861  29.331  29.903  1.00  0.00     0.167 HD
ATOM     68  C   UNL A   1      44.247  28.111  30.743  1.00  0.00     0.074 A 
ATOM     69  C   UNL A   1      44.150  29.045  29.623  1.00  0.00     0.031 C 
ATOM     70  C   UNL A   1      45.297  27.380  31.222  1.00  0.00     0.037 A 
BRANCH  57  71
ATOM     71  C   UNL A   1      48.164  29.611  27.129  1.00  0.00     0.064 A 
ATOM     72  C   UNL A   1      49.478  30.117  27.159  1.00  0.00     0.173 A 
ATOM     73  C   UNL A   1      47.144  30.572  26.951  1.00  0.00     0.173 A 
ATOM     74  F   UNL A   1      50.524  29.294  27.327  1.00  0.00    -0.203 F 
ATOM     75  C   UNL A   1      49.737  31.488  27.118  1.00  0.00     0.198 A 
ATOM     76  C   UNL A   1      47.412  31.934  26.853  1.00  0.00     0.198 A 
ATOM     77  F   UNL A   1      45.844  30.261  26.977  1.00  0.00    -0.203 F 
ATOM     78  F   UNL A   1      50.990  31.931  27.289  1.00  0.00    -0.200 F 
ATOM     79  C   UNL A   1      48.704  32.396  26.975  1.00  0.00     0.200 A 
ATOM     80  F   UNL A   1      46.393  32.796  26.729  1.00  0.00    -0.200 F 
ATOM     81  F   UNL A   1      48.943  33.712  27.006  1.00  0.00    -0.200 F 
ENDBRANCH  57  71
BRANCH  58  82
ATOM     82  C   UNL A   1      39.772  27.946  29.183  1.00  0.00     0.064 A 
ATOM     83  C   UNL A   1      38.838  28.046  30.228  1.00  0.00     0.173 A 
ATOM     84  C   UNL A   1      39.446  28.626  27.992  1.00  0.00     0.173 A 
ATOM     85  F   UNL A   1      39.089  27.473  31.414  1.00  0.00    -0.203 F 
ATOM     86  C   UNL A   1      37.659  28.791  30.093  1.00  0.00     0.198 A 
ATOM     87  C   UNL A   1      38.268  29.362  27.855  1.00  0.00     0.198 A 
ATOM     88  F   UNL A   1      40.305  28.670  26.965  1.00  0.00    -0.203 F 
ATOM     89  F   UNL A   1      36.817  28.908  31.129  1.00  0.00    -0.200 F 
ATOM     90  C   UNL A   1      37.379  29.454  28.909  1.00  0.00     0.200 A 
ATOM     91  F   UNL A   1      38.031  30.028  26.716  1.00  0.00    -0.200 F 
ATOM     92  F   UNL A   1      36.280  30.212  28.796  1.00  0.00    -0.200 F 
ENDBRANCH  58  82
BRANCH  70  93
ATOM     93  C   UNL A   1      45.006  26.328  32.254  1.00  0.00     0.064 A 
ATOM     94  C   UNL A   1      44.913  26.588  33.632  1.00  0.00     0.173 A 
ATOM     95  C   UNL A   1      44.638  25.050  31.814  1.00  0.00     0.173 A 
ATOM     96  F   UNL A   1      45.143  27.815  34.118  1.00  0.00    -0.203 F 
ATOM     97  C   UNL A   1      44.511  25.602  34.530  1.00  0.00     0.198 A 
ATOM     98  C   UNL A   1      44.200  24.078  32.708  1.00  0.00     0.198 A 
ATOM     99  F   UNL A   1      44.647  24.763  30.503  1.00  0.00    -0.203 F 
ATOM    100  F   UNL A   1      44.435  25.875  35.842  1.00  0.00    -0.200 F 
ATOM    101  C   UNL A   1      44.146  24.349  34.066  1.00  0.00     0.200 A 
ATOM    102  F   UNL A   1      43.795  22.886  32.247  1.00  0.00    -0.200 F 
ATOM    103  F   UNL A   1      43.712  23.413  34.922  1.00  0.00    -0.200 F 
ENDBRANCH  70  93
ENDBRANCH  44  45
ENDBRANCH  37  39
ENDBRANCH  36  37
ENDBRANCH  35  36
ENDBRANCH  34  35
ENDBRANCH  33  34
ENDBRANCH   1  33
TORSDOF 18
ENDMDL
MODEL 3
REMARK VINA RESULT:     -12.1      1.785      2.377
REMARK SMILES Cc1c(Cl)cccc1NC(=O)NCc1cn([C@@H]2C[NH2+][C@H](C(=O)OCCOCCOC(=O)c3ccc(-c4c5nc(c(-c6c(F)c(F)c(F)c(F)c6F)c6ccc([nH]6)c(-c6c(F)c(F)c(F)c(F)c6F)c6nc(c(-c7c(F)c(F)c(F)c(F)c7F)c7ccc4[nH]7)C=C6)C=C5)cc3)C2)nn1
REMARK SMILES IDX 25 1 24 2 23 3 21 4 22 5 20 6 17 7 18 8 95 9 19 10 16 13
REMARK SMILES IDX 14 14 15 15 97 16 96 17 13 18 12 19 9 20 10 21 11 23 8 25
REMARK SMILES IDX 1 26 2 27 3 28 4 29 5 30 7 31 6 32 26 33 27 34 28 35 29 36
REMARK SMILES IDX 30 37 31 38 32 39 33 40 94 41 34 42 93 43 35 44 36 45 37 46
REMARK SMILES IDX 87 47 38 48 92 49 86 50 88 51 39 52 91 53 85 54 84 55 40 57
REMARK SMILES IDX 72 58 52 59 71 60 53 61 56 62 70 63 89 64 54 65 55 66 69 68
REMARK SMILES IDX 90 69 57 70 41 71 42 72 50 73 43 74 44 75 48 76 51 77 45 78
REMARK SMILES IDX 46 79 49 80 47 81 73 82 74 83 82 84 75 85 76 86 80 87 83 88
REMARK SMILES IDX 77 89 78 90 81 91 79 92 58 93 59 94 67 95 60 96 61 97 65 98
REMARK SMILES IDX 68 99 62 100 63 101 66 102 64 103
REMARK H PARENT 19 11 19 12 9 22 12 24 88 56 56 67
REMARK Flexibility Score: inf
ROOT
ATOM      1  C   UNL A   1      38.562  21.320  25.703  1.00  0.00     0.202 C 
ENDROOT
BRANCH   1   2
ATOM      2  C   UNL A   1      37.428  21.954  24.895  1.00  0.00     0.261 C 
BRANCH   2   3
ATOM      3  O   UNL A   1      36.235  22.112  25.678  1.00  0.00    -0.459 OA
BRANCH   3   4
ATOM      4  C   UNL A   1      35.502  23.230  25.409  1.00  0.00     0.365 C 
ATOM      5  O   UNL A   1      35.947  24.372  25.439  1.00  0.00    -0.245 OA
BRANCH   4   6
ATOM      6  C   UNL A   1      34.093  22.884  24.887  1.00  0.00     0.295 C 
ATOM      7  C   UNL A   1      32.205  24.240  25.609  1.00  0.00     0.170 C 
ATOM      8  C   UNL A   1      32.548  23.147  26.621  1.00  0.00     0.289 C 
ATOM      9  C   UNL A   1      33.296  24.141  24.544  1.00  0.00     0.110 C 
ATOM     10  N   UNL A   1      33.281  22.124  25.867  1.00  0.00    -0.333 N 
ATOM     11  H   UNL A   1      32.634  21.498  25.387  1.00  0.00     0.347 HD
ATOM     12  H   UNL A   1      33.856  21.538  26.471  1.00  0.00     0.347 HD
BRANCH   7  13
ATOM     13  N   UNL A   1      32.143  25.547  26.218  1.00  0.00    -0.243 N 
ATOM     14  C   UNL A   1      32.602  27.528  26.939  1.00  0.00     0.102 A 
ATOM     15  C   UNL A   1      33.125  26.481  26.218  1.00  0.00     0.137 A 
ATOM     16  N   UNL A   1      31.316  27.224  27.295  1.00  0.00    -0.134 NA
ATOM     17  N   UNL A   1      31.043  25.999  26.844  1.00  0.00    -0.067 NA
BRANCH  14  18
ATOM     18  C   UNL A   1      33.324  28.782  27.219  1.00  0.00     0.178 C 
BRANCH  18  19
ATOM     19  N   UNL A   1      32.615  29.990  26.930  1.00  0.00    -0.332 N 
ATOM     20  N   UNL A   1      31.780  30.007  24.668  1.00  0.00    -0.308 N 
ATOM     21  C   UNL A   1      31.838  30.426  25.942  1.00  0.00     0.319 C 
ATOM     22  H   UNL A   1      31.096  30.512  24.171  1.00  0.00     0.171 HD
ATOM     23  O   UNL A   1      31.136  31.413  26.209  1.00  0.00    -0.248 OA
ATOM     24  H   UNL A   1      32.728  30.665  27.638  1.00  0.00     0.165 HD
BRANCH  20  25
ATOM     25  C   UNL A   1      32.400  29.063  23.825  1.00  0.00     0.047 A 
ATOM     26  C   UNL A   1      30.275  27.611  23.830  1.00  0.00     0.048 C 
ATOM     27  C   UNL A   1      31.647  27.976  23.314  1.00  0.00    -0.009 A 
ATOM     28  C   UNL A   1      32.238  27.147  22.328  1.00  0.00     0.046 A 
ATOM     29  Cl  UNL A   1      31.397  25.802  21.633  1.00  0.00    -0.084 Cl
ATOM     30  C   UNL A   1      33.542  27.364  21.885  1.00  0.00     0.021 A 
ATOM     31  C   UNL A   1      33.761  29.096  23.531  1.00  0.00     0.026 A 
ATOM     32  C   UNL A   1      34.322  28.313  22.522  1.00  0.00     0.004 A 
ENDBRANCH  20  25
ENDBRANCH  18  19
ENDBRANCH  14  18
ENDBRANCH   7  13
ENDBRANCH   4   6
ENDBRANCH   3   4
ENDBRANCH   2   3
ENDBRANCH   1   2
BRANCH   1  33
ATOM     33  O   UNL A   1      39.576  22.157  26.261  1.00  0.00    -0.374 OA
BRANCH  33  34
ATOM     34  C   UNL A   1      40.521  21.647  27.195  1.00  0.00     0.202 C 
BRANCH  34  35
ATOM     35  C   UNL A   1      41.612  20.699  26.712  1.00  0.00     0.261 C 
BRANCH  35  36
ATOM     36  O   UNL A   1      42.165  21.117  25.479  1.00  0.00    -0.460 OA
BRANCH  36  37
ATOM     37  C   UNL A   1      43.504  20.985  25.418  1.00  0.00     0.338 C 
ATOM     38  O   UNL A   1      44.155  19.948  25.539  1.00  0.00    -0.246 OA
BRANCH  37  39
ATOM     39  C   UNL A   1      44.112  22.314  25.327  1.00  0.00     0.060 A 
ATOM     40  C   UNL A   1      45.013  22.594  26.355  1.00  0.00     0.016 A 
ATOM     41  C   UNL A   1      43.400  23.313  24.650  1.00  0.00     0.016 A 
ATOM     42  C   UNL A   1      44.895  23.811  26.971  1.00  0.00     0.010 A 
ATOM     43  C   UNL A   1      43.265  24.520  25.279  1.00  0.00     0.010 A 
ATOM     44  C   UNL A   1      43.928  24.699  26.491  1.00  0.00    -0.014 A 
BRANCH  44  45
ATOM     45  C   UNL A   1      43.689  25.898  27.251  1.00  0.00     0.031 A 
ATOM     46  C   UNL A   1      44.707  26.927  26.969  1.00  0.00     0.074 A 
ATOM     47  C   UNL A   1      42.611  26.038  28.042  1.00  0.00     0.049 A 
ATOM     48  N   UNL A   1      45.604  27.378  27.777  1.00  0.00    -0.248 NA
ATOM     49  C   UNL A   1      44.895  27.331  25.566  1.00  0.00     0.031 C 
ATOM     50  C   UNL A   1      41.458  25.147  28.196  1.00  0.00     0.029 A 
ATOM     51  N   UNL A   1      42.281  27.101  28.820  1.00  0.00    -0.354 N 
ATOM     52  C   UNL A   1      46.355  28.272  27.028  1.00  0.00     0.074 A 
ATOM     53  C   UNL A   1      46.019  28.041  25.650  1.00  0.00     0.031 C 
ATOM     54  C   UNL A   1      40.463  25.813  28.827  1.00  0.00     0.029 A 
ATOM     55  C   UNL A   1      40.950  27.124  29.217  1.00  0.00     0.049 A 
ATOM     56  H   UNL A   1      42.929  27.795  29.079  1.00  0.00     0.167 HD
ATOM     57  C   UNL A   1      46.989  29.315  27.626  1.00  0.00     0.037 A 
ATOM     58  C   UNL A   1      40.313  28.213  29.719  1.00  0.00     0.037 A 
ATOM     59  C   UNL A   1      47.130  29.086  29.041  1.00  0.00     0.049 A 
ATOM     60  C   UNL A   1      41.370  29.144  30.214  1.00  0.00     0.074 A 
ATOM     61  C   UNL A   1      47.789  28.134  29.798  1.00  0.00     0.029 A 
ATOM     62  N   UNL A   1      46.212  29.669  29.880  1.00  0.00    -0.354 N 
ATOM     63  N   UNL A   1      42.123  28.880  31.249  1.00  0.00    -0.248 NA
ATOM     64  C   UNL A   1      41.929  30.101  29.266  1.00  0.00     0.031 C 
ATOM     65  C   UNL A   1      46.921  27.871  30.897  1.00  0.00     0.029 A 
ATOM     66  C   UNL A   1      45.821  28.723  30.793  1.00  0.00     0.049 A 
ATOM     67  H   UNL A   1      45.892  30.600  29.835  1.00  0.00     0.167 HD
ATOM     68  C   UNL A   1      43.397  29.288  30.874  1.00  0.00     0.074 A 
ATOM     69  C   UNL A   1      43.205  30.090  29.668  1.00  0.00     0.031 C 
ATOM     70  C   UNL A   1      44.509  28.689  31.393  1.00  0.00     0.037 A 
BRANCH  57  71
ATOM     71  C   UNL A   1      47.108  30.683  27.009  1.00  0.00     0.064 A 
ATOM     72  C   UNL A   1      48.366  31.315  27.015  1.00  0.00     0.173 A 
ATOM     73  C   UNL A   1      46.009  31.515  26.699  1.00  0.00     0.173 A 
ATOM     74  F   UNL A   1      49.478  30.621  27.299  1.00  0.00    -0.203 F 
ATOM     75  C   UNL A   1      48.496  32.692  26.827  1.00  0.00     0.198 A 
ATOM     76  C   UNL A   1      46.151  32.878  26.456  1.00  0.00     0.198 A 
ATOM     77  F   UNL A   1      44.743  31.083  26.728  1.00  0.00    -0.203 F 
ATOM     78  F   UNL A   1      49.694  33.270  26.978  1.00  0.00    -0.200 F 
ATOM     79  C   UNL A   1      47.388  33.473  26.558  1.00  0.00     0.200 A 
ATOM     80  F   UNL A   1      45.059  33.618  26.212  1.00  0.00    -0.200 F 
ATOM     81  F   UNL A   1      47.500  34.802  26.447  1.00  0.00    -0.200 F 
ENDBRANCH  57  71
BRANCH  58  82
ATOM     82  C   UNL A   1      38.913  28.637  29.475  1.00  0.00     0.064 A 
ATOM     83  C   UNL A   1      38.027  28.880  30.538  1.00  0.00     0.173 A 
ATOM     84  C   UNL A   1      38.485  29.063  28.202  1.00  0.00     0.173 A 
ATOM     85  F   UNL A   1      38.374  28.553  31.792  1.00  0.00    -0.203 F 
ATOM     86  C   UNL A   1      36.798  29.521  30.341  1.00  0.00     0.198 A 
ATOM     87  C   UNL A   1      37.257  29.696  28.004  1.00  0.00     0.198 A 
ATOM     88  F   UNL A   1      39.287  28.961  27.133  1.00  0.00    -0.203 F 
ATOM     89  F   UNL A   1      36.003  29.784  31.388  1.00  0.00    -0.200 F 
ATOM     90  C   UNL A   1      36.417  29.935  29.075  1.00  0.00     0.200 A 
ATOM     91  F   UNL A   1      36.920  30.124  26.778  1.00  0.00    -0.200 F 
ATOM     92  F   UNL A   1      35.267  30.598  28.892  1.00  0.00    -0.200 F 
ENDBRANCH  58  82
BRANCH  70  93
ATOM     93  C   UNL A   1      44.321  27.732  32.536  1.00  0.00     0.064 A 
ATOM     94  C   UNL A   1      44.137  26.347  32.374  1.00  0.00     0.173 A 
ATOM     95  C   UNL A   1      44.510  28.207  33.840  1.00  0.00     0.173 A 
ATOM     96  F   UNL A   1      44.059  25.802  31.153  1.00  0.00    -0.203 F 
ATOM     97  C   UNL A   1      44.100  25.488  33.470  1.00  0.00     0.198 A 
ATOM     98  C   UNL A   1      44.511  27.343  34.930  1.00  0.00     0.198 A 
ATOM     99  F   UNL A   1      44.752  29.510  34.049  1.00  0.00    -0.203 F 
ATOM    100  F   UNL A   1      43.917  24.171  33.288  1.00  0.00    -0.200 F 
ATOM    101  C   UNL A   1      44.297  25.986  34.747  1.00  0.00     0.200 A 
ATOM    102  F   UNL A   1      44.757  27.822  36.156  1.00  0.00    -0.200 F 
ATOM    103  F   UNL A   1      44.310  25.155  35.799  1.00  0.00    -0.200 F 
ENDBRANCH  70  93
ENDBRANCH  44  45
ENDBRANCH  37  39
ENDBRANCH  36  37
ENDBRANCH  35  36
ENDBRANCH  34  35
ENDBRANCH  33  34
ENDBRANCH   1  33
TORSDOF 18
ENDMDL
