MODEL 1
REMARK VINA RESULT:     -12.3      0.000      0.000
REMARK SMILES O=C(OCCOCCOC(=O)[C@H]1C[N@H+](Cc2cccc(Cl)c2)CC12CCCCC2)c1ccc(-c2c3nc(c(-c4c(F)c(F)c(F)c(F)c4F)c4ccc([nH]4)c(-c4c(F)c(F)c(F)c(F)c4F)c4nc(c(-c5c(F)c(F)c(F)c(F)c5F)c5ccc2[nH]5)C=C4)C=C3)cc1
REMARK SMILES IDX 6 1 5 2 4 3 3 4 2 5 1 6 30 7 31 8 92 9 32 10 91 11 33 12
REMARK SMILES IDX 34 13 35 14 85 15 36 16 90 17 84 18 86 19 37 20 89 21 83 22
REMARK SMILES IDX 82 23 38 25 70 26 50 27 69 28 51 29 54 30 68 31 87 32 52 33
REMARK SMILES IDX 53 34 67 36 88 37 55 38 39 39 40 40 48 41 41 42 42 43 46 44
REMARK SMILES IDX 49 45 43 46 44 47 47 48 45 49 71 50 72 51 80 52 73 53 74 54
REMARK SMILES IDX 78 55 81 56 75 57 76 58 79 59 77 60 56 61 57 62 65 63 58 64
REMARK SMILES IDX 59 65 63 66 66 67 60 68 61 69 64 70 62 71 7 72 8 73 9 74
REMARK SMILES IDX 10 75 11 76 12 77 13 78 24 79 14 80 23 81 25 82 29 83 26 85
REMARK SMILES IDX 28 86 27 87 15 88 16 89 17 90 22 91 18 92 20 93 19 94 21 95
REMARK H PARENT 86 24 54 35 14 84
REMARK Flexibility Score: inf
ROOT
ATOM      1  O   UNL A   1      33.224  30.870  27.076  1.00  0.00    -0.374 OA
ENDROOT
BRANCH   1   2
ATOM      2  C   UNL A   1      31.969  31.493  26.784  1.00  0.00     0.202 C 
BRANCH   2   3
ATOM      3  C   UNL A   1      31.899  33.029  26.825  1.00  0.00     0.261 C 
BRANCH   3   4
ATOM      4  O   UNL A   1      32.238  33.548  28.121  1.00  0.00    -0.460 OA
BRANCH   4   5
ATOM      5  C   UNL A   1      33.357  34.220  28.487  1.00  0.00     0.338 C 
ATOM      6  O   UNL A   1      33.381  35.442  28.358  1.00  0.00    -0.246 OA
BRANCH   5   7
ATOM      7  C   UNL A   1      34.591  33.546  28.996  1.00  0.00     0.060 A 
ATOM      8  C   UNL A   1      34.600  32.330  29.672  1.00  0.00     0.016 A 
ATOM      9  C   UNL A   1      35.834  34.130  28.698  1.00  0.00     0.016 A 
ATOM     10  C   UNL A   1      35.751  31.660  29.978  1.00  0.00     0.010 A 
ATOM     11  C   UNL A   1      37.027  33.492  29.059  1.00  0.00     0.010 A 
ATOM     12  C   UNL A   1      36.966  32.247  29.687  1.00  0.00    -0.014 A 
BRANCH  12  13
ATOM     13  C   UNL A   1      38.088  31.562  30.321  1.00  0.00     0.031 A 
ATOM     14  C   UNL A   1      38.239  31.760  31.793  1.00  0.00     0.074 A 
ATOM     15  C   UNL A   1      38.674  30.554  29.653  1.00  0.00     0.049 A 
ATOM     16  N   UNL A   1      39.116  31.255  32.609  1.00  0.00    -0.248 NA
ATOM     17  C   UNL A   1      37.224  32.611  32.446  1.00  0.00     0.031 C 
ATOM     18  C   UNL A   1      38.334  30.133  28.288  1.00  0.00     0.029 A 
ATOM     19  N   UNL A   1      39.622  29.657  30.050  1.00  0.00    -0.354 N 
ATOM     20  C   UNL A   1      38.785  31.756  33.860  1.00  0.00     0.074 A 
ATOM     21  C   UNL A   1      37.616  32.587  33.709  1.00  0.00     0.031 C 
ATOM     22  C   UNL A   1      39.074  29.062  27.962  1.00  0.00     0.029 A 
ATOM     23  C   UNL A   1      39.990  28.785  29.058  1.00  0.00     0.049 A 
ATOM     24  H   UNL A   1      40.003  29.639  30.957  1.00  0.00     0.167 HD
ATOM     25  C   UNL A   1      39.437  31.541  35.021  1.00  0.00     0.037 A 
ATOM     26  C   UNL A   1      41.011  27.910  29.044  1.00  0.00     0.037 A 
ATOM     27  C   UNL A   1      40.608  30.713  35.092  1.00  0.00     0.049 A 
ATOM     28  C   UNL A   1      41.844  27.836  30.297  1.00  0.00     0.074 A 
ATOM     29  C   UNL A   1      41.473  30.511  36.146  1.00  0.00     0.029 A 
ATOM     30  N   UNL A   1      41.071  29.941  34.029  1.00  0.00    -0.354 N 
ATOM     31  N   UNL A   1      41.652  28.429  31.454  1.00  0.00    -0.248 NA
ATOM     32  C   UNL A   1      43.043  26.997  30.242  1.00  0.00     0.031 C 
ATOM     33  C   UNL A   1      42.490  29.657  35.703  1.00  0.00     0.029 A 
ATOM     34  C   UNL A   1      42.221  29.273  34.395  1.00  0.00     0.049 A 
ATOM     35  H   UNL A   1      40.640  29.881  33.146  1.00  0.00     0.167 HD
ATOM     36  C   UNL A   1      42.690  28.020  32.275  1.00  0.00     0.074 A 
ATOM     37  C   UNL A   1      43.497  27.108  31.483  1.00  0.00     0.031 C 
ATOM     38  C   UNL A   1      42.966  28.363  33.558  1.00  0.00     0.037 A 
BRANCH  25  39
ATOM     39  C   UNL A   1      38.965  32.310  36.216  1.00  0.00     0.064 A 
ATOM     40  C   UNL A   1      39.431  33.601  36.509  1.00  0.00     0.173 A 
ATOM     41  C   UNL A   1      38.092  31.706  37.133  1.00  0.00     0.173 A 
ATOM     42  F   UNL A   1      40.305  34.206  35.690  1.00  0.00    -0.203 F 
ATOM     43  C   UNL A   1      39.061  34.245  37.688  1.00  0.00     0.198 A 
ATOM     44  C   UNL A   1      37.703  32.363  38.298  1.00  0.00     0.198 A 
ATOM     45  F   UNL A   1      37.639  30.462  36.916  1.00  0.00    -0.203 F 
ATOM     46  F   UNL A   1      39.575  35.448  37.983  1.00  0.00    -0.200 F 
ATOM     47  C   UNL A   1      38.195  33.628  38.579  1.00  0.00     0.200 A 
ATOM     48  F   UNL A   1      36.872  31.760  39.159  1.00  0.00    -0.200 F 
ATOM     49  F   UNL A   1      37.853  34.242  39.720  1.00  0.00    -0.200 F 
ENDBRANCH  25  39
BRANCH  26  50
ATOM     50  C   UNL A   1      41.359  27.156  27.810  1.00  0.00     0.064 A 
ATOM     51  C   UNL A   1      40.929  25.838  27.610  1.00  0.00     0.173 A 
ATOM     52  C   UNL A   1      42.183  27.723  26.820  1.00  0.00     0.173 A 
ATOM     53  F   UNL A   1      40.157  25.239  28.528  1.00  0.00    -0.203 F 
ATOM     54  C   UNL A   1      41.335  25.108  26.492  1.00  0.00     0.198 A 
ATOM     55  C   UNL A   1      42.556  27.005  25.686  1.00  0.00     0.198 A 
ATOM     56  F   UNL A   1      42.632  28.980  26.954  1.00  0.00    -0.203 F 
ATOM     57  F   UNL A   1      40.962  23.827  26.361  1.00  0.00    -0.200 F 
ATOM     58  C   UNL A   1      42.144  25.692  25.530  1.00  0.00     0.200 A 
ATOM     59  F   UNL A   1      43.327  27.583  24.755  1.00  0.00    -0.200 F 
ATOM     60  F   UNL A   1      42.543  24.986  24.463  1.00  0.00    -0.200 F 
ENDBRANCH  26  50
BRANCH  38  61
ATOM     61  C   UNL A   1      44.154  27.701  34.183  1.00  0.00     0.064 A 
ATOM     62  C   UNL A   1      45.421  28.298  34.171  1.00  0.00     0.173 A 
ATOM     63  C   UNL A   1      44.000  26.476  34.847  1.00  0.00     0.173 A 
ATOM     64  F   UNL A   1      45.615  29.462  33.532  1.00  0.00    -0.203 F 
ATOM     65  C   UNL A   1      46.504  27.675  34.781  1.00  0.00     0.198 A 
ATOM     66  C   UNL A   1      45.075  25.877  35.490  1.00  0.00     0.198 A 
ATOM     67  F   UNL A   1      42.802  25.875  34.890  1.00  0.00    -0.203 F 
ATOM     68  F   UNL A   1      47.720  28.234  34.712  1.00  0.00    -0.200 F 
ATOM     69  C   UNL A   1      46.327  26.471  35.449  1.00  0.00     0.200 A 
ATOM     70  F   UNL A   1      44.900  24.725  36.152  1.00  0.00    -0.200 F 
ATOM     71  F   UNL A   1      47.369  25.880  36.049  1.00  0.00    -0.200 F 
ENDBRANCH  38  61
ENDBRANCH  12  13
ENDBRANCH   5   7
ENDBRANCH   4   5
ENDBRANCH   3   4
ENDBRANCH   2   3
ENDBRANCH   1   2
BRANCH   1  72
ATOM     72  C   UNL A   1      33.206  29.445  27.217  1.00  0.00     0.202 C 
BRANCH  72  73
ATOM     73  C   UNL A   1      34.433  28.833  26.570  1.00  0.00     0.261 C 
BRANCH  73  74
ATOM     74  O   UNL A   1      33.984  28.244  25.349  1.00  0.00    -0.463 OA
BRANCH  74  75
ATOM     75  C   UNL A   1      33.254  27.112  25.459  1.00  0.00     0.315 C 
ATOM     76  O   UNL A   1      33.501  26.167  26.205  1.00  0.00    -0.252 OA
BRANCH  75  77
ATOM     77  C   UNL A   1      32.064  27.150  24.541  1.00  0.00     0.166 C 
ATOM     78  C   UNL A   1      31.934  28.420  23.718  1.00  0.00     0.278 C 
ATOM     79  C   UNL A   1      31.942  25.997  23.522  1.00  0.00     0.038 C 
ATOM     80  N   UNL A   1      31.012  28.102  22.640  1.00  0.00    -0.330 N 
ATOM     81  C   UNL A   1      31.282  26.700  22.293  1.00  0.00     0.270 C 
ATOM     82  C   UNL A   1      33.298  25.338  23.142  1.00  0.00     0.014 C 
ATOM     83  C   UNL A   1      31.049  24.919  24.163  1.00  0.00     0.014 C 
ATOM     84  H   UNL A   1      31.179  28.683  21.818  1.00  0.00     0.348 HD
ATOM     85  C   UNL A   1      33.176  24.042  22.349  1.00  0.00     0.001 C 
ATOM     86  C   UNL A   1      30.901  23.670  23.313  1.00  0.00     0.001 C 
ATOM     87  C   UNL A   1      32.265  23.051  23.064  1.00  0.00     0.000 C 
BRANCH  80  88
ATOM     88  C   UNL A   1      29.615  28.518  22.841  1.00  0.00     0.299 C 
BRANCH  88  89
ATOM     89  C   UNL A   1      29.304  29.991  22.693  1.00  0.00     0.008 A 
ATOM     90  C   UNL A   1      29.219  30.836  23.813  1.00  0.00     0.009 A 
ATOM     91  C   UNL A   1      28.989  30.515  21.431  1.00  0.00     0.030 A 
ATOM     92  C   UNL A   1      28.677  32.118  23.696  1.00  0.00     0.002 A 
ATOM     93  C   UNL A   1      28.467  31.803  21.316  1.00  0.00     0.041 A 
ATOM     94  C   UNL A   1      28.276  32.593  22.449  1.00  0.00     0.020 A 
ATOM     95  Cl  UNL A   1      27.934  32.367  19.781  1.00  0.00    -0.084 Cl
ENDBRANCH  88  89
ENDBRANCH  80  88
ENDBRANCH  75  77
ENDBRANCH  74  75
ENDBRANCH  73  74
ENDBRANCH  72  73
ENDBRANCH   1  72
TORSDOF 16
ENDMDL
MODEL 2
REMARK VINA RESULT:     -12.0      1.154      7.361
REMARK SMILES O=C(OCCOCCOC(=O)[C@H]1C[N@H+](Cc2cccc(Cl)c2)CC12CCCCC2)c1ccc(-c2c3nc(c(-c4c(F)c(F)c(F)c(F)c4F)c4ccc([nH]4)c(-c4c(F)c(F)c(F)c(F)c4F)c4nc(c(-c5c(F)c(F)c(F)c(F)c5F)c5ccc2[nH]5)C=C4)C=C3)cc1
REMARK SMILES IDX 6 1 5 2 4 3 3 4 2 5 1 6 30 7 31 8 92 9 32 10 91 11 33 12
REMARK SMILES IDX 34 13 35 14 85 15 36 16 90 17 84 18 86 19 37 20 89 21 83 22
REMARK SMILES IDX 82 23 38 25 70 26 50 27 69 28 51 29 54 30 68 31 87 32 52 33
REMARK SMILES IDX 53 34 67 36 88 37 55 38 39 39 40 40 48 41 41 42 42 43 46 44
REMARK SMILES IDX 49 45 43 46 44 47 47 48 45 49 71 50 72 51 80 52 73 53 74 54
REMARK SMILES IDX 78 55 81 56 75 57 76 58 79 59 77 60 56 61 57 62 65 63 58 64
REMARK SMILES IDX 59 65 63 66 66 67 60 68 61 69 64 70 62 71 7 72 8 73 9 74
REMARK SMILES IDX 10 75 11 76 12 77 13 78 24 79 14 80 23 81 25 82 29 83 26 85
REMARK SMILES IDX 28 86 27 87 15 88 16 89 17 90 22 91 18 92 20 93 19 94 21 95
REMARK H PARENT 86 24 54 35 14 84
REMARK Flexibility Score: inf
ROOT
ATOM      1  O   UNL A   1      33.501  31.022  27.245  1.00  0.00    -0.374 OA
ENDROOT
BRANCH   1   2
ATOM      2  C   UNL A   1      32.192  31.567  27.052  1.00  0.00     0.202 C 
BRANCH   2   3
ATOM      3  C   UNL A   1      32.064  33.090  26.872  1.00  0.00     0.261 C 
BRANCH   3   4
ATOM      4  O   UNL A   1      32.207  33.791  28.118  1.00  0.00    -0.460 OA
BRANCH   4   5
ATOM      5  C   UNL A   1      33.285  34.475  28.573  1.00  0.00     0.338 C 
ATOM      6  O   UNL A   1      33.342  35.687  28.375  1.00  0.00    -0.246 OA
BRANCH   5   7
ATOM      7  C   UNL A   1      34.442  33.825  29.263  1.00  0.00     0.060 A 
ATOM      8  C   UNL A   1      34.331  32.746  30.134  1.00  0.00     0.016 A 
ATOM      9  C   UNL A   1      35.737  34.270  28.946  1.00  0.00     0.016 A 
ATOM     10  C   UNL A   1      35.414  32.069  30.619  1.00  0.00     0.010 A 
ATOM     11  C   UNL A   1      36.861  33.631  29.482  1.00  0.00     0.010 A 
ATOM     12  C   UNL A   1      36.681  32.520  30.307  1.00  0.00    -0.014 A 
BRANCH  12  13
ATOM     13  C   UNL A   1      37.719  31.887  31.114  1.00  0.00     0.031 A 
ATOM     14  C   UNL A   1      38.574  30.878  30.422  1.00  0.00     0.074 A 
ATOM     15  C   UNL A   1      38.071  32.477  32.269  1.00  0.00     0.049 A 
ATOM     16  N   UNL A   1      39.577  30.190  30.881  1.00  0.00    -0.248 NA
ATOM     17  C   UNL A   1      38.285  30.646  28.992  1.00  0.00     0.031 C 
ATOM     18  C   UNL A   1      37.434  33.672  32.837  1.00  0.00     0.029 A 
ATOM     19  N   UNL A   1      39.089  32.202  33.133  1.00  0.00    -0.354 N 
ATOM     20  C   UNL A   1      40.013  29.420  29.814  1.00  0.00     0.074 A 
ATOM     21  C   UNL A   1      39.187  29.733  28.674  1.00  0.00     0.031 C 
ATOM     22  C   UNL A   1      38.076  34.018  33.964  1.00  0.00     0.029 A 
ATOM     23  C   UNL A   1      39.103  33.023  34.232  1.00  0.00     0.049 A 
ATOM     24  H   UNL A   1      39.747  31.486  32.984  1.00  0.00     0.167 HD
ATOM     25  C   UNL A   1      41.013  28.513  29.818  1.00  0.00     0.037 A 
ATOM     26  C   UNL A   1      39.837  32.915  35.353  1.00  0.00     0.037 A 
ATOM     27  C   UNL A   1      41.784  28.241  30.998  1.00  0.00     0.049 A 
ATOM     28  C   UNL A   1      40.812  31.768  35.405  1.00  0.00     0.074 A 
ATOM     29  C   UNL A   1      42.722  27.256  31.221  1.00  0.00     0.029 A 
ATOM     30  N   UNL A   1      41.685  28.985  32.172  1.00  0.00    -0.354 N 
ATOM     31  N   UNL A   1      41.131  30.911  34.461  1.00  0.00    -0.248 NA
ATOM     32  C   UNL A   1      41.510  31.553  36.675  1.00  0.00     0.031 C 
ATOM     33  C   UNL A   1      43.154  27.373  32.548  1.00  0.00     0.029 A 
ATOM     34  C   UNL A   1      42.535  28.472  33.131  1.00  0.00     0.049 A 
ATOM     35  H   UNL A   1      41.096  29.764  32.298  1.00  0.00     0.167 HD
ATOM     36  C   UNL A   1      42.083  30.068  35.011  1.00  0.00     0.074 A 
ATOM     37  C   UNL A   1      42.303  30.536  36.368  1.00  0.00     0.031 C 
ATOM     38  C   UNL A   1      42.716  29.001  34.461  1.00  0.00     0.037 A 
BRANCH  25  39
ATOM     39  C   UNL A   1      41.201  27.704  28.573  1.00  0.00     0.064 A 
ATOM     40  C   UNL A   1      42.138  28.052  27.587  1.00  0.00     0.173 A 
ATOM     41  C   UNL A   1      40.365  26.606  28.321  1.00  0.00     0.173 A 
ATOM     42  F   UNL A   1      42.930  29.123  27.756  1.00  0.00    -0.203 F 
ATOM     43  C   UNL A   1      42.211  27.347  26.387  1.00  0.00     0.198 A 
ATOM     44  C   UNL A   1      40.458  25.887  27.132  1.00  0.00     0.198 A 
ATOM     45  F   UNL A   1      39.433  26.248  29.217  1.00  0.00    -0.203 F 
ATOM     46  F   UNL A   1      43.063  27.742  25.431  1.00  0.00    -0.200 F 
ATOM     47  C   UNL A   1      41.373  26.264  26.162  1.00  0.00     0.200 A 
ATOM     48  F   UNL A   1      39.643  24.846  26.916  1.00  0.00    -0.200 F 
ATOM     49  F   UNL A   1      41.434  25.597  25.001  1.00  0.00    -0.200 F 
ENDBRANCH  25  39
BRANCH  26  50
ATOM     50  C   UNL A   1      39.601  33.812  36.515  1.00  0.00     0.064 A 
ATOM     51  C   UNL A   1      40.233  35.058  36.622  1.00  0.00     0.173 A 
ATOM     52  C   UNL A   1      38.771  33.417  37.581  1.00  0.00     0.173 A 
ATOM     53  F   UNL A   1      41.049  35.479  35.646  1.00  0.00    -0.203 F 
ATOM     54  C   UNL A   1      40.075  35.853  37.758  1.00  0.00     0.198 A 
ATOM     55  C   UNL A   1      38.585  34.229  38.697  1.00  0.00     0.198 A 
ATOM     56  F   UNL A   1      38.140  32.234  37.542  1.00  0.00    -0.203 F 
ATOM     57  F   UNL A   1      40.746  37.009  37.861  1.00  0.00    -0.200 F 
ATOM     58  C   UNL A   1      39.250  35.440  38.792  1.00  0.00     0.200 A 
ATOM     59  F   UNL A   1      37.774  33.829  39.686  1.00  0.00    -0.200 F 
ATOM     60  F   UNL A   1      39.109  36.200  39.887  1.00  0.00    -0.200 F 
ENDBRANCH  26  50
BRANCH  38  61
ATOM     61  C   UNL A   1      43.738  28.320  35.316  1.00  0.00     0.064 A 
ATOM     62  C   UNL A   1      45.082  28.719  35.318  1.00  0.00     0.173 A 
ATOM     63  C   UNL A   1      43.348  27.290  36.183  1.00  0.00     0.173 A 
ATOM     64  F   UNL A   1      45.500  29.690  34.491  1.00  0.00    -0.203 F 
ATOM     65  C   UNL A   1      46.007  28.088  36.140  1.00  0.00     0.198 A 
ATOM     66  C   UNL A   1      44.268  26.689  37.033  1.00  0.00     0.198 A 
ATOM     67  F   UNL A   1      42.070  26.884  36.220  1.00  0.00    -0.203 F 
ATOM     68  F   UNL A   1      47.298  28.445  36.089  1.00  0.00    -0.200 F 
ATOM     69  C   UNL A   1      45.597  27.082  37.004  1.00  0.00     0.200 A 
ATOM     70  F   UNL A   1      43.867  25.732  37.881  1.00  0.00    -0.200 F 
ATOM     71  F   UNL A   1      46.489  26.485  37.808  1.00  0.00    -0.200 F 
ENDBRANCH  38  61
ENDBRANCH  12  13
ENDBRANCH   5   7
ENDBRANCH   4   5
ENDBRANCH   3   4
ENDBRANCH   2   3
ENDBRANCH   1   2
BRANCH   1  72
ATOM     72  C   UNL A   1      33.565  29.628  27.570  1.00  0.00     0.202 C 
BRANCH  72  73
ATOM     73  C   UNL A   1      34.424  28.888  26.563  1.00  0.00     0.261 C 
BRANCH  73  74
ATOM     74  O   UNL A   1      33.555  28.538  25.485  1.00  0.00    -0.463 OA
BRANCH  74  75
ATOM     75  C   UNL A   1      32.772  27.452  25.672  1.00  0.00     0.315 C 
ATOM     76  O   UNL A   1      32.959  26.565  26.501  1.00  0.00    -0.252 OA
BRANCH  75  77
ATOM     77  C   UNL A   1      31.606  27.462  24.723  1.00  0.00     0.166 C 
ATOM     78  C   UNL A   1      31.432  28.753  23.940  1.00  0.00     0.278 C 
ATOM     79  C   UNL A   1      31.569  26.342  23.663  1.00  0.00     0.038 C 
ATOM     80  N   UNL A   1      30.556  28.427  22.827  1.00  0.00    -0.330 N 
ATOM     81  C   UNL A   1      30.906  27.053  22.441  1.00  0.00     0.270 C 
ATOM     82  C   UNL A   1      32.966  25.765  23.299  1.00  0.00     0.014 C 
ATOM     83  C   UNL A   1      30.716  25.198  24.242  1.00  0.00     0.014 C 
ATOM     84  H   UNL A   1      30.715  29.044  22.030  1.00  0.00     0.348 HD
ATOM     85  C   UNL A   1      32.930  24.493  22.459  1.00  0.00     0.001 C 
ATOM     86  C   UNL A   1      30.653  23.973  23.347  1.00  0.00     0.001 C 
ATOM     87  C   UNL A   1      32.053  23.433  23.115  1.00  0.00     0.000 C 
BRANCH  80  88
ATOM     88  C   UNL A   1      29.135  28.765  23.004  1.00  0.00     0.299 C 
BRANCH  88  89
ATOM     89  C   UNL A   1      28.677  30.114  22.495  1.00  0.00     0.008 A 
ATOM     90  C   UNL A   1      28.043  30.249  21.248  1.00  0.00     0.009 A 
ATOM     91  C   UNL A   1      28.976  31.273  23.225  1.00  0.00     0.030 A 
ATOM     92  C   UNL A   1      27.866  31.509  20.674  1.00  0.00     0.002 A 
ATOM     93  C   UNL A   1      28.778  32.531  22.656  1.00  0.00     0.041 A 
ATOM     94  C   UNL A   1      28.258  32.652  21.369  1.00  0.00     0.020 A 
ATOM     95  Cl  UNL A   1      29.304  33.935  23.501  1.00  0.00    -0.084 Cl
ENDBRANCH  88  89
ENDBRANCH  80  88
ENDBRANCH  75  77
ENDBRANCH  74  75
ENDBRANCH  73  74
ENDBRANCH  72  73
ENDBRANCH   1  72
TORSDOF 16
ENDMDL
MODEL 3
REMARK VINA RESULT:     -11.9      4.331      9.376
REMARK SMILES O=C(OCCOCCOC(=O)[C@H]1C[N@H+](Cc2cccc(Cl)c2)CC12CCCCC2)c1ccc(-c2c3nc(c(-c4c(F)c(F)c(F)c(F)c4F)c4ccc([nH]4)c(-c4c(F)c(F)c(F)c(F)c4F)c4nc(c(-c5c(F)c(F)c(F)c(F)c5F)c5ccc2[nH]5)C=C4)C=C3)cc1
REMARK SMILES IDX 6 1 5 2 4 3 3 4 2 5 1 6 30 7 31 8 92 9 32 10 91 11 33 12
REMARK SMILES IDX 34 13 35 14 85 15 36 16 90 17 84 18 86 19 37 20 89 21 83 22
REMARK SMILES IDX 82 23 38 25 70 26 50 27 69 28 51 29 54 30 68 31 87 32 52 33
REMARK SMILES IDX 53 34 67 36 88 37 55 38 39 39 40 40 48 41 41 42 42 43 46 44
REMARK SMILES IDX 49 45 43 46 44 47 47 48 45 49 71 50 72 51 80 52 73 53 74 54
REMARK SMILES IDX 78 55 81 56 75 57 76 58 79 59 77 60 56 61 57 62 65 63 58 64
REMARK SMILES IDX 59 65 63 66 66 67 60 68 61 69 64 70 62 71 7 72 8 73 9 74
REMARK SMILES IDX 10 75 11 76 12 77 13 78 24 79 14 80 23 81 25 82 29 83 26 85
REMARK SMILES IDX 28 86 27 87 15 88 16 89 17 90 22 91 18 92 20 93 19 94 21 95
REMARK H PARENT 86 24 54 35 14 84
REMARK Flexibility Score: inf
ROOT
ATOM      1  O   UNL A   1      40.504  21.819  25.695  1.00  0.00    -0.374 OA
ENDROOT
BRANCH   1   2
ATOM      2  C   UNL A   1      41.710  21.164  26.102  1.00  0.00     0.202 C 
BRANCH   2   3
ATOM      3  C   UNL A   1      43.049  21.771  25.650  1.00  0.00     0.261 C 
BRANCH   3   4
ATOM      4  O   UNL A   1      42.863  22.977  24.892  1.00  0.00    -0.460 OA
BRANCH   4   5
ATOM      5  C   UNL A   1      43.316  24.223  25.178  1.00  0.00     0.338 C 
ATOM      6  O   UNL A   1      44.255  24.674  24.525  1.00  0.00    -0.246 OA
BRANCH   5   7
ATOM      7  C   UNL A   1      42.766  25.064  26.286  1.00  0.00     0.060 A 
ATOM      8  C   UNL A   1      43.287  26.296  26.668  1.00  0.00     0.016 A 
ATOM      9  C   UNL A   1      41.594  24.629  26.928  1.00  0.00     0.016 A 
ATOM     10  C   UNL A   1      42.667  27.116  27.569  1.00  0.00     0.010 A 
ATOM     11  C   UNL A   1      40.977  25.425  27.900  1.00  0.00     0.010 A 
ATOM     12  C   UNL A   1      41.521  26.675  28.199  1.00  0.00    -0.014 A 
BRANCH  12  13
ATOM     13  C   UNL A   1      41.138  27.518  29.327  1.00  0.00     0.031 A 
ATOM     14  C   UNL A   1      42.091  27.560  30.475  1.00  0.00     0.074 A 
ATOM     15  C   UNL A   1      40.186  28.446  29.131  1.00  0.00     0.049 A 
ATOM     16  N   UNL A   1      42.021  28.238  31.582  1.00  0.00    -0.248 NA
ATOM     17  C   UNL A   1      43.323  26.758  30.333  1.00  0.00     0.031 C 
ATOM     18  C   UNL A   1      39.427  28.628  27.886  1.00  0.00     0.029 A 
ATOM     19  N   UNL A   1      39.743  29.450  29.940  1.00  0.00    -0.354 N 
ATOM     20  C   UNL A   1      43.175  27.917  32.283  1.00  0.00     0.074 A 
ATOM     21  C   UNL A   1      43.943  27.001  31.475  1.00  0.00     0.031 C 
ATOM     22  C   UNL A   1      38.605  29.680  28.025  1.00  0.00     0.029 A 
ATOM     23  C   UNL A   1      38.722  30.180  29.386  1.00  0.00     0.049 A 
ATOM     24  H   UNL A   1      40.119  29.632  30.831  1.00  0.00     0.167 HD
ATOM     25  C   UNL A   1      43.528  28.349  33.512  1.00  0.00     0.037 A 
ATOM     26  C   UNL A   1      37.938  31.104  29.969  1.00  0.00     0.037 A 
ATOM     27  C   UNL A   1      42.703  29.249  34.265  1.00  0.00     0.049 A 
ATOM     28  C   UNL A   1      38.238  31.422  31.410  1.00  0.00     0.074 A 
ATOM     29  C   UNL A   1      42.831  29.665  35.573  1.00  0.00     0.029 A 
ATOM     30  N   UNL A   1      41.571  29.875  33.746  1.00  0.00    -0.354 N 
ATOM     31  N   UNL A   1      39.234  31.005  32.159  1.00  0.00    -0.248 NA
ATOM     32  C   UNL A   1      37.303  32.316  32.097  1.00  0.00     0.031 C 
ATOM     33  C   UNL A   1      41.746  30.502  35.861  1.00  0.00     0.029 A 
ATOM     34  C   UNL A   1      40.980  30.662  34.713  1.00  0.00     0.049 A 
ATOM     35  H   UNL A   1      41.242  29.771  32.824  1.00  0.00     0.167 HD
ATOM     36  C   UNL A   1      39.062  31.599  33.398  1.00  0.00     0.074 A 
ATOM     37  C   UNL A   1      37.873  32.426  33.288  1.00  0.00     0.031 C 
ATOM     38  C   UNL A   1      39.803  31.476  34.528  1.00  0.00     0.037 A 
BRANCH  25  39
ATOM     39  C   UNL A   1      44.759  27.746  34.114  1.00  0.00     0.064 A 
ATOM     40  C   UNL A   1      44.713  26.602  34.926  1.00  0.00     0.173 A 
ATOM     41  C   UNL A   1      46.000  28.378  33.944  1.00  0.00     0.173 A 
ATOM     42  F   UNL A   1      43.544  25.987  35.162  1.00  0.00    -0.203 F 
ATOM     43  C   UNL A   1      45.858  26.132  35.566  1.00  0.00     0.198 A 
ATOM     44  C   UNL A   1      47.148  27.890  34.563  1.00  0.00     0.198 A 
ATOM     45  F   UNL A   1      46.095  29.490  33.200  1.00  0.00    -0.203 F 
ATOM     46  F   UNL A   1      45.778  25.082  36.396  1.00  0.00    -0.200 F 
ATOM     47  C   UNL A   1      47.074  26.773  35.381  1.00  0.00     0.200 A 
ATOM     48  F   UNL A   1      48.319  28.516  34.387  1.00  0.00    -0.200 F 
ATOM     49  F   UNL A   1      48.172  26.329  36.010  1.00  0.00    -0.200 F 
ENDBRANCH  25  39
BRANCH  26  50
ATOM     50  C   UNL A   1      36.768  31.679  29.253  1.00  0.00     0.064 A 
ATOM     51  C   UNL A   1      36.698  33.042  28.936  1.00  0.00     0.173 A 
ATOM     52  C   UNL A   1      35.658  30.882  28.917  1.00  0.00     0.173 A 
ATOM     53  F   UNL A   1      37.718  33.854  29.248  1.00  0.00    -0.203 F 
ATOM     54  C   UNL A   1      35.559  33.589  28.345  1.00  0.00     0.198 A 
ATOM     55  C   UNL A   1      34.537  31.422  28.293  1.00  0.00     0.198 A 
ATOM     56  F   UNL A   1      35.660  29.570  29.198  1.00  0.00    -0.203 F 
ATOM     57  F   UNL A   1      35.495  34.907  28.114  1.00  0.00    -0.200 F 
ATOM     58  C   UNL A   1      34.481  32.779  28.021  1.00  0.00     0.200 A 
ATOM     59  F   UNL A   1      33.505  30.630  27.971  1.00  0.00    -0.200 F 
ATOM     60  F   UNL A   1      33.382  33.308  27.465  1.00  0.00    -0.200 F 
ENDBRANCH  26  50
BRANCH  38  61
ATOM     61  C   UNL A   1      39.370  32.299  35.700  1.00  0.00     0.064 A 
ATOM     62  C   UNL A   1      39.812  33.617  35.878  1.00  0.00     0.173 A 
ATOM     63  C   UNL A   1      38.458  31.771  36.625  1.00  0.00     0.173 A 
ATOM     64  F   UNL A   1      40.698  34.154  35.026  1.00  0.00    -0.203 F 
ATOM     65  C   UNL A   1      39.375  34.371  36.961  1.00  0.00     0.198 A 
ATOM     66  C   UNL A   1      37.993  32.541  37.684  1.00  0.00     0.198 A 
ATOM     67  F   UNL A   1      38.003  30.518  36.487  1.00  0.00    -0.203 F 
ATOM     68  F   UNL A   1      39.850  35.610  37.146  1.00  0.00    -0.200 F 
ATOM     69  C   UNL A   1      38.459  33.836  37.856  1.00  0.00     0.200 A 
ATOM     70  F   UNL A   1      37.093  32.031  38.535  1.00  0.00    -0.200 F 
ATOM     71  F   UNL A   1      38.027  34.570  38.891  1.00  0.00    -0.200 F 
ENDBRANCH  38  61
ENDBRANCH  12  13
ENDBRANCH   5   7
ENDBRANCH   4   5
ENDBRANCH   3   4
ENDBRANCH   2   3
ENDBRANCH   1   2
BRANCH   1  72
ATOM     72  C   UNL A   1      39.291  21.337  26.285  1.00  0.00     0.202 C 
BRANCH  72  73
ATOM     73  C   UNL A   1      38.275  21.003  25.210  1.00  0.00     0.261 C 
BRANCH  73  74
ATOM     74  O   UNL A   1      37.190  21.913  25.395  1.00  0.00    -0.463 OA
BRANCH  74  75
ATOM     75  C   UNL A   1      36.518  22.283  24.282  1.00  0.00     0.315 C 
ATOM     76  O   UNL A   1      37.016  22.776  23.272  1.00  0.00    -0.252 OA
BRANCH  75  77
ATOM     77  C   UNL A   1      35.048  22.004  24.425  1.00  0.00     0.166 C 
ATOM     78  C   UNL A   1      34.695  20.978  25.490  1.00  0.00     0.278 C 
ATOM     79  C   UNL A   1      34.141  23.216  24.720  1.00  0.00     0.038 C 
ATOM     80  N   UNL A   1      33.276  21.154  25.754  1.00  0.00    -0.330 N 
ATOM     81  C   UNL A   1      33.027  22.596  25.622  1.00  0.00     0.270 C 
ATOM     82  C   UNL A   1      34.864  24.393  25.434  1.00  0.00     0.014 C 
ATOM     83  C   UNL A   1      33.616  23.729  23.366  1.00  0.00     0.014 C 
ATOM     84  H   UNL A   1      33.031  20.863  26.701  1.00  0.00     0.348 HD
ATOM     85  C   UNL A   1      34.063  25.688  25.497  1.00  0.00     0.001 C 
ATOM     86  C   UNL A   1      32.770  24.984  23.478  1.00  0.00     0.001 C 
ATOM     87  C   UNL A   1      33.584  26.099  24.110  1.00  0.00     0.000 C 
BRANCH  80  88
ATOM     88  C   UNL A   1      32.371  20.220  25.066  1.00  0.00     0.299 C 
BRANCH  88  89
ATOM     89  C   UNL A   1      32.898  18.831  24.779  1.00  0.00     0.008 A 
ATOM     90  C   UNL A   1      33.605  18.547  23.598  1.00  0.00     0.009 A 
ATOM     91  C   UNL A   1      32.591  17.774  25.649  1.00  0.00     0.030 A 
ATOM     92  C   UNL A   1      33.853  17.226  23.219  1.00  0.00     0.002 A 
ATOM     93  C   UNL A   1      32.859  16.458  25.275  1.00  0.00     0.041 A 
ATOM     94  C   UNL A   1      33.456  16.179  24.046  1.00  0.00     0.020 A 
ATOM     95  Cl  UNL A   1      32.328  15.167  26.281  1.00  0.00    -0.084 Cl
ENDBRANCH  88  89
ENDBRANCH  80  88
ENDBRANCH  75  77
ENDBRANCH  74  75
ENDBRANCH  73  74
ENDBRANCH  72  73
ENDBRANCH   1  72
TORSDOF 16
ENDMDL
