MODEL 1
REMARK VINA RESULT:      -9.9      0.000      0.000
REMARK SMILES CC[C@H](C)[C@H](NC(=O)CCl)C(=O)OCCOCCOC(=O)c1ccc(-c2c3nc(c(-c4c(F)c(F)c(F)c(F)c4F)c4ccc([nH]4)c(-c4c(F)c(F)c(F)c(F)c4F)c4nc(c(-c5c(F)c(F)c(F)c(F)c5F)c5ccc2[nH]5)C=C4)C=C3)cc1
REMARK SMILES IDX 16 1 15 2 14 3 13 4 11 5 12 6 5 7 3 8 4 9 2 10 1 11 6 12
REMARK SMILES IDX 7 13 8 15 9 16 10 17 17 18 18 19 19 20 20 21 21 22 22 23
REMARK SMILES IDX 23 24 84 25 24 26 83 27 25 28 26 29 27 30 77 31 28 32 82 33
REMARK SMILES IDX 76 34 78 35 29 36 81 37 75 38 74 39 30 41 62 42 42 43 61 44
REMARK SMILES IDX 43 45 46 46 60 47 79 48 44 49 45 50 59 52 80 53 47 54 31 55
REMARK SMILES IDX 32 56 40 57 33 58 34 59 38 60 41 61 35 62 36 63 39 64 37 65
REMARK SMILES IDX 63 66 64 67 72 68 65 69 66 70 70 71 73 72 67 73 68 74 71 75
REMARK SMILES IDX 69 76 48 77 49 78 57 79 50 80 51 81 55 82 58 83 52 84 53 85
REMARK SMILES IDX 56 86 54 87
REMARK H PARENT 6 14 78 40 46 51
REMARK Flexibility Score: inf
ROOT
ATOM      1  O   UNL A   1      37.839  21.397  24.767  1.00  0.00    -0.374 OA
ENDROOT
BRANCH   1   2
ATOM      2  C   UNL A   1      36.569  21.906  24.359  1.00  0.00     0.202 C 
BRANCH   2   3
ATOM      3  C   UNL A   1      35.867  22.780  25.398  1.00  0.00     0.261 C 
BRANCH   3   4
ATOM      4  O   UNL A   1      35.470  21.968  26.519  1.00  0.00    -0.462 OA
BRANCH   4   5
ATOM      5  C   UNL A   1      34.250  22.203  27.044  1.00  0.00     0.328 C 
ATOM      6  O   UNL A   1      34.040  22.486  28.217  1.00  0.00    -0.250 OA
BRANCH   5   7
ATOM      7  C   UNL A   1      33.119  22.064  26.003  1.00  0.00     0.195 C 
BRANCH   7   8
ATOM      8  C   UNL A   1      32.148  23.264  25.882  1.00  0.00     0.019 C 
ATOM      9  C   UNL A   1      32.784  24.595  25.516  1.00  0.00     0.010 C 
BRANCH   8  10
ATOM     10  C   UNL A   1      30.930  22.949  24.976  1.00  0.00     0.002 C 
ATOM     11  C   UNL A   1      30.974  23.556  23.577  1.00  0.00     0.004 C 
ENDBRANCH   8  10
ENDBRANCH   7   8
BRANCH   7  12
ATOM     12  N   UNL A   1      32.582  20.702  25.747  1.00  0.00    -0.341 N 
ATOM     13  C   UNL A   1      32.882  19.536  25.135  1.00  0.00     0.235 C 
ATOM     14  H   UNL A   1      31.698  20.620  26.172  1.00  0.00     0.164 HD
ATOM     15  O   UNL A   1      31.957  18.707  25.164  1.00  0.00    -0.274 OA
BRANCH  13  16
ATOM     16  C   UNL A   1      34.202  19.103  24.543  1.00  0.00     0.209 C 
ATOM     17  Cl  UNL A   1      34.180  17.544  23.740  1.00  0.00    -0.116 Cl
ENDBRANCH  13  16
ENDBRANCH   7  12
ENDBRANCH   5   7
ENDBRANCH   4   5
ENDBRANCH   3   4
ENDBRANCH   2   3
ENDBRANCH   1   2
BRANCH   1  18
ATOM     18  C   UNL A   1      37.919  19.996  25.026  1.00  0.00     0.202 C 
BRANCH  18  19
ATOM     19  C   UNL A   1      39.275  19.490  25.525  1.00  0.00     0.261 C 
BRANCH  19  20
ATOM     20  O   UNL A   1      40.175  20.575  25.816  1.00  0.00    -0.460 OA
BRANCH  20  21
ATOM     21  C   UNL A   1      40.715  20.559  27.056  1.00  0.00     0.338 C 
ATOM     22  O   UNL A   1      41.085  19.585  27.692  1.00  0.00    -0.246 OA
BRANCH  21  23
ATOM     23  C   UNL A   1      40.968  21.943  27.505  1.00  0.00     0.060 A 
ATOM     24  C   UNL A   1      40.249  22.968  26.879  1.00  0.00     0.016 A 
ATOM     25  C   UNL A   1      41.917  22.242  28.485  1.00  0.00     0.016 A 
ATOM     26  C   UNL A   1      40.509  24.300  27.197  1.00  0.00     0.010 A 
ATOM     27  C   UNL A   1      42.170  23.580  28.810  1.00  0.00     0.010 A 
ATOM     28  C   UNL A   1      41.497  24.618  28.140  1.00  0.00    -0.014 A 
BRANCH  28  29
ATOM     29  C   UNL A   1      41.937  26.030  28.288  1.00  0.00     0.031 A 
ATOM     30  C   UNL A   1      43.258  26.444  27.697  1.00  0.00     0.074 A 
ATOM     31  C   UNL A   1      41.160  26.948  28.892  1.00  0.00     0.049 A 
ATOM     32  N   UNL A   1      43.844  27.616  27.702  1.00  0.00    -0.248 NA
ATOM     33  C   UNL A   1      44.026  25.394  27.011  1.00  0.00     0.031 C 
ATOM     34  C   UNL A   1      39.845  26.692  29.475  1.00  0.00     0.029 A 
ATOM     35  N   UNL A   1      41.371  28.288  29.111  1.00  0.00    -0.354 N 
ATOM     36  C   UNL A   1      45.047  27.439  27.030  1.00  0.00     0.074 A 
ATOM     37  C   UNL A   1      45.129  26.042  26.667  1.00  0.00     0.031 C 
ATOM     38  C   UNL A   1      39.363  27.841  29.982  1.00  0.00     0.029 A 
ATOM     39  C   UNL A   1      40.348  28.905  29.788  1.00  0.00     0.049 A 
ATOM     40  H   UNL A   1      42.180  28.762  28.811  1.00  0.00     0.167 HD
ATOM     41  C   UNL A   1      45.992  28.361  26.728  1.00  0.00     0.037 A 
ATOM     42  C   UNL A   1      40.228  30.178  30.214  1.00  0.00     0.037 A 
ATOM     43  C   UNL A   1      45.910  29.755  27.071  1.00  0.00     0.049 A 
ATOM     44  C   UNL A   1      41.330  31.169  29.927  1.00  0.00     0.074 A 
ATOM     45  C   UNL A   1      46.805  30.769  26.775  1.00  0.00     0.029 A 
ATOM     46  N   UNL A   1      44.877  30.332  27.794  1.00  0.00    -0.354 N 
ATOM     47  N   UNL A   1      42.443  31.003  29.256  1.00  0.00    -0.248 NA
ATOM     48  C   UNL A   1      41.152  32.530  30.455  1.00  0.00     0.031 C 
ATOM     49  C   UNL A   1      46.345  31.947  27.372  1.00  0.00     0.029 A 
ATOM     50  C   UNL A   1      45.130  31.682  27.983  1.00  0.00     0.049 A 
ATOM     51  H   UNL A   1      44.083  29.854  28.124  1.00  0.00     0.167 HD
ATOM     52  C   UNL A   1      43.078  32.240  29.250  1.00  0.00     0.074 A 
ATOM     53  C   UNL A   1      42.220  33.152  29.975  1.00  0.00     0.031 C 
ATOM     54  C   UNL A   1      44.264  32.588  28.693  1.00  0.00     0.037 A 
BRANCH  41  55
ATOM     55  C   UNL A   1      47.218  27.883  26.003  1.00  0.00     0.064 A 
ATOM     56  C   UNL A   1      48.377  27.487  26.688  1.00  0.00     0.173 A 
ATOM     57  C   UNL A   1      47.217  27.786  24.604  1.00  0.00     0.173 A 
ATOM     58  F   UNL A   1      48.432  27.573  28.026  1.00  0.00    -0.203 F 
ATOM     59  C   UNL A   1      49.498  27.039  25.997  1.00  0.00     0.198 A 
ATOM     60  C   UNL A   1      48.329  27.305  23.918  1.00  0.00     0.198 A 
ATOM     61  F   UNL A   1      46.133  28.146  23.900  1.00  0.00    -0.203 F 
ATOM     62  F   UNL A   1      50.611  26.713  26.669  1.00  0.00    -0.200 F 
ATOM     63  C   UNL A   1      49.471  26.940  24.614  1.00  0.00     0.200 A 
ATOM     64  F   UNL A   1      48.296  27.197  22.583  1.00  0.00    -0.200 F 
ATOM     65  F   UNL A   1      50.549  26.500  23.950  1.00  0.00    -0.200 F 
ENDBRANCH  41  55
BRANCH  42  66
ATOM     66  C   UNL A   1      39.018  30.604  30.970  1.00  0.00     0.064 A 
ATOM     67  C   UNL A   1      37.914  31.165  30.312  1.00  0.00     0.173 A 
ATOM     68  C   UNL A   1      38.961  30.504  32.368  1.00  0.00     0.173 A 
ATOM     69  F   UNL A   1      37.933  31.311  28.978  1.00  0.00    -0.203 F 
ATOM     70  C   UNL A   1      36.811  31.631  31.025  1.00  0.00     0.198 A 
ATOM     71  C   UNL A   1      37.845  30.941  33.077  1.00  0.00     0.198 A 
ATOM     72  F   UNL A   1      39.993  29.981  33.047  1.00  0.00    -0.203 F 
ATOM     73  F   UNL A   1      35.796  32.217  30.376  1.00  0.00    -0.200 F 
ATOM     74  C   UNL A   1      36.775  31.515  32.406  1.00  0.00     0.200 A 
ATOM     75  F   UNL A   1      37.810  30.817  34.410  1.00  0.00    -0.200 F 
ATOM     76  F   UNL A   1      35.715  31.966  33.091  1.00  0.00    -0.200 F 
ENDBRANCH  42  66
BRANCH  54  77
ATOM     77  C   UNL A   1      44.690  34.026  28.797  1.00  0.00     0.064 A 
ATOM     78  C   UNL A   1      44.304  34.985  27.849  1.00  0.00     0.173 A 
ATOM     79  C   UNL A   1      45.459  34.459  29.890  1.00  0.00     0.173 A 
ATOM     80  F   UNL A   1      43.579  34.623  26.780  1.00  0.00    -0.203 F 
ATOM     81  C   UNL A   1      44.691  36.318  27.978  1.00  0.00     0.198 A 
ATOM     82  C   UNL A   1      45.815  35.798  30.032  1.00  0.00     0.198 A 
ATOM     83  F   UNL A   1      45.850  33.587  30.831  1.00  0.00    -0.203 F 
ATOM     84  F   UNL A   1      44.350  37.205  27.034  1.00  0.00    -0.200 F 
ATOM     85  C   UNL A   1      45.438  36.723  29.073  1.00  0.00     0.200 A 
ATOM     86  F   UNL A   1      46.523  36.191  31.101  1.00  0.00    -0.200 F 
ATOM     87  F   UNL A   1      45.802  38.008  29.200  1.00  0.00    -0.200 F 
ENDBRANCH  54  77
ENDBRANCH  28  29
ENDBRANCH  21  23
ENDBRANCH  20  21
ENDBRANCH  19  20
ENDBRANCH  18  19
ENDBRANCH   1  18
TORSDOF 18
ENDMDL
MODEL 2
REMARK VINA RESULT:      -9.7      1.428      7.837
REMARK SMILES CC[C@H](C)[C@H](NC(=O)CCl)C(=O)OCCOCCOC(=O)c1ccc(-c2c3nc(c(-c4c(F)c(F)c(F)c(F)c4F)c4ccc([nH]4)c(-c4c(F)c(F)c(F)c(F)c4F)c4nc(c(-c5c(F)c(F)c(F)c(F)c5F)c5ccc2[nH]5)C=C4)C=C3)cc1
REMARK SMILES IDX 16 1 15 2 14 3 13 4 11 5 12 6 5 7 3 8 4 9 2 10 1 11 6 12
REMARK SMILES IDX 7 13 8 15 9 16 10 17 17 18 18 19 19 20 20 21 21 22 22 23
REMARK SMILES IDX 23 24 84 25 24 26 83 27 25 28 26 29 27 30 77 31 28 32 82 33
REMARK SMILES IDX 76 34 78 35 29 36 81 37 75 38 74 39 30 41 62 42 42 43 61 44
REMARK SMILES IDX 43 45 46 46 60 47 79 48 44 49 45 50 59 52 80 53 47 54 31 55
REMARK SMILES IDX 32 56 40 57 33 58 34 59 38 60 41 61 35 62 36 63 39 64 37 65
REMARK SMILES IDX 63 66 64 67 72 68 65 69 66 70 70 71 73 72 67 73 68 74 71 75
REMARK SMILES IDX 69 76 48 77 49 78 57 79 50 80 51 81 55 82 58 83 52 84 53 85
REMARK SMILES IDX 56 86 54 87
REMARK H PARENT 6 14 78 40 46 51
REMARK Flexibility Score: inf
ROOT
ATOM      1  O   UNL A   1      35.343  21.540  26.144  1.00  0.00    -0.374 OA
ENDROOT
BRANCH   1   2
ATOM      2  C   UNL A   1      34.043  21.539  26.735  1.00  0.00     0.202 C 
BRANCH   2   3
ATOM      3  C   UNL A   1      33.528  22.919  27.147  1.00  0.00     0.261 C 
BRANCH   3   4
ATOM      4  O   UNL A   1      32.152  22.814  27.559  1.00  0.00    -0.462 OA
BRANCH   4   5
ATOM      5  C   UNL A   1      31.244  23.507  26.843  1.00  0.00     0.328 C 
ATOM      6  O   UNL A   1      30.094  23.729  27.205  1.00  0.00    -0.250 OA
BRANCH   5   7
ATOM      7  C   UNL A   1      31.801  23.992  25.487  1.00  0.00     0.195 C 
BRANCH   7   8
ATOM      8  C   UNL A   1      31.649  25.503  25.185  1.00  0.00     0.019 C 
ATOM      9  C   UNL A   1      30.245  25.969  24.833  1.00  0.00     0.010 C 
BRANCH   8  10
ATOM     10  C   UNL A   1      32.282  26.391  26.287  1.00  0.00     0.002 C 
ATOM     11  C   UNL A   1      31.369  27.463  26.875  1.00  0.00     0.004 C 
ENDBRANCH   8  10
ENDBRANCH   7   8
BRANCH   7  12
ATOM     12  N   UNL A   1      31.755  23.043  24.344  1.00  0.00    -0.341 N 
ATOM     13  C   UNL A   1      32.271  22.829  23.115  1.00  0.00     0.235 C 
ATOM     14  H   UNL A   1      31.128  22.314  24.558  1.00  0.00     0.164 HD
ATOM     15  O   UNL A   1      31.770  21.856  22.527  1.00  0.00    -0.274 OA
BRANCH  13  16
ATOM     16  C   UNL A   1      33.425  23.541  22.449  1.00  0.00     0.209 C 
ATOM     17  Cl  UNL A   1      35.008  23.164  23.103  1.00  0.00    -0.116 Cl
ENDBRANCH  13  16
ENDBRANCH   7  12
ENDBRANCH   5   7
ENDBRANCH   4   5
ENDBRANCH   3   4
ENDBRANCH   2   3
ENDBRANCH   1   2
BRANCH   1  18
ATOM     18  C   UNL A   1      35.626  20.497  25.213  1.00  0.00     0.202 C 
BRANCH  18  19
ATOM     19  C   UNL A   1      37.110  20.251  24.923  1.00  0.00     0.261 C 
BRANCH  19  20
ATOM     20  O   UNL A   1      37.918  21.388  25.282  1.00  0.00    -0.460 OA
BRANCH  20  21
ATOM     21  C   UNL A   1      39.027  21.102  26.001  1.00  0.00     0.338 C 
ATOM     22  O   UNL A   1      39.589  20.022  26.101  1.00  0.00    -0.246 OA
BRANCH  21  23
ATOM     23  C   UNL A   1      39.602  22.349  26.544  1.00  0.00     0.060 A 
ATOM     24  C   UNL A   1      39.063  23.560  26.092  1.00  0.00     0.016 A 
ATOM     25  C   UNL A   1      40.671  22.342  27.443  1.00  0.00     0.016 A 
ATOM     26  C   UNL A   1      39.623  24.769  26.500  1.00  0.00     0.010 A 
ATOM     27  C   UNL A   1      41.225  23.558  27.859  1.00  0.00     0.010 A 
ATOM     28  C   UNL A   1      40.731  24.778  27.360  1.00  0.00    -0.014 A 
BRANCH  28  29
ATOM     29  C   UNL A   1      41.468  26.048  27.589  1.00  0.00     0.031 A 
ATOM     30  C   UNL A   1      40.793  27.148  28.364  1.00  0.00     0.074 A 
ATOM     31  C   UNL A   1      42.734  26.212  27.163  1.00  0.00     0.049 A 
ATOM     32  N   UNL A   1      41.240  28.337  28.686  1.00  0.00    -0.248 NA
ATOM     33  C   UNL A   1      39.428  26.873  28.837  1.00  0.00     0.031 C 
ATOM     34  C   UNL A   1      43.517  25.217  26.434  1.00  0.00     0.029 A 
ATOM     35  N   UNL A   1      43.583  27.285  27.289  1.00  0.00    -0.354 N 
ATOM     36  C   UNL A   1      40.210  28.949  29.389  1.00  0.00     0.074 A 
ATOM     37  C   UNL A   1      39.101  28.021  29.412  1.00  0.00     0.031 C 
ATOM     38  C   UNL A   1      44.737  25.726  26.180  1.00  0.00     0.029 A 
ATOM     39  C   UNL A   1      44.809  27.091  26.700  1.00  0.00     0.049 A 
ATOM     40  H   UNL A   1      43.337  28.115  27.757  1.00  0.00     0.167 HD
ATOM     41  C   UNL A   1      40.193  30.169  29.977  1.00  0.00     0.037 A 
ATOM     42  C   UNL A   1      45.862  27.925  26.583  1.00  0.00     0.037 A 
ATOM     43  C   UNL A   1      41.297  31.091  29.972  1.00  0.00     0.049 A 
ATOM     44  C   UNL A   1      45.790  29.307  27.185  1.00  0.00     0.074 A 
ATOM     45  C   UNL A   1      41.383  32.336  30.572  1.00  0.00     0.029 A 
ATOM     46  N   UNL A   1      42.506  30.873  29.329  1.00  0.00    -0.354 N 
ATOM     47  N   UNL A   1      44.829  29.861  27.883  1.00  0.00    -0.248 NA
ATOM     48  C   UNL A   1      46.958  30.178  26.986  1.00  0.00     0.031 C 
ATOM     49  C   UNL A   1      42.619  32.898  30.240  1.00  0.00     0.029 A 
ATOM     50  C   UNL A   1      43.331  31.977  29.489  1.00  0.00     0.049 A 
ATOM     51  H   UNL A   1      42.743  30.058  28.832  1.00  0.00     0.167 HD
ATOM     52  C   UNL A   1      45.288  31.125  28.234  1.00  0.00     0.074 A 
ATOM     53  C   UNL A   1      46.620  31.254  27.684  1.00  0.00     0.031 C 
ATOM     54  C   UNL A   1      44.662  32.092  28.951  1.00  0.00     0.037 A 
BRANCH  41  55
ATOM     55  C   UNL A   1      38.924  30.591  30.660  1.00  0.00     0.064 A 
ATOM     56  C   UNL A   1      38.739  30.432  32.042  1.00  0.00     0.173 A 
ATOM     57  C   UNL A   1      37.894  31.195  29.924  1.00  0.00     0.173 A 
ATOM     58  F   UNL A   1      39.688  29.847  32.788  1.00  0.00    -0.203 F 
ATOM     59  C   UNL A   1      37.558  30.838  32.657  1.00  0.00     0.198 A 
ATOM     60  C   UNL A   1      36.728  31.631  30.548  1.00  0.00     0.198 A 
ATOM     61  F   UNL A   1      38.022  31.376  28.601  1.00  0.00    -0.203 F 
ATOM     62  F   UNL A   1      37.382  30.632  33.969  1.00  0.00    -0.200 F 
ATOM     63  C   UNL A   1      36.557  31.445  31.912  1.00  0.00     0.200 A 
ATOM     64  F   UNL A   1      35.769  32.230  29.829  1.00  0.00    -0.200 F 
ATOM     65  F   UNL A   1      35.424  31.843  32.507  1.00  0.00    -0.200 F 
ENDBRANCH  41  55
BRANCH  42  66
ATOM     66  C   UNL A   1      47.086  27.488  25.859  1.00  0.00     0.064 A 
ATOM     67  C   UNL A   1      48.185  26.957  26.549  1.00  0.00     0.173 A 
ATOM     68  C   UNL A   1      47.201  27.636  24.469  1.00  0.00     0.173 A 
ATOM     69  F   UNL A   1      48.137  26.824  27.884  1.00  0.00    -0.203 F 
ATOM     70  C   UNL A   1      49.360  26.616  25.881  1.00  0.00     0.198 A 
ATOM     71  C   UNL A   1      48.364  27.265  23.798  1.00  0.00     0.198 A 
ATOM     72  F   UNL A   1      46.182  28.145  23.760  1.00  0.00    -0.203 F 
ATOM     73  F   UNL A   1      50.416  26.167  26.574  1.00  0.00    -0.200 F 
ATOM     74  C   UNL A   1      49.447  26.766  24.506  1.00  0.00     0.200 A 
ATOM     75  F   UNL A   1      48.440  27.402  22.467  1.00  0.00    -0.200 F 
ATOM     76  F   UNL A   1      50.578  26.440  23.864  1.00  0.00    -0.200 F 
ENDBRANCH  42  66
BRANCH  54  77
ATOM     77  C   UNL A   1      45.421  33.359  29.228  1.00  0.00     0.064 A 
ATOM     78  C   UNL A   1      46.259  33.494  30.346  1.00  0.00     0.173 A 
ATOM     79  C   UNL A   1      45.346  34.440  28.334  1.00  0.00     0.173 A 
ATOM     80  F   UNL A   1      46.359  32.496  31.238  1.00  0.00    -0.203 F 
ATOM     81  C   UNL A   1      46.972  34.670  30.570  1.00  0.00     0.198 A 
ATOM     82  C   UNL A   1      46.086  35.600  28.545  1.00  0.00     0.198 A 
ATOM     83  F   UNL A   1      44.567  34.364  27.244  1.00  0.00    -0.203 F 
ATOM     84  F   UNL A   1      47.727  34.791  31.670  1.00  0.00    -0.200 F 
ATOM     85  C   UNL A   1      46.891  35.717  29.666  1.00  0.00     0.200 A 
ATOM     86  F   UNL A   1      46.020  36.605  27.660  1.00  0.00    -0.200 F 
ATOM     87  F   UNL A   1      47.586  36.844  29.880  1.00  0.00    -0.200 F 
ENDBRANCH  54  77
ENDBRANCH  28  29
ENDBRANCH  21  23
ENDBRANCH  20  21
ENDBRANCH  19  20
ENDBRANCH  18  19
ENDBRANCH   1  18
TORSDOF 18
ENDMDL
MODEL 3
REMARK VINA RESULT:      -9.6      1.642      2.490
REMARK SMILES CC[C@H](C)[C@H](NC(=O)CCl)C(=O)OCCOCCOC(=O)c1ccc(-c2c3nc(c(-c4c(F)c(F)c(F)c(F)c4F)c4ccc([nH]4)c(-c4c(F)c(F)c(F)c(F)c4F)c4nc(c(-c5c(F)c(F)c(F)c(F)c5F)c5ccc2[nH]5)C=C4)C=C3)cc1
REMARK SMILES IDX 16 1 15 2 14 3 13 4 11 5 12 6 5 7 3 8 4 9 2 10 1 11 6 12
REMARK SMILES IDX 7 13 8 15 9 16 10 17 17 18 18 19 19 20 20 21 21 22 22 23
REMARK SMILES IDX 23 24 84 25 24 26 83 27 25 28 26 29 27 30 77 31 28 32 82 33
REMARK SMILES IDX 76 34 78 35 29 36 81 37 75 38 74 39 30 41 62 42 42 43 61 44
REMARK SMILES IDX 43 45 46 46 60 47 79 48 44 49 45 50 59 52 80 53 47 54 31 55
REMARK SMILES IDX 32 56 40 57 33 58 34 59 38 60 41 61 35 62 36 63 39 64 37 65
REMARK SMILES IDX 63 66 64 67 72 68 65 69 66 70 70 71 73 72 67 73 68 74 71 75
REMARK SMILES IDX 69 76 48 77 49 78 57 79 50 80 51 81 55 82 58 83 52 84 53 85
REMARK SMILES IDX 56 86 54 87
REMARK H PARENT 6 14 78 40 46 51
REMARK Flexibility Score: inf
ROOT
ATOM      1  O   UNL A   1      36.340  21.407  24.648  1.00  0.00    -0.374 OA
ENDROOT
BRANCH   1   2
ATOM      2  C   UNL A   1      35.224  21.926  25.373  1.00  0.00     0.202 C 
BRANCH   2   3
ATOM      3  C   UNL A   1      35.399  23.359  25.877  1.00  0.00     0.261 C 
BRANCH   3   4
ATOM      4  O   UNL A   1      35.425  24.262  24.756  1.00  0.00    -0.462 OA
BRANCH   4   5
ATOM      5  C   UNL A   1      34.266  24.448  24.092  1.00  0.00     0.328 C 
ATOM      6  O   UNL A   1      34.002  23.955  23.001  1.00  0.00    -0.250 OA
BRANCH   5   7
ATOM      7  C   UNL A   1      33.290  25.372  24.849  1.00  0.00     0.195 C 
BRANCH   7   8
ATOM      8  C   UNL A   1      33.788  26.810  25.133  1.00  0.00     0.019 C 
ATOM      9  C   UNL A   1      33.668  27.792  23.979  1.00  0.00     0.010 C 
BRANCH   8  10
ATOM     10  C   UNL A   1      33.193  27.394  26.440  1.00  0.00     0.002 C 
ATOM     11  C   UNL A   1      32.079  28.420  26.256  1.00  0.00     0.004 C 
ENDBRANCH   8  10
ENDBRANCH   7   8
BRANCH   7  12
ATOM     12  N   UNL A   1      32.370  24.744  25.834  1.00  0.00    -0.341 N 
ATOM     13  C   UNL A   1      31.099  24.794  26.287  1.00  0.00     0.235 C 
ATOM     14  H   UNL A   1      32.858  24.047  26.329  1.00  0.00     0.164 HD
ATOM     15  O   UNL A   1      30.888  24.049  27.259  1.00  0.00    -0.274 OA
BRANCH  13  16
ATOM     16  C   UNL A   1      29.924  25.537  25.697  1.00  0.00     0.209 C 
ATOM     17  Cl  UNL A   1      30.003  25.795  23.964  1.00  0.00    -0.116 Cl
ENDBRANCH  13  16
ENDBRANCH   7  12
ENDBRANCH   5   7
ENDBRANCH   4   5
ENDBRANCH   3   4
ENDBRANCH   2   3
ENDBRANCH   1   2
BRANCH   1  18
ATOM     18  C   UNL A   1      36.668  20.036  24.867  1.00  0.00     0.202 C 
BRANCH  18  19
ATOM     19  C   UNL A   1      38.095  19.766  25.353  1.00  0.00     0.261 C 
BRANCH  19  20
ATOM     20  O   UNL A   1      38.817  20.988  25.593  1.00  0.00    -0.460 OA
BRANCH  20  21
ATOM     21  C   UNL A   1      39.883  20.874  26.418  1.00  0.00     0.338 C 
ATOM     22  O   UNL A   1      40.574  19.886  26.606  1.00  0.00    -0.246 OA
BRANCH  21  23
ATOM     23  C   UNL A   1      40.228  22.201  26.967  1.00  0.00     0.060 A 
ATOM     24  C   UNL A   1      39.584  23.317  26.418  1.00  0.00     0.016 A 
ATOM     25  C   UNL A   1      41.190  22.361  27.967  1.00  0.00     0.016 A 
ATOM     26  C   UNL A   1      39.934  24.600  26.833  1.00  0.00     0.010 A 
ATOM     27  C   UNL A   1      41.534  23.651  28.389  1.00  0.00     0.010 A 
ATOM     28  C   UNL A   1      40.937  24.780  27.796  1.00  0.00    -0.014 A 
BRANCH  28  29
ATOM     29  C   UNL A   1      41.473  26.143  28.048  1.00  0.00     0.031 A 
ATOM     30  C   UNL A   1      42.842  26.491  27.530  1.00  0.00     0.074 A 
ATOM     31  C   UNL A   1      40.742  27.079  28.681  1.00  0.00     0.049 A 
ATOM     32  N   UNL A   1      43.511  27.614  27.628  1.00  0.00    -0.248 NA
ATOM     33  C   UNL A   1      43.558  25.429  26.806  1.00  0.00     0.031 C 
ATOM     34  C   UNL A   1      39.390  26.888  29.201  1.00  0.00     0.029 A 
ATOM     35  N   UNL A   1      41.041  28.384  28.990  1.00  0.00    -0.354 N 
ATOM     36  C   UNL A   1      44.724  27.388  26.988  1.00  0.00     0.074 A 
ATOM     37  C   UNL A   1      44.718  26.012  26.541  1.00  0.00     0.031 C 
ATOM     38  C   UNL A   1      38.974  28.038  29.762  1.00  0.00     0.029 A 
ATOM     39  C   UNL A   1      40.040  29.035  29.669  1.00  0.00     0.049 A 
ATOM     40  H   UNL A   1      41.894  28.813  28.748  1.00  0.00     0.167 HD
ATOM     41  C   UNL A   1      45.744  28.252  26.776  1.00  0.00     0.037 A 
ATOM     42  C   UNL A   1      39.996  30.286  30.169  1.00  0.00     0.037 A 
ATOM     43  C   UNL A   1      45.751  29.626  27.203  1.00  0.00     0.049 A 
ATOM     44  C   UNL A   1      41.178  31.206  29.983  1.00  0.00     0.074 A 
ATOM     45  C   UNL A   1      46.728  30.586  27.002  1.00  0.00     0.029 A 
ATOM     46  N   UNL A   1      44.735  30.234  27.924  1.00  0.00    -0.354 N 
ATOM     47  N   UNL A   1      42.302  30.997  29.341  1.00  0.00    -0.248 NA
ATOM     48  C   UNL A   1      41.079  32.543  30.588  1.00  0.00     0.031 C 
ATOM     49  C   UNL A   1      46.332  31.757  27.655  1.00  0.00     0.029 A 
ATOM     50  C   UNL A   1      45.079  31.548  28.206  1.00  0.00     0.049 A 
ATOM     51  H   UNL A   1      43.896  29.798  28.197  1.00  0.00     0.167 HD
ATOM     52  C   UNL A   1      43.024  32.181  29.435  1.00  0.00     0.074 A 
ATOM     53  C   UNL A   1      42.208  33.111  30.185  1.00  0.00     0.031 C 
ATOM     54  C   UNL A   1      44.253  32.473  28.941  1.00  0.00     0.037 A 
BRANCH  41  55
ATOM     55  C   UNL A   1      46.960  27.728  26.066  1.00  0.00     0.064 A 
ATOM     56  C   UNL A   1      47.059  27.734  24.666  1.00  0.00     0.173 A 
ATOM     57  C   UNL A   1      48.053  27.247  26.800  1.00  0.00     0.173 A 
ATOM     58  F   UNL A   1      46.035  28.171  23.918  1.00  0.00    -0.203 F 
ATOM     59  C   UNL A   1      48.198  27.251  24.028  1.00  0.00     0.198 A 
ATOM     60  C   UNL A   1      49.205  26.796  26.160  1.00  0.00     0.198 A 
ATOM     61  F   UNL A   1      48.012  27.225  28.141  1.00  0.00    -0.203 F 
ATOM     62  F   UNL A   1      48.252  27.220  22.690  1.00  0.00    -0.200 F 
ATOM     63  C   UNL A   1      49.273  26.791  24.775  1.00  0.00     0.200 A 
ATOM     64  F   UNL A   1      50.247  26.366  26.883  1.00  0.00    -0.200 F 
ATOM     65  F   UNL A   1      50.373  26.335  24.159  1.00  0.00    -0.200 F 
ENDBRANCH  41  55
BRANCH  42  66
ATOM     66  C   UNL A   1      38.793  30.755  30.908  1.00  0.00     0.064 A 
ATOM     67  C   UNL A   1      37.759  31.437  30.249  1.00  0.00     0.173 A 
ATOM     68  C   UNL A   1      38.673  30.574  32.293  1.00  0.00     0.173 A 
ATOM     69  F   UNL A   1      37.842  31.664  28.929  1.00  0.00    -0.203 F 
ATOM     70  C   UNL A   1      36.666  31.942  30.952  1.00  0.00     0.198 A 
ATOM     71  C   UNL A   1      37.564  31.050  32.990  1.00  0.00     0.198 A 
ATOM     72  F   UNL A   1      39.635  29.933  32.974  1.00  0.00    -0.203 F 
ATOM     73  F   UNL A   1      35.724  32.642  30.306  1.00  0.00    -0.200 F 
ATOM     74  C   UNL A   1      36.568  31.744  32.320  1.00  0.00     0.200 A 
ATOM     75  F   UNL A   1      37.467  30.848  34.310  1.00  0.00    -0.200 F 
ATOM     76  F   UNL A   1      35.518  32.232  32.996  1.00  0.00    -0.200 F 
ENDBRANCH  42  66
BRANCH  54  77
ATOM     77  C   UNL A   1      44.779  33.865  29.149  1.00  0.00     0.064 A 
ATOM     78  C   UNL A   1      44.496  34.907  28.253  1.00  0.00     0.173 A 
ATOM     79  C   UNL A   1      45.538  34.172  30.290  1.00  0.00     0.173 A 
ATOM     80  F   UNL A   1      43.785  34.666  27.142  1.00  0.00    -0.203 F 
ATOM     81  C   UNL A   1      44.974  36.196  28.479  1.00  0.00     0.198 A 
ATOM     82  C   UNL A   1      45.985  35.469  30.529  1.00  0.00     0.198 A 
ATOM     83  F   UNL A   1      45.832  33.217  31.186  1.00  0.00    -0.203 F 
ATOM     84  F   UNL A   1      44.731  37.163  27.583  1.00  0.00    -0.200 F 
ATOM     85  C   UNL A   1      45.710  36.478  29.619  1.00  0.00     0.200 A 
ATOM     86  F   UNL A   1      46.682  35.742  31.641  1.00  0.00    -0.200 F 
ATOM     87  F   UNL A   1      46.161  37.721  29.838  1.00  0.00    -0.200 F 
ENDBRANCH  54  77
ENDBRANCH  28  29
ENDBRANCH  21  23
ENDBRANCH  20  21
ENDBRANCH  19  20
ENDBRANCH  18  19
ENDBRANCH   1  18
TORSDOF 18
ENDMDL
