MODEL 1
REMARK VINA RESULT:     -12.1      0.000      0.000
REMARK SMILES CCOc1ccc2[nH]c(C)c/c(=N\c3cccc(C(=O)OCCOCCOC(=O)c4ccc(-c5c6nc(c(-c7c(F)c(F)c(F)c(F)c7F)c7ccc([nH]7)c(-c7c(F)c(F)c(F)c(F)c7F)c7nc(c(-c8c(F)c(F)c(F)c(F)c8F)c8ccc5[nH]8)C=C7)C=C6)cc4)c3)c2c1
REMARK SMILES IDX 23 1 22 2 21 3 19 4 20 5 18 6 14 7 15 8 93 9 16 10 17 11
REMARK SMILES IDX 13 12 4 13 5 14 95 15 6 16 94 17 7 18 12 19 8 20 11 21 9 22
REMARK SMILES IDX 10 24 3 25 2 26 1 27 24 28 25 29 26 30 27 31 28 32 29 33
REMARK SMILES IDX 30 34 31 35 92 36 32 37 91 38 33 39 34 40 35 41 85 42 36 43
REMARK SMILES IDX 90 44 84 45 86 46 37 47 89 48 83 49 82 50 38 52 70 53 50 54
REMARK SMILES IDX 69 55 51 56 54 57 68 58 87 59 52 60 53 61 67 63 88 64 55 65
REMARK SMILES IDX 39 66 40 67 48 68 41 69 42 70 46 71 49 72 43 73 44 74 47 75
REMARK SMILES IDX 45 76 71 77 72 78 80 79 73 80 74 81 78 82 81 83 75 84 76 85
REMARK SMILES IDX 79 86 77 87 56 88 57 89 65 90 58 91 59 92 63 93 66 94 60 95
REMARK SMILES IDX 61 96 64 97 62 98
REMARK H PARENT 8 23 86 51 54 62
REMARK Flexibility Score: inf
ROOT
ATOM      1  C   UNL A   1      34.026  19.450  24.890  1.00  0.00     0.202 C 
ENDROOT
BRANCH   1   2
ATOM      2  C   UNL A   1      32.609  19.973  25.143  1.00  0.00     0.261 C 
BRANCH   2   3
ATOM      3  O   UNL A   1      32.618  21.321  25.643  1.00  0.00    -0.460 OA
BRANCH   3   4
ATOM      4  C   UNL A   1      31.525  22.052  25.307  1.00  0.00     0.338 C 
ATOM      5  O   UNL A   1      30.428  22.003  25.839  1.00  0.00    -0.246 OA
BRANCH   4   6
ATOM      6  C   UNL A   1      31.869  23.076  24.291  1.00  0.00     0.062 A 
ATOM      7  C   UNL A   1      31.636  25.249  23.242  1.00  0.00     0.065 A 
ATOM      8  C   UNL A   1      32.691  24.916  22.377  1.00  0.00     0.028 A 
ATOM      9  C   UNL A   1      31.243  24.327  24.217  1.00  0.00     0.044 A 
ATOM     10  C   UNL A   1      33.278  23.652  22.409  1.00  0.00     0.003 A 
ATOM     11  C   UNL A   1      32.866  22.732  23.367  1.00  0.00     0.016 A 
BRANCH   7  12
ATOM     12  N   UNL A   1      31.021  26.514  23.192  1.00  0.00    -0.248 NA
ATOM     13  C   UNL A   1      28.889  30.209  23.071  1.00  0.00     0.120 A 
ATOM     14  C   UNL A   1      29.284  31.229  23.933  1.00  0.00     0.048 A 
ATOM     15  C   UNL A   1      29.578  28.994  23.047  1.00  0.00     0.059 A 
ATOM     16  C   UNL A   1      30.405  31.064  24.743  1.00  0.00     0.030 A 
ATOM     17  C   UNL A   1      30.704  28.821  23.866  1.00  0.00     0.027 A 
ATOM     18  C   UNL A   1      31.119  29.862  24.721  1.00  0.00     0.048 A 
ATOM     19  C   UNL A   1      31.464  27.522  23.892  1.00  0.00     0.075 A 
ATOM     20  N   UNL A   1      32.228  29.700  25.558  1.00  0.00    -0.359 N 
ATOM     21  C   UNL A   1      32.691  27.509  24.762  1.00  0.00     0.050 A 
ATOM     22  C   UNL A   1      32.983  28.555  25.551  1.00  0.00     0.014 A 
ATOM     23  H   UNL A   1      32.475  30.429  26.170  1.00  0.00     0.166 HD
ATOM     24  C   UNL A   1      34.160  28.514  26.486  1.00  0.00     0.064 C 
BRANCH  13  25
ATOM     25  O   UNL A   1      27.736  30.338  22.347  1.00  0.00    -0.494 OA
BRANCH  25  26
ATOM     26  C   UNL A   1      27.964  30.716  20.982  1.00  0.00     0.226 C 
ATOM     27  C   UNL A   1      28.053  32.226  20.805  1.00  0.00     0.049 C 
ENDBRANCH  25  26
ENDBRANCH  13  25
ENDBRANCH   7  12
ENDBRANCH   4   6
ENDBRANCH   3   4
ENDBRANCH   2   3
ENDBRANCH   1   2
BRANCH   1  28
ATOM     28  O   UNL A   1      35.107  20.341  25.157  1.00  0.00    -0.374 OA
BRANCH  28  29
ATOM     29  C   UNL A   1      36.434  19.852  24.965  1.00  0.00     0.202 C 
BRANCH  29  30
ATOM     30  C   UNL A   1      37.531  20.890  24.690  1.00  0.00     0.261 C 
BRANCH  30  31
ATOM     31  O   UNL A   1      37.941  21.580  25.883  1.00  0.00    -0.460 OA
BRANCH  31  32
ATOM     32  C   UNL A   1      39.217  21.353  26.282  1.00  0.00     0.338 C 
ATOM     33  O   UNL A   1      39.870  20.333  26.146  1.00  0.00    -0.246 OA
BRANCH  32  34
ATOM     34  C   UNL A   1      39.798  22.629  26.745  1.00  0.00     0.060 A 
ATOM     35  C   UNL A   1      40.829  22.652  27.684  1.00  0.00     0.016 A 
ATOM     36  C   UNL A   1      39.289  23.823  26.216  1.00  0.00     0.016 A 
ATOM     37  C   UNL A   1      41.359  23.880  28.087  1.00  0.00     0.010 A 
ATOM     38  C   UNL A   1      39.817  25.049  26.622  1.00  0.00     0.010 A 
ATOM     39  C   UNL A   1      40.865  25.086  27.554  1.00  0.00    -0.014 A 
BRANCH  39  40
ATOM     40  C   UNL A   1      41.514  26.372  27.907  1.00  0.00     0.031 A 
ATOM     41  C   UNL A   1      42.923  26.675  27.492  1.00  0.00     0.074 A 
ATOM     42  C   UNL A   1      40.807  27.276  28.610  1.00  0.00     0.049 A 
ATOM     43  N   UNL A   1      43.611  27.776  27.662  1.00  0.00    -0.248 NA
ATOM     44  C   UNL A   1      43.658  25.606  26.799  1.00  0.00     0.031 C 
ATOM     45  C   UNL A   1      39.441  27.078  29.093  1.00  0.00     0.029 A 
ATOM     46  N   UNL A   1      41.131  28.541  29.032  1.00  0.00    -0.354 N 
ATOM     47  C   UNL A   1      44.851  27.542  27.084  1.00  0.00     0.074 A 
ATOM     48  C   UNL A   1      44.840  26.178  26.599  1.00  0.00     0.031 C 
ATOM     49  C   UNL A   1      39.031  28.191  29.719  1.00  0.00     0.029 A 
ATOM     50  C   UNL A   1      40.115  29.170  29.710  1.00  0.00     0.049 A 
ATOM     51  H   UNL A   1      42.008  28.958  28.865  1.00  0.00     0.167 HD
ATOM     52  C   UNL A   1      45.892  28.401  26.955  1.00  0.00     0.037 A 
ATOM     53  C   UNL A   1      40.064  30.397  30.263  1.00  0.00     0.037 A 
ATOM     54  C   UNL A   1      45.898  29.756  27.446  1.00  0.00     0.049 A 
ATOM     55  C   UNL A   1      41.254  31.309  30.142  1.00  0.00     0.074 A 
ATOM     56  C   UNL A   1      46.894  30.710  27.323  1.00  0.00     0.029 A 
ATOM     57  N   UNL A   1      44.867  30.348  28.161  1.00  0.00    -0.354 N 
ATOM     58  N   UNL A   1      42.393  31.105  29.526  1.00  0.00    -0.248 NA
ATOM     59  C   UNL A   1      41.149  32.625  30.788  1.00  0.00     0.031 C 
ATOM     60  C   UNL A   1      46.492  31.857  28.013  1.00  0.00     0.029 A 
ATOM     61  C   UNL A   1      45.219  31.641  28.514  1.00  0.00     0.049 A 
ATOM     62  H   UNL A   1      44.014  29.912  28.385  1.00  0.00     0.167 HD
ATOM     63  C   UNL A   1      43.131  32.269  29.693  1.00  0.00     0.074 A 
ATOM     64  C   UNL A   1      42.301  33.185  30.446  1.00  0.00     0.031 C 
ATOM     65  C   UNL A   1      44.387  32.548  29.266  1.00  0.00     0.037 A 
BRANCH  52  66
ATOM     66  C   UNL A   1      47.121  27.918  26.240  1.00  0.00     0.064 A 
ATOM     67  C   UNL A   1      48.226  27.418  26.946  1.00  0.00     0.173 A 
ATOM     68  C   UNL A   1      47.152  27.848  24.839  1.00  0.00     0.173 A 
ATOM     69  F   UNL A   1      48.247  27.465  28.287  1.00  0.00    -0.203 F 
ATOM     70  C   UNL A   1      49.317  26.872  26.276  1.00  0.00     0.198 A 
ATOM     71  C   UNL A   1      48.234  27.275  24.173  1.00  0.00     0.198 A 
ATOM     72  F   UNL A   1      46.117  28.300  24.115  1.00  0.00    -0.203 F 
ATOM     73  F   UNL A   1      50.369  26.418  26.972  1.00  0.00    -0.200 F 
ATOM     74  C   UNL A   1      49.315  26.789  24.892  1.00  0.00     0.200 A 
ATOM     75  F   UNL A   1      48.221  27.179  22.836  1.00  0.00    -0.200 F 
ATOM     76  F   UNL A   1      50.354  26.238  24.250  1.00  0.00    -0.200 F 
ENDBRANCH  52  66
BRANCH  53  77
ATOM     77  C   UNL A   1      38.828  30.839  30.961  1.00  0.00     0.064 A 
ATOM     78  C   UNL A   1      37.752  31.384  30.247  1.00  0.00     0.173 A 
ATOM     79  C   UNL A   1      38.695  30.720  32.352  1.00  0.00     0.173 A 
ATOM     80  F   UNL A   1      37.840  31.538  28.917  1.00  0.00    -0.203 F 
ATOM     81  C   UNL A   1      36.597  31.808  30.900  1.00  0.00     0.198 A 
ATOM     82  C   UNL A   1      37.527  31.115  32.999  1.00  0.00     0.198 A 
ATOM     83  F   UNL A   1      39.695  30.202  33.080  1.00  0.00    -0.203 F 
ATOM     84  F   UNL A   1      35.601  32.367  30.198  1.00  0.00    -0.200 F 
ATOM     85  C   UNL A   1      36.482  31.666  32.275  1.00  0.00     0.200 A 
ATOM     86  F   UNL A   1      37.413  30.959  34.325  1.00  0.00    -0.200 F 
ATOM     87  F   UNL A   1      35.366  32.066  32.900  1.00  0.00    -0.200 F 
ENDBRANCH  53  77
BRANCH  65  88
ATOM     88  C   UNL A   1      44.946  33.905  29.592  1.00  0.00     0.064 A 
ATOM     89  C   UNL A   1      44.716  35.012  28.761  1.00  0.00     0.173 A 
ATOM     90  C   UNL A   1      45.668  34.113  30.777  1.00  0.00     0.173 A 
ATOM     91  F   UNL A   1      44.044  34.863  27.609  1.00  0.00    -0.203 F 
ATOM     92  C   UNL A   1      45.206  36.272  29.094  1.00  0.00     0.198 A 
ATOM     93  C   UNL A   1      46.127  35.382  31.123  1.00  0.00     0.198 A 
ATOM     94  F   UNL A   1      45.910  33.091  31.612  1.00  0.00    -0.203 F 
ATOM     95  F   UNL A   1      45.012  37.305  28.262  1.00  0.00    -0.200 F 
ATOM     96  C   UNL A   1      45.901  36.458  30.279  1.00  0.00     0.200 A 
ATOM     97  F   UNL A   1      46.784  35.563  32.277  1.00  0.00    -0.200 F 
ATOM     98  F   UNL A   1      46.359  37.674  30.605  1.00  0.00    -0.200 F 
ENDBRANCH  65  88
ENDBRANCH  39  40
ENDBRANCH  32  34
ENDBRANCH  31  32
ENDBRANCH  30  31
ENDBRANCH  29  30
ENDBRANCH  28  29
ENDBRANCH   1  28
TORSDOF 17
ENDMDL
MODEL 2
REMARK VINA RESULT:     -12.0      5.385      9.989
REMARK SMILES CCOc1ccc2[nH]c(C)c/c(=N\c3cccc(C(=O)OCCOCCOC(=O)c4ccc(-c5c6nc(c(-c7c(F)c(F)c(F)c(F)c7F)c7ccc([nH]7)c(-c7c(F)c(F)c(F)c(F)c7F)c7nc(c(-c8c(F)c(F)c(F)c(F)c8F)c8ccc5[nH]8)C=C7)C=C6)cc4)c3)c2c1
REMARK SMILES IDX 23 1 22 2 21 3 19 4 20 5 18 6 14 7 15 8 93 9 16 10 17 11
REMARK SMILES IDX 13 12 4 13 5 14 95 15 6 16 94 17 7 18 12 19 8 20 11 21 9 22
REMARK SMILES IDX 10 24 3 25 2 26 1 27 24 28 25 29 26 30 27 31 28 32 29 33
REMARK SMILES IDX 30 34 31 35 92 36 32 37 91 38 33 39 34 40 35 41 85 42 36 43
REMARK SMILES IDX 90 44 84 45 86 46 37 47 89 48 83 49 82 50 38 52 70 53 50 54
REMARK SMILES IDX 69 55 51 56 54 57 68 58 87 59 52 60 53 61 67 63 88 64 55 65
REMARK SMILES IDX 39 66 40 67 48 68 41 69 42 70 46 71 49 72 43 73 44 74 47 75
REMARK SMILES IDX 45 76 71 77 72 78 80 79 73 80 74 81 78 82 81 83 75 84 76 85
REMARK SMILES IDX 79 86 77 87 56 88 57 89 65 90 58 91 59 92 63 93 66 94 60 95
REMARK SMILES IDX 61 96 64 97 62 98
REMARK H PARENT 8 23 86 51 54 62
REMARK Flexibility Score: inf
ROOT
ATOM      1  C   UNL A   1      33.958  34.463  28.424  1.00  0.00     0.202 C 
ENDROOT
BRANCH   1   2
ATOM      2  C   UNL A   1      34.964  33.312  28.324  1.00  0.00     0.261 C 
BRANCH   2   3
ATOM      3  O   UNL A   1      34.575  32.348  27.331  1.00  0.00    -0.460 OA
BRANCH   3   4
ATOM      4  C   UNL A   1      35.116  31.116  27.503  1.00  0.00     0.338 C 
ATOM      5  O   UNL A   1      36.219  30.865  27.964  1.00  0.00    -0.246 OA
BRANCH   4   6
ATOM      6  C   UNL A   1      34.119  30.058  27.211  1.00  0.00     0.062 A 
ATOM      7  C   UNL A   1      33.468  27.825  26.523  1.00  0.00     0.065 A 
ATOM      8  C   UNL A   1      32.131  28.161  26.791  1.00  0.00     0.028 A 
ATOM      9  C   UNL A   1      34.465  28.778  26.758  1.00  0.00     0.044 A 
ATOM     10  C   UNL A   1      31.777  29.449  27.187  1.00  0.00     0.003 A 
ATOM     11  C   UNL A   1      32.772  30.398  27.396  1.00  0.00     0.016 A 
BRANCH   7  12
ATOM     12  N   UNL A   1      33.827  26.534  26.095  1.00  0.00    -0.248 NA
ATOM     13  C   UNL A   1      34.837  22.515  25.076  1.00  0.00     0.120 A 
ATOM     14  C   UNL A   1      34.294  21.970  23.913  1.00  0.00     0.048 A 
ATOM     15  C   UNL A   1      34.566  23.838  25.433  1.00  0.00     0.059 A 
ATOM     16  C   UNL A   1      33.516  22.760  23.071  1.00  0.00     0.030 A 
ATOM     17  C   UNL A   1      33.777  24.634  24.589  1.00  0.00     0.027 A 
ATOM     18  C   UNL A   1      33.246  24.091  23.402  1.00  0.00     0.048 A 
ATOM     19  C   UNL A   1      33.438  26.057  24.945  1.00  0.00     0.075 A 
ATOM     20  N   UNL A   1      32.443  24.866  22.559  1.00  0.00    -0.359 N 
ATOM     21  C   UNL A   1      32.647  26.810  23.910  1.00  0.00     0.050 A 
ATOM     22  C   UNL A   1      32.177  26.186  22.819  1.00  0.00     0.014 A 
ATOM     23  H   UNL A   1      32.057  24.452  21.754  1.00  0.00     0.166 HD
ATOM     24  C   UNL A   1      31.314  26.911  21.824  1.00  0.00     0.064 C 
BRANCH  13  25
ATOM     25  O   UNL A   1      35.522  21.713  25.948  1.00  0.00    -0.494 OA
BRANCH  25  26
ATOM     26  C   UNL A   1      36.141  20.586  25.313  1.00  0.00     0.226 C 
ATOM     27  C   UNL A   1      37.577  20.872  24.893  1.00  0.00     0.049 C 
ENDBRANCH  25  26
ENDBRANCH  13  25
ENDBRANCH   7  12
ENDBRANCH   4   6
ENDBRANCH   3   4
ENDBRANCH   2   3
ENDBRANCH   1   2
BRANCH   1  28
ATOM     28  O   UNL A   1      34.483  35.789  28.413  1.00  0.00    -0.374 OA
BRANCH  28  29
ATOM     29  C   UNL A   1      33.666  36.832  28.946  1.00  0.00     0.202 C 
BRANCH  29  30
ATOM     30  C   UNL A   1      32.507  36.415  29.863  1.00  0.00     0.261 C 
BRANCH  30  31
ATOM     31  O   UNL A   1      32.762  36.733  31.242  1.00  0.00    -0.460 OA
BRANCH  31  32
ATOM     32  C   UNL A   1      32.477  35.749  32.132  1.00  0.00     0.338 C 
ATOM     33  O   UNL A   1      31.379  35.400  32.531  1.00  0.00    -0.246 OA
BRANCH  32  34
ATOM     34  C   UNL A   1      33.716  34.996  32.410  1.00  0.00     0.060 A 
ATOM     35  C   UNL A   1      34.967  35.606  32.316  1.00  0.00     0.016 A 
ATOM     36  C   UNL A   1      33.607  33.647  32.777  1.00  0.00     0.016 A 
ATOM     37  C   UNL A   1      36.113  34.861  32.599  1.00  0.00     0.010 A 
ATOM     38  C   UNL A   1      34.754  32.905  33.057  1.00  0.00     0.010 A 
ATOM     39  C   UNL A   1      36.017  33.510  32.980  1.00  0.00    -0.014 A 
BRANCH  39  40
ATOM     40  C   UNL A   1      37.234  32.767  33.387  1.00  0.00     0.031 A 
ATOM     41  C   UNL A   1      37.827  31.701  32.515  1.00  0.00     0.074 A 
ATOM     42  C   UNL A   1      37.809  33.074  34.565  1.00  0.00     0.049 A 
ATOM     43  N   UNL A   1      38.923  31.007  32.695  1.00  0.00    -0.248 NA
ATOM     44  C   UNL A   1      37.097  31.365  31.284  1.00  0.00     0.031 C 
ATOM     45  C   UNL A   1      37.304  34.071  35.509  1.00  0.00     0.029 A 
ATOM     46  N   UNL A   1      38.943  32.588  35.167  1.00  0.00    -0.354 N 
ATOM     47  C   UNL A   1      39.026  30.167  31.595  1.00  0.00     0.074 A 
ATOM     48  C   UNL A   1      37.857  30.402  30.774  1.00  0.00     0.031 C 
ATOM     49  C   UNL A   1      38.138  34.146  36.556  1.00  0.00     0.029 A 
ATOM     50  C   UNL A   1      39.220  33.182  36.374  1.00  0.00     0.049 A 
ATOM     51  H   UNL A   1      39.504  31.883  34.771  1.00  0.00     0.167 HD
ATOM     52  C   UNL A   1      40.020  29.296  31.294  1.00  0.00     0.037 A 
ATOM     53  C   UNL A   1      40.232  32.973  37.239  1.00  0.00     0.037 A 
ATOM     54  C   UNL A   1      41.179  29.063  32.119  1.00  0.00     0.049 A 
ATOM     55  C   UNL A   1      41.295  31.965  36.896  1.00  0.00     0.074 A 
ATOM     56  C   UNL A   1      42.256  28.229  31.873  1.00  0.00     0.029 A 
ATOM     57  N   UNL A   1      41.408  29.653  33.353  1.00  0.00    -0.354 N 
ATOM     58  N   UNL A   1      41.423  31.232  35.816  1.00  0.00    -0.248 NA
ATOM     59  C   UNL A   1      42.359  31.760  37.889  1.00  0.00     0.031 C 
ATOM     60  C   UNL A   1      43.107  28.269  32.981  1.00  0.00     0.029 A 
ATOM     61  C   UNL A   1      42.592  29.175  33.893  1.00  0.00     0.049 A 
ATOM     62  H   UNL A   1      40.816  30.312  33.782  1.00  0.00     0.167 HD
ATOM     63  C   UNL A   1      42.586  30.495  35.991  1.00  0.00     0.074 A 
ATOM     64  C   UNL A   1      43.142  30.888  37.269  1.00  0.00     0.031 C 
ATOM     65  C   UNL A   1      43.139  29.571  35.168  1.00  0.00     0.037 A 
BRANCH  52  66
ATOM     66  C   UNL A   1      39.921  28.529  30.007  1.00  0.00     0.064 A 
ATOM     67  C   UNL A   1      40.468  29.030  28.816  1.00  0.00     0.173 A 
ATOM     68  C   UNL A   1      39.378  27.236  29.986  1.00  0.00     0.173 A 
ATOM     69  F   UNL A   1      40.997  30.263  28.782  1.00  0.00    -0.203 F 
ATOM     70  C   UNL A   1      40.469  28.267  27.651  1.00  0.00     0.198 A 
ATOM     71  C   UNL A   1      39.406  26.465  28.826  1.00  0.00     0.198 A 
ATOM     72  F   UNL A   1      38.853  26.704  31.100  1.00  0.00    -0.203 F 
ATOM     73  F   UNL A   1      40.981  28.774  26.521  1.00  0.00    -0.200 F 
ATOM     74  C   UNL A   1      39.950  26.981  27.660  1.00  0.00     0.200 A 
ATOM     75  F   UNL A   1      38.921  25.215  28.842  1.00  0.00    -0.200 F 
ATOM     76  F   UNL A   1      39.977  26.238  26.545  1.00  0.00    -0.200 F 
ENDBRANCH  52  66
BRANCH  53  77
ATOM     77  C   UNL A   1      40.296  33.753  38.501  1.00  0.00     0.064 A 
ATOM     78  C   UNL A   1      41.116  34.885  38.609  1.00  0.00     0.173 A 
ATOM     79  C   UNL A   1      39.534  33.390  39.622  1.00  0.00     0.173 A 
ATOM     80  F   UNL A   1      41.880  35.260  37.572  1.00  0.00    -0.203 F 
ATOM     81  C   UNL A   1      41.186  35.612  39.796  1.00  0.00     0.198 A 
ATOM     82  C   UNL A   1      39.580  34.137  40.796  1.00  0.00     0.198 A 
ATOM     83  F   UNL A   1      38.730  32.318  39.568  1.00  0.00    -0.203 F 
ATOM     84  F   UNL A   1      42.013  36.663  39.886  1.00  0.00    -0.200 F 
ATOM     85  C   UNL A   1      40.412  35.243  40.886  1.00  0.00     0.200 A 
ATOM     86  F   UNL A   1      38.817  33.788  41.840  1.00  0.00    -0.200 F 
ATOM     87  F   UNL A   1      40.472  35.949  42.022  1.00  0.00    -0.200 F 
ENDBRANCH  53  77
BRANCH  65  88
ATOM     88  C   UNL A   1      44.419  28.920  35.613  1.00  0.00     0.064 A 
ATOM     89  C   UNL A   1      45.666  29.513  35.369  1.00  0.00     0.173 A 
ATOM     90  C   UNL A   1      44.394  27.722  36.344  1.00  0.00     0.173 A 
ATOM     91  F   UNL A   1      45.746  30.651  34.662  1.00  0.00    -0.203 F 
ATOM     92  C   UNL A   1      46.843  28.920  35.821  1.00  0.00     0.198 A 
ATOM     93  C   UNL A   1      45.569  27.151  36.824  1.00  0.00     0.198 A 
ATOM     94  F   UNL A   1      43.227  27.117  36.613  1.00  0.00    -0.203 F 
ATOM     95  F   UNL A   1      48.026  29.482  35.537  1.00  0.00    -0.200 F 
ATOM     96  C   UNL A   1      46.792  27.746  36.557  1.00  0.00     0.200 A 
ATOM     97  F   UNL A   1      45.517  26.026  37.550  1.00  0.00    -0.200 F 
ATOM     98  F   UNL A   1      47.924  27.186  37.005  1.00  0.00    -0.200 F 
ENDBRANCH  65  88
ENDBRANCH  39  40
ENDBRANCH  32  34
ENDBRANCH  31  32
ENDBRANCH  30  31
ENDBRANCH  29  30
ENDBRANCH  28  29
ENDBRANCH   1  28
TORSDOF 17
ENDMDL
MODEL 3
REMARK VINA RESULT:     -11.9      5.390     11.108
REMARK SMILES CCOc1ccc2[nH]c(C)c/c(=N\c3cccc(C(=O)OCCOCCOC(=O)c4ccc(-c5c6nc(c(-c7c(F)c(F)c(F)c(F)c7F)c7ccc([nH]7)c(-c7c(F)c(F)c(F)c(F)c7F)c7nc(c(-c8c(F)c(F)c(F)c(F)c8F)c8ccc5[nH]8)C=C7)C=C6)cc4)c3)c2c1
REMARK SMILES IDX 23 1 22 2 21 3 19 4 20 5 18 6 14 7 15 8 93 9 16 10 17 11
REMARK SMILES IDX 13 12 4 13 5 14 95 15 6 16 94 17 7 18 12 19 8 20 11 21 9 22
REMARK SMILES IDX 10 24 3 25 2 26 1 27 24 28 25 29 26 30 27 31 28 32 29 33
REMARK SMILES IDX 30 34 31 35 92 36 32 37 91 38 33 39 34 40 35 41 85 42 36 43
REMARK SMILES IDX 90 44 84 45 86 46 37 47 89 48 83 49 82 50 38 52 70 53 50 54
REMARK SMILES IDX 69 55 51 56 54 57 68 58 87 59 52 60 53 61 67 63 88 64 55 65
REMARK SMILES IDX 39 66 40 67 48 68 41 69 42 70 46 71 49 72 43 73 44 74 47 75
REMARK SMILES IDX 45 76 71 77 72 78 80 79 73 80 74 81 78 82 81 83 75 84 76 85
REMARK SMILES IDX 79 86 77 87 56 88 57 89 65 90 58 91 59 92 63 93 66 94 60 95
REMARK SMILES IDX 61 96 64 97 62 98
REMARK H PARENT 8 23 86 51 54 62
REMARK Flexibility Score: inf
ROOT
ATOM      1  C   UNL A   1      34.188  34.177  28.634  1.00  0.00     0.202 C 
ENDROOT
BRANCH   1   2
ATOM      2  C   UNL A   1      35.213  33.120  28.211  1.00  0.00     0.261 C 
BRANCH   2   3
ATOM      3  O   UNL A   1      34.786  31.792  28.558  1.00  0.00    -0.460 OA
BRANCH   3   4
ATOM      4  C   UNL A   1      35.299  30.813  27.771  1.00  0.00     0.338 C 
ATOM      5  O   UNL A   1      36.480  30.615  27.537  1.00  0.00    -0.246 OA
BRANCH   4   6
ATOM      6  C   UNL A   1      34.236  29.871  27.343  1.00  0.00     0.062 A 
ATOM      7  C   UNL A   1      33.441  27.741  26.501  1.00  0.00     0.065 A 
ATOM      8  C   UNL A   1      32.124  28.199  26.659  1.00  0.00     0.028 A 
ATOM      9  C   UNL A   1      34.499  28.579  26.868  1.00  0.00     0.044 A 
ATOM     10  C   UNL A   1      31.859  29.503  27.076  1.00  0.00     0.003 A 
ATOM     11  C   UNL A   1      32.917  30.339  27.418  1.00  0.00     0.016 A 
BRANCH   7  12
ATOM     12  N   UNL A   1      33.712  26.435  26.052  1.00  0.00    -0.248 NA
ATOM     13  C   UNL A   1      34.470  22.376  24.973  1.00  0.00     0.120 A 
ATOM     14  C   UNL A   1      33.831  21.861  23.846  1.00  0.00     0.048 A 
ATOM     15  C   UNL A   1      34.283  23.710  25.346  1.00  0.00     0.059 A 
ATOM     16  C   UNL A   1      33.040  22.688  23.053  1.00  0.00     0.030 A 
ATOM     17  C   UNL A   1      33.481  24.544  24.552  1.00  0.00     0.027 A 
ATOM     18  C   UNL A   1      32.854  24.030  23.400  1.00  0.00     0.048 A 
ATOM     19  C   UNL A   1      33.232  25.980  24.928  1.00  0.00     0.075 A 
ATOM     20  N   UNL A   1      32.036  24.843  22.608  1.00  0.00    -0.359 N 
ATOM     21  C   UNL A   1      32.414  26.771  23.944  1.00  0.00     0.050 A 
ATOM     22  C   UNL A   1      31.848  26.173  22.884  1.00  0.00     0.014 A 
ATOM     23  H   UNL A   1      31.583  24.449  21.829  1.00  0.00     0.166 HD
ATOM     24  C   UNL A   1      30.960  26.940  21.945  1.00  0.00     0.064 C 
BRANCH  13  25
ATOM     25  O   UNL A   1      35.169  21.542  25.801  1.00  0.00    -0.494 OA
BRANCH  25  26
ATOM     26  C   UNL A   1      36.567  21.855  25.871  1.00  0.00     0.226 C 
ATOM     27  C   UNL A   1      37.266  21.702  24.527  1.00  0.00     0.049 C 
ENDBRANCH  25  26
ENDBRANCH  13  25
ENDBRANCH   7  12
ENDBRANCH   4   6
ENDBRANCH   3   4
ENDBRANCH   2   3
ENDBRANCH   1   2
BRANCH   1  28
ATOM     28  O   UNL A   1      34.499  35.538  28.343  1.00  0.00    -0.374 OA
BRANCH  28  29
ATOM     29  C   UNL A   1      33.611  36.542  28.836  1.00  0.00     0.202 C 
BRANCH  29  30
ATOM     30  C   UNL A   1      32.576  36.109  29.883  1.00  0.00     0.261 C 
BRANCH  30  31
ATOM     31  O   UNL A   1      32.951  36.498  31.215  1.00  0.00    -0.460 OA
BRANCH  31  32
ATOM     32  C   UNL A   1      32.758  35.561  32.176  1.00  0.00     0.338 C 
ATOM     33  O   UNL A   1      31.701  35.212  32.675  1.00  0.00    -0.246 OA
BRANCH  32  34
ATOM     34  C   UNL A   1      34.031  34.851  32.403  1.00  0.00     0.060 A 
ATOM     35  C   UNL A   1      35.251  35.428  32.049  1.00  0.00     0.016 A 
ATOM     36  C   UNL A   1      33.989  33.577  32.987  1.00  0.00     0.016 A 
ATOM     37  C   UNL A   1      36.434  34.727  32.291  1.00  0.00     0.010 A 
ATOM     38  C   UNL A   1      35.172  32.878  33.225  1.00  0.00     0.010 A 
ATOM     39  C   UNL A   1      36.406  33.453  32.888  1.00  0.00    -0.014 A 
BRANCH  39  40
ATOM     40  C   UNL A   1      37.676  32.773  33.242  1.00  0.00     0.031 A 
ATOM     41  C   UNL A   1      38.407  33.094  34.511  1.00  0.00     0.074 A 
ATOM     42  C   UNL A   1      38.165  31.847  32.396  1.00  0.00     0.049 A 
ATOM     43  N   UNL A   1      39.491  32.542  34.997  1.00  0.00    -0.248 NA
ATOM     44  C   UNL A   1      37.855  34.174  35.342  1.00  0.00     0.031 C 
ATOM     45  C   UNL A   1      37.556  31.475  31.118  1.00  0.00     0.029 A 
ATOM     46  N   UNL A   1      39.276  31.045  32.483  1.00  0.00    -0.354 N 
ATOM     47  C   UNL A   1      39.741  33.192  36.197  1.00  0.00     0.074 A 
ATOM     48  C   UNL A   1      38.725  34.212  36.345  1.00  0.00     0.031 C 
ATOM     49  C   UNL A   1      38.282  30.498  30.555  1.00  0.00     0.029 A 
ATOM     50  C   UNL A   1      39.423  30.196  31.414  1.00  0.00     0.049 A 
ATOM     51  H   UNL A   1      39.905  31.076  33.239  1.00  0.00     0.167 HD
ATOM     52  C   UNL A   1      40.722  32.941  37.100  1.00  0.00     0.037 A 
ATOM     53  C   UNL A   1      40.374  29.277  31.153  1.00  0.00     0.037 A 
ATOM     54  C   UNL A   1      41.734  31.927  36.943  1.00  0.00     0.049 A 
ATOM     55  C   UNL A   1      41.475  29.054  32.154  1.00  0.00     0.074 A 
ATOM     56  C   UNL A   1      42.742  31.574  37.825  1.00  0.00     0.029 A 
ATOM     57  N   UNL A   1      41.877  31.110  35.831  1.00  0.00    -0.354 N 
ATOM     58  N   UNL A   1      41.658  29.621  33.322  1.00  0.00    -0.248 NA
ATOM     59  C   UNL A   1      42.498  28.059  31.804  1.00  0.00     0.031 C 
ATOM     60  C   UNL A   1      43.529  30.588  37.223  1.00  0.00     0.029 A 
ATOM     61  C   UNL A   1      42.976  30.280  35.991  1.00  0.00     0.049 A 
ATOM     62  H   UNL A   1      41.287  31.121  35.043  1.00  0.00     0.167 HD
ATOM     63  C   UNL A   1      42.802  29.041  33.852  1.00  0.00     0.074 A 
ATOM     64  C   UNL A   1      43.256  28.057  32.891  1.00  0.00     0.031 C 
ATOM     65  C   UNL A   1      43.423  29.305  35.028  1.00  0.00     0.037 A 
BRANCH  52  66
ATOM     66  C   UNL A   1      40.752  33.761  38.357  1.00  0.00     0.064 A 
ATOM     67  C   UNL A   1      41.534  34.922  38.450  1.00  0.00     0.173 A 
ATOM     68  C   UNL A   1      39.909  33.450  39.434  1.00  0.00     0.173 A 
ATOM     69  F   UNL A   1      42.360  35.262  37.449  1.00  0.00    -0.203 F 
ATOM     70  C   UNL A   1      41.476  35.737  39.578  1.00  0.00     0.198 A 
ATOM     71  C   UNL A   1      39.832  34.282  40.548  1.00  0.00     0.198 A 
ATOM     72  F   UNL A   1      39.130  32.358  39.391  1.00  0.00    -0.203 F 
ATOM     73  F   UNL A   1      42.246  36.831  39.653  1.00  0.00    -0.200 F 
ATOM     74  C   UNL A   1      40.615  35.424  40.620  1.00  0.00     0.200 A 
ATOM     75  F   UNL A   1      38.986  33.988  41.546  1.00  0.00    -0.200 F 
ATOM     76  F   UNL A   1      40.539  36.224  41.692  1.00  0.00    -0.200 F 
ENDBRANCH  52  66
BRANCH  53  77
ATOM     77  C   UNL A   1      40.308  28.484  29.899  1.00  0.00     0.064 A 
ATOM     78  C   UNL A   1      39.592  27.279  29.843  1.00  0.00     0.173 A 
ATOM     79  C   UNL A   1      40.951  28.915  28.729  1.00  0.00     0.173 A 
ATOM     80  F   UNL A   1      38.978  26.814  30.941  1.00  0.00    -0.203 F 
ATOM     81  C   UNL A   1      39.538  26.529  28.671  1.00  0.00     0.198 A 
ATOM     82  C   UNL A   1      40.868  28.180  27.549  1.00  0.00     0.198 A 
ATOM     83  F   UNL A   1      41.645  30.062  28.729  1.00  0.00    -0.203 F 
ATOM     84  F   UNL A   1      38.884  25.359  28.657  1.00  0.00    -0.200 F 
ATOM     85  C   UNL A   1      40.169  26.983  27.522  1.00  0.00     0.200 A 
ATOM     86  F   UNL A   1      41.465  28.632  26.438  1.00  0.00    -0.200 F 
ATOM     87  F   UNL A   1      40.107  26.266  26.393  1.00  0.00    -0.200 F 
ENDBRANCH  53  77
BRANCH  65  88
ATOM     88  C   UNL A   1      44.660  28.515  35.354  1.00  0.00     0.064 A 
ATOM     89  C   UNL A   1      45.938  28.981  35.012  1.00  0.00     0.173 A 
ATOM     90  C   UNL A   1      44.570  27.310  36.068  1.00  0.00     0.173 A 
ATOM     91  F   UNL A   1      46.078  30.120  34.316  1.00  0.00    -0.203 F 
ATOM     92  C   UNL A   1      47.079  28.259  35.354  1.00  0.00     0.198 A 
ATOM     93  C   UNL A   1      45.715  26.609  36.438  1.00  0.00     0.198 A 
ATOM     94  F   UNL A   1      43.373  26.823  36.428  1.00  0.00    -0.203 F 
ATOM     95  F   UNL A   1      48.287  28.702  34.977  1.00  0.00    -0.200 F 
ATOM     96  C   UNL A   1      46.967  27.081  36.076  1.00  0.00     0.200 A 
ATOM     97  F   UNL A   1      45.606  25.480  37.151  1.00  0.00    -0.200 F 
ATOM     98  F   UNL A   1      48.067  26.396  36.418  1.00  0.00    -0.200 F 
ENDBRANCH  65  88
ENDBRANCH  39  40
ENDBRANCH  32  34
ENDBRANCH  31  32
ENDBRANCH  30  31
ENDBRANCH  29  30
ENDBRANCH  28  29
ENDBRANCH   1  28
TORSDOF 17
ENDMDL
