MODEL 1
REMARK VINA RESULT:     -10.3      0.000      0.000
REMARK SMILES C[C@@H]1CC[N@@H+]1[C@@H](CO)C(=O)OCCOCCOC(=O)c1ccc(-c2c3nc(c(-c4c(F)c(F)c(F)c(F)c4F)c4ccc([nH]4)c(-c4c(F)c(F)c(F)c(F)c4F)c4nc(c(-c5c(F)c(F)c(F)c(F)c5F)c5ccc2[nH]5)C=C4)C=C3)cc1
REMARK SMILES IDX 14 1 13 2 12 3 11 4 9 5 10 6 6 7 5 8 1 9 2 10 3 11 4 12 7 14
REMARK SMILES IDX 8 15 15 17 16 18 17 19 18 20 19 21 20 22 21 23 82 24 22 25
REMARK SMILES IDX 81 26 23 27 24 28 25 29 75 30 26 31 80 32 74 33 76 34 27 35
REMARK SMILES IDX 79 36 73 37 72 38 28 40 60 41 40 42 59 43 41 44 44 45 58 46
REMARK SMILES IDX 77 47 42 48 43 49 57 51 78 52 45 53 29 54 30 55 38 56 31 57
REMARK SMILES IDX 32 58 36 59 39 60 33 61 34 62 37 63 35 64 61 65 62 66 70 67
REMARK SMILES IDX 63 68 64 69 68 70 71 71 65 72 66 73 69 74 67 75 46 76 47 77
REMARK SMILES IDX 55 78 48 79 49 80 53 81 56 82 50 83 51 84 54 85 52 86
REMARK H PARENT 5 13 8 16 76 39 44 50
REMARK Flexibility Score: inf
ROOT
ATOM      1  O   UNL A   1      32.329  30.485  25.882  1.00  0.00    -0.374 OA
ENDROOT
BRANCH   1   2
ATOM      2  C   UNL A   1      32.055  29.095  26.044  1.00  0.00     0.202 C 
BRANCH   2   3
ATOM      3  C   UNL A   1      31.296  28.427  24.895  1.00  0.00     0.261 C 
BRANCH   3   4
ATOM      4  O   UNL A   1      31.014  29.360  23.835  1.00  0.00    -0.459 OA
BRANCH   4   5
ATOM      5  C   UNL A   1      29.837  29.179  23.167  1.00  0.00     0.367 C 
ATOM      6  O   UNL A   1      29.497  28.129  22.633  1.00  0.00    -0.245 OA
BRANCH   5   7
ATOM      7  C   UNL A   1      29.005  30.467  23.084  1.00  0.00     0.321 C 
BRANCH   7   8
ATOM      8  N   UNL A   1      29.353  31.234  21.856  1.00  0.00    -0.319 N 
ATOM      9  C   UNL A   1      29.153  33.428  23.215  1.00  0.00     0.075 C 
ATOM     10  C   UNL A   1      29.104  32.702  21.887  1.00  0.00     0.187 C 
ATOM     11  C   UNL A   1      27.747  32.459  21.195  1.00  0.00     0.126 C 
ATOM     12  C   UNL A   1      28.375  31.125  20.746  1.00  0.00     0.269 C 
ATOM     13  H   UNL A   1      30.304  30.877  21.769  1.00  0.00     0.349 HD
ENDBRANCH   7   8
BRANCH   7  14
ATOM     14  C   UNL A   1      27.566  30.090  23.501  1.00  0.00     0.233 C 
BRANCH  14  15
ATOM     15  O   UNL A   1      26.961  29.057  22.729  1.00  0.00    -0.390 OA
ATOM     16  H   UNL A   1      26.613  28.372  23.321  1.00  0.00     0.210 HD
ENDBRANCH  14  15
ENDBRANCH   7  14
ENDBRANCH   5   7
ENDBRANCH   4   5
ENDBRANCH   3   4
ENDBRANCH   2   3
ENDBRANCH   1   2
BRANCH   1  17
ATOM     17  C   UNL A   1      31.357  31.399  26.386  1.00  0.00     0.202 C 
BRANCH  17  18
ATOM     18  C   UNL A   1      31.896  32.754  26.858  1.00  0.00     0.261 C 
BRANCH  18  19
ATOM     19  O   UNL A   1      32.808  32.617  27.965  1.00  0.00    -0.460 OA
BRANCH  19  20
ATOM     20  C   UNL A   1      33.846  33.482  27.958  1.00  0.00     0.338 C 
ATOM     21  O   UNL A   1      33.799  34.701  27.835  1.00  0.00    -0.246 OA
BRANCH  20  22
ATOM     22  C   UNL A   1      35.100  32.780  28.283  1.00  0.00     0.060 A 
ATOM     23  C   UNL A   1      35.013  31.415  28.588  1.00  0.00     0.016 A 
ATOM     24  C   UNL A   1      36.323  33.450  28.377  1.00  0.00     0.016 A 
ATOM     25  C   UNL A   1      36.133  30.730  29.050  1.00  0.00     0.010 A 
ATOM     26  C   UNL A   1      37.447  32.761  28.847  1.00  0.00     0.010 A 
ATOM     27  C   UNL A   1      37.346  31.410  29.227  1.00  0.00    -0.014 A 
BRANCH  27  28
ATOM     28  C   UNL A   1      38.448  30.740  29.958  1.00  0.00     0.031 A 
ATOM     29  C   UNL A   1      38.669  31.073  31.408  1.00  0.00     0.074 A 
ATOM     30  C   UNL A   1      39.211  29.811  29.357  1.00  0.00     0.049 A 
ATOM     31  N   UNL A   1      39.559  30.602  32.245  1.00  0.00    -0.248 NA
ATOM     32  C   UNL A   1      37.763  32.073  31.995  1.00  0.00     0.031 C 
ATOM     33  C   UNL A   1      39.076  29.378  27.968  1.00  0.00     0.029 A 
ATOM     34  N   UNL A   1      40.255  29.063  29.844  1.00  0.00    -0.354 N 
ATOM     35  C   UNL A   1      39.323  31.249  33.451  1.00  0.00     0.074 A 
ATOM     36  C   UNL A   1      38.228  32.169  33.232  1.00  0.00     0.031 C 
ATOM     37  C   UNL A   1      40.007  28.443  27.711  1.00  0.00     0.029 A 
ATOM     38  C   UNL A   1      40.817  28.231  28.909  1.00  0.00     0.049 A 
ATOM     39  H   UNL A   1      40.569  29.120  30.775  1.00  0.00     0.167 HD
ATOM     40  C   UNL A   1      39.953  31.081  34.638  1.00  0.00     0.037 A 
ATOM     41  C   UNL A   1      41.875  27.402  29.009  1.00  0.00     0.037 A 
ATOM     42  C   UNL A   1      41.038  30.162  34.858  1.00  0.00     0.049 A 
ATOM     43  C   UNL A   1      42.595  27.274  30.326  1.00  0.00     0.074 A 
ATOM     44  C   UNL A   1      41.724  29.902  36.032  1.00  0.00     0.029 A 
ATOM     45  N   UNL A   1      41.600  29.356  33.880  1.00  0.00    -0.354 N 
ATOM     46  N   UNL A   1      42.342  27.863  31.470  1.00  0.00    -0.248 NA
ATOM     47  C   UNL A   1      43.745  26.359  30.366  1.00  0.00     0.031 C 
ATOM     48  C   UNL A   1      42.733  28.973  35.752  1.00  0.00     0.029 A 
ATOM     49  C   UNL A   1      42.642  28.617  34.416  1.00  0.00     0.049 A 
ATOM     50  H   UNL A   1      41.302  29.315  32.942  1.00  0.00     0.167 HD
ATOM     51  C   UNL A   1      43.280  27.372  32.369  1.00  0.00     0.074 A 
ATOM     52  C   UNL A   1      44.100  26.426  31.641  1.00  0.00     0.031 C 
ATOM     53  C   UNL A   1      43.446  27.675  33.681  1.00  0.00     0.037 A 
BRANCH  40  54
ATOM     54  C   UNL A   1      39.498  31.930  35.788  1.00  0.00     0.064 A 
ATOM     55  C   UNL A   1      40.056  33.193  36.039  1.00  0.00     0.173 A 
ATOM     56  C   UNL A   1      38.471  31.486  36.634  1.00  0.00     0.173 A 
ATOM     57  F   UNL A   1      41.051  33.656  35.268  1.00  0.00    -0.203 F 
ATOM     58  C   UNL A   1      39.617  33.970  37.108  1.00  0.00     0.198 A 
ATOM     59  C   UNL A   1      38.016  32.277  37.686  1.00  0.00     0.198 A 
ATOM     60  F   UNL A   1      37.902  30.288  36.436  1.00  0.00    -0.203 F 
ATOM     61  F   UNL A   1      40.194  35.153  37.356  1.00  0.00    -0.200 F 
ATOM     62  C   UNL A   1      38.594  33.515  37.927  1.00  0.00     0.200 A 
ATOM     63  F   UNL A   1      37.019  31.840  38.469  1.00  0.00    -0.200 F 
ATOM     64  F   UNL A   1      38.169  34.265  38.952  1.00  0.00    -0.200 F 
ENDBRANCH  40  54
BRANCH  41  65
ATOM     65  C   UNL A   1      42.322  26.627  27.822  1.00  0.00     0.064 A 
ATOM     66  C   UNL A   1      41.803  25.355  27.550  1.00  0.00     0.173 A 
ATOM     67  C   UNL A   1      43.287  27.142  26.945  1.00  0.00     0.173 A 
ATOM     68  F   UNL A   1      40.896  24.811  28.375  1.00  0.00    -0.203 F 
ATOM     69  C   UNL A   1      42.245  24.618  26.453  1.00  0.00     0.198 A 
ATOM     70  C   UNL A   1      43.709  26.415  25.833  1.00  0.00     0.198 A 
ATOM     71  F   UNL A   1      43.816  28.354  27.163  1.00  0.00    -0.203 F 
ATOM     72  F   UNL A   1      41.765  23.385  26.239  1.00  0.00    -0.200 F 
ATOM     73  C   UNL A   1      43.192  25.152  25.592  1.00  0.00     0.200 A 
ATOM     74  F   UNL A   1      44.618  26.938  24.998  1.00  0.00    -0.200 F 
ATOM     75  F   UNL A   1      43.615  24.443  24.535  1.00  0.00    -0.200 F 
ENDBRANCH  41  65
BRANCH  53  76
ATOM     76  C   UNL A   1      44.535  26.956  34.423  1.00  0.00     0.064 A 
ATOM     77  C   UNL A   1      44.313  25.712  35.033  1.00  0.00     0.173 A 
ATOM     78  C   UNL A   1      45.828  27.498  34.487  1.00  0.00     0.173 A 
ATOM     79  F   UNL A   1      43.092  25.159  35.010  1.00  0.00    -0.203 F 
ATOM     80  C   UNL A   1      45.340  25.051  35.702  1.00  0.00     0.198 A 
ATOM     81  C   UNL A   1      46.858  26.821  35.133  1.00  0.00     0.198 A 
ATOM     82  F   UNL A   1      46.094  28.681  33.913  1.00  0.00    -0.203 F 
ATOM     83  F   UNL A   1      45.094  23.886  36.318  1.00  0.00    -0.200 F 
ATOM     84  C   UNL A   1      46.611  25.601  35.746  1.00  0.00     0.200 A 
ATOM     85  F   UNL A   1      48.089  27.348  35.163  1.00  0.00    -0.200 F 
ATOM     86  F   UNL A   1      47.599  24.961  36.387  1.00  0.00    -0.200 F 
ENDBRANCH  53  76
ENDBRANCH  27  28
ENDBRANCH  20  22
ENDBRANCH  19  20
ENDBRANCH  18  19
ENDBRANCH  17  18
ENDBRANCH   1  17
TORSDOF 17
ENDMDL
MODEL 2
REMARK VINA RESULT:     -10.0      2.424      3.712
REMARK SMILES C[C@@H]1CC[N@@H+]1[C@@H](CO)C(=O)OCCOCCOC(=O)c1ccc(-c2c3nc(c(-c4c(F)c(F)c(F)c(F)c4F)c4ccc([nH]4)c(-c4c(F)c(F)c(F)c(F)c4F)c4nc(c(-c5c(F)c(F)c(F)c(F)c5F)c5ccc2[nH]5)C=C4)C=C3)cc1
REMARK SMILES IDX 14 1 13 2 12 3 11 4 9 5 10 6 6 7 5 8 1 9 2 10 3 11 4 12 7 14
REMARK SMILES IDX 8 15 15 17 16 18 17 19 18 20 19 21 20 22 21 23 82 24 22 25
REMARK SMILES IDX 81 26 23 27 24 28 25 29 75 30 26 31 80 32 74 33 76 34 27 35
REMARK SMILES IDX 79 36 73 37 72 38 28 40 60 41 40 42 59 43 41 44 44 45 58 46
REMARK SMILES IDX 77 47 42 48 43 49 57 51 78 52 45 53 29 54 30 55 38 56 31 57
REMARK SMILES IDX 32 58 36 59 39 60 33 61 34 62 37 63 35 64 61 65 62 66 70 67
REMARK SMILES IDX 63 68 64 69 68 70 71 71 65 72 66 73 69 74 67 75 46 76 47 77
REMARK SMILES IDX 55 78 48 79 49 80 53 81 56 82 50 83 51 84 54 85 52 86
REMARK H PARENT 5 13 8 16 76 39 44 50
REMARK Flexibility Score: inf
ROOT
ATOM      1  O   UNL A   1      31.074  29.139  24.458  1.00  0.00    -0.374 OA
ENDROOT
BRANCH   1   2
ATOM      2  C   UNL A   1      30.642  27.792  24.273  1.00  0.00     0.202 C 
BRANCH   2   3
ATOM      3  C   UNL A   1      30.838  26.860  25.471  1.00  0.00     0.261 C 
BRANCH   3   4
ATOM      4  O   UNL A   1      30.608  25.484  25.114  1.00  0.00    -0.459 OA
BRANCH   4   5
ATOM      5  C   UNL A   1      31.314  24.551  25.819  1.00  0.00     0.367 C 
ATOM      6  O   UNL A   1      31.382  24.511  27.042  1.00  0.00    -0.245 OA
BRANCH   5   7
ATOM      7  C   UNL A   1      32.090  23.590  24.906  1.00  0.00     0.321 C 
BRANCH   7   8
ATOM      8  N   UNL A   1      32.084  22.213  25.472  1.00  0.00    -0.319 N 
ATOM      9  C   UNL A   1      34.341  22.721  26.632  1.00  0.00     0.075 C 
ATOM     10  C   UNL A   1      33.362  21.720  26.055  1.00  0.00     0.187 C 
ATOM     11  C   UNL A   1      33.675  21.028  24.713  1.00  0.00     0.126 C 
ATOM     12  C   UNL A   1      32.156  21.120  24.473  1.00  0.00     0.269 C 
ATOM     13  H   UNL A   1      31.265  22.343  26.067  1.00  0.00     0.349 HD
ENDBRANCH   7   8
BRANCH   7  14
ATOM     14  C   UNL A   1      31.689  23.940  23.455  1.00  0.00     0.233 C 
BRANCH  14  15
ATOM     15  O   UNL A   1      30.324  23.696  23.127  1.00  0.00    -0.390 OA
ATOM     16  H   UNL A   1      30.264  23.369  22.216  1.00  0.00     0.210 HD
ENDBRANCH  14  15
ENDBRANCH   7  14
ENDBRANCH   5   7
ENDBRANCH   4   5
ENDBRANCH   3   4
ENDBRANCH   2   3
ENDBRANCH   1   2
BRANCH   1  17
ATOM     17  C   UNL A   1      31.921  29.399  25.577  1.00  0.00     0.202 C 
BRANCH  17  18
ATOM     18  C   UNL A   1      31.878  30.828  26.128  1.00  0.00     0.261 C 
BRANCH  18  19
ATOM     19  O   UNL A   1      32.506  30.928  27.420  1.00  0.00    -0.460 OA
BRANCH  19  20
ATOM     20  C   UNL A   1      33.339  31.982  27.568  1.00  0.00     0.338 C 
ATOM     21  O   UNL A   1      33.045  33.172  27.556  1.00  0.00    -0.246 OA
BRANCH  20  22
ATOM     22  C   UNL A   1      34.694  31.519  27.916  1.00  0.00     0.060 A 
ATOM     23  C   UNL A   1      34.867  30.147  28.140  1.00  0.00     0.016 A 
ATOM     24  C   UNL A   1      35.755  32.407  28.108  1.00  0.00     0.016 A 
ATOM     25  C   UNL A   1      36.082  29.664  28.619  1.00  0.00     0.010 A 
ATOM     26  C   UNL A   1      36.975  31.922  28.594  1.00  0.00     0.010 A 
ATOM     27  C   UNL A   1      37.129  30.555  28.893  1.00  0.00    -0.014 A 
BRANCH  27  28
ATOM     28  C   UNL A   1      38.313  30.068  29.639  1.00  0.00     0.031 A 
ATOM     29  C   UNL A   1      38.531  30.542  31.050  1.00  0.00     0.074 A 
ATOM     30  C   UNL A   1      39.157  29.177  29.091  1.00  0.00     0.049 A 
ATOM     31  N   UNL A   1      39.486  30.238  31.893  1.00  0.00    -0.248 NA
ATOM     32  C   UNL A   1      37.537  31.488  31.583  1.00  0.00     0.031 C 
ATOM     33  C   UNL A   1      39.036  28.618  27.747  1.00  0.00     0.029 A 
ATOM     34  N   UNL A   1      40.286  28.586  29.603  1.00  0.00    -0.354 N 
ATOM     35  C   UNL A   1      39.210  30.955  33.050  1.00  0.00     0.074 A 
ATOM     36  C   UNL A   1      38.018  31.734  32.793  1.00  0.00     0.031 C 
ATOM     37  C   UNL A   1      40.056  27.768  27.536  1.00  0.00     0.029 A 
ATOM     38  C   UNL A   1      40.912  27.743  28.720  1.00  0.00     0.049 A 
ATOM     39  H   UNL A   1      40.614  28.753  30.515  1.00  0.00     0.167 HD
ATOM     40  C   UNL A   1      39.883  30.954  34.226  1.00  0.00     0.037 A 
ATOM     41  C   UNL A   1      42.055  27.040  28.852  1.00  0.00     0.037 A 
ATOM     42  C   UNL A   1      41.064  30.175  34.485  1.00  0.00     0.049 A 
ATOM     43  C   UNL A   1      42.815  27.098  30.151  1.00  0.00     0.074 A 
ATOM     44  C   UNL A   1      41.802  30.087  35.653  1.00  0.00     0.029 A 
ATOM     45  N   UNL A   1      41.687  29.354  33.556  1.00  0.00    -0.354 N 
ATOM     46  N   UNL A   1      42.527  27.751  31.252  1.00  0.00    -0.248 NA
ATOM     47  C   UNL A   1      44.057  26.316  30.229  1.00  0.00     0.031 C 
ATOM     48  C   UNL A   1      42.897  29.249  35.416  1.00  0.00     0.029 A 
ATOM     49  C   UNL A   1      42.813  28.775  34.117  1.00  0.00     0.049 A 
ATOM     50  H   UNL A   1      41.373  29.204  32.636  1.00  0.00     0.167 HD
ATOM     51  C   UNL A   1      43.533  27.437  32.157  1.00  0.00     0.074 A 
ATOM     52  C   UNL A   1      44.432  26.526  31.482  1.00  0.00     0.031 C 
ATOM     53  C   UNL A   1      43.696  27.865  33.434  1.00  0.00     0.037 A 
BRANCH  40  54
ATOM     54  C   UNL A   1      39.366  31.844  35.319  1.00  0.00     0.064 A 
ATOM     55  C   UNL A   1      38.518  31.359  36.325  1.00  0.00     0.173 A 
ATOM     56  C   UNL A   1      39.749  33.192  35.374  1.00  0.00     0.173 A 
ATOM     57  F   UNL A   1      38.111  30.081  36.308  1.00  0.00    -0.203 F 
ATOM     58  C   UNL A   1      38.052  32.199  37.335  1.00  0.00     0.198 A 
ATOM     59  C   UNL A   1      39.304  34.022  36.401  1.00  0.00     0.198 A 
ATOM     60  F   UNL A   1      40.562  33.704  34.438  1.00  0.00    -0.203 F 
ATOM     61  F   UNL A   1      37.207  31.726  38.260  1.00  0.00    -0.200 F 
ATOM     62  C   UNL A   1      38.450  33.527  37.375  1.00  0.00     0.200 A 
ATOM     63  F   UNL A   1      39.699  35.302  36.445  1.00  0.00    -0.200 F 
ATOM     64  F   UNL A   1      38.007  34.332  38.350  1.00  0.00    -0.200 F 
ENDBRANCH  40  54
BRANCH  41  65
ATOM     65  C   UNL A   1      42.554  26.220  27.718  1.00  0.00     0.064 A 
ATOM     66  C   UNL A   1      42.092  24.914  27.510  1.00  0.00     0.173 A 
ATOM     67  C   UNL A   1      43.513  26.725  26.829  1.00  0.00     0.173 A 
ATOM     68  F   UNL A   1      41.194  24.379  28.349  1.00  0.00    -0.203 F 
ATOM     69  C   UNL A   1      42.584  24.136  26.462  1.00  0.00     0.198 A 
ATOM     70  C   UNL A   1      43.985  25.956  25.766  1.00  0.00     0.198 A 
ATOM     71  F   UNL A   1      43.988  27.969  26.987  1.00  0.00    -0.203 F 
ATOM     72  F   UNL A   1      42.158  22.875  26.310  1.00  0.00    -0.200 F 
ATOM     73  C   UNL A   1      43.524  24.661  25.588  1.00  0.00     0.200 A 
ATOM     74  F   UNL A   1      44.886  26.470  24.918  1.00  0.00    -0.200 F 
ATOM     75  F   UNL A   1      43.994  23.914  24.579  1.00  0.00    -0.200 F 
ENDBRANCH  41  65
BRANCH  53  76
ATOM     76  C   UNL A   1      44.873  27.328  34.196  1.00  0.00     0.064 A 
ATOM     77  C   UNL A   1      44.797  26.128  34.919  1.00  0.00     0.173 A 
ATOM     78  C   UNL A   1      46.104  28.002  34.168  1.00  0.00     0.173 A 
ATOM     79  F   UNL A   1      43.640  25.454  34.987  1.00  0.00    -0.203 F 
ATOM     80  C   UNL A   1      45.904  25.636  35.606  1.00  0.00     0.198 A 
ATOM     81  C   UNL A   1      47.215  27.492  34.833  1.00  0.00     0.198 A 
ATOM     82  F   UNL A   1      46.231  29.149  33.485  1.00  0.00    -0.203 F 
ATOM     83  F   UNL A   1      45.796  24.512  36.328  1.00  0.00    -0.200 F 
ATOM     84  C   UNL A   1      47.113  26.313  35.557  1.00  0.00     0.200 A 
ATOM     85  F   UNL A   1      48.386  28.141  34.774  1.00  0.00    -0.200 F 
ATOM     86  F   UNL A   1      48.178  25.836  36.215  1.00  0.00    -0.200 F 
ENDBRANCH  53  76
ENDBRANCH  27  28
ENDBRANCH  20  22
ENDBRANCH  19  20
ENDBRANCH  18  19
ENDBRANCH  17  18
ENDBRANCH   1  17
TORSDOF 17
ENDMDL
MODEL 3
REMARK VINA RESULT:      -9.9      1.943      3.455
REMARK SMILES C[C@@H]1CC[N@@H+]1[C@@H](CO)C(=O)OCCOCCOC(=O)c1ccc(-c2c3nc(c(-c4c(F)c(F)c(F)c(F)c4F)c4ccc([nH]4)c(-c4c(F)c(F)c(F)c(F)c4F)c4nc(c(-c5c(F)c(F)c(F)c(F)c5F)c5ccc2[nH]5)C=C4)C=C3)cc1
REMARK SMILES IDX 14 1 13 2 12 3 11 4 9 5 10 6 6 7 5 8 1 9 2 10 3 11 4 12 7 14
REMARK SMILES IDX 8 15 15 17 16 18 17 19 18 20 19 21 20 22 21 23 82 24 22 25
REMARK SMILES IDX 81 26 23 27 24 28 25 29 75 30 26 31 80 32 74 33 76 34 27 35
REMARK SMILES IDX 79 36 73 37 72 38 28 40 60 41 40 42 59 43 41 44 44 45 58 46
REMARK SMILES IDX 77 47 42 48 43 49 57 51 78 52 45 53 29 54 30 55 38 56 31 57
REMARK SMILES IDX 32 58 36 59 39 60 33 61 34 62 37 63 35 64 61 65 62 66 70 67
REMARK SMILES IDX 63 68 64 69 68 70 71 71 65 72 66 73 69 74 67 75 46 76 47 77
REMARK SMILES IDX 55 78 48 79 49 80 53 81 56 82 50 83 51 84 54 85 52 86
REMARK H PARENT 5 13 8 16 76 39 44 50
REMARK Flexibility Score: inf
ROOT
ATOM      1  O   UNL A   1      30.922  29.647  24.267  1.00  0.00    -0.374 OA
ENDROOT
BRANCH   1   2
ATOM      2  C   UNL A   1      31.856  28.690  23.771  1.00  0.00     0.202 C 
BRANCH   2   3
ATOM      3  C   UNL A   1      31.510  28.061  22.419  1.00  0.00     0.261 C 
BRANCH   3   4
ATOM      4  O   UNL A   1      31.607  26.625  22.463  1.00  0.00    -0.459 OA
BRANCH   4   5
ATOM      5  C   UNL A   1      32.856  26.098  22.294  1.00  0.00     0.367 C 
ATOM      6  O   UNL A   1      33.644  26.447  21.422  1.00  0.00    -0.245 OA
BRANCH   5   7
ATOM      7  C   UNL A   1      33.146  24.952  23.274  1.00  0.00     0.321 C 
BRANCH   7   8
ATOM      8  N   UNL A   1      32.236  25.026  24.450  1.00  0.00    -0.319 N 
ATOM      9  C   UNL A   1      34.020  26.429  25.694  1.00  0.00     0.075 C 
ATOM     10  C   UNL A   1      32.832  25.491  25.733  1.00  0.00     0.187 C 
ATOM     11  C   UNL A   1      33.030  24.018  26.142  1.00  0.00     0.126 C 
ATOM     12  C   UNL A   1      31.936  23.726  25.098  1.00  0.00     0.269 C 
ATOM     13  H   UNL A   1      31.510  25.577  23.991  1.00  0.00     0.349 HD
ENDBRANCH   7   8
BRANCH   7  14
ATOM     14  C   UNL A   1      33.365  23.684  22.416  1.00  0.00     0.233 C 
BRANCH  14  15
ATOM     15  O   UNL A   1      33.044  23.824  21.035  1.00  0.00    -0.390 OA
ATOM     16  H   UNL A   1      32.195  24.284  20.945  1.00  0.00     0.210 HD
ENDBRANCH  14  15
ENDBRANCH   7  14
ENDBRANCH   5   7
ENDBRANCH   4   5
ENDBRANCH   3   4
ENDBRANCH   2   3
ENDBRANCH   1   2
BRANCH   1  17
ATOM     17  C   UNL A   1      31.281  30.343  25.460  1.00  0.00     0.202 C 
BRANCH  17  18
ATOM     18  C   UNL A   1      32.694  30.073  25.990  1.00  0.00     0.261 C 
BRANCH  18  19
ATOM     19  O   UNL A   1      32.844  30.482  27.362  1.00  0.00    -0.460 OA
BRANCH  19  20
ATOM     20  C   UNL A   1      33.632  31.563  27.551  1.00  0.00     0.338 C 
ATOM     21  O   UNL A   1      33.295  32.741  27.549  1.00  0.00    -0.246 OA
BRANCH  20  22
ATOM     22  C   UNL A   1      34.993  31.144  27.931  1.00  0.00     0.060 A 
ATOM     23  C   UNL A   1      35.210  29.776  28.142  1.00  0.00     0.016 A 
ATOM     24  C   UNL A   1      36.016  32.068  28.165  1.00  0.00     0.016 A 
ATOM     25  C   UNL A   1      36.428  29.332  28.649  1.00  0.00     0.010 A 
ATOM     26  C   UNL A   1      37.238  31.620  28.679  1.00  0.00     0.010 A 
ATOM     27  C   UNL A   1      37.434  30.256  28.964  1.00  0.00    -0.014 A 
BRANCH  27  28
ATOM     28  C   UNL A   1      38.614  29.801  29.738  1.00  0.00     0.031 A 
ATOM     29  C   UNL A   1      38.813  30.320  31.135  1.00  0.00     0.074 A 
ATOM     30  C   UNL A   1      39.471  28.901  29.225  1.00  0.00     0.049 A 
ATOM     31  N   UNL A   1      39.761  30.050  31.997  1.00  0.00    -0.248 NA
ATOM     32  C   UNL A   1      37.807  31.274  31.629  1.00  0.00     0.031 C 
ATOM     33  C   UNL A   1      39.368  28.300  27.898  1.00  0.00     0.029 A 
ATOM     34  N   UNL A   1      40.599  28.335  29.767  1.00  0.00    -0.354 N 
ATOM     35  C   UNL A   1      39.468  30.800  33.129  1.00  0.00     0.074 A 
ATOM     36  C   UNL A   1      38.273  31.561  32.835  1.00  0.00     0.031 C 
ATOM     37  C   UNL A   1      40.397  27.452  27.724  1.00  0.00     0.029 A 
ATOM     38  C   UNL A   1      41.240  27.470  28.918  1.00  0.00     0.049 A 
ATOM     39  H   UNL A   1      40.916  28.532  30.677  1.00  0.00     0.167 HD
ATOM     40  C   UNL A   1      40.128  30.840  34.311  1.00  0.00     0.037 A 
ATOM     41  C   UNL A   1      42.387  26.781  29.083  1.00  0.00     0.037 A 
ATOM     42  C   UNL A   1      41.313  30.079  34.606  1.00  0.00     0.049 A 
ATOM     43  C   UNL A   1      43.132  26.885  30.387  1.00  0.00     0.074 A 
ATOM     44  C   UNL A   1      42.039  30.033  35.784  1.00  0.00     0.029 A 
ATOM     45  N   UNL A   1      41.951  29.235  33.709  1.00  0.00    -0.354 N 
ATOM     46  N   UNL A   1      42.828  27.568  31.465  1.00  0.00    -0.248 NA
ATOM     47  C   UNL A   1      44.380  26.115  30.501  1.00  0.00     0.031 C 
ATOM     48  C   UNL A   1      43.143  29.197  35.584  1.00  0.00     0.029 A 
ATOM     49  C   UNL A   1      43.076  28.683  34.299  1.00  0.00     0.049 A 
ATOM     50  H   UNL A   1      41.648  29.054  32.790  1.00  0.00     0.167 HD
ATOM     51  C   UNL A   1      43.827  27.291  32.389  1.00  0.00     0.074 A 
ATOM     52  C   UNL A   1      44.740  26.366  31.751  1.00  0.00     0.031 C 
ATOM     53  C   UNL A   1      43.974  27.759  33.654  1.00  0.00     0.037 A 
BRANCH  40  54
ATOM     54  C   UNL A   1      39.593  31.759  35.370  1.00  0.00     0.064 A 
ATOM     55  C   UNL A   1      38.643  31.329  36.307  1.00  0.00     0.173 A 
ATOM     56  C   UNL A   1      40.060  33.079  35.465  1.00  0.00     0.173 A 
ATOM     57  F   UNL A   1      38.154  30.081  36.250  1.00  0.00    -0.203 F 
ATOM     58  C   UNL A   1      38.162  32.195  37.288  1.00  0.00     0.198 A 
ATOM     59  C   UNL A   1      39.597  33.933  36.462  1.00  0.00     0.198 A 
ATOM     60  F   UNL A   1      40.972  33.538  34.595  1.00  0.00    -0.203 F 
ATOM     61  F   UNL A   1      37.221  31.777  38.145  1.00  0.00    -0.200 F 
ATOM     62  C   UNL A   1      38.643  33.493  37.368  1.00  0.00     0.200 A 
ATOM     63  F   UNL A   1      40.072  35.183  36.546  1.00  0.00    -0.200 F 
ATOM     64  F   UNL A   1      38.184  34.323  38.315  1.00  0.00    -0.200 F 
ENDBRANCH  40  54
BRANCH  41  65
ATOM     65  C   UNL A   1      42.904  25.930  27.980  1.00  0.00     0.064 A 
ATOM     66  C   UNL A   1      43.793  26.443  27.025  1.00  0.00     0.173 A 
ATOM     67  C   UNL A   1      42.509  24.591  27.853  1.00  0.00     0.173 A 
ATOM     68  F   UNL A   1      44.180  27.725  27.090  1.00  0.00    -0.203 F 
ATOM     69  C   UNL A   1      44.255  25.651  25.975  1.00  0.00     0.198 A 
ATOM     70  C   UNL A   1      42.991  23.793  26.818  1.00  0.00     0.198 A 
ATOM     71  F   UNL A   1      41.658  24.055  28.740  1.00  0.00    -0.203 F 
ATOM     72  F   UNL A   1      45.070  26.176  25.050  1.00  0.00    -0.200 F 
ATOM     73  C   UNL A   1      43.858  24.325  25.877  1.00  0.00     0.200 A 
ATOM     74  F   UNL A   1      42.614  22.510  26.732  1.00  0.00    -0.200 F 
ATOM     75  F   UNL A   1      44.305  23.563  24.868  1.00  0.00    -0.200 F 
ENDBRANCH  41  65
BRANCH  53  76
ATOM     76  C   UNL A   1      45.146  27.255  34.444  1.00  0.00     0.064 A 
ATOM     77  C   UNL A   1      45.069  26.083  35.211  1.00  0.00     0.173 A 
ATOM     78  C   UNL A   1      46.375  27.931  34.400  1.00  0.00     0.173 A 
ATOM     79  F   UNL A   1      43.913  25.408  35.296  1.00  0.00    -0.203 F 
ATOM     80  C   UNL A   1      46.172  25.621  35.924  1.00  0.00     0.198 A 
ATOM     81  C   UNL A   1      47.483  27.451  35.091  1.00  0.00     0.198 A 
ATOM     82  F   UNL A   1      46.504  29.053  33.675  1.00  0.00    -0.203 F 
ATOM     83  F   UNL A   1      46.062  24.525  36.687  1.00  0.00    -0.200 F 
ATOM     84  C   UNL A   1      47.379  26.300  35.859  1.00  0.00     0.200 A 
ATOM     85  F   UNL A   1      48.652  28.101  35.016  1.00  0.00    -0.200 F 
ATOM     86  F   UNL A   1      48.441  25.851  36.541  1.00  0.00    -0.200 F 
ENDBRANCH  53  76
ENDBRANCH  27  28
ENDBRANCH  20  22
ENDBRANCH  19  20
ENDBRANCH  18  19
ENDBRANCH  17  18
ENDBRANCH   1  17
TORSDOF 17
ENDMDL
