MODEL 1
REMARK VINA RESULT:     -11.5      0.000      0.000
REMARK SMILES C[C@@H](c1ccc(Cl)cc1)N1C[C@H](C(=O)OCCOCCOC(=O)c2ccc(-c3c4nc(c(-c5c(F)c(F)c(F)c(F)c5F)c5ccc([nH]5)c(-c5c(F)c(F)c(F)c(F)c5F)c5nc(c(-c6c(F)c(F)c(F)c(F)c6F)c6ccc3[nH]6)C=C5)C=C4)cc2)CC1=O
REMARK SMILES IDX 18 1 17 2 16 3 15 4 13 5 14 6 12 7 10 8 11 9 88 10 87 11
REMARK SMILES IDX 89 12 2 13 1 14 3 15 4 16 9 17 5 18 8 19 6 20 7 21 19 22
REMARK SMILES IDX 20 23 21 24 22 25 23 26 24 27 25 28 86 29 26 30 85 31 27 32
REMARK SMILES IDX 28 33 29 34 79 35 30 36 84 37 78 38 80 39 31 40 83 41 77 42
REMARK SMILES IDX 76 43 32 45 64 46 44 47 63 48 45 49 48 50 62 51 81 52 46 53
REMARK SMILES IDX 47 54 61 56 82 57 49 58 33 59 34 60 42 61 35 62 36 63 40 64
REMARK SMILES IDX 43 65 37 66 38 67 41 68 39 69 65 70 66 71 74 72 67 73 68 74
REMARK SMILES IDX 72 75 75 76 69 77 70 78 73 79 71 80 50 81 51 82 59 83 52 84
REMARK SMILES IDX 53 85 57 86 60 87 54 88 55 89 58 90 56 91
REMARK H PARENT 80 44 48 55
REMARK Flexibility Score: inf
ROOT
ATOM      1  O   UNL A   1      37.498  21.235  24.132  1.00  0.00    -0.374 OA
ENDROOT
BRANCH   1   2
ATOM      2  C   UNL A   1      36.933  22.438  24.650  1.00  0.00     0.202 C 
BRANCH   2   3
ATOM      3  C   UNL A   1      36.282  22.361  26.035  1.00  0.00     0.261 C 
BRANCH   3   4
ATOM      4  O   UNL A   1      35.492  23.528  26.334  1.00  0.00    -0.463 OA
BRANCH   4   5
ATOM      5  C   UNL A   1      34.307  23.279  26.951  1.00  0.00     0.311 C 
ATOM      6  O   UNL A   1      34.164  22.467  27.859  1.00  0.00    -0.252 OA
BRANCH   5   7
ATOM      7  C   UNL A   1      33.138  24.054  26.359  1.00  0.00     0.128 C 
ATOM      8  N   UNL A   1      32.229  22.713  24.670  1.00  0.00    -0.335 N 
ATOM      9  C   UNL A   1      33.118  23.842  24.852  1.00  0.00     0.136 C 
ATOM     10  C   UNL A   1      31.346  22.606  25.732  1.00  0.00     0.224 C 
ATOM     11  C   UNL A   1      31.735  23.625  26.780  1.00  0.00     0.117 C 
ATOM     12  O   UNL A   1      30.400  21.841  25.822  1.00  0.00    -0.275 OA
BRANCH   8  13
ATOM     13  C   UNL A   1      32.084  21.938  23.429  1.00  0.00     0.112 C 
ATOM     14  C   UNL A   1      32.726  22.655  22.238  1.00  0.00     0.036 C 
BRANCH  13  15
ATOM     15  C   UNL A   1      32.546  20.492  23.560  1.00  0.00    -0.026 A 
ATOM     16  C   UNL A   1      32.045  19.469  22.735  1.00  0.00     0.007 A 
ATOM     17  C   UNL A   1      33.524  20.156  24.513  1.00  0.00     0.007 A 
ATOM     18  C   UNL A   1      32.552  18.170  22.811  1.00  0.00     0.021 A 
ATOM     19  C   UNL A   1      34.008  18.847  24.613  1.00  0.00     0.021 A 
ATOM     20  C   UNL A   1      33.534  17.865  23.748  1.00  0.00     0.041 A 
ATOM     21  Cl  UNL A   1      34.167  16.267  23.833  1.00  0.00    -0.084 Cl
ENDBRANCH  13  15
ENDBRANCH   8  13
ENDBRANCH   5   7
ENDBRANCH   4   5
ENDBRANCH   3   4
ENDBRANCH   2   3
ENDBRANCH   1   2
BRANCH   1  22
ATOM     22  C   UNL A   1      37.555  20.109  25.007  1.00  0.00     0.202 C 
BRANCH  22  23
ATOM     23  C   UNL A   1      38.949  19.602  25.401  1.00  0.00     0.261 C 
BRANCH  23  24
ATOM     24  O   UNL A   1      39.875  20.674  25.669  1.00  0.00    -0.460 OA
BRANCH  24  25
ATOM     25  C   UNL A   1      40.456  20.625  26.891  1.00  0.00     0.338 C 
ATOM     26  O   UNL A   1      40.884  19.638  27.474  1.00  0.00    -0.246 OA
BRANCH  25  27
ATOM     27  C   UNL A   1      40.691  21.986  27.406  1.00  0.00     0.060 A 
ATOM     28  C   UNL A   1      40.018  23.038  26.771  1.00  0.00     0.016 A 
ATOM     29  C   UNL A   1      41.622  22.246  28.413  1.00  0.00     0.016 A 
ATOM     30  C   UNL A   1      40.313  24.359  27.101  1.00  0.00     0.010 A 
ATOM     31  C   UNL A   1      41.925  23.576  28.737  1.00  0.00     0.010 A 
ATOM     32  C   UNL A   1      41.301  24.636  28.055  1.00  0.00    -0.014 A 
BRANCH  32  33
ATOM     33  C   UNL A   1      41.786  26.030  28.207  1.00  0.00     0.031 A 
ATOM     34  C   UNL A   1      43.124  26.402  27.629  1.00  0.00     0.074 A 
ATOM     35  C   UNL A   1      41.025  26.965  28.802  1.00  0.00     0.049 A 
ATOM     36  N   UNL A   1      43.744  27.554  27.640  1.00  0.00    -0.248 NA
ATOM     37  C   UNL A   1      43.862  25.328  26.945  1.00  0.00     0.031 C 
ATOM     38  C   UNL A   1      39.695  26.739  29.362  1.00  0.00     0.029 A 
ATOM     39  N   UNL A   1      41.268  28.295  29.034  1.00  0.00    -0.354 N 
ATOM     40  C   UNL A   1      44.941  27.345  26.967  1.00  0.00     0.074 A 
ATOM     41  C   UNL A   1      44.977  25.950  26.587  1.00  0.00     0.031 C 
ATOM     42  C   UNL A   1      39.240  27.893  29.881  1.00  0.00     0.029 A 
ATOM     43  C   UNL A   1      40.258  28.929  29.712  1.00  0.00     0.049 A 
ATOM     44  H   UNL A   1      42.091  28.753  28.741  1.00  0.00     0.167 HD
ATOM     45  C   UNL A   1      45.918  28.240  26.683  1.00  0.00     0.037 A 
ATOM     46  C   UNL A   1      40.173  30.197  30.159  1.00  0.00     0.037 A 
ATOM     47  C   UNL A   1      45.882  29.628  27.057  1.00  0.00     0.049 A 
ATOM     48  C   UNL A   1      41.303  31.156  29.888  1.00  0.00     0.074 A 
ATOM     49  C   UNL A   1      46.816  30.617  26.799  1.00  0.00     0.029 A 
ATOM     50  N   UNL A   1      44.858  30.224  27.777  1.00  0.00    -0.354 N 
ATOM     51  N   UNL A   1      42.420  30.956  29.231  1.00  0.00    -0.248 NA
ATOM     52  C   UNL A   1      41.159  32.519  30.420  1.00  0.00     0.031 C 
ATOM     53  C   UNL A   1      46.379  31.801  27.402  1.00  0.00     0.029 A 
ATOM     54  C   UNL A   1      45.148  31.561  27.995  1.00  0.00     0.049 A 
ATOM     55  H   UNL A   1      44.044  29.765  28.087  1.00  0.00     0.167 HD
ATOM     56  C   UNL A   1      43.097  32.169  29.247  1.00  0.00     0.074 A 
ATOM     57  C   UNL A   1      42.259  33.104  29.969  1.00  0.00     0.031 C 
ATOM     58  C   UNL A   1      44.302  32.480  28.710  1.00  0.00     0.037 A 
BRANCH  45  59
ATOM     59  C   UNL A   1      47.123  27.734  25.947  1.00  0.00     0.064 A 
ATOM     60  C   UNL A   1      47.196  27.758  24.547  1.00  0.00     0.173 A 
ATOM     61  C   UNL A   1      48.235  27.251  26.656  1.00  0.00     0.173 A 
ATOM     62  F   UNL A   1      46.155  28.198  23.825  1.00  0.00    -0.203 F 
ATOM     63  C   UNL A   1      48.328  27.295  23.882  1.00  0.00     0.198 A 
ATOM     64  C   UNL A   1      49.374  26.812  25.987  1.00  0.00     0.198 A 
ATOM     65  F   UNL A   1      48.217  27.210  27.996  1.00  0.00    -0.203 F 
ATOM     66  F   UNL A   1      48.360  27.288  22.542  1.00  0.00    -0.200 F 
ATOM     67  C   UNL A   1      49.418  26.829  24.601  1.00  0.00     0.200 A 
ATOM     68  F   UNL A   1      50.431  26.372  26.684  1.00  0.00    -0.200 F 
ATOM     69  F   UNL A   1      50.509  26.389  23.958  1.00  0.00    -0.200 F 
ENDBRANCH  45  59
BRANCH  46  70
ATOM     70  C   UNL A   1      38.974  30.636  30.921  1.00  0.00     0.064 A 
ATOM     71  C   UNL A   1      37.860  31.182  30.270  1.00  0.00     0.173 A 
ATOM     72  C   UNL A   1      38.929  30.534  32.319  1.00  0.00     0.173 A 
ATOM     73  F   UNL A   1      37.868  31.325  28.936  1.00  0.00    -0.203 F 
ATOM     74  C   UNL A   1      36.751  31.621  30.989  1.00  0.00     0.198 A 
ATOM     75  C   UNL A   1      37.809  30.949  33.035  1.00  0.00     0.198 A 
ATOM     76  F   UNL A   1      39.971  30.022  32.990  1.00  0.00    -0.203 F 
ATOM     77  F   UNL A   1      35.717  32.179  30.346  1.00  0.00    -0.200 F 
ATOM     78  C   UNL A   1      36.724  31.500  32.370  1.00  0.00     0.200 A 
ATOM     79  F   UNL A   1      37.782  30.822  34.368  1.00  0.00    -0.200 F 
ATOM     80  F   UNL A   1      35.655  31.921  33.061  1.00  0.00    -0.200 F 
ENDBRANCH  46  70
BRANCH  58  81
ATOM     81  C   UNL A   1      44.776  33.897  28.855  1.00  0.00     0.064 A 
ATOM     82  C   UNL A   1      45.580  34.298  29.932  1.00  0.00     0.173 A 
ATOM     83  C   UNL A   1      44.459  34.855  27.879  1.00  0.00     0.173 A 
ATOM     84  F   UNL A   1      45.897  33.422  30.898  1.00  0.00    -0.203 F 
ATOM     85  C   UNL A   1      46.029  35.611  30.040  1.00  0.00     0.198 A 
ATOM     86  C   UNL A   1      44.934  36.161  27.975  1.00  0.00     0.198 A 
ATOM     87  F   UNL A   1      43.700  34.520  26.824  1.00  0.00    -0.203 F 
ATOM     88  F   UNL A   1      46.759  35.982  31.101  1.00  0.00    -0.200 F 
ATOM     89  C   UNL A   1      45.711  36.539  29.058  1.00  0.00     0.200 A 
ATOM     90  F   UNL A   1      44.637  37.052  27.020  1.00  0.00    -0.200 F 
ATOM     91  F   UNL A   1      46.152  37.800  29.161  1.00  0.00    -0.200 F 
ENDBRANCH  58  81
ENDBRANCH  32  33
ENDBRANCH  25  27
ENDBRANCH  24  25
ENDBRANCH  23  24
ENDBRANCH  22  23
ENDBRANCH   1  22
TORSDOF 16
ENDMDL
MODEL 2
REMARK VINA RESULT:     -11.4      2.033      3.317
REMARK SMILES C[C@@H](c1ccc(Cl)cc1)N1C[C@H](C(=O)OCCOCCOC(=O)c2ccc(-c3c4nc(c(-c5c(F)c(F)c(F)c(F)c5F)c5ccc([nH]5)c(-c5c(F)c(F)c(F)c(F)c5F)c5nc(c(-c6c(F)c(F)c(F)c(F)c6F)c6ccc3[nH]6)C=C5)C=C4)cc2)CC1=O
REMARK SMILES IDX 18 1 17 2 16 3 15 4 13 5 14 6 12 7 10 8 11 9 88 10 87 11
REMARK SMILES IDX 89 12 2 13 1 14 3 15 4 16 9 17 5 18 8 19 6 20 7 21 19 22
REMARK SMILES IDX 20 23 21 24 22 25 23 26 24 27 25 28 86 29 26 30 85 31 27 32
REMARK SMILES IDX 28 33 29 34 79 35 30 36 84 37 78 38 80 39 31 40 83 41 77 42
REMARK SMILES IDX 76 43 32 45 64 46 44 47 63 48 45 49 48 50 62 51 81 52 46 53
REMARK SMILES IDX 47 54 61 56 82 57 49 58 33 59 34 60 42 61 35 62 36 63 40 64
REMARK SMILES IDX 43 65 37 66 38 67 41 68 39 69 65 70 66 71 74 72 67 73 68 74
REMARK SMILES IDX 72 75 75 76 69 77 70 78 73 79 71 80 50 81 51 82 59 83 52 84
REMARK SMILES IDX 53 85 57 86 60 87 54 88 55 89 58 90 56 91
REMARK H PARENT 80 44 48 55
REMARK Flexibility Score: inf
ROOT
ATOM      1  O   UNL A   1      35.794  21.845  26.469  1.00  0.00    -0.374 OA
ENDROOT
BRANCH   1   2
ATOM      2  C   UNL A   1      34.818  22.883  26.398  1.00  0.00     0.202 C 
BRANCH   2   3
ATOM      3  C   UNL A   1      33.437  22.580  26.989  1.00  0.00     0.261 C 
BRANCH   3   4
ATOM      4  O   UNL A   1      32.578  21.901  26.053  1.00  0.00    -0.463 OA
BRANCH   4   5
ATOM      5  C   UNL A   1      31.701  22.700  25.390  1.00  0.00     0.311 C 
ATOM      6  O   UNL A   1      30.924  23.470  25.944  1.00  0.00    -0.252 OA
BRANCH   5   7
ATOM      7  C   UNL A   1      31.715  22.499  23.882  1.00  0.00     0.128 C 
ATOM      8  N   UNL A   1      32.986  24.247  22.983  1.00  0.00    -0.335 N 
ATOM      9  C   UNL A   1      31.610  23.857  23.202  1.00  0.00     0.136 C 
ATOM     10  C   UNL A   1      33.810  23.135  22.927  1.00  0.00     0.224 C 
ATOM     11  C   UNL A   1      32.986  21.914  23.271  1.00  0.00     0.117 C 
ATOM     12  O   UNL A   1      34.995  23.116  22.636  1.00  0.00    -0.275 OA
BRANCH   8  13
ATOM     13  C   UNL A   1      33.438  25.595  22.608  1.00  0.00     0.112 C 
ATOM     14  C   UNL A   1      32.603  26.170  21.460  1.00  0.00     0.036 C 
BRANCH  13  15
ATOM     15  C   UNL A   1      33.544  26.551  23.790  1.00  0.00    -0.026 A 
ATOM     16  C   UNL A   1      33.468  26.104  25.121  1.00  0.00     0.007 A 
ATOM     17  C   UNL A   1      33.748  27.923  23.561  1.00  0.00     0.007 A 
ATOM     18  C   UNL A   1      33.661  26.986  26.188  1.00  0.00     0.021 A 
ATOM     19  C   UNL A   1      33.908  28.812  24.629  1.00  0.00     0.021 A 
ATOM     20  C   UNL A   1      33.882  28.336  25.936  1.00  0.00     0.041 A 
ATOM     21  Cl  UNL A   1      34.132  29.420  27.250  1.00  0.00    -0.084 Cl
ENDBRANCH  13  15
ENDBRANCH   8  13
ENDBRANCH   5   7
ENDBRANCH   4   5
ENDBRANCH   3   4
ENDBRANCH   2   3
ENDBRANCH   1   2
BRANCH   1  22
ATOM     22  C   UNL A   1      35.911  20.977  25.343  1.00  0.00     0.202 C 
BRANCH  22  23
ATOM     23  C   UNL A   1      37.317  20.468  24.996  1.00  0.00     0.261 C 
BRANCH  23  24
ATOM     24  O   UNL A   1      38.321  21.499  25.096  1.00  0.00    -0.460 OA
BRANCH  24  25
ATOM     25  C   UNL A   1      39.304  21.243  25.992  1.00  0.00     0.338 C 
ATOM     26  O   UNL A   1      39.921  20.198  26.143  1.00  0.00    -0.246 OA
BRANCH  25  27
ATOM     27  C   UNL A   1      39.697  22.479  26.693  1.00  0.00     0.060 A 
ATOM     28  C   UNL A   1      39.049  23.664  26.318  1.00  0.00     0.016 A 
ATOM     29  C   UNL A   1      40.741  22.505  27.618  1.00  0.00     0.016 A 
ATOM     30  C   UNL A   1      39.480  24.888  26.824  1.00  0.00     0.010 A 
ATOM     31  C   UNL A   1      41.180  23.738  28.119  1.00  0.00     0.010 A 
ATOM     32  C   UNL A   1      40.577  24.936  27.694  1.00  0.00    -0.014 A 
BRANCH  32  33
ATOM     33  C   UNL A   1      41.185  26.250  28.017  1.00  0.00     0.031 A 
ATOM     34  C   UNL A   1      42.598  26.525  27.583  1.00  0.00     0.074 A 
ATOM     35  C   UNL A   1      40.473  27.206  28.639  1.00  0.00     0.049 A 
ATOM     36  N   UNL A   1      43.328  27.598  27.753  1.00  0.00    -0.248 NA
ATOM     37  C   UNL A   1      43.282  25.442  26.858  1.00  0.00     0.031 C 
ATOM     38  C   UNL A   1      39.083  27.077  29.070  1.00  0.00     0.029 A 
ATOM     39  N   UNL A   1      40.827  28.477  29.016  1.00  0.00    -0.354 N 
ATOM     40  C   UNL A   1      44.552  27.321  27.158  1.00  0.00     0.074 A 
ATOM     41  C   UNL A   1      44.481  25.969  26.649  1.00  0.00     0.031 C 
ATOM     42  C   UNL A   1      38.703  28.223  29.661  1.00  0.00     0.029 A 
ATOM     43  C   UNL A   1      39.830  29.154  29.672  1.00  0.00     0.049 A 
ATOM     44  H   UNL A   1      41.714  28.867  28.834  1.00  0.00     0.167 HD
ATOM     45  C   UNL A   1      45.635  28.126  27.038  1.00  0.00     0.037 A 
ATOM     46  C   UNL A   1      39.835  30.380  30.232  1.00  0.00     0.037 A 
ATOM     47  C   UNL A   1      45.706  29.472  27.540  1.00  0.00     0.049 A 
ATOM     48  C   UNL A   1      41.075  31.231  30.143  1.00  0.00     0.074 A 
ATOM     49  C   UNL A   1      46.754  30.373  27.453  1.00  0.00     0.029 A 
ATOM     50  N   UNL A   1      44.688  30.110  28.233  1.00  0.00    -0.354 N 
ATOM     51  N   UNL A   1      42.219  30.970  29.558  1.00  0.00    -0.248 NA
ATOM     52  C   UNL A   1      41.022  32.550  30.791  1.00  0.00     0.031 C 
ATOM     53  C   UNL A   1      46.386  31.540  28.131  1.00  0.00     0.029 A 
ATOM     54  C   UNL A   1      45.091  31.383  28.601  1.00  0.00     0.049 A 
ATOM     55  H   UNL A   1      43.808  29.716  28.434  1.00  0.00     0.167 HD
ATOM     56  C   UNL A   1      43.010  32.097  29.743  1.00  0.00     0.074 A 
ATOM     57  C   UNL A   1      42.211  33.050  30.485  1.00  0.00     0.031 C 
ATOM     58  C   UNL A   1      44.282  32.322  29.333  1.00  0.00     0.037 A 
BRANCH  45  59
ATOM     59  C   UNL A   1      46.843  27.560  26.353  1.00  0.00     0.064 A 
ATOM     60  C   UNL A   1      47.855  26.901  27.067  1.00  0.00     0.173 A 
ATOM     61  C   UNL A   1      46.972  27.647  24.958  1.00  0.00     0.173 A 
ATOM     62  F   UNL A   1      47.783  26.804  28.403  1.00  0.00    -0.203 F 
ATOM     63  C   UNL A   1      48.964  26.372  26.412  1.00  0.00     0.198 A 
ATOM     64  C   UNL A   1      48.070  27.094  24.305  1.00  0.00     0.198 A 
ATOM     65  F   UNL A   1      46.031  28.264  24.229  1.00  0.00    -0.203 F 
ATOM     66  F   UNL A   1      49.939  25.784  27.118  1.00  0.00    -0.200 F 
ATOM     67  C   UNL A   1      49.067  26.462  25.032  1.00  0.00     0.200 A 
ATOM     68  F   UNL A   1      48.164  27.173  22.970  1.00  0.00    -0.200 F 
ATOM     69  F   UNL A   1      50.133  25.946  24.404  1.00  0.00    -0.200 F 
ENDBRANCH  45  59
BRANCH  46  70
ATOM     70  C   UNL A   1      38.624  30.877  30.937  1.00  0.00     0.064 A 
ATOM     71  C   UNL A   1      37.571  31.479  30.236  1.00  0.00     0.173 A 
ATOM     72  C   UNL A   1      38.507  30.774  32.331  1.00  0.00     0.173 A 
ATOM     73  F   UNL A   1      37.651  31.624  28.904  1.00  0.00    -0.203 F 
ATOM     74  C   UNL A   1      36.452  31.973  30.903  1.00  0.00     0.198 A 
ATOM     75  C   UNL A   1      37.376  31.244  32.995  1.00  0.00     0.198 A 
ATOM     76  F   UNL A   1      39.488  30.210  33.049  1.00  0.00    -0.203 F 
ATOM     77  F   UNL A   1      35.479  32.583  30.213  1.00  0.00    -0.200 F 
ATOM     78  C   UNL A   1      36.353  31.851  32.281  1.00  0.00     0.200 A 
ATOM     79  F   UNL A   1      37.279  31.116  34.324  1.00  0.00    -0.200 F 
ATOM     80  F   UNL A   1      35.275  32.323  32.922  1.00  0.00    -0.200 F 
ENDBRANCH  46  70
BRANCH  58  81
ATOM     81  C   UNL A   1      44.882  33.661  29.651  1.00  0.00     0.064 A 
ATOM     82  C   UNL A   1      45.629  33.875  30.818  1.00  0.00     0.173 A 
ATOM     83  C   UNL A   1      44.744  34.731  28.754  1.00  0.00     0.173 A 
ATOM     84  F   UNL A   1      45.777  32.887  31.714  1.00  0.00    -0.203 F 
ATOM     85  C   UNL A   1      46.197  35.117  31.086  1.00  0.00     0.198 A 
ATOM     86  C   UNL A   1      45.337  35.965  29.011  1.00  0.00     0.198 A 
ATOM     87  F   UNL A   1      44.045  34.576  27.618  1.00  0.00    -0.203 F 
ATOM     88  F   UNL A   1      46.871  35.311  32.229  1.00  0.00    -0.200 F 
ATOM     89  C   UNL A   1      46.056  36.158  30.180  1.00  0.00     0.200 A 
ATOM     90  F   UNL A   1      45.210  36.965  28.129  1.00  0.00    -0.200 F 
ATOM     91  F   UNL A   1      46.610  37.351  30.437  1.00  0.00    -0.200 F 
ENDBRANCH  58  81
ENDBRANCH  32  33
ENDBRANCH  25  27
ENDBRANCH  24  25
ENDBRANCH  23  24
ENDBRANCH  22  23
ENDBRANCH   1  22
TORSDOF 16
ENDMDL
MODEL 3
REMARK VINA RESULT:     -11.3      4.672     10.152
REMARK SMILES C[C@@H](c1ccc(Cl)cc1)N1C[C@H](C(=O)OCCOCCOC(=O)c2ccc(-c3c4nc(c(-c5c(F)c(F)c(F)c(F)c5F)c5ccc([nH]5)c(-c5c(F)c(F)c(F)c(F)c5F)c5nc(c(-c6c(F)c(F)c(F)c(F)c6F)c6ccc3[nH]6)C=C5)C=C4)cc2)CC1=O
REMARK SMILES IDX 18 1 17 2 16 3 15 4 13 5 14 6 12 7 10 8 11 9 88 10 87 11
REMARK SMILES IDX 89 12 2 13 1 14 3 15 4 16 9 17 5 18 8 19 6 20 7 21 19 22
REMARK SMILES IDX 20 23 21 24 22 25 23 26 24 27 25 28 86 29 26 30 85 31 27 32
REMARK SMILES IDX 28 33 29 34 79 35 30 36 84 37 78 38 80 39 31 40 83 41 77 42
REMARK SMILES IDX 76 43 32 45 64 46 44 47 63 48 45 49 48 50 62 51 81 52 46 53
REMARK SMILES IDX 47 54 61 56 82 57 49 58 33 59 34 60 42 61 35 62 36 63 40 64
REMARK SMILES IDX 43 65 37 66 38 67 41 68 39 69 65 70 66 71 74 72 67 73 68 74
REMARK SMILES IDX 72 75 75 76 69 77 70 78 73 79 71 80 50 81 51 82 59 83 52 84
REMARK SMILES IDX 53 85 57 86 60 87 54 88 55 89 58 90 56 91
REMARK H PARENT 80 44 48 55
REMARK Flexibility Score: inf
ROOT
ATOM      1  O   UNL A   1      31.932  30.138  27.085  1.00  0.00    -0.374 OA
ENDROOT
BRANCH   1   2
ATOM      2  C   UNL A   1      32.425  28.990  26.396  1.00  0.00     0.202 C 
BRANCH   2   3
ATOM      3  C   UNL A   1      32.151  28.912  24.891  1.00  0.00     0.261 C 
BRANCH   3   4
ATOM      4  O   UNL A   1      30.990  28.115  24.587  1.00  0.00    -0.463 OA
BRANCH   4   5
ATOM      5  C   UNL A   1      31.250  26.916  24.001  1.00  0.00     0.311 C 
ATOM      6  O   UNL A   1      32.200  26.711  23.254  1.00  0.00    -0.252 OA
BRANCH   5   7
ATOM      7  C   UNL A   1      30.202  25.853  24.299  1.00  0.00     0.128 C 
ATOM      8  N   UNL A   1      31.364  23.924  24.935  1.00  0.00    -0.335 N 
ATOM      9  C   UNL A   1      30.703  24.509  23.789  1.00  0.00     0.136 C 
ATOM     10  C   UNL A   1      30.862  24.449  26.115  1.00  0.00     0.224 C 
ATOM     11  C   UNL A   1      29.903  25.566  25.768  1.00  0.00     0.117 C 
ATOM     12  O   UNL A   1      31.121  24.080  27.249  1.00  0.00    -0.275 OA
BRANCH   8  13
ATOM     13  C   UNL A   1      32.252  22.752  24.897  1.00  0.00     0.112 C 
ATOM     14  C   UNL A   1      32.126  21.993  23.573  1.00  0.00     0.036 C 
BRANCH  13  15
ATOM     15  C   UNL A   1      33.698  23.076  25.251  1.00  0.00    -0.026 A 
ATOM     16  C   UNL A   1      34.271  22.695  26.477  1.00  0.00     0.007 A 
ATOM     17  C   UNL A   1      34.508  23.754  24.323  1.00  0.00     0.007 A 
ATOM     18  C   UNL A   1      35.624  22.921  26.741  1.00  0.00     0.021 A 
ATOM     19  C   UNL A   1      35.855  24.010  24.599  1.00  0.00     0.021 A 
ATOM     20  C   UNL A   1      36.411  23.575  25.799  1.00  0.00     0.041 A 
ATOM     21  Cl  UNL A   1      38.082  23.842  26.118  1.00  0.00    -0.084 Cl
ENDBRANCH  13  15
ENDBRANCH   8  13
ENDBRANCH   5   7
ENDBRANCH   4   5
ENDBRANCH   3   4
ENDBRANCH   2   3
ENDBRANCH   1   2
BRANCH   1  22
ATOM     22  C   UNL A   1      31.509  31.247  26.291  1.00  0.00     0.202 C 
BRANCH  22  23
ATOM     23  C   UNL A   1      31.774  32.650  26.855  1.00  0.00     0.261 C 
BRANCH  23  24
ATOM     24  O   UNL A   1      32.657  32.633  27.995  1.00  0.00    -0.460 OA
BRANCH  24  25
ATOM     25  C   UNL A   1      33.713  33.476  27.903  1.00  0.00     0.338 C 
ATOM     26  O   UNL A   1      33.686  34.687  27.731  1.00  0.00    -0.246 OA
BRANCH  25  27
ATOM     27  C   UNL A   1      34.967  32.770  28.222  1.00  0.00     0.060 A 
ATOM     28  C   UNL A   1      34.874  31.409  28.546  1.00  0.00     0.016 A 
ATOM     29  C   UNL A   1      36.190  33.436  28.307  1.00  0.00     0.016 A 
ATOM     30  C   UNL A   1      35.992  30.722  29.009  1.00  0.00     0.010 A 
ATOM     31  C   UNL A   1      37.313  32.746  28.784  1.00  0.00     0.010 A 
ATOM     32  C   UNL A   1      37.209  31.398  29.173  1.00  0.00    -0.014 A 
BRANCH  32  33
ATOM     33  C   UNL A   1      38.312  30.729  29.906  1.00  0.00     0.031 A 
ATOM     34  C   UNL A   1      38.535  31.070  31.353  1.00  0.00     0.074 A 
ATOM     35  C   UNL A   1      39.071  29.793  29.309  1.00  0.00     0.049 A 
ATOM     36  N   UNL A   1      39.433  30.610  32.188  1.00  0.00    -0.248 NA
ATOM     37  C   UNL A   1      37.621  32.063  31.940  1.00  0.00     0.031 C 
ATOM     38  C   UNL A   1      38.925  29.345  27.926  1.00  0.00     0.029 A 
ATOM     39  N   UNL A   1      40.118  29.052  29.796  1.00  0.00    -0.354 N 
ATOM     40  C   UNL A   1      39.193  31.256  33.394  1.00  0.00     0.074 A 
ATOM     41  C   UNL A   1      38.086  32.162  33.178  1.00  0.00     0.031 C 
ATOM     42  C   UNL A   1      39.855  28.409  27.672  1.00  0.00     0.029 A 
ATOM     43  C   UNL A   1      40.677  28.213  28.865  1.00  0.00     0.049 A 
ATOM     44  H   UNL A   1      40.438  29.117  30.725  1.00  0.00     0.167 HD
ATOM     45  C   UNL A   1      39.831  31.099  34.579  1.00  0.00     0.037 A 
ATOM     46  C   UNL A   1      41.741  27.392  28.964  1.00  0.00     0.037 A 
ATOM     47  C   UNL A   1      40.929  30.196  34.796  1.00  0.00     0.049 A 
ATOM     48  C   UNL A   1      42.476  27.285  30.274  1.00  0.00     0.074 A 
ATOM     49  C   UNL A   1      41.630  29.954  35.965  1.00  0.00     0.029 A 
ATOM     50  N   UNL A   1      41.491  29.389  33.819  1.00  0.00    -0.354 N 
ATOM     51  N   UNL A   1      42.227  27.881  31.415  1.00  0.00    -0.248 NA
ATOM     52  C   UNL A   1      43.641  26.388  30.310  1.00  0.00     0.031 C 
ATOM     53  C   UNL A   1      42.646  29.034  35.684  1.00  0.00     0.029 A 
ATOM     54  C   UNL A   1      42.547  28.667  34.350  1.00  0.00     0.049 A 
ATOM     55  H   UNL A   1      41.186  29.337  32.884  1.00  0.00     0.167 HD
ATOM     56  C   UNL A   1      43.183  27.413  32.309  1.00  0.00     0.074 A 
ATOM     57  C   UNL A   1      44.009  26.474  31.580  1.00  0.00     0.031 C 
ATOM     58  C   UNL A   1      43.357  27.732  33.615  1.00  0.00     0.037 A 
BRANCH  45  59
ATOM     59  C   UNL A   1      39.368  31.944  35.729  1.00  0.00     0.064 A 
ATOM     60  C   UNL A   1      38.394  31.492  36.630  1.00  0.00     0.173 A 
ATOM     61  C   UNL A   1      39.934  33.209  35.951  1.00  0.00     0.173 A 
ATOM     62  F   UNL A   1      37.814  30.295  36.453  1.00  0.00    -0.203 F 
ATOM     63  C   UNL A   1      37.985  32.285  37.699  1.00  0.00     0.198 A 
ATOM     64  C   UNL A   1      39.540  33.988  37.035  1.00  0.00     0.198 A 
ATOM     65  F   UNL A   1      40.872  33.686  35.120  1.00  0.00    -0.203 F 
ATOM     66  F   UNL A   1      37.022  31.851  38.524  1.00  0.00    -0.200 F 
ATOM     67  C   UNL A   1      38.563  33.529  37.905  1.00  0.00     0.200 A 
ATOM     68  F   UNL A   1      40.107  35.186  37.239  1.00  0.00    -0.200 F 
ATOM     69  F   UNL A   1      38.172  34.288  38.937  1.00  0.00    -0.200 F 
ENDBRANCH  45  59
BRANCH  46  70
ATOM     70  C   UNL A   1      42.184  26.608  27.781  1.00  0.00     0.064 A 
ATOM     71  C   UNL A   1      41.631  25.354  27.491  1.00  0.00     0.173 A 
ATOM     72  C   UNL A   1      43.185  27.094  26.926  1.00  0.00     0.173 A 
ATOM     73  F   UNL A   1      40.690  24.836  28.296  1.00  0.00    -0.203 F 
ATOM     74  C   UNL A   1      42.071  24.608  26.400  1.00  0.00     0.198 A 
ATOM     75  C   UNL A   1      43.606  26.359  25.820  1.00  0.00     0.198 A 
ATOM     76  F   UNL A   1      43.749  28.287  27.161  1.00  0.00    -0.203 F 
ATOM     77  F   UNL A   1      41.556  23.393  26.171  1.00  0.00    -0.200 F 
ATOM     78  C   UNL A   1      43.054  25.113  25.563  1.00  0.00     0.200 A 
ATOM     79  F   UNL A   1      44.548  26.854  25.007  1.00  0.00    -0.200 F 
ATOM     80  F   UNL A   1      43.475  24.396  24.511  1.00  0.00    -0.200 F 
ENDBRANCH  46  70
BRANCH  58  81
ATOM     81  C   UNL A   1      44.466  27.038  34.351  1.00  0.00     0.064 A 
ATOM     82  C   UNL A   1      45.754  27.586  34.428  1.00  0.00     0.173 A 
ATOM     83  C   UNL A   1      44.223  25.832  35.027  1.00  0.00     0.173 A 
ATOM     84  F   UNL A   1      46.040  28.729  33.787  1.00  0.00    -0.203 F 
ATOM     85  C   UNL A   1      46.765  26.940  35.134  1.00  0.00     0.198 A 
ATOM     86  C   UNL A   1      45.229  25.203  35.755  1.00  0.00     0.198 A 
ATOM     87  F   UNL A   1      43.005  25.270  34.991  1.00  0.00    -0.203 F 
ATOM     88  F   UNL A   1      48.001  27.460  35.157  1.00  0.00    -0.200 F 
ATOM     89  C   UNL A   1      46.500  25.753  35.802  1.00  0.00     0.200 A 
ATOM     90  F   UNL A   1      44.968  24.064  36.410  1.00  0.00    -0.200 F 
ATOM     91  F   UNL A   1      47.473  25.137  36.487  1.00  0.00    -0.200 F 
ENDBRANCH  58  81
ENDBRANCH  32  33
ENDBRANCH  25  27
ENDBRANCH  24  25
ENDBRANCH  23  24
ENDBRANCH  22  23
ENDBRANCH   1  22
TORSDOF 16
ENDMDL
