MODEL 1
REMARK VINA RESULT:     -10.9      0.000      0.000
REMARK SMILES C[C@@H](C(=O)OCCOCCOC(=O)c1ccc(-c2c3nc(c(-c4c(F)c(F)c(F)c(F)c4F)c4ccc([nH]4)c(-c4c(F)c(F)c(F)c(F)c4F)c4nc(c(-c5c(F)c(F)c(F)c(F)c5F)c5ccc2[nH]5)C=C4)C=C3)cc1)[C@H](C)[S@@](=O)c1ccc(F)c(F)c1
REMARK SMILES IDX 7 1 6 2 5 3 3 4 4 5 2 6 1 7 77 8 78 9 79 10 80 11 81 12
REMARK SMILES IDX 82 13 88 14 83 15 86 16 84 17 87 18 85 19 8 20 9 21 10 22
REMARK SMILES IDX 11 23 12 24 13 25 14 26 15 27 76 28 16 29 75 30 17 31 18 32
REMARK SMILES IDX 19 33 69 34 20 35 74 36 68 37 70 38 21 39 73 40 67 41 66 42
REMARK SMILES IDX 22 44 54 45 34 46 53 47 35 48 38 49 52 50 71 51 36 52 37 53
REMARK SMILES IDX 51 55 72 56 39 57 23 58 24 59 32 60 25 61 26 62 30 63 33 64
REMARK SMILES IDX 27 65 28 66 31 67 29 68 55 69 56 70 64 71 57 72 58 73 62 74
REMARK SMILES IDX 65 75 59 76 60 77 63 78 61 79 40 80 41 81 49 82 42 83 43 84
REMARK SMILES IDX 47 85 50 86 44 87 45 88 48 89 46 90
REMARK H PARENT 70 43 38 54
REMARK Flexibility Score: inf
ROOT
ATOM      1  C   UNL A   1      36.898  22.127  25.518  1.00  0.00     0.202 C 
ENDROOT
BRANCH   1   2
ATOM      2  C   UNL A   1      36.870  23.611  25.143  1.00  0.00     0.261 C 
BRANCH   2   3
ATOM      3  O   UNL A   1      35.509  24.000  24.885  1.00  0.00    -0.463 OA
BRANCH   3   4
ATOM      4  C   UNL A   1      34.869  23.354  23.882  1.00  0.00     0.309 C 
ATOM      5  O   UNL A   1      35.262  23.324  22.721  1.00  0.00    -0.252 OA
BRANCH   4   6
ATOM      6  C   UNL A   1      33.606  22.619  24.356  1.00  0.00     0.112 C 
ATOM      7  C   UNL A   1      32.532  22.538  23.260  1.00  0.00     0.021 C 
BRANCH   6   8
ATOM      8  C   UNL A   1      33.216  23.255  25.720  1.00  0.00     0.095 C 
ATOM      9  C   UNL A   1      33.253  22.243  26.873  1.00  0.00     0.023 C 
BRANCH   8  10
ATOM     10  S   UNL A   1      31.752  24.309  25.871  1.00  0.00     0.057 S 
ATOM     11  O   UNL A   1      31.200  24.188  27.259  1.00  0.00    -0.254 OA
BRANCH  10  12
ATOM     12  C   UNL A   1      32.231  26.029  25.678  1.00  0.00     0.042 A 
ATOM     13  C   UNL A   1      33.468  26.574  26.036  1.00  0.00     0.021 A 
ATOM     14  C   UNL A   1      31.260  26.880  25.121  1.00  0.00     0.060 A 
ATOM     15  C   UNL A   1      33.701  27.951  25.921  1.00  0.00     0.043 A 
ATOM     16  C   UNL A   1      31.508  28.241  24.979  1.00  0.00     0.160 A 
ATOM     17  C   UNL A   1      32.716  28.777  25.396  1.00  0.00     0.158 A 
ATOM     18  F   UNL A   1      30.565  29.030  24.445  1.00  0.00    -0.204 F 
ATOM     19  F   UNL A   1      32.944  30.094  25.298  1.00  0.00    -0.204 F 
ENDBRANCH  10  12
ENDBRANCH   8  10
ENDBRANCH   6   8
ENDBRANCH   4   6
ENDBRANCH   3   4
ENDBRANCH   2   3
ENDBRANCH   1   2
BRANCH   1  20
ATOM     20  O   UNL A   1      37.702  21.297  24.676  1.00  0.00    -0.374 OA
BRANCH  20  21
ATOM     21  C   UNL A   1      37.778  19.907  24.997  1.00  0.00     0.202 C 
BRANCH  21  22
ATOM     22  C   UNL A   1      39.091  19.434  25.636  1.00  0.00     0.261 C 
BRANCH  22  23
ATOM     23  O   UNL A   1      40.066  20.491  25.747  1.00  0.00    -0.460 OA
BRANCH  23  24
ATOM     24  C   UNL A   1      40.772  20.492  26.899  1.00  0.00     0.338 C 
ATOM     25  O   UNL A   1      41.309  19.535  27.446  1.00  0.00    -0.246 OA
BRANCH  24  26
ATOM     26  C   UNL A   1      40.980  21.870  27.379  1.00  0.00     0.060 A 
ATOM     27  C   UNL A   1      40.357  22.900  26.660  1.00  0.00     0.016 A 
ATOM     28  C   UNL A   1      41.836  22.167  28.440  1.00  0.00     0.016 A 
ATOM     29  C   UNL A   1      40.628  24.231  26.970  1.00  0.00     0.010 A 
ATOM     30  C   UNL A   1      42.114  23.506  28.745  1.00  0.00     0.010 A 
ATOM     31  C   UNL A   1      41.539  24.544  27.987  1.00  0.00    -0.014 A 
BRANCH  31  32
ATOM     32  C   UNL A   1      41.992  25.948  28.148  1.00  0.00     0.031 A 
ATOM     33  C   UNL A   1      43.326  26.357  27.584  1.00  0.00     0.074 A 
ATOM     34  C   UNL A   1      41.204  26.864  28.738  1.00  0.00     0.049 A 
ATOM     35  N   UNL A   1      43.916  27.526  27.609  1.00  0.00    -0.248 NA
ATOM     36  C   UNL A   1      44.095  25.307  26.899  1.00  0.00     0.031 C 
ATOM     37  C   UNL A   1      39.875  26.605  29.286  1.00  0.00     0.029 A 
ATOM     38  N   UNL A   1      41.413  28.201  28.974  1.00  0.00    -0.354 N 
ATOM     39  C   UNL A   1      45.124  27.351  26.944  1.00  0.00     0.074 A 
ATOM     40  C   UNL A   1      45.198  25.960  26.557  1.00  0.00     0.031 C 
ATOM     41  C   UNL A   1      39.388  27.745  29.805  1.00  0.00     0.029 A 
ATOM     42  C   UNL A   1      40.382  28.807  29.649  1.00  0.00     0.049 A 
ATOM     43  H   UNL A   1      42.224  28.679  28.687  1.00  0.00     0.167 HD
ATOM     44  C   UNL A   1      46.079  28.272  26.669  1.00  0.00     0.037 A 
ATOM     45  C   UNL A   1      40.265  30.070  30.105  1.00  0.00     0.037 A 
ATOM     46  C   UNL A   1      46.008  29.658  27.052  1.00  0.00     0.049 A 
ATOM     47  C   UNL A   1      41.372  31.059  29.848  1.00  0.00     0.074 A 
ATOM     48  C   UNL A   1      46.921  30.669  26.809  1.00  0.00     0.029 A 
ATOM     49  N   UNL A   1      44.963  30.227  27.766  1.00  0.00    -0.354 N 
ATOM     50  N   UNL A   1      42.498  30.891  29.200  1.00  0.00    -0.248 NA
ATOM     51  C   UNL A   1      41.187  32.416  30.383  1.00  0.00     0.031 C 
ATOM     52  C   UNL A   1      46.451  31.839  27.416  1.00  0.00     0.029 A 
ATOM     53  C   UNL A   1      45.221  31.568  27.993  1.00  0.00     0.049 A 
ATOM     54  H   UNL A   1      44.157  29.747  28.066  1.00  0.00     0.167 HD
ATOM     55  C   UNL A   1      43.144  32.121  29.226  1.00  0.00     0.074 A 
ATOM     56  C   UNL A   1      42.275  33.032  29.943  1.00  0.00     0.031 C 
ATOM     57  C   UNL A   1      44.346  32.465  28.703  1.00  0.00     0.037 A 
BRANCH  44  58
ATOM     58  C   UNL A   1      47.298  27.803  25.932  1.00  0.00     0.064 A 
ATOM     59  C   UNL A   1      48.456  27.395  26.610  1.00  0.00     0.173 A 
ATOM     60  C   UNL A   1      47.295  27.727  24.531  1.00  0.00     0.173 A 
ATOM     61  F   UNL A   1      48.513  27.462  27.949  1.00  0.00    -0.203 F 
ATOM     62  C   UNL A   1      49.575  26.950  25.911  1.00  0.00     0.198 A 
ATOM     63  C   UNL A   1      48.406  27.254  23.836  1.00  0.00     0.198 A 
ATOM     64  F   UNL A   1      46.211  28.099  23.836  1.00  0.00    -0.203 F 
ATOM     65  F   UNL A   1      50.687  26.605  26.577  1.00  0.00    -0.200 F 
ATOM     66  C   UNL A   1      49.548  26.874  24.526  1.00  0.00     0.200 A 
ATOM     67  F   UNL A   1      48.373  27.170  22.500  1.00  0.00    -0.200 F 
ATOM     68  F   UNL A   1      50.623  26.438  23.856  1.00  0.00    -0.200 F 
ENDBRANCH  44  58
BRANCH  45  69
ATOM     69  C   UNL A   1      39.054  30.471  30.868  1.00  0.00     0.064 A 
ATOM     70  C   UNL A   1      37.922  30.980  30.220  1.00  0.00     0.173 A 
ATOM     71  C   UNL A   1      39.015  30.368  32.267  1.00  0.00     0.173 A 
ATOM     72  F   UNL A   1      37.922  31.122  28.887  1.00  0.00    -0.203 F 
ATOM     73  C   UNL A   1      36.802  31.389  30.942  1.00  0.00     0.198 A 
ATOM     74  C   UNL A   1      37.885  30.750  32.986  1.00  0.00     0.198 A 
ATOM     75  F   UNL A   1      40.075  29.889  32.936  1.00  0.00    -0.203 F 
ATOM     76  F   UNL A   1      35.749  31.916  30.302  1.00  0.00    -0.200 F 
ATOM     77  C   UNL A   1      36.782  31.268  32.323  1.00  0.00     0.200 A 
ATOM     78  F   UNL A   1      37.866  30.622  34.319  1.00  0.00    -0.200 F 
ATOM     79  F   UNL A   1      35.704  31.658  33.017  1.00  0.00    -0.200 F 
ENDBRANCH  45  69
BRANCH  57  80
ATOM     80  C   UNL A   1      44.783  33.894  28.856  1.00  0.00     0.064 A 
ATOM     81  C   UNL A   1      45.581  34.308  29.933  1.00  0.00     0.173 A 
ATOM     82  C   UNL A   1      44.435  34.850  27.889  1.00  0.00     0.173 A 
ATOM     83  F   UNL A   1      45.928  33.436  30.890  1.00  0.00    -0.203 F 
ATOM     84  C   UNL A   1      45.995  35.633  30.048  1.00  0.00     0.198 A 
ATOM     85  C   UNL A   1      44.875  36.167  27.993  1.00  0.00     0.198 A 
ATOM     86  F   UNL A   1      43.680  34.504  26.836  1.00  0.00    -0.203 F 
ATOM     87  F   UNL A   1      46.720  36.016  31.108  1.00  0.00    -0.200 F 
ATOM     88  C   UNL A   1      45.649  36.559  29.075  1.00  0.00     0.200 A 
ATOM     89  F   UNL A   1      44.550  37.058  27.046  1.00  0.00    -0.200 F 
ATOM     90  F   UNL A   1      46.054  37.832  29.185  1.00  0.00    -0.200 F 
ENDBRANCH  57  80
ENDBRANCH  31  32
ENDBRANCH  24  26
ENDBRANCH  23  24
ENDBRANCH  22  23
ENDBRANCH  21  22
ENDBRANCH  20  21
ENDBRANCH   1  20
TORSDOF 17
ENDMDL
MODEL 2
REMARK VINA RESULT:     -10.7      4.690     10.156
REMARK SMILES C[C@@H](C(=O)OCCOCCOC(=O)c1ccc(-c2c3nc(c(-c4c(F)c(F)c(F)c(F)c4F)c4ccc([nH]4)c(-c4c(F)c(F)c(F)c(F)c4F)c4nc(c(-c5c(F)c(F)c(F)c(F)c5F)c5ccc2[nH]5)C=C4)C=C3)cc1)[C@H](C)[S@@](=O)c1ccc(F)c(F)c1
REMARK SMILES IDX 7 1 6 2 5 3 3 4 4 5 2 6 1 7 77 8 78 9 79 10 80 11 81 12
REMARK SMILES IDX 82 13 88 14 83 15 86 16 84 17 87 18 85 19 8 20 9 21 10 22
REMARK SMILES IDX 11 23 12 24 13 25 14 26 15 27 76 28 16 29 75 30 17 31 18 32
REMARK SMILES IDX 19 33 69 34 20 35 74 36 68 37 70 38 21 39 73 40 67 41 66 42
REMARK SMILES IDX 22 44 54 45 34 46 53 47 35 48 38 49 52 50 71 51 36 52 37 53
REMARK SMILES IDX 51 55 72 56 39 57 23 58 24 59 32 60 25 61 26 62 30 63 33 64
REMARK SMILES IDX 27 65 28 66 31 67 29 68 55 69 56 70 64 71 57 72 58 73 62 74
REMARK SMILES IDX 65 75 59 76 60 77 63 78 61 79 40 80 41 81 49 82 42 83 43 84
REMARK SMILES IDX 47 85 50 86 44 87 45 88 48 89 46 90
REMARK H PARENT 70 43 38 54
REMARK Flexibility Score: inf
ROOT
ATOM      1  C   UNL A   1      32.370  28.763  26.939  1.00  0.00     0.202 C 
ENDROOT
BRANCH   1   2
ATOM      2  C   UNL A   1      31.789  27.464  27.503  1.00  0.00     0.261 C 
BRANCH   2   3
ATOM      3  O   UNL A   1      31.356  26.635  26.411  1.00  0.00    -0.463 OA
BRANCH   3   4
ATOM      4  C   UNL A   1      31.777  25.348  26.416  1.00  0.00     0.309 C 
ATOM      5  O   UNL A   1      31.432  24.515  27.245  1.00  0.00    -0.252 OA
BRANCH   4   6
ATOM      6  C   UNL A   1      32.713  25.022  25.242  1.00  0.00     0.112 C 
ATOM      7  C   UNL A   1      34.117  25.617  25.433  1.00  0.00     0.021 C 
BRANCH   6   8
ATOM      8  C   UNL A   1      31.932  25.383  23.946  1.00  0.00     0.095 C 
ATOM      9  C   UNL A   1      31.946  24.246  22.916  1.00  0.00     0.023 C 
BRANCH   8  10
ATOM     10  S   UNL A   1      32.188  26.971  23.118  1.00  0.00     0.057 S 
ATOM     11  O   UNL A   1      32.622  26.724  21.705  1.00  0.00    -0.254 OA
BRANCH  10  12
ATOM     12  C   UNL A   1      30.625  27.848  23.009  1.00  0.00     0.042 A 
ATOM     13  C   UNL A   1      29.394  27.377  23.475  1.00  0.00     0.021 A 
ATOM     14  C   UNL A   1      30.669  29.111  22.392  1.00  0.00     0.060 A 
ATOM     15  C   UNL A   1      28.220  28.110  23.256  1.00  0.00     0.043 A 
ATOM     16  C   UNL A   1      29.505  29.850  22.206  1.00  0.00     0.160 A 
ATOM     17  C   UNL A   1      28.284  29.343  22.619  1.00  0.00     0.158 A 
ATOM     18  F   UNL A   1      29.575  31.051  21.617  1.00  0.00    -0.204 F 
ATOM     19  F   UNL A   1      27.155  30.033  22.406  1.00  0.00    -0.204 F 
ENDBRANCH  10  12
ENDBRANCH   8  10
ENDBRANCH   6   8
ENDBRANCH   4   6
ENDBRANCH   3   4
ENDBRANCH   2   3
ENDBRANCH   1   2
BRANCH   1  20
ATOM     20  O   UNL A   1      31.555  29.925  27.115  1.00  0.00    -0.374 OA
BRANCH  20  21
ATOM     21  C   UNL A   1      31.664  30.963  26.138  1.00  0.00     0.202 C 
BRANCH  21  22
ATOM     22  C   UNL A   1      31.865  32.383  26.685  1.00  0.00     0.261 C 
BRANCH  22  23
ATOM     23  O   UNL A   1      32.699  32.412  27.861  1.00  0.00    -0.460 OA
BRANCH  23  24
ATOM     24  C   UNL A   1      33.725  33.291  27.806  1.00  0.00     0.338 C 
ATOM     25  O   UNL A   1      33.662  34.501  27.626  1.00  0.00    -0.246 OA
BRANCH  24  26
ATOM     26  C   UNL A   1      34.993  32.629  28.167  1.00  0.00     0.060 A 
ATOM     27  C   UNL A   1      34.934  31.270  28.505  1.00  0.00     0.016 A 
ATOM     28  C   UNL A   1      36.194  33.332  28.268  1.00  0.00     0.016 A 
ATOM     29  C   UNL A   1      36.066  30.622  28.994  1.00  0.00     0.010 A 
ATOM     30  C   UNL A   1      37.330  32.680  28.768  1.00  0.00     0.010 A 
ATOM     31  C   UNL A   1      37.261  31.332  29.167  1.00  0.00    -0.014 A 
BRANCH  31  32
ATOM     32  C   UNL A   1      38.383  30.695  29.902  1.00  0.00     0.031 A 
ATOM     33  C   UNL A   1      38.607  31.048  31.348  1.00  0.00     0.074 A 
ATOM     34  C   UNL A   1      39.159  29.771  29.309  1.00  0.00     0.049 A 
ATOM     35  N   UNL A   1      39.521  30.614  32.178  1.00  0.00    -0.248 NA
ATOM     36  C   UNL A   1      37.671  32.021  31.935  1.00  0.00     0.031 C 
ATOM     37  C   UNL A   1      39.019  29.311  27.930  1.00  0.00     0.029 A 
ATOM     38  N   UNL A   1      40.224  29.055  29.799  1.00  0.00    -0.354 N 
ATOM     39  C   UNL A   1      39.271  31.258  33.384  1.00  0.00     0.074 A 
ATOM     40  C   UNL A   1      38.142  32.137  33.169  1.00  0.00     0.031 C 
ATOM     41  C   UNL A   1      39.970  28.395  27.678  1.00  0.00     0.029 A 
ATOM     42  C   UNL A   1      40.801  28.224  28.870  1.00  0.00     0.049 A 
ATOM     43  H   UNL A   1      40.544  29.129  30.727  1.00  0.00     0.167 HD
ATOM     44  C   UNL A   1      39.916  31.119  34.567  1.00  0.00     0.037 A 
ATOM     45  C   UNL A   1      41.887  27.433  28.966  1.00  0.00     0.037 A 
ATOM     46  C   UNL A   1      41.039  30.245  34.783  1.00  0.00     0.049 A 
ATOM     47  C   UNL A   1      42.631  27.347  30.274  1.00  0.00     0.074 A 
ATOM     48  C   UNL A   1      41.752  30.028  35.950  1.00  0.00     0.029 A 
ATOM     49  N   UNL A   1      41.616  29.445  33.808  1.00  0.00    -0.354 N 
ATOM     50  N   UNL A   1      42.374  27.942  31.413  1.00  0.00    -0.248 NA
ATOM     51  C   UNL A   1      43.814  26.475  30.308  1.00  0.00     0.031 C 
ATOM     52  C   UNL A   1      42.790  29.133  35.669  1.00  0.00     0.029 A 
ATOM     53  C   UNL A   1      42.692  28.753  34.340  1.00  0.00     0.049 A 
ATOM     54  H   UNL A   1      41.307  29.379  32.876  1.00  0.00     0.167 HD
ATOM     55  C   UNL A   1      43.344  27.500  32.304  1.00  0.00     0.074 A 
ATOM     56  C   UNL A   1      44.187  26.574  31.576  1.00  0.00     0.031 C 
ATOM     57  C   UNL A   1      43.519  27.830  33.607  1.00  0.00     0.037 A 
BRANCH  44  58
ATOM     58  C   UNL A   1      39.433  31.950  35.718  1.00  0.00     0.064 A 
ATOM     59  C   UNL A   1      38.468  31.473  36.617  1.00  0.00     0.173 A 
ATOM     60  C   UNL A   1      39.970  33.225  35.948  1.00  0.00     0.173 A 
ATOM     61  F   UNL A   1      37.914  30.264  36.433  1.00  0.00    -0.203 F 
ATOM     62  C   UNL A   1      38.040  32.252  37.689  1.00  0.00     0.198 A 
ATOM     63  C   UNL A   1      39.560  33.991  37.037  1.00  0.00     0.198 A 
ATOM     64  F   UNL A   1      40.901  33.726  35.121  1.00  0.00    -0.203 F 
ATOM     65  F   UNL A   1      37.085  31.793  38.510  1.00  0.00    -0.200 F 
ATOM     66  C   UNL A   1      38.591  33.506  37.902  1.00  0.00     0.200 A 
ATOM     67  F   UNL A   1      40.103  35.198  37.247  1.00  0.00    -0.200 F 
ATOM     68  F   UNL A   1      38.183  34.252  38.938  1.00  0.00    -0.200 F 
ENDBRANCH  44  58
BRANCH  45  69
ATOM     69  C   UNL A   1      42.349  26.663  27.782  1.00  0.00     0.064 A 
ATOM     70  C   UNL A   1      41.876  25.369  27.526  1.00  0.00     0.173 A 
ATOM     71  C   UNL A   1      43.288  27.203  26.891  1.00  0.00     0.173 A 
ATOM     72  F   UNL A   1      40.998  24.800  28.364  1.00  0.00    -0.203 F 
ATOM     73  C   UNL A   1      42.339  24.637  26.434  1.00  0.00     0.198 A 
ATOM     74  C   UNL A   1      43.729  26.482  25.784  1.00  0.00     0.198 A 
ATOM     75  F   UNL A   1      43.773  28.437  27.092  1.00  0.00    -0.203 F 
ATOM     76  F   UNL A   1      41.906  23.384  26.237  1.00  0.00    -0.200 F 
ATOM     77  C   UNL A   1      43.260  25.195  25.560  1.00  0.00     0.200 A 
ATOM     78  F   UNL A   1      44.610  27.030  24.936  1.00  0.00    -0.200 F 
ATOM     79  F   UNL A   1      43.702  24.493  24.509  1.00  0.00    -0.200 F 
ENDBRANCH  45  69
BRANCH  57  80
ATOM     80  C   UNL A   1      44.645  27.163  34.344  1.00  0.00     0.064 A 
ATOM     81  C   UNL A   1      44.477  25.924  34.980  1.00  0.00     0.173 A 
ATOM     82  C   UNL A   1      45.919  27.751  34.377  1.00  0.00     0.173 A 
ATOM     83  F   UNL A   1      43.275  25.328  34.990  1.00  0.00    -0.203 F 
ATOM     84  C   UNL A   1      45.537  25.309  35.642  1.00  0.00     0.198 A 
ATOM     85  C   UNL A   1      46.983  27.120  35.015  1.00  0.00     0.198 A 
ATOM     86  F   UNL A   1      46.134  28.932  33.778  1.00  0.00    -0.203 F 
ATOM     87  F   UNL A   1      45.342  24.148  36.280  1.00  0.00    -0.200 F 
ATOM     88  C   UNL A   1      46.791  25.904  35.653  1.00  0.00     0.200 A 
ATOM     89  F   UNL A   1      48.197  27.689  35.013  1.00  0.00    -0.200 F 
ATOM     90  F   UNL A   1      47.811  25.307  36.285  1.00  0.00    -0.200 F 
ENDBRANCH  57  80
ENDBRANCH  31  32
ENDBRANCH  24  26
ENDBRANCH  23  24
ENDBRANCH  22  23
ENDBRANCH  21  22
ENDBRANCH  20  21
ENDBRANCH   1  20
TORSDOF 17
ENDMDL
MODEL 3
REMARK VINA RESULT:     -10.6      2.605      3.921
REMARK SMILES C[C@@H](C(=O)OCCOCCOC(=O)c1ccc(-c2c3nc(c(-c4c(F)c(F)c(F)c(F)c4F)c4ccc([nH]4)c(-c4c(F)c(F)c(F)c(F)c4F)c4nc(c(-c5c(F)c(F)c(F)c(F)c5F)c5ccc2[nH]5)C=C4)C=C3)cc1)[C@H](C)[S@@](=O)c1ccc(F)c(F)c1
REMARK SMILES IDX 7 1 6 2 5 3 3 4 4 5 2 6 1 7 77 8 78 9 79 10 80 11 81 12
REMARK SMILES IDX 82 13 88 14 83 15 86 16 84 17 87 18 85 19 8 20 9 21 10 22
REMARK SMILES IDX 11 23 12 24 13 25 14 26 15 27 76 28 16 29 75 30 17 31 18 32
REMARK SMILES IDX 19 33 69 34 20 35 74 36 68 37 70 38 21 39 73 40 67 41 66 42
REMARK SMILES IDX 22 44 54 45 34 46 53 47 35 48 38 49 52 50 71 51 36 52 37 53
REMARK SMILES IDX 51 55 72 56 39 57 23 58 24 59 32 60 25 61 26 62 30 63 33 64
REMARK SMILES IDX 27 65 28 66 31 67 29 68 55 69 56 70 64 71 57 72 58 73 62 74
REMARK SMILES IDX 65 75 59 76 60 77 63 78 61 79 40 80 41 81 49 82 42 83 43 84
REMARK SMILES IDX 47 85 50 86 44 87 45 88 48 89 46 90
REMARK H PARENT 70 43 38 54
REMARK Flexibility Score: inf
ROOT
ATOM      1  C   UNL A   1      37.227  21.966  24.518  1.00  0.00     0.202 C 
ENDROOT
BRANCH   1   2
ATOM      2  C   UNL A   1      36.621  23.281  25.016  1.00  0.00     0.261 C 
BRANCH   2   3
ATOM      3  O   UNL A   1      35.397  22.993  25.715  1.00  0.00    -0.463 OA
BRANCH   3   4
ATOM      4  C   UNL A   1      34.334  23.784  25.436  1.00  0.00     0.309 C 
ATOM      5  O   UNL A   1      33.759  24.481  26.264  1.00  0.00    -0.252 OA
BRANCH   4   6
ATOM      6  C   UNL A   1      33.939  23.750  23.951  1.00  0.00     0.112 C 
ATOM      7  C   UNL A   1      33.719  25.157  23.374  1.00  0.00     0.021 C 
BRANCH   6   8
ATOM      8  C   UNL A   1      32.784  22.717  23.829  1.00  0.00     0.095 C 
ATOM      9  C   UNL A   1      31.429  23.380  23.551  1.00  0.00     0.023 C 
BRANCH   8  10
ATOM     10  S   UNL A   1      32.587  21.392  25.047  1.00  0.00     0.057 S 
ATOM     11  O   UNL A   1      31.139  21.282  25.421  1.00  0.00    -0.254 OA
BRANCH  10  12
ATOM     12  C   UNL A   1      33.025  19.821  24.298  1.00  0.00     0.042 A 
ATOM     13  C   UNL A   1      32.294  19.159  23.307  1.00  0.00     0.021 A 
ATOM     14  C   UNL A   1      34.206  19.222  24.770  1.00  0.00     0.060 A 
ATOM     15  C   UNL A   1      32.686  17.891  22.857  1.00  0.00     0.043 A 
ATOM     16  C   UNL A   1      34.609  17.977  24.298  1.00  0.00     0.160 A 
ATOM     17  C   UNL A   1      33.841  17.306  23.360  1.00  0.00     0.158 A 
ATOM     18  F   UNL A   1      35.739  17.429  24.764  1.00  0.00    -0.204 F 
ATOM     19  F   UNL A   1      34.203  16.089  22.931  1.00  0.00    -0.204 F 
ENDBRANCH  10  12
ENDBRANCH   8  10
ENDBRANCH   6   8
ENDBRANCH   4   6
ENDBRANCH   3   4
ENDBRANCH   2   3
ENDBRANCH   1   2
BRANCH   1  20
ATOM     20  O   UNL A   1      38.158  21.346  25.409  1.00  0.00    -0.374 OA
BRANCH  20  21
ATOM     21  C   UNL A   1      38.587  20.019  25.096  1.00  0.00     0.202 C 
BRANCH  21  22
ATOM     22  C   UNL A   1      39.617  19.401  26.052  1.00  0.00     0.261 C 
BRANCH  22  23
ATOM     23  O   UNL A   1      40.909  19.227  25.436  1.00  0.00    -0.460 OA
BRANCH  23  24
ATOM     24  C   UNL A   1      41.962  19.435  26.259  1.00  0.00     0.338 C 
ATOM     25  O   UNL A   1      42.867  18.653  26.526  1.00  0.00    -0.246 OA
BRANCH  24  26
ATOM     26  C   UNL A   1      42.001  20.840  26.705  1.00  0.00     0.060 A 
ATOM     27  C   UNL A   1      41.898  21.830  25.717  1.00  0.00     0.016 A 
ATOM     28  C   UNL A   1      42.230  21.191  28.036  1.00  0.00     0.016 A 
ATOM     29  C   UNL A   1      42.073  23.171  26.051  1.00  0.00     0.010 A 
ATOM     30  C   UNL A   1      42.413  22.540  28.368  1.00  0.00     0.010 A 
ATOM     31  C   UNL A   1      42.372  23.532  27.370  1.00  0.00    -0.014 A 
BRANCH  31  32
ATOM     32  C   UNL A   1      42.784  24.928  27.664  1.00  0.00     0.031 A 
ATOM     33  C   UNL A   1      44.194  25.356  27.360  1.00  0.00     0.074 A 
ATOM     34  C   UNL A   1      41.900  25.821  28.143  1.00  0.00     0.049 A 
ATOM     35  N   UNL A   1      44.766  26.520  27.535  1.00  0.00    -0.248 NA
ATOM     36  C   UNL A   1      45.076  24.332  26.779  1.00  0.00     0.031 C 
ATOM     37  C   UNL A   1      40.497  25.545  28.440  1.00  0.00     0.029 A 
ATOM     38  N   UNL A   1      42.059  27.147  28.466  1.00  0.00    -0.354 N 
ATOM     39  C   UNL A   1      46.072  26.369  27.085  1.00  0.00     0.074 A 
ATOM     40  C   UNL A   1      46.218  24.994  26.661  1.00  0.00     0.031 C 
ATOM     41  C   UNL A   1      39.922  26.664  28.911  1.00  0.00     0.029 A 
ATOM     42  C   UNL A   1      40.924  27.729  28.974  1.00  0.00     0.049 A 
ATOM     43  H   UNL A   1      42.906  27.634  28.345  1.00  0.00     0.167 HD
ATOM     44  C   UNL A   1      47.056  27.298  27.018  1.00  0.00     0.037 A 
ATOM     45  C   UNL A   1      40.723  28.972  29.453  1.00  0.00     0.037 A 
ATOM     46  C   UNL A   1      46.913  28.667  27.439  1.00  0.00     0.049 A 
ATOM     47  C   UNL A   1      41.854  29.968  29.433  1.00  0.00     0.074 A 
ATOM     48  C   UNL A   1      47.851  29.685  27.400  1.00  0.00     0.029 A 
ATOM     49  N   UNL A   1      45.757  29.210  27.980  1.00  0.00    -0.354 N 
ATOM     50  N   UNL A   1      43.077  29.823  28.986  1.00  0.00    -0.248 NA
ATOM     51  C   UNL A   1      41.572  31.303  29.981  1.00  0.00     0.031 C 
ATOM     52  C   UNL A   1      47.277  30.830  27.961  1.00  0.00     0.029 A 
ATOM     53  C   UNL A   1      45.966  30.540  28.303  1.00  0.00     0.049 A 
ATOM     54  H   UNL A   1      44.914  28.721  28.115  1.00  0.00     0.167 HD
ATOM     55  C   UNL A   1      43.703  31.049  29.174  1.00  0.00     0.074 A 
ATOM     56  C   UNL A   1      42.718  31.933  29.764  1.00  0.00     0.031 C 
ATOM     57  C   UNL A   1      44.976  31.410  28.884  1.00  0.00     0.037 A 
BRANCH  44  58
ATOM     58  C   UNL A   1      48.388  26.856  26.488  1.00  0.00     0.064 A 
ATOM     59  C   UNL A   1      49.345  26.250  27.315  1.00  0.00     0.173 A 
ATOM     60  C   UNL A   1      48.696  27.006  25.128  1.00  0.00     0.173 A 
ATOM     61  F   UNL A   1      49.104  26.096  28.626  1.00  0.00    -0.203 F 
ATOM     62  C   UNL A   1      50.572  25.833  26.804  1.00  0.00     0.198 A 
ATOM     63  C   UNL A   1      49.912  26.563  24.614  1.00  0.00     0.198 A 
ATOM     64  F   UNL A   1      47.813  27.574  24.293  1.00  0.00    -0.203 F 
ATOM     65  F   UNL A   1      51.489  25.295  27.621  1.00  0.00    -0.200 F 
ATOM     66  C   UNL A   1      50.852  25.984  25.454  1.00  0.00     0.200 A 
ATOM     67  F   UNL A   1      50.175  26.698  23.307  1.00  0.00    -0.200 F 
ATOM     68  F   UNL A   1      52.030  25.575  24.963  1.00  0.00    -0.200 F 
ENDBRANCH  44  58
BRANCH  45  69
ATOM     69  C   UNL A   1      39.396  29.345  30.008  1.00  0.00     0.064 A 
ATOM     70  C   UNL A   1      39.085  29.128  31.357  1.00  0.00     0.173 A 
ATOM     71  C   UNL A   1      38.405  29.911  29.192  1.00  0.00     0.173 A 
ATOM     72  F   UNL A   1      39.990  28.564  32.170  1.00  0.00    -0.203 F 
ATOM     73  C   UNL A   1      37.827  29.447  31.865  1.00  0.00     0.198 A 
ATOM     74  C   UNL A   1      37.158  30.256  29.707  1.00  0.00     0.198 A 
ATOM     75  F   UNL A   1      38.652  30.138  27.893  1.00  0.00    -0.203 F 
ATOM     76  F   UNL A   1      37.539  29.186  33.148  1.00  0.00    -0.200 F 
ATOM     77  C   UNL A   1      36.866  30.015  31.042  1.00  0.00     0.200 A 
ATOM     78  F   UNL A   1      36.237  30.815  28.911  1.00  0.00    -0.200 F 
ATOM     79  F   UNL A   1      35.658  30.325  31.531  1.00  0.00    -0.200 F 
ENDBRANCH  45  69
BRANCH  57  80
ATOM     80  C   UNL A   1      45.374  32.831  29.168  1.00  0.00     0.064 A 
ATOM     81  C   UNL A   1      45.170  33.854  28.229  1.00  0.00     0.173 A 
ATOM     82  C   UNL A   1      45.926  33.179  30.410  1.00  0.00     0.173 A 
ATOM     83  F   UNL A   1      44.659  33.570  27.022  1.00  0.00    -0.203 F 
ATOM     84  C   UNL A   1      45.526  35.169  28.516  1.00  0.00     0.198 A 
ATOM     85  C   UNL A   1      46.254  34.500  30.704  1.00  0.00     0.198 A 
ATOM     86  F   UNL A   1      46.135  32.239  31.344  1.00  0.00    -0.203 F 
ATOM     87  F   UNL A   1      45.363  36.122  27.589  1.00  0.00    -0.200 F 
ATOM     88  C   UNL A   1      46.061  35.493  29.756  1.00  0.00     0.200 A 
ATOM     89  F   UNL A   1      46.759  34.812  31.906  1.00  0.00    -0.200 F 
ATOM     90  F   UNL A   1      46.396  36.760  30.031  1.00  0.00    -0.200 F 
ENDBRANCH  57  80
ENDBRANCH  31  32
ENDBRANCH  24  26
ENDBRANCH  23  24
ENDBRANCH  22  23
ENDBRANCH  21  22
ENDBRANCH  20  21
ENDBRANCH   1  20
TORSDOF 17
ENDMDL
