MODEL 1
REMARK VINA RESULT:     -11.6      0.000      0.000
REMARK SMILES COc1ccc(OC)c(/C=N/[NH+]=C2/NC(=O)[C@@H](CC(=O)OCCOCCOC(=O)c3ccc(-c4c5nc(c(-c6c(F)c(F)c(F)c(F)c6F)c6ccc([nH]6)c(-c6c(F)c(F)c(F)c(F)c6F)c6nc(c(-c7c(F)c(F)c(F)c(F)c7F)c7ccc4[nH]7)C=C6)C=C5)cc3)S2)c1
REMARK SMILES IDX 23 1 22 2 21 3 19 4 20 5 18 6 17 7 12 8 13 9 14 11 93 12
REMARK SMILES IDX 15 13 16 15 11 16 10 17 9 18 3 19 4 20 94 21 5 22 6 23 2 24
REMARK SMILES IDX 1 25 7 26 8 27 24 28 25 29 26 30 27 31 28 32 29 33 30 34
REMARK SMILES IDX 31 35 92 36 32 37 91 38 33 39 34 40 35 41 85 42 36 43 90 44
REMARK SMILES IDX 84 45 86 46 37 47 89 48 83 49 82 50 38 52 70 53 50 54 69 55
REMARK SMILES IDX 51 56 54 57 68 58 87 59 52 60 53 61 67 63 88 64 55 65 39 66
REMARK SMILES IDX 40 67 48 68 41 69 42 70 46 71 49 72 43 73 44 74 47 75 45 76
REMARK SMILES IDX 71 77 72 78 80 79 73 80 74 81 78 82 81 83 75 84 76 85 79 86
REMARK SMILES IDX 77 87 56 88 57 89 65 90 58 91 59 92 63 93 66 94 60 95 61 96
REMARK SMILES IDX 64 97 62 98
REMARK H PARENT 12 10 14 14 86 51 54 62
REMARK Flexibility Score: inf
ROOT
ATOM      1  C   UNL A   1      46.181  19.757  24.549  1.00  0.00     0.202 C 
ENDROOT
BRANCH   1   2
ATOM      2  C   UNL A   1      45.140  18.830  25.195  1.00  0.00     0.261 C 
BRANCH   2   3
ATOM      3  O   UNL A   1      43.755  19.202  25.000  1.00  0.00    -0.463 OA
BRANCH   3   4
ATOM      4  C   UNL A   1      42.896  18.662  25.901  1.00  0.00     0.307 C 
ATOM      5  O   UNL A   1      42.665  17.458  25.994  1.00  0.00    -0.252 OA
BRANCH   4   6
ATOM      6  C   UNL A   1      42.189  19.622  26.831  1.00  0.00     0.150 C 
BRANCH   6   7
ATOM      7  C   UNL A   1      41.386  20.817  26.358  1.00  0.00     0.184 C 
ATOM      8  N   UNL A   1      37.780  22.191  26.182  1.00  0.00    -0.142 N 
ATOM      9  C   UNL A   1      38.986  21.761  26.331  1.00  0.00     0.337 C 
ATOM     10  H   UNL A   1      37.446  22.944  26.723  1.00  0.00     0.343 HD
ATOM     11  N   UNL A   1      39.818  22.378  27.207  1.00  0.00    -0.202 N 
ATOM     12  S   UNL A   1      39.767  20.383  25.623  1.00  0.00    -0.020 SA
ATOM     13  C   UNL A   1      41.091  21.907  27.359  1.00  0.00     0.322 C 
ATOM     14  H   UNL A   1      39.508  23.155  27.726  1.00  0.00     0.316 HD
ATOM     15  O   UNL A   1      41.900  22.375  28.148  1.00  0.00    -0.246 OA
BRANCH   8  16
ATOM     16  N   UNL A   1      36.948  21.568  25.234  1.00  0.00    -0.093 NA
ATOM     17  C   UNL A   1      35.760  21.339  25.693  1.00  0.00     0.170 C 
BRANCH  17  18
ATOM     18  C   UNL A   1      34.591  20.968  24.899  1.00  0.00     0.042 A 
ATOM     19  C   UNL A   1      33.160  19.172  24.144  1.00  0.00     0.119 A 
ATOM     20  C   UNL A   1      32.250  20.114  23.668  1.00  0.00     0.050 A 
ATOM     21  C   UNL A   1      34.343  19.594  24.748  1.00  0.00     0.060 A 
ATOM     22  C   UNL A   1      32.492  21.479  23.842  1.00  0.00     0.051 A 
ATOM     23  C   UNL A   1      33.647  21.917  24.493  1.00  0.00     0.128 A 
BRANCH  19  24
ATOM     24  O   UNL A   1      32.854  17.858  23.922  1.00  0.00    -0.497 OA
ATOM     25  C   UNL A   1      33.929  17.105  23.364  1.00  0.00     0.278 C 
ENDBRANCH  19  24
BRANCH  23  26
ATOM     26  O   UNL A   1      33.748  23.270  24.655  1.00  0.00    -0.496 OA
ATOM     27  C   UNL A   1      34.094  23.998  23.475  1.00  0.00     0.278 C 
ENDBRANCH  23  26
ENDBRANCH  17  18
ENDBRANCH   8  16
ENDBRANCH   6   7
ENDBRANCH   4   6
ENDBRANCH   3   4
ENDBRANCH   2   3
ENDBRANCH   1   2
BRANCH   1  28
ATOM     28  O   UNL A   1      46.362  21.045  25.128  1.00  0.00    -0.374 OA
BRANCH  28  29
ATOM     29  C   UNL A   1      45.592  22.106  24.583  1.00  0.00     0.202 C 
BRANCH  29  30
ATOM     30  C   UNL A   1      44.596  22.780  25.528  1.00  0.00     0.261 C 
BRANCH  30  31
ATOM     31  O   UNL A   1      43.921  23.911  24.978  1.00  0.00    -0.460 OA
BRANCH  31  32
ATOM     32  C   UNL A   1      44.571  25.081  25.166  1.00  0.00     0.338 C 
ATOM     33  O   UNL A   1      45.596  25.464  24.624  1.00  0.00    -0.246 OA
BRANCH  32  34
ATOM     34  C   UNL A   1      43.821  25.870  26.148  1.00  0.00     0.060 A 
ATOM     35  C   UNL A   1      44.146  27.217  26.339  1.00  0.00     0.016 A 
ATOM     36  C   UNL A   1      42.850  25.245  26.930  1.00  0.00     0.016 A 
ATOM     37  C   UNL A   1      43.509  27.939  27.349  1.00  0.00     0.010 A 
ATOM     38  C   UNL A   1      42.193  25.979  27.918  1.00  0.00     0.010 A 
ATOM     39  C   UNL A   1      42.544  27.319  28.156  1.00  0.00    -0.014 A 
BRANCH  39  40
ATOM     40  C   UNL A   1      41.982  28.037  29.326  1.00  0.00     0.031 A 
ATOM     41  C   UNL A   1      42.681  27.942  30.654  1.00  0.00     0.074 A 
ATOM     42  C   UNL A   1      40.867  28.777  29.199  1.00  0.00     0.049 A 
ATOM     43  N   UNL A   1      42.361  28.484  31.801  1.00  0.00    -0.248 NA
ATOM     44  C   UNL A   1      43.900  27.119  30.697  1.00  0.00     0.031 C 
ATOM     45  C   UNL A   1      40.105  28.947  27.963  1.00  0.00     0.029 A 
ATOM     46  N   UNL A   1      40.178  29.518  30.126  1.00  0.00    -0.354 N 
ATOM     47  C   UNL A   1      43.334  28.069  32.700  1.00  0.00     0.074 A 
ATOM     48  C   UNL A   1      44.238  27.200  31.976  1.00  0.00     0.031 C 
ATOM     49  C   UNL A   1      39.053  29.746  28.207  1.00  0.00     0.029 A 
ATOM     50  C   UNL A   1      39.053  30.121  29.619  1.00  0.00     0.049 A 
ATOM     51  H   UNL A   1      40.464  29.609  31.063  1.00  0.00     0.167 HD
ATOM     52  C   UNL A   1      43.472  28.395  34.006  1.00  0.00     0.037 A 
ATOM     53  C   UNL A   1      38.125  30.878  30.234  1.00  0.00     0.037 A 
ATOM     54  C   UNL A   1      42.578  29.266  34.722  1.00  0.00     0.049 A 
ATOM     55  C   UNL A   1      38.275  31.190  31.699  1.00  0.00     0.074 A 
ATOM     56  C   UNL A   1      42.656  29.692  36.037  1.00  0.00     0.029 A 
ATOM     57  N   UNL A   1      41.436  29.839  34.183  1.00  0.00    -0.354 N 
ATOM     58  N   UNL A   1      39.226  30.835  32.527  1.00  0.00    -0.248 NA
ATOM     59  C   UNL A   1      37.221  32.012  32.314  1.00  0.00     0.031 C 
ATOM     60  C   UNL A   1      41.537  30.488  36.305  1.00  0.00     0.029 A 
ATOM     61  C   UNL A   1      40.786  30.593  35.146  1.00  0.00     0.049 A 
ATOM     62  H   UNL A   1      41.134  29.727  33.252  1.00  0.00     0.167 HD
ATOM     63  C   UNL A   1      38.900  31.402  33.751  1.00  0.00     0.074 A 
ATOM     64  C   UNL A   1      37.668  32.137  33.556  1.00  0.00     0.031 C 
ATOM     65  C   UNL A   1      39.560  31.318  34.933  1.00  0.00     0.037 A 
BRANCH  52  66
ATOM     66  C   UNL A   1      44.627  27.797  34.751  1.00  0.00     0.064 A 
ATOM     67  C   UNL A   1      45.870  28.444  34.819  1.00  0.00     0.173 A 
ATOM     68  C   UNL A   1      44.481  26.579  35.431  1.00  0.00     0.173 A 
ATOM     69  F   UNL A   1      46.064  29.604  34.174  1.00  0.00    -0.203 F 
ATOM     70  C   UNL A   1      46.931  27.882  35.524  1.00  0.00     0.198 A 
ATOM     71  C   UNL A   1      45.537  26.032  36.155  1.00  0.00     0.198 A 
ATOM     72  F   UNL A   1      43.311  25.923  35.398  1.00  0.00    -0.203 F 
ATOM     73  F   UNL A   1      48.122  28.497  35.543  1.00  0.00    -0.200 F 
ATOM     74  C   UNL A   1      46.763  26.680  36.196  1.00  0.00     0.200 A 
ATOM     75  F   UNL A   1      45.370  24.876  36.811  1.00  0.00    -0.200 F 
ATOM     76  F   UNL A   1      47.783  26.144  36.879  1.00  0.00    -0.200 F 
ENDBRANCH  52  66
BRANCH  53  77
ATOM     77  C   UNL A   1      36.967  31.397  29.460  1.00  0.00     0.064 A 
ATOM     78  C   UNL A   1      35.913  30.552  29.084  1.00  0.00     0.173 A 
ATOM     79  C   UNL A   1      36.893  32.744  29.079  1.00  0.00     0.173 A 
ATOM     80  F   UNL A   1      35.952  29.250  29.405  1.00  0.00    -0.203 F 
ATOM     81  C   UNL A   1      34.835  31.035  28.344  1.00  0.00     0.198 A 
ATOM     82  C   UNL A   1      35.804  33.230  28.361  1.00  0.00     0.198 A 
ATOM     83  F   UNL A   1      37.878  33.591  29.412  1.00  0.00    -0.203 F 
ATOM     84  F   UNL A   1      33.858  30.199  27.965  1.00  0.00    -0.200 F 
ATOM     85  C   UNL A   1      34.778  32.374  27.990  1.00  0.00     0.200 A 
ATOM     86  F   UNL A   1      35.747  34.527  28.028  1.00  0.00    -0.200 F 
ATOM     87  F   UNL A   1      33.738  32.838  27.282  1.00  0.00    -0.200 F 
ENDBRANCH  53  77
BRANCH  65  88
ATOM     88  C   UNL A   1      38.974  32.053  36.102  1.00  0.00     0.064 A 
ATOM     89  C   UNL A   1      38.142  31.407  37.028  1.00  0.00     0.173 A 
ATOM     90  C   UNL A   1      39.287  33.402  36.323  1.00  0.00     0.173 A 
ATOM     91  F   UNL A   1      37.803  30.122  36.849  1.00  0.00    -0.203 F 
ATOM     92  C   UNL A   1      37.630  32.093  38.126  1.00  0.00     0.198 A 
ATOM     93  C   UNL A   1      38.794  34.077  37.436  1.00  0.00     0.198 A 
ATOM     94  F   UNL A   1      40.083  34.061  35.468  1.00  0.00    -0.203 F 
ATOM     95  F   UNL A   1      36.807  31.468  38.979  1.00  0.00    -0.200 F 
ATOM     96  C   UNL A   1      37.962  33.424  38.334  1.00  0.00     0.200 A 
ATOM     97  F   UNL A   1      39.123  35.359  37.640  1.00  0.00    -0.200 F 
ATOM     98  F   UNL A   1      37.474  34.080  39.395  1.00  0.00    -0.200 F 
ENDBRANCH  65  88
ENDBRANCH  39  40
ENDBRANCH  32  34
ENDBRANCH  31  32
ENDBRANCH  30  31
ENDBRANCH  29  30
ENDBRANCH  28  29
ENDBRANCH   1  28
TORSDOF 19
ENDMDL
MODEL 2
REMARK VINA RESULT:     -11.6      0.683      2.215
REMARK SMILES COc1ccc(OC)c(/C=N/[NH+]=C2/NC(=O)[C@@H](CC(=O)OCCOCCOC(=O)c3ccc(-c4c5nc(c(-c6c(F)c(F)c(F)c(F)c6F)c6ccc([nH]6)c(-c6c(F)c(F)c(F)c(F)c6F)c6nc(c(-c7c(F)c(F)c(F)c(F)c7F)c7ccc4[nH]7)C=C6)C=C5)cc3)S2)c1
REMARK SMILES IDX 23 1 22 2 21 3 19 4 20 5 18 6 17 7 12 8 13 9 14 11 93 12
REMARK SMILES IDX 15 13 16 15 11 16 10 17 9 18 3 19 4 20 94 21 5 22 6 23 2 24
REMARK SMILES IDX 1 25 7 26 8 27 24 28 25 29 26 30 27 31 28 32 29 33 30 34
REMARK SMILES IDX 31 35 92 36 32 37 91 38 33 39 34 40 35 41 85 42 36 43 90 44
REMARK SMILES IDX 84 45 86 46 37 47 89 48 83 49 82 50 38 52 70 53 50 54 69 55
REMARK SMILES IDX 51 56 54 57 68 58 87 59 52 60 53 61 67 63 88 64 55 65 39 66
REMARK SMILES IDX 40 67 48 68 41 69 42 70 46 71 49 72 43 73 44 74 47 75 45 76
REMARK SMILES IDX 71 77 72 78 80 79 73 80 74 81 78 82 81 83 75 84 76 85 79 86
REMARK SMILES IDX 77 87 56 88 57 89 65 90 58 91 59 92 63 93 66 94 60 95 61 96
REMARK SMILES IDX 64 97 62 98
REMARK H PARENT 12 10 14 14 86 51 54 62
REMARK Flexibility Score: inf
ROOT
ATOM      1  C   UNL A   1      46.091  19.780  24.613  1.00  0.00     0.202 C 
ENDROOT
BRANCH   1   2
ATOM      2  C   UNL A   1      44.994  18.910  25.244  1.00  0.00     0.261 C 
BRANCH   2   3
ATOM      3  O   UNL A   1      43.633  19.356  25.035  1.00  0.00    -0.463 OA
BRANCH   3   4
ATOM      4  C   UNL A   1      42.721  18.783  25.859  1.00  0.00     0.307 C 
ATOM      5  O   UNL A   1      42.426  17.589  25.832  1.00  0.00    -0.252 OA
BRANCH   4   6
ATOM      6  C   UNL A   1      42.035  19.689  26.856  1.00  0.00     0.150 C 
BRANCH   6   7
ATOM      7  C   UNL A   1      41.398  21.015  26.492  1.00  0.00     0.184 C 
ATOM      8  N   UNL A   1      38.019  22.886  26.523  1.00  0.00    -0.142 N 
ATOM      9  C   UNL A   1      39.156  22.282  26.604  1.00  0.00     0.337 C 
ATOM     10  H   UNL A   1      37.806  23.636  27.125  1.00  0.00     0.343 HD
ATOM     11  N   UNL A   1      40.084  22.713  27.495  1.00  0.00    -0.202 N 
ATOM     12  S   UNL A   1      39.720  20.864  25.779  1.00  0.00    -0.020 SA
ATOM     13  C   UNL A   1      41.282  22.060  27.574  1.00  0.00     0.322 C 
ATOM     14  H   UNL A   1      39.898  23.486  28.076  1.00  0.00     0.316 HD
ATOM     15  O   UNL A   1      42.165  22.352  28.368  1.00  0.00    -0.246 OA
BRANCH   8  16
ATOM     16  N   UNL A   1      37.088  22.455  25.561  1.00  0.00    -0.093 NA
ATOM     17  C   UNL A   1      35.915  22.969  25.744  1.00  0.00     0.170 C 
BRANCH  17  18
ATOM     18  C   UNL A   1      34.813  22.952  24.784  1.00  0.00     0.042 A 
ATOM     19  C   UNL A   1      33.817  24.000  22.847  1.00  0.00     0.119 A 
ATOM     20  C   UNL A   1      32.952  22.915  22.720  1.00  0.00     0.050 A 
ATOM     21  C   UNL A   1      34.741  24.032  23.889  1.00  0.00     0.060 A 
ATOM     22  C   UNL A   1      33.044  21.833  23.600  1.00  0.00     0.051 A 
ATOM     23  C   UNL A   1      34.001  21.827  24.616  1.00  0.00     0.128 A 
BRANCH  19  24
ATOM     24  O   UNL A   1      33.652  25.023  21.953  1.00  0.00    -0.497 OA
ATOM     25  C   UNL A   1      33.612  26.313  22.559  1.00  0.00     0.278 C 
ENDBRANCH  19  24
BRANCH  23  26
ATOM     26  O   UNL A   1      34.034  20.692  25.378  1.00  0.00    -0.496 OA
ATOM     27  C   UNL A   1      34.723  19.587  24.791  1.00  0.00     0.278 C 
ENDBRANCH  23  26
ENDBRANCH  17  18
ENDBRANCH   8  16
ENDBRANCH   6   7
ENDBRANCH   4   6
ENDBRANCH   3   4
ENDBRANCH   2   3
ENDBRANCH   1   2
BRANCH   1  28
ATOM     28  O   UNL A   1      46.316  21.067  25.180  1.00  0.00    -0.374 OA
BRANCH  28  29
ATOM     29  C   UNL A   1      45.607  22.154  24.605  1.00  0.00     0.202 C 
BRANCH  29  30
ATOM     30  C   UNL A   1      44.591  22.856  25.505  1.00  0.00     0.261 C 
BRANCH  30  31
ATOM     31  O   UNL A   1      43.969  24.003  24.924  1.00  0.00    -0.460 OA
BRANCH  31  32
ATOM     32  C   UNL A   1      44.639  25.156  25.139  1.00  0.00     0.338 C 
ATOM     33  O   UNL A   1      45.681  25.525  24.618  1.00  0.00    -0.246 OA
BRANCH  32  34
ATOM     34  C   UNL A   1      43.890  25.948  26.119  1.00  0.00     0.060 A 
ATOM     35  C   UNL A   1      44.262  27.275  26.359  1.00  0.00     0.016 A 
ATOM     36  C   UNL A   1      42.871  25.341  26.853  1.00  0.00     0.016 A 
ATOM     37  C   UNL A   1      43.623  27.993  27.369  1.00  0.00     0.010 A 
ATOM     38  C   UNL A   1      42.213  26.073  27.841  1.00  0.00     0.010 A 
ATOM     39  C   UNL A   1      42.608  27.391  28.129  1.00  0.00    -0.014 A 
BRANCH  39  40
ATOM     40  C   UNL A   1      42.039  28.099  29.300  1.00  0.00     0.031 A 
ATOM     41  C   UNL A   1      42.735  28.001  30.629  1.00  0.00     0.074 A 
ATOM     42  C   UNL A   1      40.919  28.831  29.175  1.00  0.00     0.049 A 
ATOM     43  N   UNL A   1      42.408  28.535  31.779  1.00  0.00    -0.248 NA
ATOM     44  C   UNL A   1      43.960  27.187  30.672  1.00  0.00     0.031 C 
ATOM     45  C   UNL A   1      40.158  29.002  27.938  1.00  0.00     0.029 A 
ATOM     46  N   UNL A   1      40.222  29.562  30.104  1.00  0.00    -0.354 N 
ATOM     47  C   UNL A   1      43.382  28.122  32.678  1.00  0.00     0.074 A 
ATOM     48  C   UNL A   1      44.293  27.263  31.952  1.00  0.00     0.031 C 
ATOM     49  C   UNL A   1      39.100  29.792  28.183  1.00  0.00     0.029 A 
ATOM     50  C   UNL A   1      39.094  30.159  29.598  1.00  0.00     0.049 A 
ATOM     51  H   UNL A   1      40.504  29.650  31.043  1.00  0.00     0.167 HD
ATOM     52  C   UNL A   1      43.513  28.442  33.986  1.00  0.00     0.037 A 
ATOM     53  C   UNL A   1      38.158  30.907  30.214  1.00  0.00     0.037 A 
ATOM     54  C   UNL A   1      42.612  29.302  34.705  1.00  0.00     0.049 A 
ATOM     55  C   UNL A   1      38.303  31.212  31.681  1.00  0.00     0.074 A 
ATOM     56  C   UNL A   1      42.683  29.722  36.022  1.00  0.00     0.029 A 
ATOM     57  N   UNL A   1      41.467  29.870  34.166  1.00  0.00    -0.354 N 
ATOM     58  N   UNL A   1      39.254  30.859  32.509  1.00  0.00    -0.248 NA
ATOM     59  C   UNL A   1      37.242  32.022  32.298  1.00  0.00     0.031 C 
ATOM     60  C   UNL A   1      41.558  30.508  36.292  1.00  0.00     0.029 A 
ATOM     61  C   UNL A   1      40.809  30.614  35.131  1.00  0.00     0.049 A 
ATOM     62  H   UNL A   1      41.168  29.761  33.234  1.00  0.00     0.167 HD
ATOM     63  C   UNL A   1      38.921  31.417  33.736  1.00  0.00     0.074 A 
ATOM     64  C   UNL A   1      37.685  32.145  33.542  1.00  0.00     0.031 C 
ATOM     65  C   UNL A   1      39.578  31.331  34.919  1.00  0.00     0.037 A 
BRANCH  52  66
ATOM     66  C   UNL A   1      44.671  27.848  34.731  1.00  0.00     0.064 A 
ATOM     67  C   UNL A   1      44.640  26.528  35.205  1.00  0.00     0.173 A 
ATOM     68  C   UNL A   1      45.839  28.596  34.943  1.00  0.00     0.173 A 
ATOM     69  F   UNL A   1      43.542  25.776  35.039  1.00  0.00    -0.203 F 
ATOM     70  C   UNL A   1      45.728  25.987  35.885  1.00  0.00     0.198 A 
ATOM     71  C   UNL A   1      46.933  28.044  35.602  1.00  0.00     0.198 A 
ATOM     72  F   UNL A   1      45.919  29.862  34.507  1.00  0.00    -0.203 F 
ATOM     73  F   UNL A   1      45.662  24.737  36.365  1.00  0.00    -0.200 F 
ATOM     74  C   UNL A   1      46.876  26.742  36.078  1.00  0.00     0.200 A 
ATOM     75  F   UNL A   1      48.044  28.771  35.780  1.00  0.00    -0.200 F 
ATOM     76  F   UNL A   1      47.923  26.218  36.727  1.00  0.00    -0.200 F 
ENDBRANCH  52  66
BRANCH  53  77
ATOM     77  C   UNL A   1      36.999  31.421  29.440  1.00  0.00     0.064 A 
ATOM     78  C   UNL A   1      36.931  32.765  29.047  1.00  0.00     0.173 A 
ATOM     79  C   UNL A   1      35.935  30.581  29.083  1.00  0.00     0.173 A 
ATOM     80  F   UNL A   1      37.913  33.612  29.388  1.00  0.00    -0.203 F 
ATOM     81  C   UNL A   1      35.835  33.250  28.335  1.00  0.00     0.198 A 
ATOM     82  C   UNL A   1      34.852  31.061  28.350  1.00  0.00     0.198 A 
ATOM     83  F   UNL A   1      35.952  29.287  29.438  1.00  0.00    -0.203 F 
ATOM     84  F   UNL A   1      35.777  34.547  28.004  1.00  0.00    -0.200 F 
ATOM     85  C   UNL A   1      34.801  32.397  27.982  1.00  0.00     0.200 A 
ATOM     86  F   UNL A   1      33.859  30.232  28.002  1.00  0.00    -0.200 F 
ATOM     87  F   UNL A   1      33.750  32.864  27.294  1.00  0.00    -0.200 F 
ENDBRANCH  53  77
BRANCH  65  88
ATOM     88  C   UNL A   1      38.984  32.056  36.090  1.00  0.00     0.064 A 
ATOM     89  C   UNL A   1      38.132  31.406  36.995  1.00  0.00     0.173 A 
ATOM     90  C   UNL A   1      39.309  33.398  36.336  1.00  0.00     0.173 A 
ATOM     91  F   UNL A   1      37.780  30.128  36.792  1.00  0.00    -0.203 F 
ATOM     92  C   UNL A   1      37.612  32.081  38.096  1.00  0.00     0.198 A 
ATOM     93  C   UNL A   1      38.808  34.062  37.452  1.00  0.00     0.198 A 
ATOM     94  F   UNL A   1      40.125  34.060  35.503  1.00  0.00    -0.203 F 
ATOM     95  F   UNL A   1      36.770  31.453  38.928  1.00  0.00    -0.200 F 
ATOM     96  C   UNL A   1      37.956  33.406  38.328  1.00  0.00     0.200 A 
ATOM     97  F   UNL A   1      39.149  35.337  37.680  1.00  0.00    -0.200 F 
ATOM     98  F   UNL A   1      37.461  34.051  39.392  1.00  0.00    -0.200 F 
ENDBRANCH  65  88
ENDBRANCH  39  40
ENDBRANCH  32  34
ENDBRANCH  31  32
ENDBRANCH  30  31
ENDBRANCH  29  30
ENDBRANCH  28  29
ENDBRANCH   1  28
TORSDOF 19
ENDMDL
MODEL 3
REMARK VINA RESULT:     -11.4      0.555      7.120
REMARK SMILES COc1ccc(OC)c(/C=N/[NH+]=C2/NC(=O)[C@@H](CC(=O)OCCOCCOC(=O)c3ccc(-c4c5nc(c(-c6c(F)c(F)c(F)c(F)c6F)c6ccc([nH]6)c(-c6c(F)c(F)c(F)c(F)c6F)c6nc(c(-c7c(F)c(F)c(F)c(F)c7F)c7ccc4[nH]7)C=C6)C=C5)cc3)S2)c1
REMARK SMILES IDX 23 1 22 2 21 3 19 4 20 5 18 6 17 7 12 8 13 9 14 11 93 12
REMARK SMILES IDX 15 13 16 15 11 16 10 17 9 18 3 19 4 20 94 21 5 22 6 23 2 24
REMARK SMILES IDX 1 25 7 26 8 27 24 28 25 29 26 30 27 31 28 32 29 33 30 34
REMARK SMILES IDX 31 35 92 36 32 37 91 38 33 39 34 40 35 41 85 42 36 43 90 44
REMARK SMILES IDX 84 45 86 46 37 47 89 48 83 49 82 50 38 52 70 53 50 54 69 55
REMARK SMILES IDX 51 56 54 57 68 58 87 59 52 60 53 61 67 63 88 64 55 65 39 66
REMARK SMILES IDX 40 67 48 68 41 69 42 70 46 71 49 72 43 73 44 74 47 75 45 76
REMARK SMILES IDX 71 77 72 78 80 79 73 80 74 81 78 82 81 83 75 84 76 85 79 86
REMARK SMILES IDX 77 87 56 88 57 89 65 90 58 91 59 92 63 93 66 94 60 95 61 96
REMARK SMILES IDX 64 97 62 98
REMARK H PARENT 12 10 14 14 86 51 54 62
REMARK Flexibility Score: inf
ROOT
ATOM      1  C   UNL A   1      46.015  19.930  24.640  1.00  0.00     0.202 C 
ENDROOT
BRANCH   1   2
ATOM      2  C   UNL A   1      44.978  18.895  25.103  1.00  0.00     0.261 C 
BRANCH   2   3
ATOM      3  O   UNL A   1      43.598  19.329  25.081  1.00  0.00    -0.463 OA
BRANCH   3   4
ATOM      4  C   UNL A   1      42.825  18.793  26.059  1.00  0.00     0.307 C 
ATOM      5  O   UNL A   1      42.649  17.586  26.211  1.00  0.00    -0.252 OA
BRANCH   4   6
ATOM      6  C   UNL A   1      42.145  19.761  27.000  1.00  0.00     0.150 C 
BRANCH   6   7
ATOM      7  C   UNL A   1      41.451  21.030  26.549  1.00  0.00     0.184 C 
ATOM      8  N   UNL A   1      37.968  22.684  26.319  1.00  0.00    -0.142 N 
ATOM      9  C   UNL A   1      39.133  22.157  26.486  1.00  0.00     0.337 C 
ATOM     10  H   UNL A   1      37.676  23.442  26.877  1.00  0.00     0.343 HD
ATOM     11  N   UNL A   1      39.981  22.678  27.408  1.00  0.00    -0.202 N 
ATOM     12  S   UNL A   1      39.828  20.748  25.751  1.00  0.00    -0.020 SA
ATOM     13  C   UNL A   1      41.209  22.105  27.580  1.00  0.00     0.322 C 
ATOM     14  H   UNL A   1      39.715  23.458  27.947  1.00  0.00     0.316 HD
ATOM     15  O   UNL A   1      42.026  22.482  28.409  1.00  0.00    -0.246 OA
BRANCH   8  16
ATOM     16  N   UNL A   1      37.122  22.161  25.325  1.00  0.00    -0.093 NA
ATOM     17  C   UNL A   1      36.102  21.538  25.821  1.00  0.00     0.170 C 
BRANCH  17  18
ATOM     18  C   UNL A   1      34.907  21.127  25.087  1.00  0.00     0.042 A 
ATOM     19  C   UNL A   1      33.613  19.275  24.227  1.00  0.00     0.119 A 
ATOM     20  C   UNL A   1      32.564  20.150  23.955  1.00  0.00     0.050 A 
ATOM     21  C   UNL A   1      34.797  19.761  24.779  1.00  0.00     0.060 A 
ATOM     22  C   UNL A   1      32.672  21.504  24.286  1.00  0.00     0.051 A 
ATOM     23  C   UNL A   1      33.831  21.996  24.888  1.00  0.00     0.128 A 
BRANCH  19  24
ATOM     24  O   UNL A   1      33.433  17.970  23.861  1.00  0.00    -0.497 OA
ATOM     25  C   UNL A   1      32.522  17.798  22.778  1.00  0.00     0.278 C 
ENDBRANCH  19  24
BRANCH  23  26
ATOM     26  O   UNL A   1      33.798  23.323  25.216  1.00  0.00    -0.496 OA
ATOM     27  C   UNL A   1      32.808  23.686  26.180  1.00  0.00     0.278 C 
ENDBRANCH  23  26
ENDBRANCH  17  18
ENDBRANCH   8  16
ENDBRANCH   6   7
ENDBRANCH   4   6
ENDBRANCH   3   4
ENDBRANCH   2   3
ENDBRANCH   1   2
BRANCH   1  28
ATOM     28  O   UNL A   1      46.089  21.154  25.364  1.00  0.00    -0.374 OA
BRANCH  28  29
ATOM     29  C   UNL A   1      45.462  22.285  24.778  1.00  0.00     0.202 C 
BRANCH  29  30
ATOM     30  C   UNL A   1      44.385  22.976  25.613  1.00  0.00     0.261 C 
BRANCH  30  31
ATOM     31  O   UNL A   1      43.773  24.104  24.987  1.00  0.00    -0.460 OA
BRANCH  31  32
ATOM     32  C   UNL A   1      44.423  25.268  25.202  1.00  0.00     0.338 C 
ATOM     33  O   UNL A   1      45.435  25.674  24.652  1.00  0.00    -0.246 OA
BRANCH  32  34
ATOM     34  C   UNL A   1      43.690  26.021  26.224  1.00  0.00     0.060 A 
ATOM     35  C   UNL A   1      43.989  27.372  26.429  1.00  0.00     0.016 A 
ATOM     36  C   UNL A   1      42.764  25.358  27.029  1.00  0.00     0.016 A 
ATOM     37  C   UNL A   1      43.372  28.059  27.474  1.00  0.00     0.010 A 
ATOM     38  C   UNL A   1      42.126  26.057  28.054  1.00  0.00     0.010 A 
ATOM     39  C   UNL A   1      42.453  27.401  28.304  1.00  0.00    -0.014 A 
BRANCH  39  40
ATOM     40  C   UNL A   1      41.917  28.084  29.507  1.00  0.00     0.031 A 
ATOM     41  C   UNL A   1      40.619  28.836  29.409  1.00  0.00     0.074 A 
ATOM     42  C   UNL A   1      42.578  28.022  30.676  1.00  0.00     0.049 A 
ATOM     43  N   UNL A   1      39.976  29.505  30.332  1.00  0.00    -0.248 NA
ATOM     44  C   UNL A   1      39.960  28.842  28.094  1.00  0.00     0.031 C 
ATOM     45  C   UNL A   1      43.843  27.322  30.892  1.00  0.00     0.029 A 
ATOM     46  N   UNL A   1      42.278  28.565  31.900  1.00  0.00    -0.354 N 
ATOM     47  C   UNL A   1      38.842  30.010  29.712  1.00  0.00     0.074 A 
ATOM     48  C   UNL A   1      38.900  29.603  28.324  1.00  0.00     0.031 C 
ATOM     49  C   UNL A   1      44.211  27.474  32.176  1.00  0.00     0.029 A 
ATOM     50  C   UNL A   1      43.222  28.304  32.862  1.00  0.00     0.049 A 
ATOM     51  H   UNL A   1      41.464  29.091  32.072  1.00  0.00     0.167 HD
ATOM     52  C   UNL A   1      37.835  30.735  30.253  1.00  0.00     0.037 A 
ATOM     53  C   UNL A   1      43.284  28.703  34.147  1.00  0.00     0.037 A 
ATOM     54  C   UNL A   1      37.773  31.133  31.634  1.00  0.00     0.049 A 
ATOM     55  C   UNL A   1      42.174  29.547  34.714  1.00  0.00     0.074 A 
ATOM     56  C   UNL A   1      36.774  31.832  32.289  1.00  0.00     0.029 A 
ATOM     57  N   UNL A   1      38.759  30.871  32.574  1.00  0.00    -0.354 N 
ATOM     58  N   UNL A   1      41.082  29.976  34.132  1.00  0.00    -0.248 NA
ATOM     59  C   UNL A   1      42.306  29.961  36.119  1.00  0.00     0.031 C 
ATOM     60  C   UNL A   1      37.176  32.030  33.614  1.00  0.00     0.029 A 
ATOM     61  C   UNL A   1      38.406  31.418  33.796  1.00  0.00     0.049 A 
ATOM     62  H   UNL A   1      39.589  30.368  32.397  1.00  0.00     0.167 HD
ATOM     63  C   UNL A   1      40.388  30.691  35.099  1.00  0.00     0.074 A 
ATOM     64  C   UNL A   1      41.176  30.627  36.312  1.00  0.00     0.031 C 
ATOM     65  C   UNL A   1      39.205  31.344  34.992  1.00  0.00     0.037 A 
BRANCH  52  66
ATOM     66  C   UNL A   1      36.720  31.157  29.344  1.00  0.00     0.064 A 
ATOM     67  C   UNL A   1      35.730  30.253  28.929  1.00  0.00     0.173 A 
ATOM     68  C   UNL A   1      36.619  32.487  28.910  1.00  0.00     0.173 A 
ATOM     69  F   UNL A   1      35.789  28.967  29.305  1.00  0.00    -0.203 F 
ATOM     70  C   UNL A   1      34.694  30.662  28.093  1.00  0.00     0.198 A 
ATOM     71  C   UNL A   1      35.569  32.897  28.095  1.00  0.00     0.198 A 
ATOM     72  F   UNL A   1      37.539  33.390  29.282  1.00  0.00    -0.203 F 
ATOM     73  F   UNL A   1      33.782  29.773  27.675  1.00  0.00    -0.200 F 
ATOM     74  C   UNL A   1      34.610  31.984  27.682  1.00  0.00     0.200 A 
ATOM     75  F   UNL A   1      35.484  34.176  27.706  1.00  0.00    -0.200 F 
ATOM     76  F   UNL A   1      33.609  32.376  26.883  1.00  0.00    -0.200 F 
ENDBRANCH  52  66
BRANCH  53  77
ATOM     77  C   UNL A   1      44.443  28.306  34.987  1.00  0.00     0.064 A 
ATOM     78  C   UNL A   1      44.417  27.126  35.744  1.00  0.00     0.173 A 
ATOM     79  C   UNL A   1      45.598  29.099  35.052  1.00  0.00     0.173 A 
ATOM     80  F   UNL A   1      43.324  26.349  35.732  1.00  0.00    -0.203 F 
ATOM     81  C   UNL A   1      45.498  26.762  36.544  1.00  0.00     0.198 A 
ATOM     82  C   UNL A   1      46.688  28.721  35.833  1.00  0.00     0.198 A 
ATOM     83  F   UNL A   1      45.671  30.238  34.348  1.00  0.00    -0.203 F 
ATOM     84  F   UNL A   1      45.432  25.649  37.287  1.00  0.00    -0.200 F 
ATOM     85  C   UNL A   1      46.634  27.556  36.583  1.00  0.00     0.200 A 
ATOM     86  F   UNL A   1      47.788  29.485  35.861  1.00  0.00    -0.200 F 
ATOM     87  F   UNL A   1      47.675  27.202  37.350  1.00  0.00    -0.200 F 
ENDBRANCH  53  77
BRANCH  65  88
ATOM     88  C   UNL A   1      38.682  32.027  36.221  1.00  0.00     0.064 A 
ATOM     89  C   UNL A   1      37.883  31.346  37.150  1.00  0.00     0.173 A 
ATOM     90  C   UNL A   1      39.025  33.359  36.495  1.00  0.00     0.173 A 
ATOM     91  F   UNL A   1      37.516  30.076  36.923  1.00  0.00    -0.203 F 
ATOM     92  C   UNL A   1      37.430  31.982  38.303  1.00  0.00     0.198 A 
ATOM     93  C   UNL A   1      38.592  33.983  37.661  1.00  0.00     0.198 A 
ATOM     94  F   UNL A   1      39.793  34.051  35.639  1.00  0.00    -0.203 F 
ATOM     95  F   UNL A   1      36.636  31.325  39.160  1.00  0.00    -0.200 F 
ATOM     96  C   UNL A   1      37.791  33.297  38.562  1.00  0.00     0.200 A 
ATOM     97  F   UNL A   1      38.950  35.250  37.914  1.00  0.00    -0.200 F 
ATOM     98  F   UNL A   1      37.361  33.904  39.675  1.00  0.00    -0.200 F 
ENDBRANCH  65  88
ENDBRANCH  39  40
ENDBRANCH  32  34
ENDBRANCH  31  32
ENDBRANCH  30  31
ENDBRANCH  29  30
ENDBRANCH  28  29
ENDBRANCH   1  28
TORSDOF 19
ENDMDL
