MODEL 1
REMARK VINA RESULT:     -11.5      0.000      0.000
REMARK SMILES CC(C)CN(C)c1cc2c(cc1Cl)C=C(C(=O)OCCOCCOC(=O)c1ccc(-c3c4nc(c(-c5c(F)c(F)c(F)c(F)c5F)c5ccc([nH]5)c(-c5c(F)c(F)c(F)c(F)c5F)c5nc(c(-c6c(F)c(F)c(F)c(F)c6F)c6ccc3[nH]6)C=C5)C=C4)cc1)[C@@H](C(F)(F)F)O2
REMARK SMILES IDX 20 1 19 2 18 3 16 4 17 5 15 6 7 7 8 8 12 9 9 10 11 11 13 12
REMARK SMILES IDX 10 13 95 14 14 15 90 16 5 17 6 18 4 19 2 20 1 21 3 22 91 23
REMARK SMILES IDX 92 24 93 25 94 26 21 27 22 28 23 29 24 30 25 31 26 32 27 33
REMARK SMILES IDX 28 34 89 35 29 36 88 37 30 38 31 39 32 40 82 41 33 42 87 43
REMARK SMILES IDX 81 44 83 45 34 46 86 47 80 48 79 49 35 51 67 52 47 53 66 54
REMARK SMILES IDX 48 55 51 56 65 57 84 58 49 59 50 60 64 62 85 63 52 64 36 65
REMARK SMILES IDX 37 66 45 67 38 68 39 69 43 70 46 71 40 72 41 73 44 74 42 75
REMARK SMILES IDX 68 76 69 77 77 78 70 79 71 80 75 81 78 82 72 83 73 84 76 85
REMARK SMILES IDX 74 86 53 87 54 88 62 89 55 90 56 91 60 92 63 93 57 94 58 95
REMARK SMILES IDX 61 96 59 97
REMARK H PARENT 83 50 51 61
REMARK Flexibility Score: inf
ROOT
ATOM      1  C   UNL A   1      33.457  29.883  26.520  1.00  0.00     0.202 C 
ENDROOT
BRANCH   1   2
ATOM      2  C   UNL A   1      32.986  28.938  25.409  1.00  0.00     0.261 C 
BRANCH   2   3
ATOM      3  O   UNL A   1      31.762  28.257  25.727  1.00  0.00    -0.460 OA
BRANCH   3   4
ATOM      4  C   UNL A   1      31.069  27.869  24.631  1.00  0.00     0.338 C 
ATOM      5  O   UNL A   1      30.442  28.593  23.873  1.00  0.00    -0.246 OA
BRANCH   4   6
ATOM      6  C   UNL A   1      31.256  26.434  24.367  1.00  0.00     0.087 C 
ATOM      7  C   UNL A   1      32.952  21.792  25.182  1.00  0.00     0.059 A 
ATOM      8  C   UNL A   1      32.526  22.480  24.022  1.00  0.00     0.074 A 
ATOM      9  C   UNL A   1      32.821  22.472  26.414  1.00  0.00     0.065 A 
ATOM     10  C   UNL A   1      31.986  23.772  24.101  1.00  0.00     0.130 A 
ATOM     11  C   UNL A   1      32.144  23.685  26.505  1.00  0.00     0.034 A 
ATOM     12  Cl  UNL A   1      33.603  21.956  27.870  1.00  0.00    -0.082 Cl
ATOM     13  C   UNL A   1      31.739  24.338  25.348  1.00  0.00     0.019 A 
ATOM     14  O   UNL A   1      31.725  24.449  22.935  1.00  0.00    -0.475 OA
ATOM     15  C   UNL A   1      31.198  25.672  25.462  1.00  0.00     0.027 C 
ATOM     16  C   UNL A   1      31.664  25.913  23.019  1.00  0.00     0.316 C 
BRANCH   7  17
ATOM     17  N   UNL A   1      33.520  20.514  25.102  1.00  0.00    -0.373 N 
ATOM     18  C   UNL A   1      34.975  20.463  25.000  1.00  0.00     0.143 C 
BRANCH  17  19
ATOM     19  C   UNL A   1      32.761  19.431  24.431  1.00  0.00     0.119 C 
BRANCH  19  20
ATOM     20  C   UNL A   1      33.472  18.062  24.470  1.00  0.00     0.002 C 
ATOM     21  C   UNL A   1      32.901  17.147  25.559  1.00  0.00     0.009 C 
ATOM     22  C   UNL A   1      33.400  17.328  23.126  1.00  0.00     0.009 C 
ENDBRANCH  19  20
ENDBRANCH  17  19
ENDBRANCH   7  17
BRANCH  16  23
ATOM     23  C   UNL A   1      32.987  26.540  22.552  1.00  0.00     0.430 C 
ATOM     24  F   UNL A   1      33.925  26.507  23.528  1.00  0.00    -0.167 F 
ATOM     25  F   UNL A   1      33.504  25.860  21.497  1.00  0.00    -0.167 F 
ATOM     26  F   UNL A   1      32.840  27.827  22.169  1.00  0.00    -0.167 F 
ENDBRANCH  16  23
ENDBRANCH   4   6
ENDBRANCH   3   4
ENDBRANCH   2   3
ENDBRANCH   1   2
BRANCH   1  27
ATOM     27  O   UNL A   1      32.487  30.633  27.239  1.00  0.00    -0.374 OA
BRANCH  27  28
ATOM     28  C   UNL A   1      31.710  31.612  26.553  1.00  0.00     0.202 C 
BRANCH  28  29
ATOM     29  C   UNL A   1      31.778  33.078  26.998  1.00  0.00     0.261 C 
BRANCH  29  30
ATOM     30  O   UNL A   1      33.115  33.555  27.225  1.00  0.00    -0.460 OA
BRANCH  30  31
ATOM     31  C   UNL A   1      33.269  34.304  28.344  1.00  0.00     0.338 C 
ATOM     32  O   UNL A   1      32.528  35.184  28.759  1.00  0.00    -0.246 OA
BRANCH  31  33
ATOM     33  C   UNL A   1      34.396  33.782  29.132  1.00  0.00     0.060 A 
ATOM     34  C   UNL A   1      34.197  32.782  30.083  1.00  0.00     0.016 A 
ATOM     35  C   UNL A   1      35.683  34.264  28.858  1.00  0.00     0.016 A 
ATOM     36  C   UNL A   1      35.303  32.251  30.752  1.00  0.00     0.010 A 
ATOM     37  C   UNL A   1      36.783  33.735  29.530  1.00  0.00     0.010 A 
ATOM     38  C   UNL A   1      36.602  32.712  30.470  1.00  0.00    -0.014 A 
BRANCH  38  39
ATOM     39  C   UNL A   1      37.778  32.040  31.075  1.00  0.00     0.031 A 
ATOM     40  C   UNL A   1      38.257  32.395  32.449  1.00  0.00     0.074 A 
ATOM     41  C   UNL A   1      38.425  31.106  30.353  1.00  0.00     0.049 A 
ATOM     42  N   UNL A   1      39.225  31.857  33.147  1.00  0.00    -0.248 NA
ATOM     43  C   UNL A   1      37.565  33.500  33.128  1.00  0.00     0.031 C 
ATOM     44  C   UNL A   1      38.074  30.711  28.988  1.00  0.00     0.029 A 
ATOM     45  N   UNL A   1      39.502  30.316  30.664  1.00  0.00    -0.354 N 
ATOM     46  C   UNL A   1      39.246  32.539  34.355  1.00  0.00     0.074 A 
ATOM     47  C   UNL A   1      38.229  33.568  34.275  1.00  0.00     0.031 C 
ATOM     48  C   UNL A   1      38.897  29.730  28.591  1.00  0.00     0.029 A 
ATOM     49  C   UNL A   1      39.853  29.447  29.660  1.00  0.00     0.049 A 
ATOM     50  H   UNL A   1      39.978  30.366  31.524  1.00  0.00     0.167 HD
ATOM     51  C   UNL A   1      40.029  32.307  35.437  1.00  0.00     0.037 A 
ATOM     52  C   UNL A   1      40.830  28.523  29.607  1.00  0.00     0.037 A 
ATOM     53  C   UNL A   1      41.049  31.291  35.500  1.00  0.00     0.049 A 
ATOM     54  C   UNL A   1      41.716  28.320  30.805  1.00  0.00     0.074 A 
ATOM     55  C   UNL A   1      41.867  30.958  36.566  1.00  0.00     0.029 A 
ATOM     56  N   UNL A   1      41.402  30.453  34.451  1.00  0.00    -0.354 N 
ATOM     57  N   UNL A   1      41.673  28.914  31.972  1.00  0.00    -0.248 NA
ATOM     58  C   UNL A   1      42.780  27.315  30.682  1.00  0.00     0.031 C 
ATOM     59  C   UNL A   1      42.752  29.961  36.146  1.00  0.00     0.029 A 
ATOM     60  C   UNL A   1      42.448  29.626  34.837  1.00  0.00     0.049 A 
ATOM     61  H   UNL A   1      40.973  30.446  33.565  1.00  0.00     0.167 HD
ATOM     62  C   UNL A   1      42.690  28.344  32.728  1.00  0.00     0.074 A 
ATOM     63  C   UNL A   1      43.317  27.340  31.894  1.00  0.00     0.031 C 
ATOM     64  C   UNL A   1      43.068  28.631  33.998  1.00  0.00     0.037 A 
BRANCH  51  65
ATOM     65  C   UNL A   1      39.811  33.157  36.655  1.00  0.00     0.064 A 
ATOM     66  C   UNL A   1      40.529  34.346  36.852  1.00  0.00     0.173 A 
ATOM     67  C   UNL A   1      38.816  32.830  37.590  1.00  0.00     0.173 A 
ATOM     68  F   UNL A   1      41.494  34.701  35.990  1.00  0.00    -0.203 F 
ATOM     69  C   UNL A   1      40.268  35.170  37.943  1.00  0.00     0.198 A 
ATOM     70  C   UNL A   1      38.538  33.671  38.665  1.00  0.00     0.198 A 
ATOM     71  F   UNL A   1      38.093  31.709  37.445  1.00  0.00    -0.203 F 
ATOM     72  F   UNL A   1      40.987  36.287  38.125  1.00  0.00    -0.200 F 
ATOM     73  C   UNL A   1      39.267  34.838  38.843  1.00  0.00     0.200 A 
ATOM     74  F   UNL A   1      37.558  33.357  39.523  1.00  0.00    -0.200 F 
ATOM     75  F   UNL A   1      39.003  35.642  39.881  1.00  0.00    -0.200 F 
ENDBRANCH  51  65
BRANCH  52  76
ATOM     76  C   UNL A   1      40.990  27.694  28.384  1.00  0.00     0.064 A 
ATOM     77  C   UNL A   1      41.826  28.107  27.339  1.00  0.00     0.173 A 
ATOM     78  C   UNL A   1      40.332  26.462  28.246  1.00  0.00     0.173 A 
ATOM     79  F   UNL A   1      42.463  29.285  27.417  1.00  0.00    -0.203 F 
ATOM     80  C   UNL A   1      41.993  27.325  26.198  1.00  0.00     0.198 A 
ATOM     81  C   UNL A   1      40.523  25.667  27.118  1.00  0.00     0.198 A 
ATOM     82  F   UNL A   1      39.524  26.019  29.220  1.00  0.00    -0.203 F 
ATOM     83  F   UNL A   1      42.772  27.761  25.199  1.00  0.00    -0.200 F 
ATOM     84  C   UNL A   1      41.348  26.102  26.093  1.00  0.00     0.200 A 
ATOM     85  F   UNL A   1      39.911  24.478  27.028  1.00  0.00    -0.200 F 
ATOM     86  F   UNL A   1      41.520  25.344  25.001  1.00  0.00    -0.200 F 
ENDBRANCH  52  76
BRANCH  64  87
ATOM     87  C   UNL A   1      44.211  27.847  34.578  1.00  0.00     0.064 A 
ATOM     88  C   UNL A   1      45.528  28.329  34.536  1.00  0.00     0.173 A 
ATOM     89  C   UNL A   1      43.979  26.633  35.243  1.00  0.00     0.173 A 
ATOM     90  F   UNL A   1      45.806  29.478  33.900  1.00  0.00    -0.203 F 
ATOM     91  C   UNL A   1      46.570  27.617  35.123  1.00  0.00     0.198 A 
ATOM     92  C   UNL A   1      45.019  25.941  35.858  1.00  0.00     0.198 A 
ATOM     93  F   UNL A   1      42.737  26.129  35.320  1.00  0.00    -0.203 F 
ATOM     94  F   UNL A   1      47.826  28.079  35.035  1.00  0.00    -0.200 F 
ATOM     95  C   UNL A   1      46.314  26.431  35.793  1.00  0.00     0.200 A 
ATOM     96  F   UNL A   1      44.766  24.803  36.520  1.00  0.00    -0.200 F 
ATOM     97  F   UNL A   1      47.317  25.757  36.373  1.00  0.00    -0.200 F 
ENDBRANCH  64  87
ENDBRANCH  38  39
ENDBRANCH  31  33
ENDBRANCH  30  31
ENDBRANCH  29  30
ENDBRANCH  28  29
ENDBRANCH  27  28
ENDBRANCH   1  27
TORSDOF 18
ENDMDL
MODEL 2
REMARK VINA RESULT:     -11.5      1.282      2.261
REMARK SMILES CC(C)CN(C)c1cc2c(cc1Cl)C=C(C(=O)OCCOCCOC(=O)c1ccc(-c3c4nc(c(-c5c(F)c(F)c(F)c(F)c5F)c5ccc([nH]5)c(-c5c(F)c(F)c(F)c(F)c5F)c5nc(c(-c6c(F)c(F)c(F)c(F)c6F)c6ccc3[nH]6)C=C5)C=C4)cc1)[C@@H](C(F)(F)F)O2
REMARK SMILES IDX 20 1 19 2 18 3 16 4 17 5 15 6 7 7 8 8 12 9 9 10 11 11 13 12
REMARK SMILES IDX 10 13 95 14 14 15 90 16 5 17 6 18 4 19 2 20 1 21 3 22 91 23
REMARK SMILES IDX 92 24 93 25 94 26 21 27 22 28 23 29 24 30 25 31 26 32 27 33
REMARK SMILES IDX 28 34 89 35 29 36 88 37 30 38 31 39 32 40 82 41 33 42 87 43
REMARK SMILES IDX 81 44 83 45 34 46 86 47 80 48 79 49 35 51 67 52 47 53 66 54
REMARK SMILES IDX 48 55 51 56 65 57 84 58 49 59 50 60 64 62 85 63 52 64 36 65
REMARK SMILES IDX 37 66 45 67 38 68 39 69 43 70 46 71 40 72 41 73 44 74 42 75
REMARK SMILES IDX 68 76 69 77 77 78 70 79 71 80 75 81 78 82 72 83 73 84 76 85
REMARK SMILES IDX 74 86 53 87 54 88 62 89 55 90 56 91 60 92 63 93 57 94 58 95
REMARK SMILES IDX 61 96 59 97
REMARK H PARENT 83 50 51 61
REMARK Flexibility Score: inf
ROOT
ATOM      1  C   UNL A   1      33.548  29.601  26.108  1.00  0.00     0.202 C 
ENDROOT
BRANCH   1   2
ATOM      2  C   UNL A   1      33.017  28.366  25.371  1.00  0.00     0.261 C 
BRANCH   2   3
ATOM      3  O   UNL A   1      33.175  27.150  26.117  1.00  0.00    -0.460 OA
BRANCH   3   4
ATOM      4  C   UNL A   1      32.029  26.736  26.708  1.00  0.00     0.338 C 
ATOM      5  O   UNL A   1      31.223  27.435  27.302  1.00  0.00    -0.246 OA
BRANCH   4   6
ATOM      6  C   UNL A   1      31.784  25.310  26.446  1.00  0.00     0.087 C 
ATOM      7  C   UNL A   1      32.915  20.626  25.080  1.00  0.00     0.059 A 
ATOM      8  C   UNL A   1      31.706  21.358  25.125  1.00  0.00     0.074 A 
ATOM      9  C   UNL A   1      34.069  21.262  25.589  1.00  0.00     0.065 A 
ATOM     10  C   UNL A   1      31.661  22.651  25.665  1.00  0.00     0.130 A 
ATOM     11  C   UNL A   1      33.989  22.478  26.262  1.00  0.00     0.034 A 
ATOM     12  Cl  UNL A   1      35.676  20.687  25.297  1.00  0.00    -0.082 Cl
ATOM     13  C   UNL A   1      32.788  23.175  26.289  1.00  0.00     0.019 A 
ATOM     14  O   UNL A   1      30.497  23.372  25.551  1.00  0.00    -0.475 OA
ATOM     15  C   UNL A   1      32.778  24.509  26.841  1.00  0.00     0.027 C 
ATOM     16  C   UNL A   1      30.611  24.833  25.637  1.00  0.00     0.316 C 
BRANCH   7  17
ATOM     17  N   UNL A   1      32.969  19.345  24.513  1.00  0.00    -0.373 N 
ATOM     18  C   UNL A   1      32.412  19.214  23.170  1.00  0.00     0.143 C 
BRANCH  17  19
ATOM     19  C   UNL A   1      32.870  18.161  25.400  1.00  0.00     0.119 C 
BRANCH  19  20
ATOM     20  C   UNL A   1      33.079  16.819  24.668  1.00  0.00     0.002 C 
ATOM     21  C   UNL A   1      34.559  16.544  24.379  1.00  0.00     0.009 C 
ATOM     22  C   UNL A   1      32.503  15.632  25.447  1.00  0.00     0.009 C 
ENDBRANCH  19  20
ENDBRANCH  17  19
ENDBRANCH   7  17
BRANCH  16  23
ATOM     23  C   UNL A   1      30.603  25.463  24.236  1.00  0.00     0.430 C 
ATOM     24  F   UNL A   1      29.832  24.755  23.377  1.00  0.00    -0.167 F 
ATOM     25  F   UNL A   1      30.091  26.719  24.269  1.00  0.00    -0.167 F 
ATOM     26  F   UNL A   1      31.841  25.547  23.701  1.00  0.00    -0.167 F 
ENDBRANCH  16  23
ENDBRANCH   4   6
ENDBRANCH   3   4
ENDBRANCH   2   3
ENDBRANCH   1   2
BRANCH   1  27
ATOM     27  O   UNL A   1      32.686  30.285  27.007  1.00  0.00    -0.374 OA
BRANCH  27  28
ATOM     28  C   UNL A   1      31.719  31.196  26.491  1.00  0.00     0.202 C 
BRANCH  28  29
ATOM     29  C   UNL A   1      31.781  32.674  26.899  1.00  0.00     0.261 C 
BRANCH  29  30
ATOM     30  O   UNL A   1      33.109  33.225  26.887  1.00  0.00    -0.460 OA
BRANCH  30  31
ATOM     31  C   UNL A   1      33.504  33.781  28.058  1.00  0.00     0.338 C 
ATOM     32  O   UNL A   1      32.911  34.622  28.721  1.00  0.00    -0.246 OA
BRANCH  31  33
ATOM     33  C   UNL A   1      34.703  33.086  28.551  1.00  0.00     0.060 A 
ATOM     34  C   UNL A   1      35.973  33.617  28.335  1.00  0.00     0.016 A 
ATOM     35  C   UNL A   1      34.534  31.913  29.299  1.00  0.00     0.016 A 
ATOM     36  C   UNL A   1      37.083  32.973  28.890  1.00  0.00     0.010 A 
ATOM     37  C   UNL A   1      35.642  31.272  29.849  1.00  0.00     0.010 A 
ATOM     38  C   UNL A   1      36.924  31.807  29.662  1.00  0.00    -0.014 A 
BRANCH  38  39
ATOM     39  C   UNL A   1      38.087  31.218  30.368  1.00  0.00     0.031 A 
ATOM     40  C   UNL A   1      38.416  31.595  31.781  1.00  0.00     0.074 A 
ATOM     41  C   UNL A   1      38.861  30.338  29.705  1.00  0.00     0.049 A 
ATOM     42  N   UNL A   1      39.355  31.123  32.560  1.00  0.00    -0.248 NA
ATOM     43  C   UNL A   1      37.589  32.641  32.397  1.00  0.00     0.031 C 
ATOM     44  C   UNL A   1      38.661  29.930  28.314  1.00  0.00     0.029 A 
ATOM     45  N   UNL A   1      39.962  29.625  30.109  1.00  0.00    -0.354 N 
ATOM     46  C   UNL A   1      39.220  31.795  33.766  1.00  0.00     0.074 A 
ATOM     47  C   UNL A   1      38.142  32.748  33.598  1.00  0.00     0.031 C 
ATOM     48  C   UNL A   1      39.586  29.014  27.990  1.00  0.00     0.029 A 
ATOM     49  C   UNL A   1      40.461  28.792  29.138  1.00  0.00     0.049 A 
ATOM     50  H   UNL A   1      40.355  29.703  31.008  1.00  0.00     0.167 HD
ATOM     51  C   UNL A   1      39.918  31.612  34.913  1.00  0.00     0.037 A 
ATOM     52  C   UNL A   1      41.504  27.941  29.171  1.00  0.00     0.037 A 
ATOM     53  C   UNL A   1      41.001  30.671  35.064  1.00  0.00     0.049 A 
ATOM     54  C   UNL A   1      42.294  27.794  30.443  1.00  0.00     0.074 A 
ATOM     55  C   UNL A   1      41.743  30.390  36.198  1.00  0.00     0.029 A 
ATOM     56  N   UNL A   1      41.504  29.870  34.050  1.00  0.00    -0.354 N 
ATOM     57  N   UNL A   1      42.105  28.374  31.603  1.00  0.00    -0.248 NA
ATOM     58  C   UNL A   1      43.434  26.870  30.413  1.00  0.00     0.031 C 
ATOM     59  C   UNL A   1      42.732  29.462  35.857  1.00  0.00     0.029 A 
ATOM     60  C   UNL A   1      42.569  29.118  34.525  1.00  0.00     0.049 A 
ATOM     61  H   UNL A   1      41.158  29.838  33.130  1.00  0.00     0.167 HD
ATOM     62  C   UNL A   1      43.089  27.873  32.445  1.00  0.00     0.074 A 
ATOM     63  C   UNL A   1      43.858  26.924  31.668  1.00  0.00     0.031 C 
ATOM     64  C   UNL A   1      43.332  28.177  33.744  1.00  0.00     0.037 A 
BRANCH  51  65
ATOM     65  C   UNL A   1      39.533  32.433  36.108  1.00  0.00     0.064 A 
ATOM     66  C   UNL A   1      40.121  33.684  36.354  1.00  0.00     0.173 A 
ATOM     67  C   UNL A   1      38.505  32.013  36.967  1.00  0.00     0.173 A 
ATOM     68  F   UNL A   1      41.112  34.129  35.566  1.00  0.00    -0.203 F 
ATOM     69  C   UNL A   1      39.705  34.476  37.420  1.00  0.00     0.198 A 
ATOM     70  C   UNL A   1      38.072  32.821  38.016  1.00  0.00     0.198 A 
ATOM     71  F   UNL A   1      37.902  30.832  36.773  1.00  0.00    -0.203 F 
ATOM     72  F   UNL A   1      40.302  35.654  37.651  1.00  0.00    -0.200 F 
ATOM     73  C   UNL A   1      38.674  34.050  38.244  1.00  0.00     0.200 A 
ATOM     74  F   UNL A   1      37.063  32.416  38.799  1.00  0.00    -0.200 F 
ATOM     75  F   UNL A   1      38.260  34.823  39.256  1.00  0.00    -0.200 F 
ENDBRANCH  51  65
BRANCH  52  76
ATOM     76  C   UNL A   1      41.831  27.136  27.966  1.00  0.00     0.064 A 
ATOM     77  C   UNL A   1      41.251  25.876  27.764  1.00  0.00     0.173 A 
ATOM     78  C   UNL A   1      42.708  27.616  26.982  1.00  0.00     0.173 A 
ATOM     79  F   UNL A   1      40.420  25.366  28.685  1.00  0.00    -0.203 F 
ATOM     80  C   UNL A   1      41.541  25.124  26.628  1.00  0.00     0.198 A 
ATOM     81  C   UNL A   1      42.974  26.876  25.832  1.00  0.00     0.198 A 
ATOM     82  F   UNL A   1      43.286  28.818  27.126  1.00  0.00    -0.203 F 
ATOM     83  F   UNL A   1      40.999  23.909  26.476  1.00  0.00    -0.200 F 
ATOM     84  C   UNL A   1      42.395  25.629  25.659  1.00  0.00     0.200 A 
ATOM     85  F   UNL A   1      43.786  27.376  24.890  1.00  0.00    -0.200 F 
ATOM     86  F   UNL A   1      42.663  24.911  24.559  1.00  0.00    -0.200 F 
ENDBRANCH  52  76
BRANCH  64  87
ATOM     87  C   UNL A   1      44.473  27.472  34.421  1.00  0.00     0.064 A 
ATOM     88  C   UNL A   1      44.313  26.203  34.998  1.00  0.00     0.173 A 
ATOM     89  C   UNL A   1      45.757  28.039  34.432  1.00  0.00     0.173 A 
ATOM     90  F   UNL A   1      43.104  25.623  35.027  1.00  0.00    -0.203 F 
ATOM     91  C   UNL A   1      45.391  25.538  35.576  1.00  0.00     0.198 A 
ATOM     92  C   UNL A   1      46.839  27.357  34.980  1.00  0.00     0.198 A 
ATOM     93  F   UNL A   1      45.968  29.247  33.887  1.00  0.00    -0.203 F 
ATOM     94  F   UNL A   1      45.205  24.344  36.157  1.00  0.00    -0.200 F 
ATOM     95  C   UNL A   1      46.654  26.109  35.556  1.00  0.00     0.200 A 
ATOM     96  F   UNL A   1      48.063  27.902  34.945  1.00  0.00    -0.200 F 
ATOM     97  F   UNL A   1      47.694  25.458  36.097  1.00  0.00    -0.200 F 
ENDBRANCH  64  87
ENDBRANCH  38  39
ENDBRANCH  31  33
ENDBRANCH  30  31
ENDBRANCH  29  30
ENDBRANCH  28  29
ENDBRANCH  27  28
ENDBRANCH   1  27
TORSDOF 18
ENDMDL
MODEL 3
REMARK VINA RESULT:     -11.3      0.390      7.092
REMARK SMILES CC(C)CN(C)c1cc2c(cc1Cl)C=C(C(=O)OCCOCCOC(=O)c1ccc(-c3c4nc(c(-c5c(F)c(F)c(F)c(F)c5F)c5ccc([nH]5)c(-c5c(F)c(F)c(F)c(F)c5F)c5nc(c(-c6c(F)c(F)c(F)c(F)c6F)c6ccc3[nH]6)C=C5)C=C4)cc1)[C@@H](C(F)(F)F)O2
REMARK SMILES IDX 20 1 19 2 18 3 16 4 17 5 15 6 7 7 8 8 12 9 9 10 11 11 13 12
REMARK SMILES IDX 10 13 95 14 14 15 90 16 5 17 6 18 4 19 2 20 1 21 3 22 91 23
REMARK SMILES IDX 92 24 93 25 94 26 21 27 22 28 23 29 24 30 25 31 26 32 27 33
REMARK SMILES IDX 28 34 89 35 29 36 88 37 30 38 31 39 32 40 82 41 33 42 87 43
REMARK SMILES IDX 81 44 83 45 34 46 86 47 80 48 79 49 35 51 67 52 47 53 66 54
REMARK SMILES IDX 48 55 51 56 65 57 84 58 49 59 50 60 64 62 85 63 52 64 36 65
REMARK SMILES IDX 37 66 45 67 38 68 39 69 43 70 46 71 40 72 41 73 44 74 42 75
REMARK SMILES IDX 68 76 69 77 77 78 70 79 71 80 75 81 78 82 72 83 73 84 76 85
REMARK SMILES IDX 74 86 53 87 54 88 62 89 55 90 56 91 60 92 63 93 57 94 58 95
REMARK SMILES IDX 61 96 59 97
REMARK H PARENT 83 50 51 61
REMARK Flexibility Score: inf
ROOT
ATOM      1  C   UNL A   1      33.473  30.058  26.740  1.00  0.00     0.202 C 
ENDROOT
BRANCH   1   2
ATOM      2  C   UNL A   1      32.747  29.579  25.478  1.00  0.00     0.261 C 
BRANCH   2   3
ATOM      3  O   UNL A   1      31.712  28.621  25.749  1.00  0.00    -0.460 OA
BRANCH   3   4
ATOM      4  C   UNL A   1      31.023  28.257  24.643  1.00  0.00     0.338 C 
ATOM      5  O   UNL A   1      30.411  28.998  23.889  1.00  0.00    -0.246 OA
BRANCH   4   6
ATOM      6  C   UNL A   1      31.192  26.823  24.362  1.00  0.00     0.087 C 
ATOM      7  C   UNL A   1      32.708  22.123  25.198  1.00  0.00     0.059 A 
ATOM      8  C   UNL A   1      32.386  22.844  24.025  1.00  0.00     0.074 A 
ATOM      9  C   UNL A   1      32.503  22.781  26.431  1.00  0.00     0.065 A 
ATOM     10  C   UNL A   1      31.874  24.148  24.092  1.00  0.00     0.130 A 
ATOM     11  C   UNL A   1      31.852  24.009  26.499  1.00  0.00     0.034 A 
ATOM     12  Cl  UNL A   1      33.162  22.215  27.929  1.00  0.00    -0.082 Cl
ATOM     13  C   UNL A   1      31.549  24.695  25.330  1.00  0.00     0.019 A 
ATOM     14  O   UNL A   1      31.717  24.855  22.925  1.00  0.00    -0.475 OA
ATOM     15  C   UNL A   1      31.034  26.040  25.433  1.00  0.00     0.027 C 
ATOM     16  C   UNL A   1      31.686  26.319  23.036  1.00  0.00     0.316 C 
BRANCH   7  17
ATOM     17  N   UNL A   1      33.248  20.832  25.132  1.00  0.00    -0.373 N 
ATOM     18  C   UNL A   1      34.700  20.749  25.008  1.00  0.00     0.143 C 
BRANCH  17  19
ATOM     19  C   UNL A   1      32.457  19.753  24.493  1.00  0.00     0.119 C 
BRANCH  19  20
ATOM     20  C   UNL A   1      33.165  18.382  24.493  1.00  0.00     0.002 C 
ATOM     21  C   UNL A   1      32.652  17.468  25.612  1.00  0.00     0.009 C 
ATOM     22  C   UNL A   1      33.019  17.648  23.156  1.00  0.00     0.009 C 
ENDBRANCH  19  20
ENDBRANCH  17  19
ENDBRANCH   7  17
BRANCH  16  23
ATOM     23  C   UNL A   1      33.055  26.919  22.682  1.00  0.00     0.430 C 
ATOM     24  F   UNL A   1      33.680  26.200  21.721  1.00  0.00    -0.167 F 
ATOM     25  F   UNL A   1      32.924  28.180  22.197  1.00  0.00    -0.167 F 
ATOM     26  F   UNL A   1      33.882  26.982  23.749  1.00  0.00    -0.167 F 
ENDBRANCH  16  23
ENDBRANCH   4   6
ENDBRANCH   3   4
ENDBRANCH   2   3
ENDBRANCH   1   2
BRANCH   1  27
ATOM     27  O   UNL A   1      32.876  31.080  27.527  1.00  0.00    -0.374 OA
BRANCH  27  28
ATOM     28  C   UNL A   1      31.783  31.823  26.996  1.00  0.00     0.202 C 
BRANCH  28  29
ATOM     29  C   UNL A   1      31.838  33.356  26.999  1.00  0.00     0.261 C 
BRANCH  29  30
ATOM     30  O   UNL A   1      33.147  33.889  27.264  1.00  0.00    -0.460 OA
BRANCH  30  31
ATOM     31  C   UNL A   1      33.258  34.568  28.431  1.00  0.00     0.338 C 
ATOM     32  O   UNL A   1      32.503  35.425  28.870  1.00  0.00    -0.246 OA
BRANCH  31  33
ATOM     33  C   UNL A   1      34.351  33.993  29.230  1.00  0.00     0.060 A 
ATOM     34  C   UNL A   1      34.088  33.053  30.225  1.00  0.00     0.016 A 
ATOM     35  C   UNL A   1      35.668  34.362  28.923  1.00  0.00     0.016 A 
ATOM     36  C   UNL A   1      35.158  32.466  30.906  1.00  0.00     0.010 A 
ATOM     37  C   UNL A   1      36.732  33.777  29.607  1.00  0.00     0.010 A 
ATOM     38  C   UNL A   1      36.485  32.812  30.592  1.00  0.00    -0.014 A 
BRANCH  38  39
ATOM     39  C   UNL A   1      37.613  32.077  31.213  1.00  0.00     0.031 A 
ATOM     40  C   UNL A   1      38.345  30.999  30.474  1.00  0.00     0.074 A 
ATOM     41  C   UNL A   1      37.963  32.389  32.476  1.00  0.00     0.049 A 
ATOM     42  N   UNL A   1      39.392  30.309  30.850  1.00  0.00    -0.248 NA
ATOM     43  C   UNL A   1      37.833  30.644  29.143  1.00  0.00     0.031 C 
ATOM     44  C   UNL A   1      37.293  33.390  33.307  1.00  0.00     0.029 A 
ATOM     45  N   UNL A   1      38.966  31.905  33.276  1.00  0.00    -0.354 N 
ATOM     46  C   UNL A   1      39.681  29.455  29.795  1.00  0.00     0.074 A 
ATOM     47  C   UNL A   1      38.665  29.674  28.786  1.00  0.00     0.031 C 
ATOM     48  C   UNL A   1      37.925  33.472  34.487  1.00  0.00     0.029 A 
ATOM     49  C   UNL A   1      39.023  32.509  34.509  1.00  0.00     0.049 A 
ATOM     50  H   UNL A   1      39.587  31.195  32.995  1.00  0.00     0.167 HD
ATOM     51  C   UNL A   1      40.715  28.587  29.677  1.00  0.00     0.037 A 
ATOM     52  C   UNL A   1      39.868  32.313  35.538  1.00  0.00     0.037 A 
ATOM     53  C   UNL A   1      41.712  28.366  30.695  1.00  0.00     0.049 A 
ATOM     54  C   UNL A   1      40.978  31.307  35.398  1.00  0.00     0.074 A 
ATOM     55  C   UNL A   1      42.817  27.533  30.650  1.00  0.00     0.029 A 
ATOM     56  N   UNL A   1      41.717  28.967  31.945  1.00  0.00    -0.354 N 
ATOM     57  N   UNL A   1      41.291  30.564  34.365  1.00  0.00    -0.248 NA
ATOM     58  C   UNL A   1      41.854  31.119  36.561  1.00  0.00     0.031 C 
ATOM     59  C   UNL A   1      43.458  27.586  31.892  1.00  0.00     0.029 A 
ATOM     60  C   UNL A   1      42.789  28.499  32.692  1.00  0.00     0.049 A 
ATOM     61  H   UNL A   1      41.059  29.629  32.257  1.00  0.00     0.167 HD
ATOM     62  C   UNL A   1      42.410  29.834  34.746  1.00  0.00     0.074 A 
ATOM     63  C   UNL A   1      42.734  30.242  36.097  1.00  0.00     0.031 C 
ATOM     64  C   UNL A   1      43.102  28.908  34.038  1.00  0.00     0.037 A 
BRANCH  51  65
ATOM     65  C   UNL A   1      40.838  27.814  28.397  1.00  0.00     0.064 A 
ATOM     66  C   UNL A   1      41.607  28.295  27.326  1.00  0.00     0.173 A 
ATOM     67  C   UNL A   1      40.261  26.541  28.268  1.00  0.00     0.173 A 
ATOM     68  F   UNL A   1      42.176  29.508  27.395  1.00  0.00    -0.203 F 
ATOM     69  C   UNL A   1      41.782  27.538  26.170  1.00  0.00     0.198 A 
ATOM     70  C   UNL A   1      40.461  25.774  27.123  1.00  0.00     0.198 A 
ATOM     71  F   UNL A   1      39.525  26.028  29.266  1.00  0.00    -0.203 F 
ATOM     72  F   UNL A   1      42.496  28.032  25.149  1.00  0.00    -0.200 F 
ATOM     73  C   UNL A   1      41.218  26.275  26.073  1.00  0.00     0.200 A 
ATOM     74  F   UNL A   1      39.931  24.546  27.039  1.00  0.00    -0.200 F 
ATOM     75  F   UNL A   1      41.404  25.539  24.970  1.00  0.00    -0.200 F 
ENDBRANCH  51  65
BRANCH  52  76
ATOM     76  C   UNL A   1      39.715  33.120  36.776  1.00  0.00     0.064 A 
ATOM     77  C   UNL A   1      38.820  32.731  37.782  1.00  0.00     0.173 A 
ATOM     78  C   UNL A   1      40.475  34.280  36.991  1.00  0.00     0.173 A 
ATOM     79  F   UNL A   1      38.059  31.640  37.616  1.00  0.00    -0.203 F 
ATOM     80  C   UNL A   1      38.685  33.475  38.952  1.00  0.00     0.198 A 
ATOM     81  C   UNL A   1      40.361  35.006  38.175  1.00  0.00     0.198 A 
ATOM     82  F   UNL A   1      41.348  34.692  36.061  1.00  0.00    -0.203 F 
ATOM     83  F   UNL A   1      37.798  33.099  39.884  1.00  0.00    -0.200 F 
ATOM     84  C   UNL A   1      39.462  34.606  39.151  1.00  0.00     0.200 A 
ATOM     85  F   UNL A   1      41.126  36.089  38.370  1.00  0.00    -0.200 F 
ATOM     86  F   UNL A   1      39.342  35.314  40.283  1.00  0.00    -0.200 F 
ENDBRANCH  52  76
BRANCH  64  87
ATOM     87  C   UNL A   1      44.290  28.270  34.702  1.00  0.00     0.064 A 
ATOM     88  C   UNL A   1      45.555  28.876  34.682  1.00  0.00     0.173 A 
ATOM     89  C   UNL A   1      44.147  27.075  35.424  1.00  0.00     0.173 A 
ATOM     90  F   UNL A   1      45.748  30.012  33.993  1.00  0.00    -0.203 F 
ATOM     91  C   UNL A   1      46.635  28.301  35.346  1.00  0.00     0.198 A 
ATOM     92  C   UNL A   1      45.221  26.522  36.115  1.00  0.00     0.198 A 
ATOM     93  F   UNL A   1      42.957  26.458  35.483  1.00  0.00    -0.203 F 
ATOM     94  F   UNL A   1      47.843  28.878  35.279  1.00  0.00    -0.200 F 
ATOM     95  C   UNL A   1      46.465  27.132  36.071  1.00  0.00     0.200 A 
ATOM     96  F   UNL A   1      45.051  25.400  36.830  1.00  0.00    -0.200 F 
ATOM     97  F   UNL A   1      47.503  26.590  36.725  1.00  0.00    -0.200 F 
ENDBRANCH  64  87
ENDBRANCH  38  39
ENDBRANCH  31  33
ENDBRANCH  30  31
ENDBRANCH  29  30
ENDBRANCH  28  29
ENDBRANCH  27  28
ENDBRANCH   1  27
TORSDOF 18
ENDMDL
