MODEL 1
REMARK VINA RESULT:     -11.1      0.000      0.000
REMARK SMILES O=C(OCCOCCOC(=O)[C@@H]1C[N@@H+](CC(=O)c2ccc[nH]2)CC[NH2+]1)c1ccc(-c2c3nc(c(-c4c(F)c(F)c(F)c(F)c4F)c4ccc([nH]4)c(-c4c(F)c(F)c(F)c(F)c4F)c4nc(c(-c5c(F)c(F)c(F)c(F)c5F)c5ccc2[nH]5)C=C4)C=C3)cc1
REMARK SMILES IDX 7 1 6 2 5 3 4 4 3 5 2 6 1 7 26 8 27 9 88 10 28 11 87 12
REMARK SMILES IDX 29 13 30 14 31 15 81 16 32 17 86 18 80 19 82 20 33 21 85 22
REMARK SMILES IDX 79 23 78 24 34 26 66 27 46 28 65 29 47 30 50 31 64 32 83 33
REMARK SMILES IDX 48 34 49 35 63 37 84 38 51 39 35 40 36 41 44 42 37 43 38 44
REMARK SMILES IDX 42 45 45 46 39 47 40 48 43 49 41 50 67 51 68 52 76 53 69 54
REMARK SMILES IDX 70 55 74 56 77 57 71 58 72 59 75 60 73 61 52 62 53 63 61 64
REMARK SMILES IDX 54 65 55 66 59 67 62 68 56 69 57 70 60 71 58 72 8 73 9 74
REMARK SMILES IDX 10 75 11 76 12 77 13 78 25 79 14 80 24 81 23 84 15 86 16 87
REMARK SMILES IDX 17 88 18 89 19 90 22 91 20 92 21 93
REMARK H PARENT 82 25 50 36 25 82 25 83 14 85 22 94
REMARK Flexibility Score: inf
ROOT
ATOM      1  C   UNL A   1      32.484  28.093  25.330  1.00  0.00     0.202 C 
ENDROOT
BRANCH   1   2
ATOM      2  O   UNL A   1      33.303  29.236  25.618  1.00  0.00    -0.374 OA
BRANCH   2   3
ATOM      3  C   UNL A   1      32.777  30.257  26.467  1.00  0.00     0.202 C 
BRANCH   3   4
ATOM      4  C   UNL A   1      33.692  30.835  27.564  1.00  0.00     0.261 C 
BRANCH   4   5
ATOM      5  O   UNL A   1      34.935  30.135  27.711  1.00  0.00    -0.460 OA
BRANCH   5   6
ATOM      6  C   UNL A   1      36.161  30.656  27.948  1.00  0.00     0.338 C 
ATOM      7  O   UNL A   1      36.301  31.877  27.997  1.00  0.00    -0.246 OA
BRANCH   6   8
ATOM      8  C   UNL A   1      37.350  29.809  28.227  1.00  0.00     0.060 A 
ATOM      9  C   UNL A   1      38.539  29.835  27.495  1.00  0.00     0.016 A 
ATOM     10  C   UNL A   1      37.269  28.974  29.355  1.00  0.00     0.016 A 
ATOM     11  C   UNL A   1      39.568  28.953  27.773  1.00  0.00     0.010 A 
ATOM     12  C   UNL A   1      38.330  28.145  29.699  1.00  0.00     0.010 A 
ATOM     13  C   UNL A   1      39.469  28.128  28.890  1.00  0.00    -0.014 A 
BRANCH  13  14
ATOM     14  C   UNL A   1      40.696  27.432  29.311  1.00  0.00     0.031 A 
ATOM     15  C   UNL A   1      40.861  26.087  28.585  1.00  0.00     0.074 A 
ATOM     16  C   UNL A   1      41.446  28.061  30.258  1.00  0.00     0.049 A 
ATOM     17  N   UNL A   1      41.575  25.047  28.894  1.00  0.00    -0.248 NA
ATOM     18  C   UNL A   1      40.059  25.841  27.351  1.00  0.00     0.031 C 
ATOM     19  C   UNL A   1      41.092  29.360  30.861  1.00  0.00     0.029 A 
ATOM     20  N   UNL A   1      42.622  27.760  30.913  1.00  0.00    -0.354 N 
ATOM     21  C   UNL A   1      41.499  24.160  27.798  1.00  0.00     0.074 A 
ATOM     22  C   UNL A   1      40.433  24.622  26.967  1.00  0.00     0.031 C 
ATOM     23  C   UNL A   1      41.978  29.703  31.816  1.00  0.00     0.029 A 
ATOM     24  C   UNL A   1      43.012  28.691  31.910  1.00  0.00     0.049 A 
ATOM     25  H   UNL A   1      43.153  26.958  30.702  1.00  0.00     0.167 HD
ATOM     26  C   UNL A   1      42.450  23.218  27.535  1.00  0.00     0.037 A 
ATOM     27  C   UNL A   1      44.076  28.640  32.771  1.00  0.00     0.037 A 
ATOM     28  C   UNL A   1      43.404  23.171  28.590  1.00  0.00     0.049 A 
ATOM     29  C   UNL A   1      44.892  27.502  32.312  1.00  0.00     0.074 A 
ATOM     30  C   UNL A   1      43.370  22.690  29.871  1.00  0.00     0.029 A 
ATOM     31  N   UNL A   1      44.523  23.952  28.440  1.00  0.00    -0.354 N 
ATOM     32  N   UNL A   1      45.614  27.507  31.230  1.00  0.00    -0.248 NA
ATOM     33  C   UNL A   1      44.837  26.237  33.052  1.00  0.00     0.031 C 
ATOM     34  C   UNL A   1      44.270  23.517  30.577  1.00  0.00     0.029 A 
ATOM     35  C   UNL A   1      44.894  24.395  29.685  1.00  0.00     0.049 A 
ATOM     36  H   UNL A   1      44.978  24.157  27.592  1.00  0.00     0.167 HD
ATOM     37  C   UNL A   1      45.815  26.165  31.003  1.00  0.00     0.074 A 
ATOM     38  C   UNL A   1      45.616  25.497  32.267  1.00  0.00     0.031 C 
ATOM     39  C   UNL A   1      45.596  25.657  29.764  1.00  0.00     0.037 A 
BRANCH  26  40
ATOM     40  C   UNL A   1      42.810  22.513  26.249  1.00  0.00     0.064 A 
ATOM     41  C   UNL A   1      42.762  21.097  26.241  1.00  0.00     0.173 A 
ATOM     42  C   UNL A   1      43.552  23.109  25.219  1.00  0.00     0.173 A 
ATOM     43  F   UNL A   1      42.030  20.428  27.146  1.00  0.00    -0.203 F 
ATOM     44  C   UNL A   1      43.549  20.337  25.376  1.00  0.00     0.198 A 
ATOM     45  C   UNL A   1      44.294  22.341  24.317  1.00  0.00     0.198 A 
ATOM     46  F   UNL A   1      43.674  24.437  25.118  1.00  0.00    -0.203 F 
ATOM     47  F   UNL A   1      43.604  19.005  25.521  1.00  0.00    -0.200 F 
ATOM     48  C   UNL A   1      44.334  20.962  24.430  1.00  0.00     0.200 A 
ATOM     49  F   UNL A   1      45.042  22.952  23.389  1.00  0.00    -0.200 F 
ATOM     50  F   UNL A   1      45.158  20.245  23.654  1.00  0.00    -0.200 F 
ENDBRANCH  26  40
BRANCH  27  51
ATOM     51  C   UNL A   1      44.552  29.379  34.004  1.00  0.00     0.064 A 
ATOM     52  C   UNL A   1      45.753  30.091  34.132  1.00  0.00     0.173 A 
ATOM     53  C   UNL A   1      43.715  29.459  35.156  1.00  0.00     0.173 A 
ATOM     54  F   UNL A   1      46.714  30.008  33.210  1.00  0.00    -0.203 F 
ATOM     55  C   UNL A   1      46.031  30.907  35.245  1.00  0.00     0.198 A 
ATOM     56  C   UNL A   1      43.971  30.295  36.243  1.00  0.00     0.198 A 
ATOM     57  F   UNL A   1      42.602  28.724  35.271  1.00  0.00    -0.203 F 
ATOM     58  F   UNL A   1      47.188  31.581  35.299  1.00  0.00    -0.200 F 
ATOM     59  C   UNL A   1      45.124  31.039  36.280  1.00  0.00     0.200 A 
ATOM     60  F   UNL A   1      43.076  30.381  37.238  1.00  0.00    -0.200 F 
ATOM     61  F   UNL A   1      45.365  31.863  37.309  1.00  0.00    -0.200 F 
ENDBRANCH  27  51
BRANCH  39  62
ATOM     62  C   UNL A   1      45.716  26.687  28.656  1.00  0.00     0.064 A 
ATOM     63  C   UNL A   1      44.580  27.088  27.939  1.00  0.00     0.173 A 
ATOM     64  C   UNL A   1      46.943  27.193  28.197  1.00  0.00     0.173 A 
ATOM     65  F   UNL A   1      43.365  26.671  28.325  1.00  0.00    -0.203 F 
ATOM     66  C   UNL A   1      44.676  27.922  26.820  1.00  0.00     0.198 A 
ATOM     67  C   UNL A   1      47.045  28.026  27.082  1.00  0.00     0.198 A 
ATOM     68  F   UNL A   1      48.073  26.899  28.832  1.00  0.00    -0.203 F 
ATOM     69  F   UNL A   1      43.567  28.282  26.160  1.00  0.00    -0.200 F 
ATOM     70  C   UNL A   1      45.908  28.385  26.388  1.00  0.00     0.200 A 
ATOM     71  F   UNL A   1      48.246  28.481  26.693  1.00  0.00    -0.200 F 
ATOM     72  F   UNL A   1      45.999  29.188  25.318  1.00  0.00    -0.200 F 
ENDBRANCH  39  62
ENDBRANCH  13  14
ENDBRANCH   6   8
ENDBRANCH   5   6
ENDBRANCH   4   5
ENDBRANCH   3   4
ENDBRANCH   2   3
ENDBRANCH   1   2
BRANCH   1  73
ATOM     73  C   UNL A   1      31.644  28.114  24.052  1.00  0.00     0.261 C 
BRANCH  73  74
ATOM     74  O   UNL A   1      31.449  26.779  23.559  1.00  0.00    -0.459 OA
BRANCH  74  75
ATOM     75  C   UNL A   1      30.355  26.141  24.068  1.00  0.00     0.371 C 
ATOM     76  O   UNL A   1      29.210  26.367  23.724  1.00  0.00    -0.245 OA
BRANCH  75  77
ATOM     77  C   UNL A   1      30.761  24.949  24.949  1.00  0.00     0.348 C 
ATOM     78  C   UNL A   1      30.940  23.703  24.065  1.00  0.00     0.341 C 
ATOM     79  N   UNL A   1      29.852  24.694  26.096  1.00  0.00    -0.325 N 
ATOM     80  N   UNL A   1      31.407  22.506  24.775  1.00  0.00    -0.318 N 
ATOM     81  C   UNL A   1      30.385  23.558  26.876  1.00  0.00     0.323 C 
ATOM     82  H   UNL A   1      28.919  24.467  25.751  1.00  0.00     0.347 HD
ATOM     83  H   UNL A   1      29.792  25.524  26.685  1.00  0.00     0.347 HD
ATOM     84  C   UNL A   1      30.676  22.289  26.033  1.00  0.00     0.324 C 
ATOM     85  H   UNL A   1      31.154  21.710  24.188  1.00  0.00     0.348 HD
BRANCH  80  86
ATOM     86  C   UNL A   1      32.873  22.350  24.841  1.00  0.00     0.346 C 
BRANCH  86  87
ATOM     87  C   UNL A   1      33.397  21.189  25.689  1.00  0.00     0.232 C 
ATOM     88  O   UNL A   1      34.142  21.408  26.649  1.00  0.00    -0.286 OA
BRANCH  87  89
ATOM     89  C   UNL A   1      33.033  19.823  25.343  1.00  0.00     0.088 A 
ATOM     90  C   UNL A   1      32.784  19.195  24.134  1.00  0.00     0.031 A 
ATOM     91  N   UNL A   1      32.903  18.856  26.320  1.00  0.00    -0.359 N 
ATOM     92  C   UNL A   1      32.590  17.814  24.390  1.00  0.00     0.020 A 
ATOM     93  C   UNL A   1      32.666  17.636  25.751  1.00  0.00     0.083 A 
ATOM     94  H   UNL A   1      32.972  19.022  27.288  1.00  0.00     0.166 HD
ENDBRANCH  87  89
ENDBRANCH  86  87
ENDBRANCH  80  86
ENDBRANCH  75  77
ENDBRANCH  74  75
ENDBRANCH  73  74
ENDBRANCH   1  73
TORSDOF 17
ENDMDL
MODEL 2
REMARK VINA RESULT:     -11.1      5.738     11.230
REMARK SMILES O=C(OCCOCCOC(=O)[C@@H]1C[N@@H+](CC(=O)c2ccc[nH]2)CC[NH2+]1)c1ccc(-c2c3nc(c(-c4c(F)c(F)c(F)c(F)c4F)c4ccc([nH]4)c(-c4c(F)c(F)c(F)c(F)c4F)c4nc(c(-c5c(F)c(F)c(F)c(F)c5F)c5ccc2[nH]5)C=C4)C=C3)cc1
REMARK SMILES IDX 7 1 6 2 5 3 4 4 3 5 2 6 1 7 26 8 27 9 88 10 28 11 87 12
REMARK SMILES IDX 29 13 30 14 31 15 81 16 32 17 86 18 80 19 82 20 33 21 85 22
REMARK SMILES IDX 79 23 78 24 34 26 66 27 46 28 65 29 47 30 50 31 64 32 83 33
REMARK SMILES IDX 48 34 49 35 63 37 84 38 51 39 35 40 36 41 44 42 37 43 38 44
REMARK SMILES IDX 42 45 45 46 39 47 40 48 43 49 41 50 67 51 68 52 76 53 69 54
REMARK SMILES IDX 70 55 74 56 77 57 71 58 72 59 75 60 73 61 52 62 53 63 61 64
REMARK SMILES IDX 54 65 55 66 59 67 62 68 56 69 57 70 60 71 58 72 8 73 9 74
REMARK SMILES IDX 10 75 11 76 12 77 13 78 25 79 14 80 24 81 23 84 15 86 16 87
REMARK SMILES IDX 17 88 18 89 19 90 22 91 20 92 21 93
REMARK H PARENT 82 25 50 36 25 82 25 83 14 85 22 94
REMARK Flexibility Score: inf
ROOT
ATOM      1  C   UNL A   1      42.184  19.153  27.165  1.00  0.00     0.202 C 
ENDROOT
BRANCH   1   2
ATOM      2  O   UNL A   1      41.646  20.141  26.273  1.00  0.00    -0.374 OA
BRANCH   2   3
ATOM      3  C   UNL A   1      40.504  20.889  26.692  1.00  0.00     0.202 C 
BRANCH   3   4
ATOM      4  C   UNL A   1      40.698  21.970  27.774  1.00  0.00     0.261 C 
BRANCH   4   5
ATOM      5  O   UNL A   1      40.581  23.312  27.280  1.00  0.00    -0.460 OA
BRANCH   5   6
ATOM      6  C   UNL A   1      39.501  24.125  27.330  1.00  0.00     0.338 C 
ATOM      7  O   UNL A   1      38.402  23.694  26.985  1.00  0.00    -0.246 OA
BRANCH   6   8
ATOM      8  C   UNL A   1      39.569  25.513  27.857  1.00  0.00     0.060 A 
ATOM      9  C   UNL A   1      39.285  25.882  29.174  1.00  0.00     0.016 A 
ATOM     10  C   UNL A   1      40.015  26.499  26.960  1.00  0.00     0.016 A 
ATOM     11  C   UNL A   1      39.294  27.210  29.560  1.00  0.00     0.010 A 
ATOM     12  C   UNL A   1      40.113  27.826  27.360  1.00  0.00     0.010 A 
ATOM     13  C   UNL A   1      39.733  28.175  28.658  1.00  0.00    -0.014 A 
BRANCH  13  14
ATOM     14  C   UNL A   1      40.006  29.516  29.201  1.00  0.00     0.031 A 
ATOM     15  C   UNL A   1      38.804  30.457  29.015  1.00  0.00     0.074 A 
ATOM     16  C   UNL A   1      41.242  29.703  29.740  1.00  0.00     0.049 A 
ATOM     17  N   UNL A   1      38.742  31.755  29.028  1.00  0.00    -0.248 NA
ATOM     18  C   UNL A   1      37.472  29.859  28.708  1.00  0.00     0.031 C 
ATOM     19  C   UNL A   1      42.283  28.659  29.797  1.00  0.00     0.029 A 
ATOM     20  N   UNL A   1      41.886  30.772  30.328  1.00  0.00    -0.354 N 
ATOM     21  C   UNL A   1      37.374  32.099  28.983  1.00  0.00     0.074 A 
ATOM     22  C   UNL A   1      36.664  30.914  28.621  1.00  0.00     0.031 C 
ATOM     23  C   UNL A   1      43.424  29.148  30.319  1.00  0.00     0.029 A 
ATOM     24  C   UNL A   1      43.239  30.538  30.686  1.00  0.00     0.049 A 
ATOM     25  H   UNL A   1      41.438  31.634  30.489  1.00  0.00     0.167 HD
ATOM     26  C   UNL A   1      36.889  33.286  29.446  1.00  0.00     0.037 A 
ATOM     27  C   UNL A   1      44.154  31.407  31.216  1.00  0.00     0.037 A 
ATOM     28  C   UNL A   1      37.961  34.147  29.816  1.00  0.00     0.049 A 
ATOM     29  C   UNL A   1      43.389  32.619  31.555  1.00  0.00     0.074 A 
ATOM     30  C   UNL A   1      38.877  34.870  29.102  1.00  0.00     0.029 A 
ATOM     31  N   UNL A   1      38.355  34.107  31.130  1.00  0.00    -0.354 N 
ATOM     32  N   UNL A   1      42.554  32.705  32.549  1.00  0.00    -0.248 NA
ATOM     33  C   UNL A   1      43.482  33.793  30.681  1.00  0.00     0.031 C 
ATOM     34  C   UNL A   1      40.013  34.916  29.940  1.00  0.00     0.029 A 
ATOM     35  C   UNL A   1      39.711  34.315  31.167  1.00  0.00     0.049 A 
ATOM     36  H   UNL A   1      37.770  33.954  31.906  1.00  0.00     0.167 HD
ATOM     37  C   UNL A   1      41.802  33.805  32.209  1.00  0.00     0.074 A 
ATOM     38  C   UNL A   1      42.595  34.579  31.284  1.00  0.00     0.031 C 
ATOM     39  C   UNL A   1      40.448  33.733  32.266  1.00  0.00     0.037 A 
BRANCH  26  40
ATOM     40  C   UNL A   1      35.505  33.673  29.908  1.00  0.00     0.064 A 
ATOM     41  C   UNL A   1      34.710  34.448  29.027  1.00  0.00     0.173 A 
ATOM     42  C   UNL A   1      35.107  33.671  31.252  1.00  0.00     0.173 A 
ATOM     43  F   UNL A   1      34.967  34.471  27.709  1.00  0.00    -0.203 F 
ATOM     44  C   UNL A   1      33.709  35.300  29.491  1.00  0.00     0.198 A 
ATOM     45  C   UNL A   1      34.062  34.483  31.705  1.00  0.00     0.198 A 
ATOM     46  F   UNL A   1      35.774  32.979  32.183  1.00  0.00    -0.203 F 
ATOM     47  F   UNL A   1      33.103  36.142  28.642  1.00  0.00    -0.200 F 
ATOM     48  C   UNL A   1      33.402  35.334  30.835  1.00  0.00     0.200 A 
ATOM     49  F   UNL A   1      33.758  34.501  33.010  1.00  0.00    -0.200 F 
ATOM     50  F   UNL A   1      32.503  36.211  31.302  1.00  0.00    -0.200 F 
ENDBRANCH  26  40
BRANCH  27  51
ATOM     51  C   UNL A   1      45.647  31.438  31.473  1.00  0.00     0.064 A 
ATOM     52  C   UNL A   1      46.274  31.363  32.724  1.00  0.00     0.173 A 
ATOM     53  C   UNL A   1      46.560  31.473  30.378  1.00  0.00     0.173 A 
ATOM     54  F   UNL A   1      45.580  31.465  33.860  1.00  0.00    -0.203 F 
ATOM     55  C   UNL A   1      47.667  31.206  32.862  1.00  0.00     0.198 A 
ATOM     56  C   UNL A   1      47.935  31.282  30.509  1.00  0.00     0.198 A 
ATOM     57  F   UNL A   1      46.147  31.694  29.124  1.00  0.00    -0.203 F 
ATOM     58  F   UNL A   1      48.206  31.118  34.085  1.00  0.00    -0.200 F 
ATOM     59  C   UNL A   1      48.490  31.126  31.754  1.00  0.00     0.200 A 
ATOM     60  F   UNL A   1      48.705  31.230  29.412  1.00  0.00    -0.200 F 
ATOM     61  F   UNL A   1      49.808  30.917  31.887  1.00  0.00    -0.200 F 
ENDBRANCH  27  51
BRANCH  39  62
ATOM     62  C   UNL A   1      39.937  32.675  33.227  1.00  0.00     0.064 A 
ATOM     63  C   UNL A   1      39.248  31.554  32.742  1.00  0.00     0.173 A 
ATOM     64  C   UNL A   1      39.996  32.802  34.624  1.00  0.00     0.173 A 
ATOM     65  F   UNL A   1      39.165  31.342  31.420  1.00  0.00    -0.203 F 
ATOM     66  C   UNL A   1      38.639  30.637  33.605  1.00  0.00     0.198 A 
ATOM     67  C   UNL A   1      39.392  31.891  35.490  1.00  0.00     0.198 A 
ATOM     68  F   UNL A   1      40.657  33.812  35.181  1.00  0.00    -0.203 F 
ATOM     69  F   UNL A   1      37.988  29.579  33.103  1.00  0.00    -0.200 F 
ATOM     70  C   UNL A   1      38.705  30.809  34.978  1.00  0.00     0.200 A 
ATOM     71  F   UNL A   1      39.486  32.064  36.818  1.00  0.00    -0.200 F 
ATOM     72  F   UNL A   1      38.125  29.928  35.805  1.00  0.00    -0.200 F 
ENDBRANCH  39  62
ENDBRANCH  13  14
ENDBRANCH   6   8
ENDBRANCH   5   6
ENDBRANCH   4   5
ENDBRANCH   3   4
ENDBRANCH   2   3
ENDBRANCH   1   2
BRANCH   1  73
ATOM     73  C   UNL A   1      43.102  18.079  26.577  1.00  0.00     0.261 C 
BRANCH  73  74
ATOM     74  O   UNL A   1      43.579  18.483  25.284  1.00  0.00    -0.459 OA
BRANCH  74  75
ATOM     75  C   UNL A   1      44.893  18.855  25.256  1.00  0.00     0.371 C 
ATOM     76  O   UNL A   1      45.821  18.077  25.135  1.00  0.00    -0.245 OA
BRANCH  75  77
ATOM     77  C   UNL A   1      45.041  20.381  25.159  1.00  0.00     0.348 C 
ATOM     78  C   UNL A   1      44.034  20.923  24.130  1.00  0.00     0.341 C 
ATOM     79  N   UNL A   1      46.424  20.849  24.886  1.00  0.00    -0.325 N 
ATOM     80  N   UNL A   1      44.016  22.385  23.997  1.00  0.00    -0.318 N 
ATOM     81  C   UNL A   1      46.426  22.326  24.865  1.00  0.00     0.323 C 
ATOM     82  H   UNL A   1      46.736  20.491  23.983  1.00  0.00     0.347 HD
ATOM     83  H   UNL A   1      47.056  20.510  25.611  1.00  0.00     0.347 HD
ATOM     84  C   UNL A   1      45.372  22.950  23.913  1.00  0.00     0.324 C 
ATOM     85  H   UNL A   1      43.596  22.584  23.088  1.00  0.00     0.348 HD
BRANCH  80  86
ATOM     86  C   UNL A   1      43.077  23.083  24.897  1.00  0.00     0.346 C 
BRANCH  86  87
ATOM     87  C   UNL A   1      43.694  23.816  26.089  1.00  0.00     0.232 C 
ATOM     88  O   UNL A   1      44.081  23.183  27.075  1.00  0.00    -0.286 OA
BRANCH  87  89
ATOM     89  C   UNL A   1      43.802  25.267  26.065  1.00  0.00     0.088 A 
ATOM     90  C   UNL A   1      44.588  26.163  26.772  1.00  0.00     0.031 A 
ATOM     91  N   UNL A   1      43.043  26.020  25.190  1.00  0.00    -0.359 N 
ATOM     92  C   UNL A   1      44.356  27.459  26.246  1.00  0.00     0.020 A 
ATOM     93  C   UNL A   1      43.394  27.339  25.272  1.00  0.00     0.083 A 
ATOM     94  H   UNL A   1      42.349  25.658  24.592  1.00  0.00     0.166 HD
ENDBRANCH  87  89
ENDBRANCH  86  87
ENDBRANCH  80  86
ENDBRANCH  75  77
ENDBRANCH  74  75
ENDBRANCH  73  74
ENDBRANCH   1  73
TORSDOF 17
ENDMDL
MODEL 3
REMARK VINA RESULT:     -11.1      8.399     13.794
REMARK SMILES O=C(OCCOCCOC(=O)[C@@H]1C[N@@H+](CC(=O)c2ccc[nH]2)CC[NH2+]1)c1ccc(-c2c3nc(c(-c4c(F)c(F)c(F)c(F)c4F)c4ccc([nH]4)c(-c4c(F)c(F)c(F)c(F)c4F)c4nc(c(-c5c(F)c(F)c(F)c(F)c5F)c5ccc2[nH]5)C=C4)C=C3)cc1
REMARK SMILES IDX 7 1 6 2 5 3 4 4 3 5 2 6 1 7 26 8 27 9 88 10 28 11 87 12
REMARK SMILES IDX 29 13 30 14 31 15 81 16 32 17 86 18 80 19 82 20 33 21 85 22
REMARK SMILES IDX 79 23 78 24 34 26 66 27 46 28 65 29 47 30 50 31 64 32 83 33
REMARK SMILES IDX 48 34 49 35 63 37 84 38 51 39 35 40 36 41 44 42 37 43 38 44
REMARK SMILES IDX 42 45 45 46 39 47 40 48 43 49 41 50 67 51 68 52 76 53 69 54
REMARK SMILES IDX 70 55 74 56 77 57 71 58 72 59 75 60 73 61 52 62 53 63 61 64
REMARK SMILES IDX 54 65 55 66 59 67 62 68 56 69 57 70 60 71 58 72 8 73 9 74
REMARK SMILES IDX 10 75 11 76 12 77 13 78 25 79 14 80 24 81 23 84 15 86 16 87
REMARK SMILES IDX 17 88 18 89 19 90 22 91 20 92 21 93
REMARK H PARENT 82 25 50 36 25 82 25 83 14 85 22 94
REMARK Flexibility Score: inf
ROOT
ATOM      1  C   UNL A   1      46.031  18.957  38.234  1.00  0.00     0.202 C 
ENDROOT
BRANCH   1   2
ATOM      2  O   UNL A   1      46.139  20.297  38.736  1.00  0.00    -0.374 OA
BRANCH   2   3
ATOM      3  C   UNL A   1      46.621  21.318  37.862  1.00  0.00     0.202 C 
BRANCH   3   4
ATOM      4  C   UNL A   1      45.900  22.680  37.864  1.00  0.00     0.261 C 
BRANCH   4   5
ATOM      5  O   UNL A   1      45.809  23.290  36.569  1.00  0.00    -0.460 OA
BRANCH   5   6
ATOM      6  C   UNL A   1      45.543  24.584  36.277  1.00  0.00     0.338 C 
ATOM      7  O   UNL A   1      45.536  25.420  37.178  1.00  0.00    -0.246 OA
BRANCH   6   8
ATOM      8  C   UNL A   1      45.325  25.060  34.886  1.00  0.00     0.060 A 
ATOM      9  C   UNL A   1      46.305  25.097  33.891  1.00  0.00     0.016 A 
ATOM     10  C   UNL A   1      44.012  25.437  34.554  1.00  0.00     0.016 A 
ATOM     11  C   UNL A   1      46.037  25.632  32.644  1.00  0.00     0.010 A 
ATOM     12  C   UNL A   1      43.708  25.895  33.278  1.00  0.00     0.010 A 
ATOM     13  C   UNL A   1      44.733  26.006  32.334  1.00  0.00    -0.014 A 
BRANCH  13  14
ATOM     14  C   UNL A   1      44.442  26.287  30.918  1.00  0.00     0.031 A 
ATOM     15  C   UNL A   1      44.316  27.796  30.655  1.00  0.00     0.074 A 
ATOM     16  C   UNL A   1      44.313  25.200  30.108  1.00  0.00     0.049 A 
ATOM     17  N   UNL A   1      43.749  28.434  29.675  1.00  0.00    -0.248 NA
ATOM     18  C   UNL A   1      44.856  28.744  31.673  1.00  0.00     0.031 C 
ATOM     19  C   UNL A   1      44.446  23.806  30.571  1.00  0.00     0.029 A 
ATOM     20  N   UNL A   1      44.043  25.025  28.767  1.00  0.00    -0.354 N 
ATOM     21  C   UNL A   1      44.076  29.798  29.833  1.00  0.00     0.074 A 
ATOM     22  C   UNL A   1      44.607  29.944  31.151  1.00  0.00     0.031 C 
ATOM     23  C   UNL A   1      44.200  22.942  29.567  1.00  0.00     0.029 A 
ATOM     24  C   UNL A   1      43.921  23.675  28.348  1.00  0.00     0.049 A 
ATOM     25  H   UNL A   1      43.943  25.782  28.145  1.00  0.00     0.167 HD
ATOM     26  C   UNL A   1      44.082  30.687  28.799  1.00  0.00     0.037 A 
ATOM     27  C   UNL A   1      43.592  23.179  27.114  1.00  0.00     0.037 A 
ATOM     28  C   UNL A   1      43.569  30.077  27.620  1.00  0.00     0.049 A 
ATOM     29  C   UNL A   1      43.594  24.345  26.214  1.00  0.00     0.074 A 
ATOM     30  C   UNL A   1      42.313  29.711  27.218  1.00  0.00     0.029 A 
ATOM     31  N   UNL A   1      44.488  29.505  26.776  1.00  0.00    -0.354 N 
ATOM     32  N   UNL A   1      44.669  24.960  25.814  1.00  0.00    -0.248 NA
ATOM     33  C   UNL A   1      42.316  24.931  25.798  1.00  0.00     0.031 C 
ATOM     34  C   UNL A   1      42.528  28.602  26.371  1.00  0.00     0.029 A 
ATOM     35  C   UNL A   1      43.903  28.402  26.205  1.00  0.00     0.049 A 
ATOM     36  H   UNL A   1      45.403  29.827  26.611  1.00  0.00     0.167 HD
ATOM     37  C   UNL A   1      44.174  26.171  25.388  1.00  0.00     0.074 A 
ATOM     38  C   UNL A   1      42.773  25.970  25.105  1.00  0.00     0.031 C 
ATOM     39  C   UNL A   1      44.770  27.319  25.800  1.00  0.00     0.037 A 
BRANCH  26  40
ATOM     40  C   UNL A   1      44.800  32.005  28.636  1.00  0.00     0.064 A 
ATOM     41  C   UNL A   1      44.013  33.182  28.592  1.00  0.00     0.173 A 
ATOM     42  C   UNL A   1      46.105  32.119  28.135  1.00  0.00     0.173 A 
ATOM     43  F   UNL A   1      42.770  33.198  29.100  1.00  0.00    -0.203 F 
ATOM     44  C   UNL A   1      44.441  34.332  27.929  1.00  0.00     0.198 A 
ATOM     45  C   UNL A   1      46.550  33.295  27.523  1.00  0.00     0.198 A 
ATOM     46  F   UNL A   1      46.947  31.080  28.120  1.00  0.00    -0.203 F 
ATOM     47  F   UNL A   1      43.595  35.359  27.762  1.00  0.00    -0.200 F 
ATOM     48  C   UNL A   1      45.701  34.378  27.372  1.00  0.00     0.200 A 
ATOM     49  F   UNL A   1      47.783  33.340  26.998  1.00  0.00    -0.200 F 
ATOM     50  F   UNL A   1      46.088  35.445  26.660  1.00  0.00    -0.200 F 
ENDBRANCH  26  40
BRANCH  27  51
ATOM     51  C   UNL A   1      43.214  21.842  26.512  1.00  0.00     0.064 A 
ATOM     52  C   UNL A   1      44.048  21.007  25.755  1.00  0.00     0.173 A 
ATOM     53  C   UNL A   1      41.924  21.287  26.760  1.00  0.00     0.173 A 
ATOM     54  F   UNL A   1      45.235  21.426  25.310  1.00  0.00    -0.203 F 
ATOM     55  C   UNL A   1      43.678  19.698  25.395  1.00  0.00     0.198 A 
ATOM     56  C   UNL A   1      41.568  19.977  26.436  1.00  0.00     0.198 A 
ATOM     57  F   UNL A   1      40.948  22.000  27.335  1.00  0.00    -0.203 F 
ATOM     58  F   UNL A   1      44.529  18.940  24.690  1.00  0.00    -0.200 F 
ATOM     59  C   UNL A   1      42.456  19.171  25.770  1.00  0.00     0.200 A 
ATOM     60  F   UNL A   1      40.366  19.508  26.798  1.00  0.00    -0.200 F 
ATOM     61  F   UNL A   1      42.132  17.903  25.478  1.00  0.00    -0.200 F 
ENDBRANCH  27  51
BRANCH  39  62
ATOM     62  C   UNL A   1      46.224  27.138  26.198  1.00  0.00     0.064 A 
ATOM     63  C   UNL A   1      47.188  26.829  25.228  1.00  0.00     0.173 A 
ATOM     64  C   UNL A   1      46.669  27.134  27.529  1.00  0.00     0.173 A 
ATOM     65  F   UNL A   1      46.853  26.835  23.929  1.00  0.00    -0.203 F 
ATOM     66  C   UNL A   1      48.505  26.513  25.577  1.00  0.00     0.198 A 
ATOM     67  C   UNL A   1      47.982  26.820  27.885  1.00  0.00     0.198 A 
ATOM     68  F   UNL A   1      45.839  27.448  28.519  1.00  0.00    -0.203 F 
ATOM     69  F   UNL A   1      49.397  26.222  24.621  1.00  0.00    -0.200 F 
ATOM     70  C   UNL A   1      48.900  26.503  26.905  1.00  0.00     0.200 A 
ATOM     71  F   UNL A   1      48.349  26.837  29.175  1.00  0.00    -0.200 F 
ATOM     72  F   UNL A   1      50.164  26.204  27.239  1.00  0.00    -0.200 F 
ENDBRANCH  39  62
ENDBRANCH  13  14
ENDBRANCH   6   8
ENDBRANCH   5   6
ENDBRANCH   4   5
ENDBRANCH   3   4
ENDBRANCH   2   3
ENDBRANCH   1   2
BRANCH   1  73
ATOM     73  C   UNL A   1      45.881  17.820  39.247  1.00  0.00     0.261 C 
BRANCH  73  74
ATOM     74  O   UNL A   1      44.512  17.702  39.666  1.00  0.00    -0.459 OA
BRANCH  74  75
ATOM     75  C   UNL A   1      43.929  16.503  39.370  1.00  0.00     0.371 C 
ATOM     76  O   UNL A   1      43.972  15.975  38.274  1.00  0.00    -0.245 OA
BRANCH  75  77
ATOM     77  C   UNL A   1      43.422  15.798  40.637  1.00  0.00     0.348 C 
ATOM     78  C   UNL A   1      42.070  15.125  40.335  1.00  0.00     0.341 C 
ATOM     79  N   UNL A   1      43.356  16.667  41.840  1.00  0.00    -0.325 N 
ATOM     80  N   UNL A   1      41.509  14.346  41.446  1.00  0.00    -0.318 N 
ATOM     81  C   UNL A   1      42.898  15.852  42.985  1.00  0.00     0.323 C 
ATOM     82  H   UNL A   1      42.700  17.431  41.677  1.00  0.00     0.347 HD
ATOM     83  H   UNL A   1      44.277  17.058  42.037  1.00  0.00     0.347 HD
ATOM     84  C   UNL A   1      41.584  15.071  42.724  1.00  0.00     0.324 C 
ATOM     85  H   UNL A   1      40.510  14.258  41.256  1.00  0.00     0.348 HD
BRANCH  80  86
ATOM     86  C   UNL A   1      41.913  12.927  41.481  1.00  0.00     0.346 C 
BRANCH  86  87
ATOM     87  C   UNL A   1      41.567  12.151  42.753  1.00  0.00     0.232 C 
ATOM     88  O   UNL A   1      40.390  11.896  43.024  1.00  0.00    -0.286 OA
BRANCH  87  89
ATOM     89  C   UNL A   1      42.631  11.736  43.655  1.00  0.00     0.088 A 
ATOM     90  C   UNL A   1      43.706  12.410  44.213  1.00  0.00     0.031 A 
ATOM     91  N   UNL A   1      42.679  10.447  44.150  1.00  0.00    -0.359 N 
ATOM     92  C   UNL A   1      44.350  11.531  45.120  1.00  0.00     0.020 A 
ATOM     93  C   UNL A   1      43.694  10.325  45.057  1.00  0.00     0.083 A 
ATOM     94  H   UNL A   1      42.068   9.721  43.887  1.00  0.00     0.166 HD
ENDBRANCH  87  89
ENDBRANCH  86  87
ENDBRANCH  80  86
ENDBRANCH  75  77
ENDBRANCH  74  75
ENDBRANCH  73  74
ENDBRANCH   1  73
TORSDOF 17
ENDMDL
