MODEL 1
REMARK VINA RESULT:     -11.2      0.000      0.000
REMARK SMILES CC(C)(C)OC(=O)N[C@@H](CC(=O)OCCOCCOC(=O)c1ccc(-c2c3nc(c(-c4c(F)c(F)c(F)c(F)c4F)c4ccc([nH]4)c(-c4c(F)c(F)c(F)c(F)c4F)c4nc(c(-c5c(F)c(F)c(F)c(F)c5F)c5ccc2[nH]5)C=C4)C=C3)cc1)c1cccnc1
REMARK SMILES IDX 15 1 14 2 13 3 11 4 12 5 10 6 9 7 8 8 6 9 7 10 5 12 2 13
REMARK SMILES IDX 1 14 3 15 4 16 85 17 86 18 90 19 87 20 89 21 88 22 16 23
REMARK SMILES IDX 17 24 18 25 19 26 20 27 21 28 22 29 23 30 84 31 24 32 83 33
REMARK SMILES IDX 25 34 26 35 27 36 77 37 28 38 82 39 76 40 78 41 29 42 81 43
REMARK SMILES IDX 75 44 74 45 30 47 62 48 42 49 61 50 43 51 46 52 60 53 79 54
REMARK SMILES IDX 44 55 45 56 59 58 80 59 47 60 31 61 32 62 40 63 33 64 34 65
REMARK SMILES IDX 38 66 41 67 35 68 36 69 39 70 37 71 63 72 64 73 72 74 65 75
REMARK SMILES IDX 66 76 70 77 73 78 67 79 68 80 71 81 69 82 48 83 49 84 57 85
REMARK SMILES IDX 50 86 51 87 55 88 58 89 52 90 53 91 56 92 54 93
REMARK H PARENT 8 11 78 46 46 57
REMARK Flexibility Score: inf
ROOT
ATOM      1  C   UNL A   1      32.058  26.747  24.865  1.00  0.00     0.202 C 
ENDROOT
BRANCH   1   2
ATOM      2  C   UNL A   1      31.172  25.689  25.533  1.00  0.00     0.261 C 
BRANCH   2   3
ATOM      3  O   UNL A   1      31.889  24.478  25.867  1.00  0.00    -0.463 OA
BRANCH   3   4
ATOM      4  C   UNL A   1      31.136  23.445  26.334  1.00  0.00     0.308 C 
ATOM      5  O   UNL A   1      30.632  23.396  27.450  1.00  0.00    -0.252 OA
BRANCH   4   6
ATOM      6  C   UNL A   1      31.048  22.288  25.369  1.00  0.00     0.152 C 
BRANCH   6   7
ATOM      7  C   UNL A   1      32.352  21.723  24.792  1.00  0.00     0.128 C 
BRANCH   7   8
ATOM      8  N   UNL A   1      32.753  22.482  23.611  1.00  0.00    -0.314 N 
ATOM      9  C   UNL A   1      33.849  23.280  23.498  1.00  0.00     0.408 C 
ATOM     10  O   UNL A   1      34.060  23.929  22.479  1.00  0.00    -0.225 OA
ATOM     11  H   UNL A   1      32.173  22.409  22.819  1.00  0.00     0.167 HD
BRANCH   9  12
ATOM     12  O   UNL A   1      34.629  23.248  24.599  1.00  0.00    -0.444 OA
BRANCH  12  13
ATOM     13  C   UNL A   1      35.966  22.686  24.572  1.00  0.00     0.106 C 
ATOM     14  C   UNL A   1      36.767  23.544  25.563  1.00  0.00     0.056 C 
ATOM     15  C   UNL A   1      36.584  22.835  23.178  1.00  0.00     0.056 C 
ATOM     16  C   UNL A   1      35.983  21.235  25.060  1.00  0.00     0.056 C 
ENDBRANCH  12  13
ENDBRANCH   9  12
ENDBRANCH   7   8
BRANCH   7  17
ATOM     17  C   UNL A   1      32.478  20.229  24.559  1.00  0.00    -0.007 A 
ATOM     18  C   UNL A   1      32.860  19.304  25.537  1.00  0.00     0.009 A 
ATOM     19  C   UNL A   1      32.310  19.719  23.267  1.00  0.00     0.116 A 
ATOM     20  C   UNL A   1      32.998  17.953  25.211  1.00  0.00     0.020 A 
ATOM     21  N   UNL A   1      32.437  18.417  22.922  1.00  0.00    -0.264 NA
ATOM     22  C   UNL A   1      32.776  17.560  23.903  1.00  0.00     0.111 A 
ENDBRANCH   7  17
ENDBRANCH   6   7
ENDBRANCH   4   6
ENDBRANCH   3   4
ENDBRANCH   2   3
ENDBRANCH   1   2
BRANCH   1  23
ATOM     23  O   UNL A   1      32.310  27.929  25.627  1.00  0.00    -0.374 OA
BRANCH  23  24
ATOM     24  C   UNL A   1      31.458  29.045  25.379  1.00  0.00     0.202 C 
BRANCH  24  25
ATOM     25  C   UNL A   1      31.875  30.357  26.047  1.00  0.00     0.261 C 
BRANCH  25  26
ATOM     26  O   UNL A   1      32.989  30.168  26.930  1.00  0.00    -0.460 OA
BRANCH  26  27
ATOM     27  C   UNL A   1      33.557  31.326  27.336  1.00  0.00     0.338 C 
ATOM     28  O   UNL A   1      33.009  32.396  27.539  1.00  0.00    -0.246 OA
BRANCH  27  29
ATOM     29  C   UNL A   1      34.965  31.098  27.689  1.00  0.00     0.060 A 
ATOM     30  C   UNL A   1      35.389  29.765  27.721  1.00  0.00     0.016 A 
ATOM     31  C   UNL A   1      35.815  32.136  28.078  1.00  0.00     0.016 A 
ATOM     32  C   UNL A   1      36.645  29.457  28.225  1.00  0.00     0.010 A 
ATOM     33  C   UNL A   1      37.080  31.822  28.584  1.00  0.00     0.010 A 
ATOM     34  C   UNL A   1      37.476  30.480  28.704  1.00  0.00    -0.014 A 
BRANCH  34  35
ATOM     35  C   UNL A   1      38.687  30.090  29.462  1.00  0.00     0.031 A 
ATOM     36  C   UNL A   1      38.854  30.581  30.871  1.00  0.00     0.074 A 
ATOM     37  C   UNL A   1      39.563  29.225  28.925  1.00  0.00     0.049 A 
ATOM     38  N   UNL A   1      39.761  30.263  31.759  1.00  0.00    -0.248 NA
ATOM     39  C   UNL A   1      37.861  31.556  31.351  1.00  0.00     0.031 C 
ATOM     40  C   UNL A   1      39.480  28.675  27.573  1.00  0.00     0.029 A 
ATOM     41  N   UNL A   1      40.683  28.642  29.459  1.00  0.00    -0.354 N 
ATOM     42  C   UNL A   1      39.446  30.991  32.899  1.00  0.00     0.074 A 
ATOM     43  C   UNL A   1      38.285  31.794  32.583  1.00  0.00     0.031 C 
ATOM     44  C   UNL A   1      40.502  27.824  27.386  1.00  0.00     0.029 A 
ATOM     45  C   UNL A   1      41.316  27.782  28.598  1.00  0.00     0.049 A 
ATOM     46  H   UNL A   1      41.002  28.823  30.373  1.00  0.00     0.167 HD
ATOM     47  C   UNL A   1      40.062  30.976  34.105  1.00  0.00     0.037 A 
ATOM     48  C   UNL A   1      42.428  27.044  28.776  1.00  0.00     0.037 A 
ATOM     49  C   UNL A   1      41.218  30.173  34.406  1.00  0.00     0.049 A 
ATOM     50  C   UNL A   1      43.112  27.070  30.115  1.00  0.00     0.074 A 
ATOM     51  C   UNL A   1      41.912  30.068  35.599  1.00  0.00     0.029 A 
ATOM     52  N   UNL A   1      41.855  29.340  33.498  1.00  0.00    -0.354 N 
ATOM     53  N   UNL A   1      42.780  27.726  31.202  1.00  0.00    -0.248 NA
ATOM     54  C   UNL A   1      44.317  26.243  30.259  1.00  0.00     0.031 C 
ATOM     55  C   UNL A   1      42.996  29.207  35.398  1.00  0.00     0.029 A 
ATOM     56  C   UNL A   1      42.949  28.736  34.095  1.00  0.00     0.049 A 
ATOM     57  H   UNL A   1      41.570  29.198  32.566  1.00  0.00     0.167 HD
ATOM     58  C   UNL A   1      43.722  27.379  32.161  1.00  0.00     0.074 A 
ATOM     59  C   UNL A   1      44.625  26.435  31.534  1.00  0.00     0.031 C 
ATOM     60  C   UNL A   1      43.835  27.804  33.444  1.00  0.00     0.037 A 
BRANCH  47  61
ATOM     61  C   UNL A   1      39.512  31.871  35.177  1.00  0.00     0.064 A 
ATOM     62  C   UNL A   1      38.604  31.400  36.137  1.00  0.00     0.173 A 
ATOM     63  C   UNL A   1      39.921  33.210  35.262  1.00  0.00     0.173 A 
ATOM     64  F   UNL A   1      38.169  30.132  36.091  1.00  0.00    -0.203 F 
ATOM     65  C   UNL A   1      38.107  32.244  37.129  1.00  0.00     0.198 A 
ATOM     66  C   UNL A   1      39.443  34.043  36.270  1.00  0.00     0.198 A 
ATOM     67  F   UNL A   1      40.789  33.710  34.371  1.00  0.00    -0.203 F 
ATOM     68  F   UNL A   1      37.209  31.783  38.011  1.00  0.00    -0.200 F 
ATOM     69  C   UNL A   1      38.533  33.562  37.199  1.00  0.00     0.200 A 
ATOM     70  F   UNL A   1      39.862  35.314  36.343  1.00  0.00    -0.200 F 
ATOM     71  F   UNL A   1      38.060  34.370  38.157  1.00  0.00    -0.200 F 
ENDBRANCH  47  61
BRANCH  48  72
ATOM     72  C   UNL A   1      42.951  26.215  27.659  1.00  0.00     0.064 A 
ATOM     73  C   UNL A   1      42.577  24.873  27.509  1.00  0.00     0.173 A 
ATOM     74  C   UNL A   1      43.839  26.753  26.715  1.00  0.00     0.173 A 
ATOM     75  F   UNL A   1      41.747  24.306  28.398  1.00  0.00    -0.203 F 
ATOM     76  C   UNL A   1      43.083  24.096  26.468  1.00  0.00     0.198 A 
ATOM     77  C   UNL A   1      44.322  25.984  25.660  1.00  0.00     0.198 A 
ATOM     78  F   UNL A   1      44.227  28.033  26.812  1.00  0.00    -0.203 F 
ATOM     79  F   UNL A   1      42.741  22.804  26.373  1.00  0.00    -0.200 F 
ATOM     80  C   UNL A   1      43.950  24.655  25.541  1.00  0.00     0.200 A 
ATOM     81  F   UNL A   1      45.149  26.531  24.758  1.00  0.00    -0.200 F 
ATOM     82  F   UNL A   1      44.432  23.908  24.537  1.00  0.00    -0.200 F 
ENDBRANCH  48  72
BRANCH  60  83
ATOM     83  C   UNL A   1      44.966  27.238  34.252  1.00  0.00     0.064 A 
ATOM     84  C   UNL A   1      46.212  27.879  34.315  1.00  0.00     0.173 A 
ATOM     85  C   UNL A   1      44.794  26.055  34.987  1.00  0.00     0.173 A 
ATOM     86  F   UNL A   1      46.430  29.004  33.617  1.00  0.00    -0.203 F 
ATOM     87  C   UNL A   1      47.256  27.336  35.060  1.00  0.00     0.198 A 
ATOM     88  C   UNL A   1      45.831  25.533  35.754  1.00  0.00     0.198 A 
ATOM     89  F   UNL A   1      43.619  25.410  34.965  1.00  0.00    -0.203 F 
ATOM     90  F   UNL A   1      48.455  27.936  35.063  1.00  0.00    -0.200 F 
ATOM     91  C   UNL A   1      47.064  26.169  35.782  1.00  0.00     0.200 A 
ATOM     92  F   UNL A   1      45.640  24.412  36.462  1.00  0.00    -0.200 F 
ATOM     93  F   UNL A   1      48.070  25.650  36.499  1.00  0.00    -0.200 F 
ENDBRANCH  60  83
ENDBRANCH  34  35
ENDBRANCH  27  29
ENDBRANCH  26  27
ENDBRANCH  25  26
ENDBRANCH  24  25
ENDBRANCH  23  24
ENDBRANCH   1  23
TORSDOF 19
ENDMDL
MODEL 2
REMARK VINA RESULT:     -11.2      1.201      2.727
REMARK SMILES CC(C)(C)OC(=O)N[C@@H](CC(=O)OCCOCCOC(=O)c1ccc(-c2c3nc(c(-c4c(F)c(F)c(F)c(F)c4F)c4ccc([nH]4)c(-c4c(F)c(F)c(F)c(F)c4F)c4nc(c(-c5c(F)c(F)c(F)c(F)c5F)c5ccc2[nH]5)C=C4)C=C3)cc1)c1cccnc1
REMARK SMILES IDX 15 1 14 2 13 3 11 4 12 5 10 6 9 7 8 8 6 9 7 10 5 12 2 13
REMARK SMILES IDX 1 14 3 15 4 16 85 17 86 18 90 19 87 20 89 21 88 22 16 23
REMARK SMILES IDX 17 24 18 25 19 26 20 27 21 28 22 29 23 30 84 31 24 32 83 33
REMARK SMILES IDX 25 34 26 35 27 36 77 37 28 38 82 39 76 40 78 41 29 42 81 43
REMARK SMILES IDX 75 44 74 45 30 47 62 48 42 49 61 50 43 51 46 52 60 53 79 54
REMARK SMILES IDX 44 55 45 56 59 58 80 59 47 60 31 61 32 62 40 63 33 64 34 65
REMARK SMILES IDX 38 66 41 67 35 68 36 69 39 70 37 71 63 72 64 73 72 74 65 75
REMARK SMILES IDX 66 76 70 77 73 78 67 79 68 80 71 81 69 82 48 83 49 84 57 85
REMARK SMILES IDX 50 86 51 87 55 88 58 89 52 90 53 91 56 92 54 93
REMARK H PARENT 8 11 78 46 46 57
REMARK Flexibility Score: inf
ROOT
ATOM      1  C   UNL A   1      32.263  27.879  23.501  1.00  0.00     0.202 C 
ENDROOT
BRANCH   1   2
ATOM      2  C   UNL A   1      33.358  26.989  22.901  1.00  0.00     0.261 C 
BRANCH   2   3
ATOM      3  O   UNL A   1      33.258  25.608  23.320  1.00  0.00    -0.463 OA
BRANCH   3   4
ATOM      4  C   UNL A   1      34.135  25.210  24.282  1.00  0.00     0.308 C 
ATOM      5  O   UNL A   1      34.304  25.779  25.354  1.00  0.00    -0.252 OA
BRANCH   4   6
ATOM      6  C   UNL A   1      34.977  24.027  23.868  1.00  0.00     0.152 C 
BRANCH   6   7
ATOM      7  C   UNL A   1      35.331  22.981  24.933  1.00  0.00     0.128 C 
BRANCH   7   8
ATOM      8  N   UNL A   1      34.303  22.947  25.970  1.00  0.00    -0.314 N 
ATOM      9  C   UNL A   1      33.725  21.834  26.497  1.00  0.00     0.408 C 
ATOM     10  O   UNL A   1      32.820  21.917  27.320  1.00  0.00    -0.225 OA
ATOM     11  H   UNL A   1      34.000  23.814  26.322  1.00  0.00     0.167 HD
BRANCH   9  12
ATOM     12  O   UNL A   1      34.266  20.693  26.020  1.00  0.00    -0.444 OA
BRANCH  12  13
ATOM     13  C   UNL A   1      33.524  19.799  25.152  1.00  0.00     0.106 C 
ATOM     14  C   UNL A   1      34.603  19.001  24.405  1.00  0.00     0.056 C 
ATOM     15  C   UNL A   1      32.705  20.597  24.133  1.00  0.00     0.056 C 
ATOM     16  C   UNL A   1      32.659  18.820  25.950  1.00  0.00     0.056 C 
ENDBRANCH  12  13
ENDBRANCH   9  12
ENDBRANCH   7   8
BRANCH   7  17
ATOM     17  C   UNL A   1      36.724  22.972  25.534  1.00  0.00    -0.007 A 
ATOM     18  C   UNL A   1      37.369  24.100  26.053  1.00  0.00     0.009 A 
ATOM     19  C   UNL A   1      37.485  21.799  25.486  1.00  0.00     0.116 A 
ATOM     20  C   UNL A   1      38.676  24.001  26.537  1.00  0.00     0.020 A 
ATOM     21  N   UNL A   1      38.751  21.674  25.947  1.00  0.00    -0.264 NA
ATOM     22  C   UNL A   1      39.320  22.779  26.467  1.00  0.00     0.111 A 
ENDBRANCH   7  17
ENDBRANCH   6   7
ENDBRANCH   4   6
ENDBRANCH   3   4
ENDBRANCH   2   3
ENDBRANCH   1   2
BRANCH   1  23
ATOM     23  O   UNL A   1      32.691  29.137  24.024  1.00  0.00    -0.374 OA
BRANCH  23  24
ATOM     24  C   UNL A   1      32.894  29.209  25.433  1.00  0.00     0.202 C 
BRANCH  24  25
ATOM     25  C   UNL A   1      32.253  30.408  26.135  1.00  0.00     0.261 C 
BRANCH  25  26
ATOM     26  O   UNL A   1      32.765  30.575  27.463  1.00  0.00    -0.460 OA
BRANCH  26  27
ATOM     27  C   UNL A   1      33.504  31.697  27.619  1.00  0.00     0.338 C 
ATOM     28  O   UNL A   1      33.112  32.851  27.665  1.00  0.00    -0.246 OA
BRANCH  27  29
ATOM     29  C   UNL A   1      34.899  31.342  27.912  1.00  0.00     0.060 A 
ATOM     30  C   UNL A   1      35.152  29.996  28.198  1.00  0.00     0.016 A 
ATOM     31  C   UNL A   1      35.910  32.302  28.009  1.00  0.00     0.016 A 
ATOM     32  C   UNL A   1      36.402  29.616  28.665  1.00  0.00     0.010 A 
ATOM     33  C   UNL A   1      37.169  31.916  28.480  1.00  0.00     0.010 A 
ATOM     34  C   UNL A   1      37.400  30.582  28.855  1.00  0.00    -0.014 A 
BRANCH  34  35
ATOM     35  C   UNL A   1      38.620  30.181  29.591  1.00  0.00     0.031 A 
ATOM     36  C   UNL A   1      38.808  30.654  31.004  1.00  0.00     0.074 A 
ATOM     37  C   UNL A   1      39.487  29.321  29.031  1.00  0.00     0.049 A 
ATOM     38  N   UNL A   1      39.727  30.324  31.875  1.00  0.00    -0.248 NA
ATOM     39  C   UNL A   1      37.824  31.624  31.510  1.00  0.00     0.031 C 
ATOM     40  C   UNL A   1      39.384  28.788  27.674  1.00  0.00     0.029 A 
ATOM     41  N   UNL A   1      40.613  28.729  29.542  1.00  0.00    -0.354 N 
ATOM     42  C   UNL A   1      39.429  31.037  33.028  1.00  0.00     0.074 A 
ATOM     43  C   UNL A   1      38.265  31.846  32.739  1.00  0.00     0.031 C 
ATOM     44  C   UNL A   1      40.402  27.938  27.462  1.00  0.00     0.029 A 
ATOM     45  C   UNL A   1      41.233  27.879  28.662  1.00  0.00     0.049 A 
ATOM     46  H   UNL A   1      40.945  28.898  30.454  1.00  0.00     0.167 HD
ATOM     47  C   UNL A   1      40.063  31.006  34.225  1.00  0.00     0.037 A 
ATOM     48  C   UNL A   1      42.346  27.137  28.814  1.00  0.00     0.037 A 
ATOM     49  C   UNL A   1      41.221  30.198  34.500  1.00  0.00     0.049 A 
ATOM     50  C   UNL A   1      43.049  27.145  30.145  1.00  0.00     0.074 A 
ATOM     51  C   UNL A   1      41.931  30.077  35.681  1.00  0.00     0.029 A 
ATOM     52  N   UNL A   1      41.843  29.375  33.572  1.00  0.00    -0.354 N 
ATOM     53  N   UNL A   1      42.733  27.788  31.244  1.00  0.00    -0.248 NA
ATOM     54  C   UNL A   1      44.254  26.315  30.261  1.00  0.00     0.031 C 
ATOM     55  C   UNL A   1      43.011  29.216  35.455  1.00  0.00     0.029 A 
ATOM     56  C   UNL A   1      42.945  28.762  34.146  1.00  0.00     0.049 A 
ATOM     57  H   UNL A   1      41.545  29.245  32.643  1.00  0.00     0.167 HD
ATOM     58  C   UNL A   1      43.687  27.428  32.185  1.00  0.00     0.074 A 
ATOM     59  C   UNL A   1      44.580  26.490  31.534  1.00  0.00     0.031 C 
ATOM     60  C   UNL A   1      43.820  27.836  33.472  1.00  0.00     0.037 A 
BRANCH  47  61
ATOM     61  C   UNL A   1      39.529  31.889  35.316  1.00  0.00     0.064 A 
ATOM     62  C   UNL A   1      38.597  31.421  36.255  1.00  0.00     0.173 A 
ATOM     63  C   UNL A   1      39.977  33.212  35.441  1.00  0.00     0.173 A 
ATOM     64  F   UNL A   1      38.125  30.168  36.170  1.00  0.00    -0.203 F 
ATOM     65  C   UNL A   1      38.117  32.253  37.264  1.00  0.00     0.198 A 
ATOM     66  C   UNL A   1      39.515  34.032  36.467  1.00  0.00     0.198 A 
ATOM     67  F   UNL A   1      40.870  33.709  34.572  1.00  0.00    -0.203 F 
ATOM     68  F   UNL A   1      37.197  31.796  38.125  1.00  0.00    -0.200 F 
ATOM     69  C   UNL A   1      38.581  33.555  37.373  1.00  0.00     0.200 A 
ATOM     70  F   UNL A   1      39.972  35.288  36.578  1.00  0.00    -0.200 F 
ATOM     71  F   UNL A   1      38.124  34.351  38.349  1.00  0.00    -0.200 F 
ENDBRANCH  47  61
BRANCH  48  72
ATOM     72  C   UNL A   1      42.852  26.321  27.681  1.00  0.00     0.064 A 
ATOM     73  C   UNL A   1      42.446  24.992  27.500  1.00  0.00     0.173 A 
ATOM     74  C   UNL A   1      43.754  26.859  26.750  1.00  0.00     0.173 A 
ATOM     75  F   UNL A   1      41.601  24.426  28.374  1.00  0.00    -0.203 F 
ATOM     76  C   UNL A   1      42.936  24.227  26.443  1.00  0.00     0.198 A 
ATOM     77  C   UNL A   1      44.222  26.103  25.679  1.00  0.00     0.198 A 
ATOM     78  F   UNL A   1      44.172  28.127  26.877  1.00  0.00    -0.203 F 
ATOM     79  F   UNL A   1      42.564  22.946  26.318  1.00  0.00    -0.200 F 
ATOM     80  C   UNL A   1      43.818  24.785  25.529  1.00  0.00     0.200 A 
ATOM     81  F   UNL A   1      45.063  26.650  24.791  1.00  0.00    -0.200 F 
ATOM     82  F   UNL A   1      44.284  24.051  24.510  1.00  0.00    -0.200 F 
ENDBRANCH  48  72
BRANCH  60  83
ATOM     83  C   UNL A   1      44.961  27.258  34.256  1.00  0.00     0.064 A 
ATOM     84  C   UNL A   1      44.809  26.088  35.015  1.00  0.00     0.173 A 
ATOM     85  C   UNL A   1      46.224  27.868  34.231  1.00  0.00     0.173 A 
ATOM     86  F   UNL A   1      43.616  25.476  35.082  1.00  0.00    -0.203 F 
ATOM     87  C   UNL A   1      45.873  25.568  35.746  1.00  0.00     0.198 A 
ATOM     88  C   UNL A   1      47.293  27.329  34.940  1.00  0.00     0.198 A 
ATOM     89  F   UNL A   1      46.421  28.985  33.514  1.00  0.00    -0.203 F 
ATOM     90  F   UNL A   1      45.692  24.479  36.507  1.00  0.00    -0.200 F 
ATOM     91  C   UNL A   1      47.114  26.184  35.703  1.00  0.00     0.200 A 
ATOM     92  F   UNL A   1      48.495  27.918  34.887  1.00  0.00    -0.200 F 
ATOM     93  F   UNL A   1      48.137  25.682  36.408  1.00  0.00    -0.200 F 
ENDBRANCH  60  83
ENDBRANCH  34  35
ENDBRANCH  27  29
ENDBRANCH  26  27
ENDBRANCH  25  26
ENDBRANCH  24  25
ENDBRANCH  23  24
ENDBRANCH   1  23
TORSDOF 19
ENDMDL
MODEL 3
REMARK VINA RESULT:     -11.1      1.497      2.938
REMARK SMILES CC(C)(C)OC(=O)N[C@@H](CC(=O)OCCOCCOC(=O)c1ccc(-c2c3nc(c(-c4c(F)c(F)c(F)c(F)c4F)c4ccc([nH]4)c(-c4c(F)c(F)c(F)c(F)c4F)c4nc(c(-c5c(F)c(F)c(F)c(F)c5F)c5ccc2[nH]5)C=C4)C=C3)cc1)c1cccnc1
REMARK SMILES IDX 15 1 14 2 13 3 11 4 12 5 10 6 9 7 8 8 6 9 7 10 5 12 2 13
REMARK SMILES IDX 1 14 3 15 4 16 85 17 86 18 90 19 87 20 89 21 88 22 16 23
REMARK SMILES IDX 17 24 18 25 19 26 20 27 21 28 22 29 23 30 84 31 24 32 83 33
REMARK SMILES IDX 25 34 26 35 27 36 77 37 28 38 82 39 76 40 78 41 29 42 81 43
REMARK SMILES IDX 75 44 74 45 30 47 62 48 42 49 61 50 43 51 46 52 60 53 79 54
REMARK SMILES IDX 44 55 45 56 59 58 80 59 47 60 31 61 32 62 40 63 33 64 34 65
REMARK SMILES IDX 38 66 41 67 35 68 36 69 39 70 37 71 63 72 64 73 72 74 65 75
REMARK SMILES IDX 66 76 70 77 73 78 67 79 68 80 71 81 69 82 48 83 49 84 57 85
REMARK SMILES IDX 50 86 51 87 55 88 58 89 52 90 53 91 56 92 54 93
REMARK H PARENT 8 11 78 46 46 57
REMARK Flexibility Score: inf
ROOT
ATOM      1  C   UNL A   1      30.302  29.991  24.079  1.00  0.00     0.202 C 
ENDROOT
BRANCH   1   2
ATOM      2  C   UNL A   1      30.663  28.964  22.999  1.00  0.00     0.261 C 
BRANCH   2   3
ATOM      3  O   UNL A   1      29.597  28.023  22.733  1.00  0.00    -0.463 OA
BRANCH   3   4
ATOM      4  C   UNL A   1      29.685  26.823  23.370  1.00  0.00     0.308 C 
ATOM      5  O   UNL A   1      28.824  26.357  24.107  1.00  0.00    -0.252 OA
BRANCH   4   6
ATOM      6  C   UNL A   1      31.013  26.135  23.163  1.00  0.00     0.152 C 
BRANCH   6   7
ATOM      7  C   UNL A   1      31.781  25.653  24.401  1.00  0.00     0.128 C 
BRANCH   7   8
ATOM      8  N   UNL A   1      31.145  24.463  24.958  1.00  0.00    -0.314 N 
ATOM      9  C   UNL A   1      31.669  23.207  24.989  1.00  0.00     0.408 C 
ATOM     10  O   UNL A   1      31.023  22.260  25.422  1.00  0.00    -0.225 OA
ATOM     11  H   UNL A   1      30.251  24.581  25.351  1.00  0.00     0.167 HD
BRANCH   9  12
ATOM     12  O   UNL A   1      32.930  23.161  24.511  1.00  0.00    -0.444 OA
BRANCH  12  13
ATOM     13  C   UNL A   1      34.056  22.816  25.358  1.00  0.00     0.106 C 
ATOM     14  C   UNL A   1      33.719  23.438  26.722  1.00  0.00     0.056 C 
ATOM     15  C   UNL A   1      35.343  23.457  24.828  1.00  0.00     0.056 C 
ATOM     16  C   UNL A   1      34.194  21.302  25.533  1.00  0.00     0.056 C 
ENDBRANCH  12  13
ENDBRANCH   9  12
ENDBRANCH   7   8
BRANCH   7  17
ATOM     17  C   UNL A   1      32.140  26.649  25.488  1.00  0.00    -0.007 A 
ATOM     18  C   UNL A   1      33.372  27.308  25.582  1.00  0.00     0.009 A 
ATOM     19  C   UNL A   1      31.245  26.870  26.541  1.00  0.00     0.116 A 
ATOM     20  C   UNL A   1      33.627  28.169  26.652  1.00  0.00     0.020 A 
ATOM     21  N   UNL A   1      31.466  27.698  27.588  1.00  0.00    -0.264 NA
ATOM     22  C   UNL A   1      32.653  28.333  27.620  1.00  0.00     0.111 A 
ENDBRANCH   7  17
ENDBRANCH   6   7
ENDBRANCH   4   6
ENDBRANCH   3   4
ENDBRANCH   2   3
ENDBRANCH   1   2
BRANCH   1  23
ATOM     23  O   UNL A   1      31.350  30.350  24.981  1.00  0.00    -0.374 OA
BRANCH  23  24
ATOM     24  C   UNL A   1      30.968  31.058  26.157  1.00  0.00     0.202 C 
BRANCH  24  25
ATOM     25  C   UNL A   1      31.859  32.243  26.536  1.00  0.00     0.261 C 
BRANCH  25  26
ATOM     26  O   UNL A   1      32.846  31.871  27.507  1.00  0.00    -0.460 OA
BRANCH  26  27
ATOM     27  C   UNL A   1      33.688  32.878  27.833  1.00  0.00     0.338 C 
ATOM     28  O   UNL A   1      33.415  34.053  28.009  1.00  0.00    -0.246 OA
BRANCH  27  29
ATOM     29  C   UNL A   1      35.021  32.340  28.134  1.00  0.00     0.060 A 
ATOM     30  C   UNL A   1      35.090  30.973  28.423  1.00  0.00     0.016 A 
ATOM     31  C   UNL A   1      36.151  33.156  28.235  1.00  0.00     0.016 A 
ATOM     32  C   UNL A   1      36.275  30.430  28.898  1.00  0.00     0.010 A 
ATOM     33  C   UNL A   1      37.344  32.606  28.713  1.00  0.00     0.010 A 
ATOM     34  C   UNL A   1      37.393  31.254  29.092  1.00  0.00    -0.014 A 
BRANCH  34  35
ATOM     35  C   UNL A   1      38.545  30.695  29.835  1.00  0.00     0.031 A 
ATOM     36  C   UNL A   1      38.729  31.064  31.279  1.00  0.00     0.074 A 
ATOM     37  C   UNL A   1      39.344  29.790  29.247  1.00  0.00     0.049 A 
ATOM     38  N   UNL A   1      39.584  30.597  32.153  1.00  0.00    -0.248 NA
ATOM     39  C   UNL A   1      37.825  32.094  31.816  1.00  0.00     0.031 C 
ATOM     40  C   UNL A   1      39.237  29.350  27.857  1.00  0.00     0.029 A 
ATOM     41  N   UNL A   1      40.392  29.064  29.752  1.00  0.00    -0.354 N 
ATOM     42  C   UNL A   1      39.316  31.267  33.339  1.00  0.00     0.074 A 
ATOM     43  C   UNL A   1      38.244  32.199  33.068  1.00  0.00     0.031 C 
ATOM     44  C   UNL A   1      40.176  28.420  27.621  1.00  0.00     0.029 A 
ATOM     45  C   UNL A   1      40.957  28.211  28.838  1.00  0.00     0.049 A 
ATOM     46  H   UNL A   1      40.708  29.146  30.681  1.00  0.00     0.167 HD
ATOM     47  C   UNL A   1      39.904  31.105  34.549  1.00  0.00     0.037 A 
ATOM     48  C   UNL A   1      41.990  27.358  28.975  1.00  0.00     0.037 A 
ATOM     49  C   UNL A   1      40.970  30.174  34.806  1.00  0.00     0.049 A 
ATOM     50  C   UNL A   1      42.646  27.220  30.323  1.00  0.00     0.074 A 
ATOM     51  C   UNL A   1      41.627  29.917  35.996  1.00  0.00     0.029 A 
ATOM     52  N   UNL A   1      41.543  29.351  33.846  1.00  0.00    -0.354 N 
ATOM     53  N   UNL A   1      42.356  27.825  31.451  1.00  0.00    -0.248 NA
ATOM     54  C   UNL A   1      43.763  26.272  30.420  1.00  0.00     0.031 C 
ATOM     55  C   UNL A   1      42.627  28.971  35.747  1.00  0.00     0.029 A 
ATOM     56  C   UNL A   1      42.562  28.602  34.412  1.00  0.00     0.049 A 
ATOM     57  H   UNL A   1      41.265  29.305  32.903  1.00  0.00     0.167 HD
ATOM     58  C   UNL A   1      43.240  27.320  32.393  1.00  0.00     0.074 A 
ATOM     59  C   UNL A   1      44.061  26.340  31.710  1.00  0.00     0.031 C 
ATOM     60  C   UNL A   1      43.367  27.637  33.706  1.00  0.00     0.037 A 
BRANCH  47  61
ATOM     61  C   UNL A   1      39.419  31.970  35.677  1.00  0.00     0.064 A 
ATOM     62  C   UNL A   1      38.415  31.540  36.557  1.00  0.00     0.173 A 
ATOM     63  C   UNL A   1      39.989  33.232  35.897  1.00  0.00     0.173 A 
ATOM     64  F   UNL A   1      37.828  30.347  36.381  1.00  0.00    -0.203 F 
ATOM     65  C   UNL A   1      37.982  32.354  37.603  1.00  0.00     0.198 A 
ATOM     66  C   UNL A   1      39.572  34.032  36.958  1.00  0.00     0.198 A 
ATOM     67  F   UNL A   1      40.954  33.690  35.086  1.00  0.00    -0.203 F 
ATOM     68  F   UNL A   1      36.993  31.940  38.407  1.00  0.00    -0.200 F 
ATOM     69  C   UNL A   1      38.566  33.595  37.806  1.00  0.00     0.200 A 
ATOM     70  F   UNL A   1      40.143  35.228  37.160  1.00  0.00    -0.200 F 
ATOM     71  F   UNL A   1      38.153  34.373  38.816  1.00  0.00    -0.200 F 
ENDBRANCH  47  61
BRANCH  48  72
ATOM     72  C   UNL A   1      42.454  26.565  27.808  1.00  0.00     0.064 A 
ATOM     73  C   UNL A   1      41.936  25.291  27.539  1.00  0.00     0.173 A 
ATOM     74  C   UNL A   1      43.428  27.070  26.933  1.00  0.00     0.173 A 
ATOM     75  F   UNL A   1      41.017  24.755  28.357  1.00  0.00    -0.203 F 
ATOM     76  C   UNL A   1      42.386  24.545  26.450  1.00  0.00     0.198 A 
ATOM     77  C   UNL A   1      43.857  26.336  25.831  1.00  0.00     0.198 A 
ATOM     78  F   UNL A   1      43.955  28.285  27.145  1.00  0.00    -0.203 F 
ATOM     79  F   UNL A   1      41.904  23.313  26.240  1.00  0.00    -0.200 F 
ATOM     80  C   UNL A   1      43.342  25.072  25.594  1.00  0.00     0.200 A 
ATOM     81  F   UNL A   1      44.771  26.853  24.998  1.00  0.00    -0.200 F 
ATOM     82  F   UNL A   1      43.770  24.356  24.544  1.00  0.00    -0.200 F 
ENDBRANCH  48  72
BRANCH  60  83
ATOM     83  C   UNL A   1      44.422  26.907  34.484  1.00  0.00     0.064 A 
ATOM     84  C   UNL A   1      45.719  27.424  34.622  1.00  0.00     0.173 A 
ATOM     85  C   UNL A   1      44.126  25.691  35.117  1.00  0.00     0.173 A 
ATOM     86  F   UNL A   1      46.054  28.577  34.023  1.00  0.00    -0.203 F 
ATOM     87  C   UNL A   1      46.691  26.731  35.338  1.00  0.00     0.198 A 
ATOM     88  C   UNL A   1      45.092  25.016  35.857  1.00  0.00     0.198 A 
ATOM     89  F   UNL A   1      42.898  25.160  35.021  1.00  0.00    -0.203 F 
ATOM     90  F   UNL A   1      47.939  27.216  35.412  1.00  0.00    -0.200 F 
ATOM     91  C   UNL A   1      46.376  25.532  35.959  1.00  0.00     0.200 A 
ATOM     92  F   UNL A   1      44.783  23.864  36.468  1.00  0.00    -0.200 F 
ATOM     93  F   UNL A   1      47.313  24.867  36.649  1.00  0.00    -0.200 F 
ENDBRANCH  60  83
ENDBRANCH  34  35
ENDBRANCH  27  29
ENDBRANCH  26  27
ENDBRANCH  25  26
ENDBRANCH  24  25
ENDBRANCH  23  24
ENDBRANCH   1  23
TORSDOF 19
ENDMDL
