MODEL 1
REMARK VINA RESULT:     -11.5      0.000      0.000
REMARK SMILES Cc1noc(C)c1CNc1cnc(C(=O)OCCOCCOC(=O)c2ccc(-c3c4nc(c(-c5c(F)c(F)c(F)c(F)c5F)c5ccc([nH]5)c(-c5c(F)c(F)c(F)c(F)c5F)c5nc(c(-c6c(F)c(F)c(F)c(F)c6F)c6ccc3[nH]6)C=C5)C=C4)cc2)cn1
REMARK SMILES IDX 18 1 17 2 16 3 14 4 15 5 13 6 10 7 11 8 89 9 12 10 88 11
REMARK SMILES IDX 9 12 8 14 7 15 1 16 2 17 3 18 4 19 5 20 6 21 19 22 20 23
REMARK SMILES IDX 21 24 22 25 23 26 24 27 25 28 26 29 87 30 27 31 86 32 28 33
REMARK SMILES IDX 29 34 30 35 80 36 31 37 85 38 79 39 81 40 32 41 84 42 78 43
REMARK SMILES IDX 77 44 33 46 65 47 45 48 64 49 46 50 49 51 63 52 82 53 47 54
REMARK SMILES IDX 48 55 62 57 83 58 50 59 34 60 35 61 43 62 36 63 37 64 41 65
REMARK SMILES IDX 44 66 38 67 39 68 42 69 40 70 66 71 67 72 75 73 68 74 69 75
REMARK SMILES IDX 73 76 76 77 70 78 71 79 74 80 72 81 51 82 52 83 60 84 53 85
REMARK SMILES IDX 54 86 58 87 61 88 55 89 56 90 59 91 57 92
REMARK H PARENT 9 13 81 45 49 56
REMARK Flexibility Score: inf
ROOT
ATOM      1  C   UNL A   1      31.522  29.394  24.534  1.00  0.00     0.202 C 
ENDROOT
BRANCH   1   2
ATOM      2  C   UNL A   1      32.118  27.983  24.557  1.00  0.00     0.261 C 
BRANCH   2   3
ATOM      3  O   UNL A   1      31.115  27.015  24.907  1.00  0.00    -0.458 OA
BRANCH   3   4
ATOM      4  C   UNL A   1      31.223  26.494  26.153  1.00  0.00     0.358 C 
ATOM      5  O   UNL A   1      31.044  27.082  27.210  1.00  0.00    -0.244 OA
BRANCH   4   6
ATOM      6  C   UNL A   1      31.429  25.031  26.086  1.00  0.00     0.166 A 
ATOM      7  C   UNL A   1      31.783  22.373  25.756  1.00  0.00     0.144 A 
ATOM      8  C   UNL A   1      31.588  22.951  27.015  1.00  0.00     0.158 A 
ATOM      9  N   UNL A   1      31.877  23.148  24.659  1.00  0.00    -0.235 NA
ATOM     10  N   UNL A   1      31.414  24.284  27.219  1.00  0.00    -0.244 NA
ATOM     11  C   UNL A   1      31.674  24.476  24.841  1.00  0.00     0.149 A 
BRANCH   7  12
ATOM     12  N   UNL A   1      31.835  21.016  25.523  1.00  0.00    -0.365 N 
ATOM     13  H   UNL A   1      31.464  20.382  26.178  1.00  0.00     0.162 HD
BRANCH  12  14
ATOM     14  C   UNL A   1      32.446  20.536  24.293  1.00  0.00     0.156 C 
BRANCH  14  15
ATOM     15  C   UNL A   1      33.725  19.784  24.453  1.00  0.00     0.037 A 
ATOM     16  C   UNL A   1      33.059  17.322  23.817  1.00  0.00     0.071 C 
ATOM     17  C   UNL A   1      33.983  18.395  24.256  1.00  0.00     0.086 A 
ATOM     18  N   UNL A   1      35.260  18.093  24.517  1.00  0.00    -0.085 NA
ATOM     19  O   UNL A   1      35.859  19.274  24.895  1.00  0.00    -0.361 OA
ATOM     20  C   UNL A   1      34.947  20.278  24.860  1.00  0.00     0.138 A 
ATOM     21  C   UNL A   1      35.436  21.613  25.253  1.00  0.00     0.091 C 
ENDBRANCH  14  15
ENDBRANCH  12  14
ENDBRANCH   7  12
ENDBRANCH   4   6
ENDBRANCH   3   4
ENDBRANCH   2   3
ENDBRANCH   1   2
BRANCH   1  22
ATOM     22  O   UNL A   1      31.712  30.154  25.729  1.00  0.00    -0.374 OA
BRANCH  22  23
ATOM     23  C   UNL A   1      30.984  31.379  25.832  1.00  0.00     0.202 C 
BRANCH  23  24
ATOM     24  C   UNL A   1      31.620  32.455  26.719  1.00  0.00     0.261 C 
BRANCH  24  25
ATOM     25  O   UNL A   1      32.820  31.971  27.348  1.00  0.00    -0.460 OA
BRANCH  25  26
ATOM     26  C   UNL A   1      33.664  32.939  27.767  1.00  0.00     0.338 C 
ATOM     27  O   UNL A   1      33.394  34.111  27.994  1.00  0.00    -0.246 OA
BRANCH  26  28
ATOM     28  C   UNL A   1      34.986  32.367  28.089  1.00  0.00     0.060 A 
ATOM     29  C   UNL A   1      35.038  30.989  28.327  1.00  0.00     0.016 A 
ATOM     30  C   UNL A   1      36.129  33.157  28.240  1.00  0.00     0.016 A 
ATOM     31  C   UNL A   1      36.213  30.406  28.794  1.00  0.00     0.010 A 
ATOM     32  C   UNL A   1      37.310  32.569  28.712  1.00  0.00     0.010 A 
ATOM     33  C   UNL A   1      37.341  31.201  29.038  1.00  0.00    -0.014 A 
BRANCH  33  34
ATOM     34  C   UNL A   1      38.475  30.613  29.793  1.00  0.00     0.031 A 
ATOM     35  C   UNL A   1      38.655  30.984  31.241  1.00  0.00     0.074 A 
ATOM     36  C   UNL A   1      39.288  29.706  29.222  1.00  0.00     0.049 A 
ATOM     37  N   UNL A   1      39.536  30.550  32.107  1.00  0.00    -0.248 NA
ATOM     38  C   UNL A   1      37.716  31.977  31.790  1.00  0.00     0.031 C 
ATOM     39  C   UNL A   1      39.202  29.246  27.838  1.00  0.00     0.029 A 
ATOM     40  N   UNL A   1      40.346  29.003  29.745  1.00  0.00    -0.354 N 
ATOM     41  C   UNL A   1      39.261  31.216  33.294  1.00  0.00     0.074 A 
ATOM     42  C   UNL A   1      38.151  32.107  33.035  1.00  0.00     0.031 C 
ATOM     43  C   UNL A   1      40.169  28.339  27.618  1.00  0.00     0.029 A 
ATOM     44  C   UNL A   1      40.953  28.168  28.841  1.00  0.00     0.049 A 
ATOM     45  H   UNL A   1      40.642  29.091  30.680  1.00  0.00     0.167 HD
ATOM     46  C   UNL A   1      39.870  31.088  34.497  1.00  0.00     0.037 A 
ATOM     47  C   UNL A   1      42.026  27.365  28.984  1.00  0.00     0.037 A 
ATOM     48  C   UNL A   1      40.955  30.182  34.765  1.00  0.00     0.049 A 
ATOM     49  C   UNL A   1      42.708  27.273  30.326  1.00  0.00     0.074 A 
ATOM     50  C   UNL A   1      41.598  29.942  35.966  1.00  0.00     0.029 A 
ATOM     51  N   UNL A   1      41.559  29.372  33.816  1.00  0.00    -0.354 N 
ATOM     52  N   UNL A   1      42.399  27.861  31.456  1.00  0.00    -0.248 NA
ATOM     53  C   UNL A   1      43.887  26.397  30.413  1.00  0.00     0.031 C 
ATOM     54  C   UNL A   1      42.627  29.024  35.734  1.00  0.00     0.029 A 
ATOM     55  C   UNL A   1      42.591  28.655  34.399  1.00  0.00     0.049 A 
ATOM     56  H   UNL A   1      41.294  29.315  32.869  1.00  0.00     0.167 HD
ATOM     57  C   UNL A   1      43.320  27.403  32.390  1.00  0.00     0.074 A 
ATOM     58  C   UNL A   1      44.191  26.476  31.700  1.00  0.00     0.031 C 
ATOM     59  C   UNL A   1      43.437  27.724  33.701  1.00  0.00     0.037 A 
BRANCH  46  60
ATOM     60  C   UNL A   1      39.389  31.953  35.623  1.00  0.00     0.064 A 
ATOM     61  C   UNL A   1      38.434  31.502  36.544  1.00  0.00     0.173 A 
ATOM     62  C   UNL A   1      39.953  33.222  35.826  1.00  0.00     0.173 A 
ATOM     63  F   UNL A   1      37.859  30.301  36.385  1.00  0.00    -0.203 F 
ATOM     64  C   UNL A   1      38.054  32.294  37.624  1.00  0.00     0.198 A 
ATOM     65  C   UNL A   1      39.587  34.002  36.920  1.00  0.00     0.198 A 
ATOM     66  F   UNL A   1      40.874  33.697  34.974  1.00  0.00    -0.203 F 
ATOM     67  F   UNL A   1      37.120  31.853  38.479  1.00  0.00    -0.200 F 
ATOM     68  C   UNL A   1      38.637  33.538  37.817  1.00  0.00     0.200 A 
ATOM     69  F   UNL A   1      40.160  35.197  37.110  1.00  0.00    -0.200 F 
ATOM     70  F   UNL A   1      38.282  34.291  38.866  1.00  0.00    -0.200 F 
ENDBRANCH  46  60
BRANCH  47  71
ATOM     71  C   UNL A   1      42.542  26.587  27.827  1.00  0.00     0.064 A 
ATOM     72  C   UNL A   1      43.452  27.149  26.920  1.00  0.00     0.173 A 
ATOM     73  C   UNL A   1      42.091  25.283  27.574  1.00  0.00     0.173 A 
ATOM     74  F   UNL A   1      43.892  28.402  27.103  1.00  0.00    -0.203 F 
ATOM     75  C   UNL A   1      43.863  26.449  25.787  1.00  0.00     0.198 A 
ATOM     76  C   UNL A   1      42.527  24.573  26.457  1.00  0.00     0.198 A 
ATOM     77  F   UNL A   1      41.218  24.699  28.409  1.00  0.00    -0.203 F 
ATOM     78  F   UNL A   1      44.682  27.034  24.902  1.00  0.00    -0.200 F 
ATOM     79  C   UNL A   1      43.402  25.162  25.558  1.00  0.00     0.200 A 
ATOM     80  F   UNL A   1      42.086  23.326  26.245  1.00  0.00    -0.200 F 
ATOM     81  F   UNL A   1      43.791  24.493  24.463  1.00  0.00    -0.200 F 
ENDBRANCH  47  71
BRANCH  59  82
ATOM     82  C   UNL A   1      44.522  27.043  34.486  1.00  0.00     0.064 A 
ATOM     83  C   UNL A   1      44.311  25.804  35.109  1.00  0.00     0.173 A 
ATOM     84  C   UNL A   1      45.799  27.618  34.580  1.00  0.00     0.173 A 
ATOM     85  F   UNL A   1      43.104  25.221  35.059  1.00  0.00    -0.203 F 
ATOM     86  C   UNL A   1      45.331  25.179  35.820  1.00  0.00     0.198 A 
ATOM     87  C   UNL A   1      46.825  26.975  35.266  1.00  0.00     0.198 A 
ATOM     88  F   UNL A   1      46.055  28.797  33.994  1.00  0.00    -0.203 F 
ATOM     89  F   UNL A   1      45.094  24.019  36.447  1.00  0.00    -0.200 F 
ATOM     90  C   UNL A   1      46.588  25.760  35.892  1.00  0.00     0.200 A 
ATOM     91  F   UNL A   1      48.043  27.531  35.323  1.00  0.00    -0.200 F 
ATOM     92  F   UNL A   1      47.571  25.152  36.570  1.00  0.00    -0.200 F 
ENDBRANCH  59  82
ENDBRANCH  33  34
ENDBRANCH  26  28
ENDBRANCH  25  26
ENDBRANCH  24  25
ENDBRANCH  23  24
ENDBRANCH  22  23
ENDBRANCH   1  22
TORSDOF 17
ENDMDL
MODEL 2
REMARK VINA RESULT:     -11.5      4.486     10.461
REMARK SMILES Cc1noc(C)c1CNc1cnc(C(=O)OCCOCCOC(=O)c2ccc(-c3c4nc(c(-c5c(F)c(F)c(F)c(F)c5F)c5ccc([nH]5)c(-c5c(F)c(F)c(F)c(F)c5F)c5nc(c(-c6c(F)c(F)c(F)c(F)c6F)c6ccc3[nH]6)C=C5)C=C4)cc2)cn1
REMARK SMILES IDX 18 1 17 2 16 3 14 4 15 5 13 6 10 7 11 8 89 9 12 10 88 11
REMARK SMILES IDX 9 12 8 14 7 15 1 16 2 17 3 18 4 19 5 20 6 21 19 22 20 23
REMARK SMILES IDX 21 24 22 25 23 26 24 27 25 28 26 29 87 30 27 31 86 32 28 33
REMARK SMILES IDX 29 34 30 35 80 36 31 37 85 38 79 39 81 40 32 41 84 42 78 43
REMARK SMILES IDX 77 44 33 46 65 47 45 48 64 49 46 50 49 51 63 52 82 53 47 54
REMARK SMILES IDX 48 55 62 57 83 58 50 59 34 60 35 61 43 62 36 63 37 64 41 65
REMARK SMILES IDX 44 66 38 67 39 68 42 69 40 70 66 71 67 72 75 73 68 74 69 75
REMARK SMILES IDX 73 76 76 77 70 78 71 79 74 80 72 81 51 82 52 83 60 84 53 85
REMARK SMILES IDX 54 86 58 87 61 88 55 89 56 90 59 91 57 92
REMARK H PARENT 9 13 81 45 49 56
REMARK Flexibility Score: inf
ROOT
ATOM      1  C   UNL A   1      34.631  22.774  24.346  1.00  0.00     0.202 C 
ENDROOT
BRANCH   1   2
ATOM      2  C   UNL A   1      33.272  23.379  24.713  1.00  0.00     0.261 C 
BRANCH   2   3
ATOM      3  O   UNL A   1      33.229  24.774  24.371  1.00  0.00    -0.458 OA
BRANCH   3   4
ATOM      4  C   UNL A   1      32.397  25.530  25.129  1.00  0.00     0.358 C 
ATOM      5  O   UNL A   1      32.108  25.346  26.303  1.00  0.00    -0.244 OA
BRANCH   4   6
ATOM      6  C   UNL A   1      31.992  26.748  24.395  1.00  0.00     0.166 A 
ATOM      7  C   UNL A   1      31.256  28.859  22.879  1.00  0.00     0.144 A 
ATOM      8  C   UNL A   1      31.640  28.997  24.217  1.00  0.00     0.158 A 
ATOM      9  N   UNL A   1      31.168  27.638  22.319  1.00  0.00    -0.235 NA
ATOM     10  N   UNL A   1      32.008  27.957  25.011  1.00  0.00    -0.244 NA
ATOM     11  C   UNL A   1      31.564  26.593  23.087  1.00  0.00     0.149 A 
BRANCH   7  12
ATOM     12  N   UNL A   1      31.001  29.914  22.030  1.00  0.00    -0.365 N 
ATOM     13  H   UNL A   1      31.711  30.560  21.808  1.00  0.00     0.162 HD
BRANCH  12  14
ATOM     14  C   UNL A   1      29.667  30.060  21.468  1.00  0.00     0.156 C 
BRANCH  14  15
ATOM     15  C   UNL A   1      28.598  30.465  22.426  1.00  0.00     0.037 A 
ATOM     16  C   UNL A   1      28.862  33.077  22.553  1.00  0.00     0.071 C 
ATOM     17  C   UNL A   1      28.260  31.768  22.899  1.00  0.00     0.086 A 
ATOM     18  N   UNL A   1      27.245  31.723  23.769  1.00  0.00    -0.085 NA
ATOM     19  O   UNL A   1      26.903  30.394  23.887  1.00  0.00    -0.361 OA
ATOM     20  C   UNL A   1      27.709  29.646  23.091  1.00  0.00     0.138 A 
ATOM     21  C   UNL A   1      27.475  28.189  23.115  1.00  0.00     0.091 C 
ENDBRANCH  14  15
ENDBRANCH  12  14
ENDBRANCH   7  12
ENDBRANCH   4   6
ENDBRANCH   3   4
ENDBRANCH   2   3
ENDBRANCH   1   2
BRANCH   1  22
ATOM     22  O   UNL A   1      35.521  22.569  25.445  1.00  0.00    -0.374 OA
BRANCH  22  23
ATOM     23  C   UNL A   1      35.914  21.220  25.708  1.00  0.00     0.202 C 
BRANCH  23  24
ATOM     24  C   UNL A   1      37.230  20.775  25.060  1.00  0.00     0.261 C 
BRANCH  24  25
ATOM     25  O   UNL A   1      38.241  21.792  25.183  1.00  0.00    -0.460 OA
BRANCH  25  26
ATOM     26  C   UNL A   1      39.246  21.485  26.033  1.00  0.00     0.338 C 
ATOM     27  O   UNL A   1      39.835  20.416  26.130  1.00  0.00    -0.246 OA
BRANCH  26  28
ATOM     28  C   UNL A   1      39.686  22.686  26.767  1.00  0.00     0.060 A 
ATOM     29  C   UNL A   1      38.993  23.875  26.510  1.00  0.00     0.016 A 
ATOM     30  C   UNL A   1      40.793  22.682  27.620  1.00  0.00     0.016 A 
ATOM     31  C   UNL A   1      39.452  25.079  27.038  1.00  0.00     0.010 A 
ATOM     32  C   UNL A   1      41.255  23.895  28.149  1.00  0.00     0.010 A 
ATOM     33  C   UNL A   1      40.614  25.103  27.820  1.00  0.00    -0.014 A 
BRANCH  33  34
ATOM     34  C   UNL A   1      41.234  26.415  28.131  1.00  0.00     0.031 A 
ATOM     35  C   UNL A   1      42.638  26.686  27.659  1.00  0.00     0.074 A 
ATOM     36  C   UNL A   1      40.534  27.377  28.758  1.00  0.00     0.049 A 
ATOM     37  N   UNL A   1      43.354  27.778  27.766  1.00  0.00    -0.248 NA
ATOM     38  C   UNL A   1      43.330  25.582  26.974  1.00  0.00     0.031 C 
ATOM     39  C   UNL A   1      39.161  27.246  29.241  1.00  0.00     0.029 A 
ATOM     40  N   UNL A   1      40.885  28.663  29.089  1.00  0.00    -0.354 N 
ATOM     41  C   UNL A   1      44.574  27.490  27.169  1.00  0.00     0.074 A 
ATOM     42  C   UNL A   1      44.518  26.114  26.726  1.00  0.00     0.031 C 
ATOM     43  C   UNL A   1      38.785  28.404  29.809  1.00  0.00     0.029 A 
ATOM     44  C   UNL A   1      39.897  29.352  29.747  1.00  0.00     0.049 A 
ATOM     45  H   UNL A   1      41.764  29.054  28.875  1.00  0.00     0.167 HD
ATOM     46  C   UNL A   1      45.642  28.304  26.992  1.00  0.00     0.037 A 
ATOM     47  C   UNL A   1      39.897  30.602  30.250  1.00  0.00     0.037 A 
ATOM     48  C   UNL A   1      45.691  29.681  27.406  1.00  0.00     0.049 A 
ATOM     49  C   UNL A   1      41.117  31.471  30.073  1.00  0.00     0.074 A 
ATOM     50  C   UNL A   1      46.708  30.600  27.220  1.00  0.00     0.029 A 
ATOM     51  N   UNL A   1      44.680  30.334  28.094  1.00  0.00    -0.354 N 
ATOM     52  N   UNL A   1      42.239  31.209  29.450  1.00  0.00    -0.248 NA
ATOM     53  C   UNL A   1      41.063  32.818  30.663  1.00  0.00     0.031 C 
ATOM     54  C   UNL A   1      46.334  31.796  27.840  1.00  0.00     0.029 A 
ATOM     55  C   UNL A   1      45.064  31.636  28.368  1.00  0.00     0.049 A 
ATOM     56  H   UNL A   1      43.817  29.932  28.348  1.00  0.00     0.167 HD
ATOM     57  C   UNL A   1      43.009  32.362  29.547  1.00  0.00     0.074 A 
ATOM     58  C   UNL A   1      42.220  33.333  30.273  1.00  0.00     0.031 C 
ATOM     59  C   UNL A   1      44.259  32.595  29.079  1.00  0.00     0.037 A 
BRANCH  46  60
ATOM     60  C   UNL A   1      46.859  27.731  26.331  1.00  0.00     0.064 A 
ATOM     61  C   UNL A   1      47.888  27.132  27.072  1.00  0.00     0.173 A 
ATOM     62  C   UNL A   1      46.958  27.712  24.932  1.00  0.00     0.173 A 
ATOM     63  F   UNL A   1      47.843  27.136  28.413  1.00  0.00    -0.203 F 
ATOM     64  C   UNL A   1      48.977  26.543  26.435  1.00  0.00     0.198 A 
ATOM     65  C   UNL A   1      48.037  27.102  24.298  1.00  0.00     0.198 A 
ATOM     66  F   UNL A   1      45.997  28.269  24.179  1.00  0.00    -0.203 F 
ATOM     67  F   UNL A   1      49.962  25.998  27.163  1.00  0.00    -0.200 F 
ATOM     68  C   UNL A   1      49.046  26.519  25.050  1.00  0.00     0.200 A 
ATOM     69  F   UNL A   1      48.095  27.069  22.960  1.00  0.00    -0.200 F 
ATOM     70  F   UNL A   1      50.086  25.936  24.439  1.00  0.00    -0.200 F 
ENDBRANCH  46  60
BRANCH  47  71
ATOM     71  C   UNL A   1      38.711  31.117  30.985  1.00  0.00     0.064 A 
ATOM     72  C   UNL A   1      38.628  31.031  32.383  1.00  0.00     0.173 A 
ATOM     73  C   UNL A   1      37.612  31.652  30.299  1.00  0.00     0.173 A 
ATOM     74  F   UNL A   1      39.642  30.502  33.082  1.00  0.00    -0.203 F 
ATOM     75  C   UNL A   1      37.478  31.430  33.060  1.00  0.00     0.198 A 
ATOM     76  C   UNL A   1      36.474  32.079  30.980  1.00  0.00     0.198 A 
ATOM     77  F   UNL A   1      37.638  31.754  28.961  1.00  0.00    -0.203 F 
ATOM     78  F   UNL A   1      37.399  31.278  34.389  1.00  0.00    -0.200 F 
ATOM     79  C   UNL A   1      36.403  31.956  32.359  1.00  0.00     0.200 A 
ATOM     80  F   UNL A   1      35.442  32.595  30.300  1.00  0.00    -0.200 F 
ATOM     81  F   UNL A   1      35.294  32.331  33.011  1.00  0.00    -0.200 F 
ENDBRANCH  47  71
BRANCH  59  82
ATOM     82  C   UNL A   1      44.839  33.962  29.304  1.00  0.00     0.064 A 
ATOM     83  C   UNL A   1      45.615  34.253  30.436  1.00  0.00     0.173 A 
ATOM     84  C   UNL A   1      44.651  34.979  28.356  1.00  0.00     0.173 A 
ATOM     85  F   UNL A   1      45.812  33.318  31.377  1.00  0.00    -0.203 F 
ATOM     86  C   UNL A   1      46.159  35.520  30.623  1.00  0.00     0.198 A 
ATOM     87  C   UNL A   1      45.222  36.237  28.532  1.00  0.00     0.198 A 
ATOM     88  F   UNL A   1      43.925  34.749  27.252  1.00  0.00    -0.203 F 
ATOM     89  F   UNL A   1      46.857  35.790  31.735  1.00  0.00    -0.200 F 
ATOM     90  C   UNL A   1      45.968  36.508  29.669  1.00  0.00     0.200 A 
ATOM     91  F   UNL A   1      45.048  37.185  27.602  1.00  0.00    -0.200 F 
ATOM     92  F   UNL A   1      46.500  37.725  29.846  1.00  0.00    -0.200 F 
ENDBRANCH  59  82
ENDBRANCH  33  34
ENDBRANCH  26  28
ENDBRANCH  25  26
ENDBRANCH  24  25
ENDBRANCH  23  24
ENDBRANCH  22  23
ENDBRANCH   1  22
TORSDOF 17
ENDMDL
MODEL 3
REMARK VINA RESULT:     -11.5      2.473      4.882
REMARK SMILES Cc1noc(C)c1CNc1cnc(C(=O)OCCOCCOC(=O)c2ccc(-c3c4nc(c(-c5c(F)c(F)c(F)c(F)c5F)c5ccc([nH]5)c(-c5c(F)c(F)c(F)c(F)c5F)c5nc(c(-c6c(F)c(F)c(F)c(F)c6F)c6ccc3[nH]6)C=C5)C=C4)cc2)cn1
REMARK SMILES IDX 18 1 17 2 16 3 14 4 15 5 13 6 10 7 11 8 89 9 12 10 88 11
REMARK SMILES IDX 9 12 8 14 7 15 1 16 2 17 3 18 4 19 5 20 6 21 19 22 20 23
REMARK SMILES IDX 21 24 22 25 23 26 24 27 25 28 26 29 87 30 27 31 86 32 28 33
REMARK SMILES IDX 29 34 30 35 80 36 31 37 85 38 79 39 81 40 32 41 84 42 78 43
REMARK SMILES IDX 77 44 33 46 65 47 45 48 64 49 46 50 49 51 63 52 82 53 47 54
REMARK SMILES IDX 48 55 62 57 83 58 50 59 34 60 35 61 43 62 36 63 37 64 41 65
REMARK SMILES IDX 44 66 38 67 39 68 42 69 40 70 66 71 67 72 75 73 68 74 69 75
REMARK SMILES IDX 73 76 76 77 70 78 71 79 74 80 72 81 51 82 52 83 60 84 53 85
REMARK SMILES IDX 54 86 58 87 61 88 55 89 56 90 59 91 57 92
REMARK H PARENT 9 13 81 45 49 56
REMARK Flexibility Score: inf
ROOT
ATOM      1  C   UNL A   1      31.816  26.099  26.532  1.00  0.00     0.202 C 
ENDROOT
BRANCH   1   2
ATOM      2  C   UNL A   1      32.682  24.998  25.912  1.00  0.00     0.261 C 
BRANCH   2   3
ATOM      3  O   UNL A   1      33.548  25.542  24.901  1.00  0.00    -0.458 OA
BRANCH   3   4
ATOM      4  C   UNL A   1      33.093  25.429  23.630  1.00  0.00     0.358 C 
ATOM      5  O   UNL A   1      33.009  24.402  22.971  1.00  0.00    -0.244 OA
BRANCH   4   6
ATOM      6  C   UNL A   1      32.532  26.716  23.165  1.00  0.00     0.166 A 
ATOM      7  C   UNL A   1      31.348  28.958  22.232  1.00  0.00     0.144 A 
ATOM      8  C   UNL A   1      32.650  28.958  22.746  1.00  0.00     0.158 A 
ATOM      9  N   UNL A   1      30.607  27.835  22.257  1.00  0.00    -0.235 NA
ATOM     10  N   UNL A   1      33.273  27.851  23.230  1.00  0.00    -0.244 NA
ATOM     11  C   UNL A   1      31.225  26.715  22.707  1.00  0.00     0.149 A 
BRANCH   7  12
ATOM     12  N   UNL A   1      30.752  30.042  21.625  1.00  0.00    -0.365 N 
ATOM     13  H   UNL A   1      31.300  30.755  21.224  1.00  0.00     0.162 HD
BRANCH  12  14
ATOM     14  C   UNL A   1      29.299  30.117  21.586  1.00  0.00     0.156 C 
BRANCH  14  15
ATOM     15  C   UNL A   1      28.714  31.481  21.735  1.00  0.00     0.037 A 
ATOM     16  C   UNL A   1      27.659  31.944  19.373  1.00  0.00     0.071 C 
ATOM     17  C   UNL A   1      28.015  32.270  20.774  1.00  0.00     0.086 A 
ATOM     18  N   UNL A   1      27.657  33.455  21.281  1.00  0.00    -0.085 NA
ATOM     19  O   UNL A   1      28.119  33.467  22.579  1.00  0.00    -0.361 OA
ATOM     20  C   UNL A   1      28.749  32.295  22.848  1.00  0.00     0.138 A 
ATOM     21  C   UNL A   1      29.314  32.158  24.204  1.00  0.00     0.091 C 
ENDBRANCH  14  15
ENDBRANCH  12  14
ENDBRANCH   7  12
ENDBRANCH   4   6
ENDBRANCH   3   4
ENDBRANCH   2   3
ENDBRANCH   1   2
BRANCH   1  22
ATOM     22  O   UNL A   1      32.444  27.378  26.640  1.00  0.00    -0.374 OA
BRANCH  22  23
ATOM     23  C   UNL A   1      31.651  28.513  26.286  1.00  0.00     0.202 C 
BRANCH  23  24
ATOM     24  C   UNL A   1      31.963  29.804  27.050  1.00  0.00     0.261 C 
BRANCH  24  25
ATOM     25  O   UNL A   1      33.075  30.502  26.461  1.00  0.00    -0.460 OA
BRANCH  25  26
ATOM     26  C   UNL A   1      33.601  31.476  27.237  1.00  0.00     0.338 C 
ATOM     27  O   UNL A   1      33.026  32.460  27.682  1.00  0.00    -0.246 OA
BRANCH  26  28
ATOM     28  C   UNL A   1      34.977  31.128  27.640  1.00  0.00     0.060 A 
ATOM     29  C   UNL A   1      35.283  29.765  27.736  1.00  0.00     0.016 A 
ATOM     30  C   UNL A   1      35.922  32.094  27.997  1.00  0.00     0.016 A 
ATOM     31  C   UNL A   1      36.505  29.361  28.266  1.00  0.00     0.010 A 
ATOM     32  C   UNL A   1      37.151  31.685  28.531  1.00  0.00     0.010 A 
ATOM     33  C   UNL A   1      37.427  30.317  28.713  1.00  0.00    -0.014 A 
BRANCH  33  34
ATOM     34  C   UNL A   1      38.585  29.864  29.522  1.00  0.00     0.031 A 
ATOM     35  C   UNL A   1      38.735  30.379  30.930  1.00  0.00     0.074 A 
ATOM     36  C   UNL A   1      39.448  28.952  29.041  1.00  0.00     0.049 A 
ATOM     37  N   UNL A   1      39.632  30.076  31.834  1.00  0.00    -0.248 NA
ATOM     38  C   UNL A   1      37.742  31.368  31.380  1.00  0.00     0.031 C 
ATOM     39  C   UNL A   1      39.396  28.360  27.706  1.00  0.00     0.029 A 
ATOM     40  N   UNL A   1      40.538  28.359  29.629  1.00  0.00    -0.354 N 
ATOM     41  C   UNL A   1      39.314  30.836  32.952  1.00  0.00     0.074 A 
ATOM     42  C   UNL A   1      38.161  31.638  32.608  1.00  0.00     0.031 C 
ATOM     43  C   UNL A   1      40.410  27.489  27.575  1.00  0.00     0.029 A 
ATOM     44  C   UNL A   1      41.195  27.476  28.809  1.00  0.00     0.049 A 
ATOM     45  H   UNL A   1      40.823  28.550  30.553  1.00  0.00     0.167 HD
ATOM     46  C   UNL A   1      39.921  30.853  34.163  1.00  0.00     0.037 A 
ATOM     47  C   UNL A   1      42.308  26.748  29.029  1.00  0.00     0.037 A 
ATOM     48  C   UNL A   1      41.051  30.036  34.517  1.00  0.00     0.049 A 
ATOM     49  C   UNL A   1      42.984  26.820  30.375  1.00  0.00     0.074 A 
ATOM     50  C   UNL A   1      41.698  29.944  35.736  1.00  0.00     0.029 A 
ATOM     51  N   UNL A   1      41.703  29.174  33.649  1.00  0.00    -0.354 N 
ATOM     52  N   UNL A   1      42.637  27.493  31.444  1.00  0.00    -0.248 NA
ATOM     53  C   UNL A   1      44.207  26.019  30.545  1.00  0.00     0.031 C 
ATOM     54  C   UNL A   1      42.775  29.064  35.593  1.00  0.00     0.029 A 
ATOM     55  C   UNL A   1      42.768  28.570  34.299  1.00  0.00     0.049 A 
ATOM     56  H   UNL A   1      41.448  29.014  32.712  1.00  0.00     0.167 HD
ATOM     57  C   UNL A   1      43.576  27.176  32.418  1.00  0.00     0.074 A 
ATOM     58  C   UNL A   1      44.498  26.235  31.820  1.00  0.00     0.031 C 
ATOM     59  C   UNL A   1      43.667  27.624  33.693  1.00  0.00     0.037 A 
BRANCH  46  60
ATOM     60  C   UNL A   1      39.389  31.794  35.201  1.00  0.00     0.064 A 
ATOM     61  C   UNL A   1      38.515  31.362  36.209  1.00  0.00     0.173 A 
ATOM     62  C   UNL A   1      39.823  33.128  35.233  1.00  0.00     0.173 A 
ATOM     63  F   UNL A   1      38.063  30.099  36.214  1.00  0.00    -0.203 F 
ATOM     64  C   UNL A   1      38.088  32.235  37.206  1.00  0.00     0.198 A 
ATOM     65  C   UNL A   1      39.412  33.992  36.244  1.00  0.00     0.198 A 
ATOM     66  F   UNL A   1      40.663  33.588  34.292  1.00  0.00    -0.203 F 
ATOM     67  F   UNL A   1      37.232  31.808  38.145  1.00  0.00    -0.200 F 
ATOM     68  C   UNL A   1      38.544  33.545  37.228  1.00  0.00     0.200 A 
ATOM     69  F   UNL A   1      39.863  35.253  36.271  1.00  0.00    -0.200 F 
ATOM     70  F   UNL A   1      38.145  34.379  38.199  1.00  0.00    -0.200 F 
ENDBRANCH  46  60
BRANCH  47  71
ATOM     71  C   UNL A   1      42.872  25.893  27.951  1.00  0.00     0.064 A 
ATOM     72  C   UNL A   1      43.756  26.415  26.996  1.00  0.00     0.173 A 
ATOM     73  C   UNL A   1      42.492  24.549  27.822  1.00  0.00     0.173 A 
ATOM     74  F   UNL A   1      44.129  27.701  27.062  1.00  0.00    -0.203 F 
ATOM     75  C   UNL A   1      44.211  25.635  25.935  1.00  0.00     0.198 A 
ATOM     76  C   UNL A   1      42.972  23.762  26.777  1.00  0.00     0.198 A 
ATOM     77  F   UNL A   1      41.646  24.001  28.706  1.00  0.00    -0.203 F 
ATOM     78  F   UNL A   1      45.004  26.176  25.000  1.00  0.00    -0.200 F 
ATOM     79  C   UNL A   1      43.821  24.309  25.828  1.00  0.00     0.200 A 
ATOM     80  F   UNL A   1      42.599  22.479  26.683  1.00  0.00    -0.200 F 
ATOM     81  F   UNL A   1      44.252  23.562  24.802  1.00  0.00    -0.200 F 
ENDBRANCH  47  71
BRANCH  59  82
ATOM     82  C   UNL A   1      44.781  27.079  34.541  1.00  0.00     0.064 A 
ATOM     83  C   UNL A   1      44.594  25.963  35.369  1.00  0.00     0.173 A 
ATOM     84  C   UNL A   1      46.059  27.655  34.491  1.00  0.00     0.173 A 
ATOM     85  F   UNL A   1      43.387  25.385  35.462  1.00  0.00    -0.203 F 
ATOM     86  C   UNL A   1      45.641  25.460  36.137  1.00  0.00     0.198 A 
ATOM     87  C   UNL A   1      47.111  27.131  35.236  1.00  0.00     0.198 A 
ATOM     88  F   UNL A   1      46.292  28.718  33.706  1.00  0.00    -0.203 F 
ATOM     89  F   UNL A   1      45.429  24.422  36.958  1.00  0.00    -0.200 F 
ATOM     90  C   UNL A   1      46.899  26.039  36.064  1.00  0.00     0.200 A 
ATOM     91  F   UNL A   1      48.329  27.683  35.154  1.00  0.00    -0.200 F 
ATOM     92  F   UNL A   1      47.908  25.548  36.798  1.00  0.00    -0.200 F 
ENDBRANCH  59  82
ENDBRANCH  33  34
ENDBRANCH  26  28
ENDBRANCH  25  26
ENDBRANCH  24  25
ENDBRANCH  23  24
ENDBRANCH  22  23
ENDBRANCH   1  22
TORSDOF 17
ENDMDL
