MODEL 1
REMARK VINA RESULT:     -12.8      0.000      0.000
REMARK SMILES C[C@@H](CC[NH+](C)C)NC(=O)Cn1cccc1C(=O)OCCOCCOC(=O)c1ccc(-c2c3nc(c(-c4c(F)c(F)c(F)c(F)c4F)c4ccc([nH]4)c(-c4c(F)c(F)c(F)c(F)c4F)c4nc(c(-c5c(F)c(F)c(F)c(F)c5F)c5ccc2[nH]5)C=C4)C=C3)cc1
REMARK SMILES IDX 20 1 19 2 17 3 18 4 16 5 12 6 13 7 14 8 15 9 11 10 9 11 8 12
REMARK SMILES IDX 10 14 2 15 1 16 3 17 4 18 5 19 6 20 7 21 21 23 22 24 23 25
REMARK SMILES IDX 24 26 25 27 26 28 27 29 28 30 29 31 90 32 30 33 89 34 31 35
REMARK SMILES IDX 32 36 33 37 83 38 34 39 88 40 82 41 84 42 35 43 87 44 81 45
REMARK SMILES IDX 80 46 36 48 68 49 48 50 67 51 49 52 52 53 66 54 85 55 50 56
REMARK SMILES IDX 51 57 65 59 86 60 53 61 37 62 38 63 46 64 39 65 40 66 44 67
REMARK SMILES IDX 47 68 41 69 42 70 45 71 43 72 69 73 70 74 78 75 71 76 72 77
REMARK SMILES IDX 76 78 79 79 73 80 74 81 77 82 75 83 54 84 55 85 63 86 56 87
REMARK SMILES IDX 57 88 61 89 64 90 58 91 59 92 62 93 60 94
REMARK H PARENT 8 13 5 22 84 47 52 58
REMARK Flexibility Score: inf
ROOT
ATOM      1  C   UNL A   1      30.187  28.551  23.939  1.00  0.00     0.261 C 
ENDROOT
BRANCH   1   2
ATOM      2  O   UNL A   1      30.010  26.795  23.663  1.00  0.00    -0.459 OA
BRANCH   2   3
ATOM      3  C   UNL A   1      30.681  25.444  23.869  1.00  0.00     0.355 C 
ATOM      4  O   UNL A   1      30.216  24.429  23.466  1.00  0.00    -0.244 OA
BRANCH   3   5
ATOM      5  C   UNL A   1      32.062  25.418  24.417  1.00  0.00     0.128 A 
ATOM      6  N   UNL A   1      33.115  24.994  23.666  1.00  0.00    -0.333 N 
ATOM      7  C   UNL A   1      34.254  24.852  24.402  1.00  0.00     0.087 A 
ATOM      8  C   UNL A   1      34.014  25.457  25.615  1.00  0.00     0.020 A 
ATOM      9  C   UNL A   1      32.626  25.801  25.638  1.00  0.00     0.035 A 
BRANCH   6  10
ATOM     10  C   UNL A   1      33.042  25.267  22.259  1.00  0.00     0.222 C 
BRANCH  10  11
ATOM     11  C   UNL A   1      33.025  23.890  21.592  1.00  0.00     0.240 C 
ATOM     12  N   UNL A   1      32.530  22.702  22.116  1.00  0.00    -0.352 N 
ATOM     13  H   UNL A   1      32.026  22.288  21.377  1.00  0.00     0.163 HD
ATOM     14  O   UNL A   1      33.473  23.801  20.438  1.00  0.00    -0.273 OA
BRANCH  12  15
ATOM     15  C   UNL A   1      32.371  21.597  23.444  1.00  0.00     0.084 C 
ATOM     16  C   UNL A   1      32.020  20.420  22.430  1.00  0.00     0.031 C 
BRANCH  15  17
ATOM     17  C   UNL A   1      33.510  21.430  25.014  1.00  0.00     0.086 C 
BRANCH  17  18
ATOM     18  C   UNL A   1      35.226  20.976  25.542  1.00  0.00     0.263 C 
BRANCH  18  19
ATOM     19  N   UNL A   1      36.669  21.141  25.088  1.00  0.00    -0.340 N 
ATOM     20  C   UNL A   1      37.563  20.023  24.793  1.00  0.00     0.332 C 
ATOM     21  C   UNL A   1      37.353  22.428  24.946  1.00  0.00     0.332 C 
ATOM     22  H   UNL A   1      35.651  21.091  25.099  1.00  0.00     0.347 HD
ENDBRANCH  18  19
ENDBRANCH  17  18
ENDBRANCH  15  17
ENDBRANCH  12  15
ENDBRANCH  10  11
ENDBRANCH   6  10
ENDBRANCH   3   5
ENDBRANCH   2   3
ENDBRANCH   1   2
BRANCH   1  23
ATOM     23  C   UNL A   1      31.496  29.584  24.801  1.00  0.00     0.202 C 
BRANCH  23  24
ATOM     24  O   UNL A   1      32.992  29.419  25.074  1.00  0.00    -0.374 OA
BRANCH  24  25
ATOM     25  C   UNL A   1      33.897  29.225  26.269  1.00  0.00     0.202 C 
BRANCH  25  26
ATOM     26  C   UNL A   1      34.263  30.295  27.458  1.00  0.00     0.261 C 
BRANCH  26  27
ATOM     27  O   UNL A   1      35.260  30.022  28.474  1.00  0.00    -0.460 OA
BRANCH  27  28
ATOM     28  C   UNL A   1      36.458  30.625  28.357  1.00  0.00     0.338 C 
ATOM     29  O   UNL A   1      36.644  31.829  28.308  1.00  0.00    -0.246 OA
BRANCH  28  30
ATOM     30  C   UNL A   1      37.554  29.633  28.234  1.00  0.00     0.060 A 
ATOM     31  C   UNL A   1      37.696  28.741  29.303  1.00  0.00     0.016 A 
ATOM     32  C   UNL A   1      38.516  29.675  27.212  1.00  0.00     0.016 A 
ATOM     33  C   UNL A   1      38.873  28.035  29.454  1.00  0.00     0.010 A 
ATOM     34  C   UNL A   1      39.713  28.983  27.374  1.00  0.00     0.010 A 
ATOM     35  C   UNL A   1      39.907  28.221  28.531  1.00  0.00    -0.014 A 
BRANCH  35  36
ATOM     36  C   UNL A   1      41.191  27.565  28.831  1.00  0.00     0.031 A 
ATOM     37  C   UNL A   1      41.247  26.140  28.275  1.00  0.00     0.074 A 
ATOM     38  C   UNL A   1      42.039  28.286  29.633  1.00  0.00     0.049 A 
ATOM     39  N   UNL A   1      41.910  25.109  28.698  1.00  0.00    -0.248 NA
ATOM     40  C   UNL A   1      40.389  25.787  27.110  1.00  0.00     0.031 C 
ATOM     41  C   UNL A   1      41.801  29.687  30.056  1.00  0.00     0.029 A 
ATOM     42  N   UNL A   1      43.233  28.015  30.274  1.00  0.00    -0.354 N 
ATOM     43  C   UNL A   1      41.711  24.069  27.767  1.00  0.00     0.074 A 
ATOM     44  C   UNL A   1      40.680  24.505  26.878  1.00  0.00     0.031 C 
ATOM     45  C   UNL A   1      42.743  30.098  30.931  1.00  0.00     0.029 A 
ATOM     46  C   UNL A   1      43.698  29.033  31.156  1.00  0.00     0.049 A 
ATOM     47  H   UNL A   1      43.728  27.176  30.131  1.00  0.00     0.167 HD
ATOM     48  C   UNL A   1      42.509  22.964  27.709  1.00  0.00     0.037 A 
ATOM     49  C   UNL A   1      44.749  29.000  32.038  1.00  0.00     0.037 A 
ATOM     50  C   UNL A   1      43.473  22.997  28.754  1.00  0.00     0.049 A 
ATOM     51  C   UNL A   1      45.426  27.725  31.761  1.00  0.00     0.074 A 
ATOM     52  C   UNL A   1      43.366  22.778  30.100  1.00  0.00     0.029 A 
ATOM     53  N   UNL A   1      44.654  23.649  28.494  1.00  0.00    -0.354 N 
ATOM     54  N   UNL A   1      46.147  27.487  30.706  1.00  0.00    -0.248 NA
ATOM     55  C   UNL A   1      45.215  26.601  32.681  1.00  0.00     0.031 C 
ATOM     56  C   UNL A   1      44.269  23.704  30.660  1.00  0.00     0.029 A 
ATOM     57  C   UNL A   1      45.027  24.299  29.643  1.00  0.00     0.049 A 
ATOM     58  H   UNL A   1      45.143  23.650  27.638  1.00  0.00     0.167 HD
ATOM     59  C   UNL A   1      46.175  26.114  30.681  1.00  0.00     0.074 A 
ATOM     60  C   UNL A   1      45.903  25.667  32.029  1.00  0.00     0.031 C 
ATOM     61  C   UNL A   1      45.872  25.465  29.529  1.00  0.00     0.037 A 
BRANCH  48  62
ATOM     62  C   UNL A   1      42.678  21.911  26.655  1.00  0.00     0.064 A 
ATOM     63  C   UNL A   1      42.130  20.627  26.897  1.00  0.00     0.173 A 
ATOM     64  C   UNL A   1      43.636  21.998  25.639  1.00  0.00     0.173 A 
ATOM     65  F   UNL A   1      41.171  20.453  27.821  1.00  0.00    -0.203 F 
ATOM     66  C   UNL A   1      42.615  19.487  26.260  1.00  0.00     0.198 A 
ATOM     67  C   UNL A   1      44.087  20.857  24.969  1.00  0.00     0.198 A 
ATOM     68  F   UNL A   1      44.232  23.162  25.348  1.00  0.00    -0.203 F 
ATOM     69  F   UNL A   1      42.166  18.277  26.623  1.00  0.00    -0.200 F 
ATOM     70  C   UNL A   1      43.610  19.601  25.311  1.00  0.00     0.200 A 
ATOM     71  F   UNL A   1      45.050  20.970  24.044  1.00  0.00    -0.200 F 
ATOM     72  F   UNL A   1      44.134  18.503  24.750  1.00  0.00    -0.200 F 
ENDBRANCH  48  62
BRANCH  49  73
ATOM     73  C   UNL A   1      45.318  29.819  33.184  1.00  0.00     0.064 A 
ATOM     74  C   UNL A   1      44.879  29.806  34.514  1.00  0.00     0.173 A 
ATOM     75  C   UNL A   1      46.465  30.642  32.969  1.00  0.00     0.173 A 
ATOM     76  F   UNL A   1      43.747  29.188  34.863  1.00  0.00    -0.203 F 
ATOM     77  C   UNL A   1      45.591  30.452  35.546  1.00  0.00     0.198 A 
ATOM     78  C   UNL A   1      47.200  31.239  33.994  1.00  0.00     0.198 A 
ATOM     79  F   UNL A   1      46.928  30.902  31.739  1.00  0.00    -0.203 F 
ATOM     80  F   UNL A   1      45.131  30.400  36.804  1.00  0.00    -0.200 F 
ATOM     81  C   UNL A   1      46.771  31.130  35.292  1.00  0.00     0.200 A 
ATOM     82  F   UNL A   1      48.331  31.899  33.704  1.00  0.00    -0.200 F 
ATOM     83  F   UNL A   1      47.480  31.683  36.285  1.00  0.00    -0.200 F 
ENDBRANCH  49  73
BRANCH  61  84
ATOM     84  C   UNL A   1      46.114  26.296  28.281  1.00  0.00     0.064 A 
ATOM     85  C   UNL A   1      47.427  26.543  27.852  1.00  0.00     0.173 A 
ATOM     86  C   UNL A   1      45.104  26.971  27.576  1.00  0.00     0.173 A 
ATOM     87  F   UNL A   1      48.453  25.924  28.455  1.00  0.00    -0.203 F 
ATOM     88  C   UNL A   1      47.707  27.428  26.806  1.00  0.00     0.198 A 
ATOM     89  C   UNL A   1      45.376  27.854  26.530  1.00  0.00     0.198 A 
ATOM     90  F   UNL A   1      43.823  26.785  27.884  1.00  0.00    -0.203 F 
ATOM     91  F   UNL A   1      48.976  27.639  26.432  1.00  0.00    -0.200 F 
ATOM     92  C   UNL A   1      46.683  28.089  26.149  1.00  0.00     0.200 A 
ATOM     93  F   UNL A   1      44.370  28.472  25.891  1.00  0.00    -0.200 F 
ATOM     94  F   UNL A   1      46.951  28.932  25.143  1.00  0.00    -0.200 F 
ENDBRANCH  61  84
ENDBRANCH  35  36
ENDBRANCH  28  30
ENDBRANCH  27  28
ENDBRANCH  26  27
ENDBRANCH  25  26
ENDBRANCH  24  25
ENDBRANCH  23  24
ENDBRANCH   1  23
TORSDOF 20
ENDMDL
MODEL 2
REMARK VINA RESULT:     -12.7      1.625      2.261
REMARK SMILES C[C@@H](CC[NH+](C)C)NC(=O)Cn1cccc1C(=O)OCCOCCOC(=O)c1ccc(-c2c3nc(c(-c4c(F)c(F)c(F)c(F)c4F)c4ccc([nH]4)c(-c4c(F)c(F)c(F)c(F)c4F)c4nc(c(-c5c(F)c(F)c(F)c(F)c5F)c5ccc2[nH]5)C=C4)C=C3)cc1
REMARK SMILES IDX 20 1 19 2 17 3 18 4 16 5 12 6 13 7 14 8 15 9 11 10 9 11 8 12
REMARK SMILES IDX 10 14 2 15 1 16 3 17 4 18 5 19 6 20 7 21 21 23 22 24 23 25
REMARK SMILES IDX 24 26 25 27 26 28 27 29 28 30 29 31 90 32 30 33 89 34 31 35
REMARK SMILES IDX 32 36 33 37 83 38 34 39 88 40 82 41 84 42 35 43 87 44 81 45
REMARK SMILES IDX 80 46 36 48 68 49 48 50 67 51 49 52 52 53 66 54 85 55 50 56
REMARK SMILES IDX 51 57 65 59 86 60 53 61 37 62 38 63 46 64 39 65 40 66 44 67
REMARK SMILES IDX 47 68 41 69 42 70 45 71 43 72 69 73 70 74 78 75 71 76 72 77
REMARK SMILES IDX 76 78 79 79 73 80 74 81 77 82 75 83 54 84 55 85 63 86 56 87
REMARK SMILES IDX 57 88 61 89 64 90 58 91 59 92 62 93 60 94
REMARK H PARENT 8 13 5 22 84 47 52 58
REMARK Flexibility Score: inf
ROOT
ATOM      1  C   UNL A   1      33.683  28.629  27.121  1.00  0.00     0.261 C 
ENDROOT
BRANCH   1   2
ATOM      2  O   UNL A   1      32.917  27.109  26.581  1.00  0.00    -0.459 OA
BRANCH   2   3
ATOM      3  C   UNL A   1      31.585  26.462  26.227  1.00  0.00     0.355 C 
ATOM      4  O   UNL A   1      30.623  26.559  26.915  1.00  0.00    -0.244 OA
BRANCH   3   5
ATOM      5  C   UNL A   1      31.430  25.858  24.878  1.00  0.00     0.128 A 
ATOM      6  N   UNL A   1      31.357  24.509  24.710  1.00  0.00    -0.333 N 
ATOM      7  C   UNL A   1      31.421  24.147  23.396  1.00  0.00     0.087 A 
ATOM      8  C   UNL A   1      31.261  25.301  22.663  1.00  0.00     0.020 A 
ATOM      9  C   UNL A   1      31.284  26.388  23.592  1.00  0.00     0.035 A 
BRANCH   6  10
ATOM     10  C   UNL A   1      30.723  23.771  25.764  1.00  0.00     0.222 C 
BRANCH  10  11
ATOM     11  C   UNL A   1      31.855  22.983  26.427  1.00  0.00     0.240 C 
ATOM     12  N   UNL A   1      32.845  22.236  25.801  1.00  0.00    -0.352 N 
ATOM     13  H   UNL A   1      33.678  22.470  26.273  1.00  0.00     0.163 HD
ATOM     14  O   UNL A   1      31.938  23.023  27.665  1.00  0.00    -0.273 OA
BRANCH  12  15
ATOM     15  C   UNL A   1      33.323  21.090  24.588  1.00  0.00     0.084 C 
ATOM     16  C   UNL A   1      34.808  21.662  24.626  1.00  0.00     0.031 C 
BRANCH  15  17
ATOM     17  C   UNL A   1      32.842  19.209  24.454  1.00  0.00     0.086 C 
BRANCH  17  18
ATOM     18  C   UNL A   1      32.758  17.641  25.436  1.00  0.00     0.263 C 
BRANCH  18  19
ATOM     19  N   UNL A   1      33.334  16.231  25.437  1.00  0.00    -0.340 N 
ATOM     20  C   UNL A   1      34.751  15.930  25.244  1.00  0.00     0.332 C 
ATOM     21  C   UNL A   1      32.538  15.010  25.575  1.00  0.00     0.332 C 
ATOM     22  H   UNL A   1      32.961  17.132  25.737  1.00  0.00     0.347 HD
ENDBRANCH  18  19
ENDBRANCH  17  18
ENDBRANCH  15  17
ENDBRANCH  12  15
ENDBRANCH  10  11
ENDBRANCH   6  10
ENDBRANCH   3   5
ENDBRANCH   2   3
ENDBRANCH   1   2
BRANCH   1  23
ATOM     23  C   UNL A   1      33.334  30.438  26.756  1.00  0.00     0.202 C 
BRANCH  23  24
ATOM     24  O   UNL A   1      33.286  31.716  27.594  1.00  0.00    -0.374 OA
BRANCH  24  25
ATOM     25  C   UNL A   1      34.227  32.830  27.993  1.00  0.00     0.202 C 
BRANCH  25  26
ATOM     26  C   UNL A   1      35.858  32.777  28.164  1.00  0.00     0.261 C 
BRANCH  26  27
ATOM     27  O   UNL A   1      36.634  31.585  27.886  1.00  0.00    -0.460 OA
BRANCH  27  28
ATOM     28  C   UNL A   1      36.545  30.560  28.755  1.00  0.00     0.338 C 
ATOM     29  O   UNL A   1      35.709  30.447  29.636  1.00  0.00    -0.246 OA
BRANCH  28  30
ATOM     30  C   UNL A   1      37.641  29.582  28.553  1.00  0.00     0.060 A 
ATOM     31  C   UNL A   1      37.878  28.700  29.614  1.00  0.00     0.016 A 
ATOM     32  C   UNL A   1      38.520  29.628  27.458  1.00  0.00     0.016 A 
ATOM     33  C   UNL A   1      39.073  28.010  29.677  1.00  0.00     0.010 A 
ATOM     34  C   UNL A   1      39.735  28.953  27.531  1.00  0.00     0.010 A 
ATOM     35  C   UNL A   1      40.029  28.202  28.674  1.00  0.00    -0.014 A 
BRANCH  35  36
ATOM     36  C   UNL A   1      41.342  27.566  28.877  1.00  0.00     0.031 A 
ATOM     37  C   UNL A   1      41.370  26.133  28.338  1.00  0.00     0.074 A 
ATOM     38  C   UNL A   1      42.243  28.308  29.596  1.00  0.00     0.049 A 
ATOM     39  N   UNL A   1      42.078  25.116  28.721  1.00  0.00    -0.248 NA
ATOM     40  C   UNL A   1      40.424  25.753  27.253  1.00  0.00     0.031 C 
ATOM     41  C   UNL A   1      42.024  29.712  30.017  1.00  0.00     0.029 A 
ATOM     42  N   UNL A   1      43.489  28.060  30.141  1.00  0.00    -0.354 N 
ATOM     43  C   UNL A   1      41.817  24.060  27.823  1.00  0.00     0.074 A 
ATOM     44  C   UNL A   1      40.710  24.471  27.016  1.00  0.00     0.031 C 
ATOM     45  C   UNL A   1      43.029  30.148  30.807  1.00  0.00     0.029 A 
ATOM     46  C   UNL A   1      44.012  29.097  30.968  1.00  0.00     0.049 A 
ATOM     47  H   UNL A   1      43.981  27.225  29.970  1.00  0.00     0.167 HD
ATOM     48  C   UNL A   1      42.620  22.964  27.716  1.00  0.00     0.037 A 
ATOM     49  C   UNL A   1      45.133  29.089  31.760  1.00  0.00     0.037 A 
ATOM     50  C   UNL A   1      43.667  23.024  28.678  1.00  0.00     0.049 A 
ATOM     51  C   UNL A   1      45.800  27.818  31.447  1.00  0.00     0.074 A 
ATOM     52  C   UNL A   1      43.673  22.824  30.031  1.00  0.00     0.029 A 
ATOM     53  N   UNL A   1      44.814  23.684  28.312  1.00  0.00    -0.354 N 
ATOM     54  N   UNL A   1      46.435  27.572  30.340  1.00  0.00    -0.248 NA
ATOM     55  C   UNL A   1      45.680  26.705  32.397  1.00  0.00     0.031 C 
ATOM     56  C   UNL A   1      44.607  23.768  30.501  1.00  0.00     0.029 A 
ATOM     57  C   UNL A   1      45.272  24.356  29.418  1.00  0.00     0.049 A 
ATOM     58  H   UNL A   1      45.231  23.678  27.420  1.00  0.00     0.167 HD
ATOM     59  C   UNL A   1      46.478  26.199  30.333  1.00  0.00     0.074 A 
ATOM     60  C   UNL A   1      46.323  25.770  31.704  1.00  0.00     0.031 C 
ATOM     61  C   UNL A   1      46.090  25.529  29.218  1.00  0.00     0.037 A 
BRANCH  48  62
ATOM     62  C   UNL A   1      42.716  21.896  26.667  1.00  0.00     0.064 A 
ATOM     63  C   UNL A   1      42.159  20.625  26.951  1.00  0.00     0.173 A 
ATOM     64  C   UNL A   1      43.621  21.955  25.601  1.00  0.00     0.173 A 
ATOM     65  F   UNL A   1      41.248  20.478  27.926  1.00  0.00    -0.203 F 
ATOM     66  C   UNL A   1      42.590  19.470  26.304  1.00  0.00     0.198 A 
ATOM     67  C   UNL A   1      44.017  20.800  24.922  1.00  0.00     0.198 A 
ATOM     68  F   UNL A   1      44.221  23.106  25.266  1.00  0.00    -0.203 F 
ATOM     69  F   UNL A   1      42.140  18.272  26.703  1.00  0.00    -0.200 F 
ATOM     70  C   UNL A   1      43.536  19.556  25.302  1.00  0.00     0.200 A 
ATOM     71  F   UNL A   1      44.932  20.886  23.946  1.00  0.00    -0.200 F 
ATOM     72  F   UNL A   1      44.011  18.443  24.727  1.00  0.00    -0.200 F 
ENDBRANCH  48  62
BRANCH  49  73
ATOM     73  C   UNL A   1      45.783  29.932  32.844  1.00  0.00     0.064 A 
ATOM     74  C   UNL A   1      45.490  29.897  34.213  1.00  0.00     0.173 A 
ATOM     75  C   UNL A   1      46.861  30.807  32.513  1.00  0.00     0.173 A 
ATOM     76  F   UNL A   1      44.431  29.228  34.678  1.00  0.00    -0.203 F 
ATOM     77  C   UNL A   1      46.278  30.574  35.168  1.00  0.00     0.198 A 
ATOM     78  C   UNL A   1      47.674  31.435  33.458  1.00  0.00     0.198 A 
ATOM     79  F   UNL A   1      47.178  31.089  31.242  1.00  0.00    -0.203 F 
ATOM     80  F   UNL A   1      45.958  30.499  36.467  1.00  0.00    -0.200 F 
ATOM     81  C   UNL A   1      47.392  31.305  34.793  1.00  0.00     0.200 A 
ATOM     82  F   UNL A   1      48.737  32.147  33.053  1.00  0.00    -0.200 F 
ATOM     83  F   UNL A   1      48.178  31.889  35.708  1.00  0.00    -0.200 F 
ENDBRANCH  49  73
BRANCH  61  84
ATOM     84  C   UNL A   1      46.218  26.344  27.943  1.00  0.00     0.064 A 
ATOM     85  C   UNL A   1      47.485  26.762  27.507  1.00  0.00     0.173 A 
ATOM     86  C   UNL A   1      45.127  26.843  27.214  1.00  0.00     0.173 A 
ATOM     87  F   UNL A   1      48.586  26.316  28.133  1.00  0.00    -0.203 F 
ATOM     88  C   UNL A   1      47.643  27.643  26.433  1.00  0.00     0.198 A 
ATOM     89  C   UNL A   1      45.277  27.721  26.139  1.00  0.00     0.198 A 
ATOM     90  F   UNL A   1      43.883  26.487  27.526  1.00  0.00    -0.203 F 
ATOM     91  F   UNL A   1      48.871  28.020  26.053  1.00  0.00    -0.200 F 
ATOM     92  C   UNL A   1      46.539  28.127  25.752  1.00  0.00     0.200 A 
ATOM     93  F   UNL A   1      44.196  28.167  25.478  1.00  0.00    -0.200 F 
ATOM     94  F   UNL A   1      46.690  28.966  24.718  1.00  0.00    -0.200 F 
ENDBRANCH  61  84
ENDBRANCH  35  36
ENDBRANCH  28  30
ENDBRANCH  27  28
ENDBRANCH  26  27
ENDBRANCH  25  26
ENDBRANCH  24  25
ENDBRANCH  23  24
ENDBRANCH   1  23
TORSDOF 20
ENDMDL
MODEL 3
REMARK VINA RESULT:     -12.5      2.746      8.350
REMARK SMILES C[C@@H](CC[NH+](C)C)NC(=O)Cn1cccc1C(=O)OCCOCCOC(=O)c1ccc(-c2c3nc(c(-c4c(F)c(F)c(F)c(F)c4F)c4ccc([nH]4)c(-c4c(F)c(F)c(F)c(F)c4F)c4nc(c(-c5c(F)c(F)c(F)c(F)c5F)c5ccc2[nH]5)C=C4)C=C3)cc1
REMARK SMILES IDX 20 1 19 2 17 3 18 4 16 5 12 6 13 7 14 8 15 9 11 10 9 11 8 12
REMARK SMILES IDX 10 14 2 15 1 16 3 17 4 18 5 19 6 20 7 21 21 23 22 24 23 25
REMARK SMILES IDX 24 26 25 27 26 28 27 29 28 30 29 31 90 32 30 33 89 34 31 35
REMARK SMILES IDX 32 36 33 37 83 38 34 39 88 40 82 41 84 42 35 43 87 44 81 45
REMARK SMILES IDX 80 46 36 48 68 49 48 50 67 51 49 52 52 53 66 54 85 55 50 56
REMARK SMILES IDX 51 57 65 59 86 60 53 61 37 62 38 63 46 64 39 65 40 66 44 67
REMARK SMILES IDX 47 68 41 69 42 70 45 71 43 72 69 73 70 74 78 75 71 76 72 77
REMARK SMILES IDX 76 78 79 79 73 80 74 81 77 82 75 83 54 84 55 85 63 86 56 87
REMARK SMILES IDX 57 88 61 89 64 90 58 91 59 92 62 93 60 94
REMARK H PARENT 8 13 5 22 84 47 52 58
REMARK Flexibility Score: inf
ROOT
ATOM      1  C   UNL A   1      29.999  26.961  24.291  1.00  0.00     0.261 C 
ENDROOT
BRANCH   1   2
ATOM      2  O   UNL A   1      30.171  25.321  24.976  1.00  0.00    -0.459 OA
BRANCH   2   3
ATOM      3  C   UNL A   1      31.170  24.329  25.556  1.00  0.00     0.355 C 
ATOM      4  O   UNL A   1      30.841  23.410  26.233  1.00  0.00    -0.244 OA
BRANCH   3   5
ATOM      5  C   UNL A   1      32.581  24.397  25.097  1.00  0.00     0.128 A 
ATOM      6  N   UNL A   1      33.047  23.577  24.116  1.00  0.00    -0.333 N 
ATOM      7  C   UNL A   1      34.403  23.650  23.979  1.00  0.00     0.087 A 
ATOM      8  C   UNL A   1      34.811  24.747  24.704  1.00  0.00     0.020 A 
ATOM      9  C   UNL A   1      33.668  25.212  25.427  1.00  0.00     0.035 A 
BRANCH   6  10
ATOM     10  C   UNL A   1      32.109  23.213  23.092  1.00  0.00     0.222 C 
BRANCH  10  11
ATOM     11  C   UNL A   1      32.166  21.685  23.033  1.00  0.00     0.240 C 
ATOM     12  N   UNL A   1      32.649  20.818  24.005  1.00  0.00    -0.352 N 
ATOM     13  H   UNL A   1      31.986  20.091  24.051  1.00  0.00     0.163 HD
ATOM     14  O   UNL A   1      31.706  21.129  22.023  1.00  0.00    -0.273 OA
BRANCH  12  15
ATOM     15  C   UNL A   1      33.858  20.399  25.178  1.00  0.00     0.084 C 
ATOM     16  C   UNL A   1      33.027  19.101  25.579  1.00  0.00     0.031 C 
BRANCH  15  17
ATOM     17  C   UNL A   1      35.794  20.486  24.995  1.00  0.00     0.086 C 
BRANCH  17  18
ATOM     18  C   UNL A   1      37.199  21.677  24.801  1.00  0.00     0.263 C 
BRANCH  18  19
ATOM     19  N   UNL A   1      38.257  22.382  25.639  1.00  0.00    -0.340 N 
ATOM     20  C   UNL A   1      38.303  23.828  25.844  1.00  0.00     0.332 C 
ATOM     21  C   UNL A   1      39.382  21.710  26.292  1.00  0.00     0.332 C 
ATOM     22  H   UNL A   1      37.431  21.856  25.353  1.00  0.00     0.347 HD
ENDBRANCH  18  19
ENDBRANCH  17  18
ENDBRANCH  15  17
ENDBRANCH  12  15
ENDBRANCH  10  11
ENDBRANCH   6  10
ENDBRANCH   3   5
ENDBRANCH   2   3
ENDBRANCH   1   2
BRANCH   1  23
ATOM     23  C   UNL A   1      31.240  28.300  23.852  1.00  0.00     0.202 C 
BRANCH  23  24
ATOM     24  O   UNL A   1      31.712  29.592  24.521  1.00  0.00    -0.374 OA
BRANCH  24  25
ATOM     25  C   UNL A   1      31.381  30.400  25.754  1.00  0.00     0.202 C 
BRANCH  25  26
ATOM     26  C   UNL A   1      32.389  30.903  26.948  1.00  0.00     0.261 C 
BRANCH  26  27
ATOM     27  O   UNL A   1      33.821  30.687  26.902  1.00  0.00    -0.460 OA
BRANCH  27  28
ATOM     28  C   UNL A   1      34.308  29.572  27.477  1.00  0.00     0.338 C 
ATOM     29  O   UNL A   1      33.738  28.495  27.531  1.00  0.00    -0.246 OA
BRANCH  28  30
ATOM     30  C   UNL A   1      35.629  29.819  28.106  1.00  0.00     0.060 A 
ATOM     31  C   UNL A   1      36.678  30.117  27.229  1.00  0.00     0.016 A 
ATOM     32  C   UNL A   1      35.884  29.598  29.469  1.00  0.00     0.016 A 
ATOM     33  C   UNL A   1      37.985  30.010  27.662  1.00  0.00     0.010 A 
ATOM     34  C   UNL A   1      37.199  29.466  29.903  1.00  0.00     0.010 A 
ATOM     35  C   UNL A   1      38.239  29.607  28.977  1.00  0.00    -0.014 A 
BRANCH  35  36
ATOM     36  C   UNL A   1      39.646  29.357  29.335  1.00  0.00     0.031 A 
ATOM     37  C   UNL A   1      40.346  30.630  29.815  1.00  0.00     0.074 A 
ATOM     38  C   UNL A   1      40.097  28.089  29.071  1.00  0.00     0.049 A 
ATOM     39  N   UNL A   1      41.598  30.964  29.751  1.00  0.00    -0.248 NA
ATOM     40  C   UNL A   1      39.526  31.728  30.398  1.00  0.00     0.031 C 
ATOM     41  C   UNL A   1      39.234  26.972  28.617  1.00  0.00     0.029 A 
ATOM     42  N   UNL A   1      41.334  27.474  29.096  1.00  0.00    -0.354 N 
ATOM     43  C   UNL A   1      41.744  32.185  30.441  1.00  0.00     0.074 A 
ATOM     44  C   UNL A   1      40.425  32.663  30.715  1.00  0.00     0.031 C 
ATOM     45  C   UNL A   1      39.968  25.875  28.329  1.00  0.00     0.029 A 
ATOM     46  C   UNL A   1      41.368  26.146  28.580  1.00  0.00     0.049 A 
ATOM     47  H   UNL A   1      42.137  27.923  29.446  1.00  0.00     0.167 HD
ATOM     48  C   UNL A   1      42.952  32.659  30.860  1.00  0.00     0.037 A 
ATOM     49  C   UNL A   1      42.451  25.342  28.331  1.00  0.00     0.037 A 
ATOM     50  C   UNL A   1      43.997  31.796  30.427  1.00  0.00     0.049 A 
ATOM     51  C   UNL A   1      43.597  26.082  28.878  1.00  0.00     0.074 A 
ATOM     52  C   UNL A   1      44.566  31.599  29.199  1.00  0.00     0.029 A 
ATOM     53  N   UNL A   1      44.320  30.745  31.250  1.00  0.00    -0.354 N 
ATOM     54  N   UNL A   1      43.845  26.227  30.145  1.00  0.00    -0.248 NA
ATOM     55  C   UNL A   1      44.487  26.790  27.949  1.00  0.00     0.031 C 
ATOM     56  C   UNL A   1      44.838  30.216  29.178  1.00  0.00     0.029 A 
ATOM     57  C   UNL A   1      44.616  29.671  30.448  1.00  0.00     0.049 A 
ATOM     58  H   UNL A   1      44.335  30.758  32.235  1.00  0.00     0.167 HD
ATOM     59  C   UNL A   1      44.695  27.306  30.151  1.00  0.00     0.074 A 
ATOM     60  C   UNL A   1      45.289  27.374  28.835  1.00  0.00     0.031 C 
ATOM     61  C   UNL A   1      44.446  28.343  30.990  1.00  0.00     0.037 A 
BRANCH  48  62
ATOM     62  C   UNL A   1      43.316  33.737  31.837  1.00  0.00     0.064 A 
ATOM     63  C   UNL A   1      42.981  33.548  33.200  1.00  0.00     0.173 A 
ATOM     64  C   UNL A   1      43.622  35.046  31.447  1.00  0.00     0.173 A 
ATOM     65  F   UNL A   1      42.716  32.321  33.678  1.00  0.00    -0.203 F 
ATOM     66  C   UNL A   1      42.824  34.619  34.076  1.00  0.00     0.198 A 
ATOM     67  C   UNL A   1      43.509  36.113  32.342  1.00  0.00     0.198 A 
ATOM     68  F   UNL A   1      43.930  35.334  30.175  1.00  0.00    -0.203 F 
ATOM     69  F   UNL A   1      42.368  34.406  35.318  1.00  0.00    -0.200 F 
ATOM     70  C   UNL A   1      43.069  35.905  33.639  1.00  0.00     0.200 A 
ATOM     71  F   UNL A   1      43.752  37.361  31.917  1.00  0.00    -0.200 F 
ATOM     72  F   UNL A   1      42.847  36.946  34.453  1.00  0.00    -0.200 F 
ENDBRANCH  48  62
BRANCH  49  73
ATOM     73  C   UNL A   1      42.778  24.033  27.632  1.00  0.00     0.064 A 
ATOM     74  C   UNL A   1      42.690  22.749  28.185  1.00  0.00     0.173 A 
ATOM     75  C   UNL A   1      43.140  24.036  26.251  1.00  0.00     0.173 A 
ATOM     76  F   UNL A   1      42.485  22.572  29.493  1.00  0.00    -0.203 F 
ATOM     77  C   UNL A   1      42.826  21.584  27.403  1.00  0.00     0.198 A 
ATOM     78  C   UNL A   1      43.225  22.886  25.464  1.00  0.00     0.198 A 
ATOM     79  F   UNL A   1      43.427  25.170  25.598  1.00  0.00    -0.203 F 
ATOM     80  F   UNL A   1      42.723  20.379  27.982  1.00  0.00    -0.200 F 
ATOM     81  C   UNL A   1      43.050  21.654  26.039  1.00  0.00     0.200 A 
ATOM     82  F   UNL A   1      43.457  22.997  24.148  1.00  0.00    -0.200 F 
ATOM     83  F   UNL A   1      43.110  20.545  25.288  1.00  0.00    -0.200 F 
ENDBRANCH  49  73
BRANCH  61  84
ATOM     84  C   UNL A   1      43.633  27.954  32.212  1.00  0.00     0.064 A 
ATOM     85  C   UNL A   1      44.169  27.058  33.150  1.00  0.00     0.173 A 
ATOM     86  C   UNL A   1      42.295  28.326  32.418  1.00  0.00     0.173 A 
ATOM     87  F   UNL A   1      45.449  26.666  33.042  1.00  0.00    -0.203 F 
ATOM     88  C   UNL A   1      43.406  26.549  34.204  1.00  0.00     0.198 A 
ATOM     89  C   UNL A   1      41.527  27.823  33.471  1.00  0.00     0.198 A 
ATOM     90  F   UNL A   1      41.699  29.193  31.604  1.00  0.00    -0.203 F 
ATOM     91  F   UNL A   1      43.956  25.691  35.074  1.00  0.00    -0.200 F 
ATOM     92  C   UNL A   1      42.082  26.926  34.362  1.00  0.00     0.200 A 
ATOM     93  F   UNL A   1      40.251  28.213  33.619  1.00  0.00    -0.200 F 
ATOM     94  F   UNL A   1      41.352  26.443  35.376  1.00  0.00    -0.200 F 
ENDBRANCH  61  84
ENDBRANCH  35  36
ENDBRANCH  28  30
ENDBRANCH  27  28
ENDBRANCH  26  27
ENDBRANCH  25  26
ENDBRANCH  24  25
ENDBRANCH  23  24
ENDBRANCH   1  23
TORSDOF 20
ENDMDL
