MODEL 1
REMARK VINA RESULT:     -11.5      0.000      0.000
REMARK SMILES O=C(OCCOCCOC(=O)c1cccc(Nc2ccc([N+](=O)[O-])cc2)c1)c1ccc(-c2c3nc(c(-c4c(F)c(F)c(F)c(F)c4F)c4ccc([nH]4)c(-c4c(F)c(F)c(F)c(F)c4F)c4nc(c(-c5c(F)c(F)c(F)c(F)c5F)c5ccc2[nH]5)C=C4)C=C3)cc1
REMARK SMILES IDX 7 1 6 2 5 3 4 4 3 5 2 6 1 7 28 8 29 9 90 10 30 11 89 12
REMARK SMILES IDX 31 13 32 14 33 15 83 16 34 17 88 18 82 19 84 20 35 21 87 22
REMARK SMILES IDX 81 23 80 24 36 26 68 27 48 28 67 29 49 30 52 31 66 32 85 33
REMARK SMILES IDX 50 34 51 35 65 37 86 38 53 39 37 40 38 41 46 42 39 43 40 44
REMARK SMILES IDX 44 45 47 46 41 47 42 48 45 49 43 50 69 51 70 52 78 53 71 54
REMARK SMILES IDX 72 55 76 56 79 57 73 58 74 59 77 60 75 61 54 62 55 63 63 64
REMARK SMILES IDX 56 65 57 66 61 67 64 68 58 69 59 70 62 71 60 72 8 73 9 74
REMARK SMILES IDX 10 75 11 76 12 77 13 78 27 79 14 80 16 81 15 82 17 83 18 85
REMARK SMILES IDX 19 86 26 87 20 88 25 89 21 90 22 91 23 92 24 93
REMARK H PARENT 84 25 52 36 17 84
REMARK Flexibility Score: inf
ROOT
ATOM      1  C   UNL A   1      33.734  28.006  23.576  1.00  0.00     0.202 C 
ENDROOT
BRANCH   1   2
ATOM      2  O   UNL A   1      32.908  29.143  23.852  1.00  0.00    -0.374 OA
BRANCH   2   3
ATOM      3  C   UNL A   1      31.797  28.916  24.719  1.00  0.00     0.202 C 
BRANCH   3   4
ATOM      4  C   UNL A   1      31.880  29.670  26.048  1.00  0.00     0.261 C 
BRANCH   4   5
ATOM      5  O   UNL A   1      32.934  30.644  26.004  1.00  0.00    -0.460 OA
BRANCH   5   6
ATOM      6  C   UNL A   1      33.445  31.375  27.021  1.00  0.00     0.338 C 
ATOM      7  O   UNL A   1      32.904  32.442  27.306  1.00  0.00    -0.246 OA
BRANCH   6   8
ATOM      8  C   UNL A   1      34.627  30.961  27.836  1.00  0.00     0.060 A 
ATOM      9  C   UNL A   1      34.849  29.678  28.341  1.00  0.00     0.016 A 
ATOM     10  C   UNL A   1      35.637  31.921  28.019  1.00  0.00     0.016 A 
ATOM     11  C   UNL A   1      35.999  29.358  29.042  1.00  0.00     0.010 A 
ATOM     12  C   UNL A   1      36.816  31.604  28.700  1.00  0.00     0.010 A 
ATOM     13  C   UNL A   1      36.986  30.319  29.223  1.00  0.00    -0.014 A 
BRANCH  13  14
ATOM     14  C   UNL A   1      38.130  29.966  30.077  1.00  0.00     0.031 A 
ATOM     15  C   UNL A   1      39.199  29.102  29.493  1.00  0.00     0.074 A 
ATOM     16  C   UNL A   1      38.253  30.538  31.286  1.00  0.00     0.049 A 
ATOM     17  N   UNL A   1      40.272  28.618  30.053  1.00  0.00    -0.248 NA
ATOM     18  C   UNL A   1      39.043  28.748  28.072  1.00  0.00     0.031 C 
ATOM     19  C   UNL A   1      37.316  31.508  31.858  1.00  0.00     0.029 A 
ATOM     20  N   UNL A   1      39.226  30.411  32.239  1.00  0.00    -0.354 N 
ATOM     21  C   UNL A   1      40.902  27.875  29.065  1.00  0.00     0.074 A 
ATOM     22  C   UNL A   1      40.097  27.972  27.870  1.00  0.00     0.031 C 
ATOM     23  C   UNL A   1      37.770  31.899  33.060  1.00  0.00     0.029 A 
ATOM     24  C   UNL A   1      38.985  31.153  33.368  1.00  0.00     0.049 A 
ATOM     25  H   UNL A   1      40.022  29.843  32.125  1.00  0.00     0.167 HD
ATOM     26  C   UNL A   1      42.050  27.167  29.168  1.00  0.00     0.037 A 
ATOM     27  C   UNL A   1      39.659  31.182  34.532  1.00  0.00     0.037 A 
ATOM     28  C   UNL A   1      42.816  27.094  30.381  1.00  0.00     0.049 A 
ATOM     29  C   UNL A   1      40.876  30.305  34.655  1.00  0.00     0.074 A 
ATOM     30  C   UNL A   1      43.954  26.358  30.649  1.00  0.00     0.029 A 
ATOM     31  N   UNL A   1      42.507  27.798  31.541  1.00  0.00    -0.354 N 
ATOM     32  N   UNL A   1      41.432  29.532  33.750  1.00  0.00    -0.248 NA
ATOM     33  C   UNL A   1      41.551  30.287  35.958  1.00  0.00     0.031 C 
ATOM     34  C   UNL A   1      44.305  26.580  31.986  1.00  0.00     0.029 A 
ATOM     35  C   UNL A   1      43.422  27.500  32.534  1.00  0.00     0.049 A 
ATOM     36  H   UNL A   1      41.749  28.418  31.640  1.00  0.00     0.167 HD
ATOM     37  C   UNL A   1      42.530  28.949  34.364  1.00  0.00     0.074 A 
ATOM     38  C   UNL A   1      42.571  29.474  35.717  1.00  0.00     0.031 C 
ATOM     39  C   UNL A   1      43.424  28.059  33.865  1.00  0.00     0.037 A 
BRANCH  26  40
ATOM     40  C   UNL A   1      42.462  26.363  27.970  1.00  0.00     0.064 A 
ATOM     41  C   UNL A   1      43.370  26.850  27.019  1.00  0.00     0.173 A 
ATOM     42  C   UNL A   1      41.886  25.104  27.740  1.00  0.00     0.173 A 
ATOM     43  F   UNL A   1      43.925  28.062  27.173  1.00  0.00    -0.203 F 
ATOM     44  C   UNL A   1      43.656  26.125  25.864  1.00  0.00     0.198 A 
ATOM     45  C   UNL A   1      42.195  24.369  26.599  1.00  0.00     0.198 A 
ATOM     46  F   UNL A   1      41.002  24.595  28.612  1.00  0.00    -0.203 F 
ATOM     47  F   UNL A   1      44.470  26.643  24.933  1.00  0.00    -0.200 F 
ATOM     48  C   UNL A   1      43.071  24.885  25.655  1.00  0.00     0.200 A 
ATOM     49  F   UNL A   1      41.629  23.171  26.402  1.00  0.00    -0.200 F 
ATOM     50  F   UNL A   1      43.334  24.196  24.536  1.00  0.00    -0.200 F 
ENDBRANCH  26  40
BRANCH  27  51
ATOM     51  C   UNL A   1      39.168  32.013  35.663  1.00  0.00     0.064 A 
ATOM     52  C   UNL A   1      39.570  33.347  35.818  1.00  0.00     0.173 A 
ATOM     53  C   UNL A   1      38.279  31.490  36.618  1.00  0.00     0.173 A 
ATOM     54  F   UNL A   1      40.433  33.891  34.949  1.00  0.00    -0.203 F 
ATOM     55  C   UNL A   1      39.114  34.118  36.887  1.00  0.00     0.198 A 
ATOM     56  C   UNL A   1      37.800  32.271  37.667  1.00  0.00     0.198 A 
ATOM     57  F   UNL A   1      37.863  30.219  36.523  1.00  0.00    -0.203 F 
ATOM     58  F   UNL A   1      39.548  35.378  37.035  1.00  0.00    -0.200 F 
ATOM     59  C   UNL A   1      38.223  33.583  37.806  1.00  0.00     0.200 A 
ATOM     60  F   UNL A   1      36.929  31.752  38.543  1.00  0.00    -0.200 F 
ATOM     61  F   UNL A   1      37.781  34.327  38.829  1.00  0.00    -0.200 F 
ENDBRANCH  27  51
BRANCH  39  62
ATOM     62  C   UNL A   1      44.535  27.635  34.776  1.00  0.00     0.064 A 
ATOM     63  C   UNL A   1      45.729  28.365  34.868  1.00  0.00     0.173 A 
ATOM     64  C   UNL A   1      44.374  26.518  35.609  1.00  0.00     0.173 A 
ATOM     65  F   UNL A   1      45.932  29.431  34.079  1.00  0.00    -0.203 F 
ATOM     66  C   UNL A   1      46.733  27.977  35.749  1.00  0.00     0.198 A 
ATOM     67  C   UNL A   1      45.367  26.153  36.511  1.00  0.00     0.198 A 
ATOM     68  F   UNL A   1      43.245  25.794  35.559  1.00  0.00    -0.203 F 
ATOM     69  F   UNL A   1      47.884  28.662  35.793  1.00  0.00    -0.200 F 
ATOM     70  C   UNL A   1      46.547  26.878  36.577  1.00  0.00     0.200 A 
ATOM     71  F   UNL A   1      45.179  25.101  37.319  1.00  0.00    -0.200 F 
ATOM     72  F   UNL A   1      47.509  26.515  37.436  1.00  0.00    -0.200 F 
ENDBRANCH  39  62
ENDBRANCH  13  14
ENDBRANCH   6   8
ENDBRANCH   5   6
ENDBRANCH   4   5
ENDBRANCH   3   4
ENDBRANCH   2   3
ENDBRANCH   1   2
BRANCH   1  73
ATOM     73  C   UNL A   1      33.667  27.688  22.080  1.00  0.00     0.261 C 
BRANCH  73  74
ATOM     74  O   UNL A   1      34.036  26.314  21.896  1.00  0.00    -0.460 OA
BRANCH  74  75
ATOM     75  C   UNL A   1      33.039  25.516  21.432  1.00  0.00     0.338 C 
ATOM     76  O   UNL A   1      32.826  25.184  20.278  1.00  0.00    -0.246 OA
BRANCH  75  77
ATOM     77  C   UNL A   1      32.367  24.921  22.605  1.00  0.00     0.062 A 
ATOM     78  C   UNL A   1      31.038  25.265  22.868  1.00  0.00     0.016 A 
ATOM     79  C   UNL A   1      33.024  23.977  23.401  1.00  0.00     0.041 A 
ATOM     80  C   UNL A   1      30.358  24.634  23.905  1.00  0.00     0.003 A 
ATOM     81  C   UNL A   1      32.373  23.387  24.486  1.00  0.00     0.039 A 
ATOM     82  C   UNL A   1      31.026  23.704  24.708  1.00  0.00     0.026 A 
BRANCH  81  83
ATOM     83  N   UNL A   1      33.105  22.506  25.308  1.00  0.00    -0.355 N 
ATOM     84  H   UNL A   1      33.473  22.880  26.141  1.00  0.00     0.167 HD
BRANCH  83  85
ATOM     85  C   UNL A   1      33.360  21.150  25.056  1.00  0.00     0.039 A 
ATOM     86  C   UNL A   1      32.282  20.290  24.806  1.00  0.00     0.033 A 
ATOM     87  C   UNL A   1      34.666  20.661  24.969  1.00  0.00     0.033 A 
ATOM     88  C   UNL A   1      32.502  18.956  24.463  1.00  0.00     0.088 A 
ATOM     89  C   UNL A   1      34.901  19.326  24.635  1.00  0.00     0.088 A 
ATOM     90  C   UNL A   1      33.815  18.480  24.376  1.00  0.00     0.269 A 
BRANCH  90  91
ATOM     91  N   UNL A   1      34.054  17.083  23.995  1.00  0.00     0.062 N 
ATOM     92  O   UNL A   1      34.198  16.254  24.906  1.00  0.00    -0.258 OA
ATOM     93  O   UNL A   1      34.095  16.814  22.787  1.00  0.00    -0.258 OA
ENDBRANCH  90  91
ENDBRANCH  83  85
ENDBRANCH  81  83
ENDBRANCH  75  77
ENDBRANCH  74  75
ENDBRANCH  73  74
ENDBRANCH   1  73
TORSDOF 17
ENDMDL
MODEL 2
REMARK VINA RESULT:     -11.4      2.666      8.596
REMARK SMILES O=C(OCCOCCOC(=O)c1cccc(Nc2ccc([N+](=O)[O-])cc2)c1)c1ccc(-c2c3nc(c(-c4c(F)c(F)c(F)c(F)c4F)c4ccc([nH]4)c(-c4c(F)c(F)c(F)c(F)c4F)c4nc(c(-c5c(F)c(F)c(F)c(F)c5F)c5ccc2[nH]5)C=C4)C=C3)cc1
REMARK SMILES IDX 7 1 6 2 5 3 4 4 3 5 2 6 1 7 28 8 29 9 90 10 30 11 89 12
REMARK SMILES IDX 31 13 32 14 33 15 83 16 34 17 88 18 82 19 84 20 35 21 87 22
REMARK SMILES IDX 81 23 80 24 36 26 68 27 48 28 67 29 49 30 52 31 66 32 85 33
REMARK SMILES IDX 50 34 51 35 65 37 86 38 53 39 37 40 38 41 46 42 39 43 40 44
REMARK SMILES IDX 44 45 47 46 41 47 42 48 45 49 43 50 69 51 70 52 78 53 71 54
REMARK SMILES IDX 72 55 76 56 79 57 73 58 74 59 77 60 75 61 54 62 55 63 63 64
REMARK SMILES IDX 56 65 57 66 61 67 64 68 58 69 59 70 62 71 60 72 8 73 9 74
REMARK SMILES IDX 10 75 11 76 12 77 13 78 27 79 14 80 16 81 15 82 17 83 18 85
REMARK SMILES IDX 19 86 26 87 20 88 25 89 21 90 22 91 23 92 24 93
REMARK H PARENT 84 25 52 36 17 84
REMARK Flexibility Score: inf
ROOT
ATOM      1  C   UNL A   1      34.684  33.256  29.066  1.00  0.00     0.202 C 
ENDROOT
BRANCH   1   2
ATOM      2  O   UNL A   1      34.154  34.397  28.382  1.00  0.00    -0.374 OA
BRANCH   2   3
ATOM      3  C   UNL A   1      32.945  34.941  28.912  1.00  0.00     0.202 C 
BRANCH   3   4
ATOM      4  C   UNL A   1      33.075  36.384  29.406  1.00  0.00     0.261 C 
BRANCH   4   5
ATOM      5  O   UNL A   1      32.444  36.531  30.687  1.00  0.00    -0.460 OA
BRANCH   5   6
ATOM      6  C   UNL A   1      32.552  35.732  31.773  1.00  0.00     0.338 C 
ATOM      7  O   UNL A   1      31.552  35.543  32.464  1.00  0.00    -0.246 OA
BRANCH   6   8
ATOM      8  C   UNL A   1      33.815  35.047  32.184  1.00  0.00     0.060 A 
ATOM      9  C   UNL A   1      35.088  35.621  32.158  1.00  0.00     0.016 A 
ATOM     10  C   UNL A   1      33.687  33.758  32.730  1.00  0.00     0.016 A 
ATOM     11  C   UNL A   1      36.205  34.939  32.609  1.00  0.00     0.010 A 
ATOM     12  C   UNL A   1      34.803  33.070  33.215  1.00  0.00     0.010 A 
ATOM     13  C   UNL A   1      36.067  33.662  33.140  1.00  0.00    -0.014 A 
BRANCH  13  14
ATOM     14  C   UNL A   1      37.295  32.934  33.490  1.00  0.00     0.031 A 
ATOM     15  C   UNL A   1      37.887  33.170  34.840  1.00  0.00     0.074 A 
ATOM     16  C   UNL A   1      37.761  31.987  32.660  1.00  0.00     0.049 A 
ATOM     17  N   UNL A   1      38.981  32.691  35.361  1.00  0.00    -0.248 NA
ATOM     18  C   UNL A   1      37.128  34.060  35.736  1.00  0.00     0.031 C 
ATOM     19  C   UNL A   1      37.143  31.603  31.388  1.00  0.00     0.029 A 
ATOM     20  N   UNL A   1      38.841  31.156  32.771  1.00  0.00    -0.354 N 
ATOM     21  C   UNL A   1      39.062  33.245  36.631  1.00  0.00     0.074 A 
ATOM     22  C   UNL A   1      37.906  34.094  36.806  1.00  0.00     0.031 C 
ATOM     23  C   UNL A   1      37.850  30.600  30.843  1.00  0.00     0.029 A 
ATOM     24  C   UNL A   1      39.004  30.325  31.691  1.00  0.00     0.049 A 
ATOM     25  H   UNL A   1      39.443  31.153  33.550  1.00  0.00     0.167 HD
ATOM     26  C   UNL A   1      40.031  33.060  37.555  1.00  0.00     0.037 A 
ATOM     27  C   UNL A   1      40.007  29.471  31.412  1.00  0.00     0.037 A 
ATOM     28  C   UNL A   1      41.167  32.208  37.335  1.00  0.00     0.049 A 
ATOM     29  C   UNL A   1      41.126  29.361  32.412  1.00  0.00     0.074 A 
ATOM     30  C   UNL A   1      42.260  31.986  38.150  1.00  0.00     0.029 A 
ATOM     31  N   UNL A   1      41.349  31.432  36.194  1.00  0.00    -0.354 N 
ATOM     32  N   UNL A   1      41.252  29.947  33.580  1.00  0.00    -0.248 NA
ATOM     33  C   UNL A   1      42.250  28.488  32.054  1.00  0.00     0.031 C 
ATOM     34  C   UNL A   1      43.125  31.112  37.481  1.00  0.00     0.029 A 
ATOM     35  C   UNL A   1      42.545  30.742  36.276  1.00  0.00     0.049 A 
ATOM     36  H   UNL A   1      40.718  31.380  35.440  1.00  0.00     0.167 HD
ATOM     37  C   UNL A   1      42.455  29.504  34.107  1.00  0.00     0.074 A 
ATOM     38  C   UNL A   1      43.014  28.583  33.134  1.00  0.00     0.031 C 
ATOM     39  C   UNL A   1      43.052  29.827  35.281  1.00  0.00     0.037 A 
BRANCH  26  40
ATOM     40  C   UNL A   1      39.929  33.864  38.817  1.00  0.00     0.064 A 
ATOM     41  C   UNL A   1      39.175  33.434  39.919  1.00  0.00     0.173 A 
ATOM     42  C   UNL A   1      40.551  35.119  38.899  1.00  0.00     0.173 A 
ATOM     43  F   UNL A   1      38.532  32.257  39.880  1.00  0.00    -0.203 F 
ATOM     44  C   UNL A   1      39.014  34.248  41.039  1.00  0.00     0.198 A 
ATOM     45  C   UNL A   1      40.411  35.918  40.032  1.00  0.00     0.198 A 
ATOM     46  F   UNL A   1      41.275  35.584  37.870  1.00  0.00    -0.203 F 
ATOM     47  F   UNL A   1      38.228  33.848  42.049  1.00  0.00    -0.200 F 
ATOM     48  C   UNL A   1      39.633  35.487  41.095  1.00  0.00     0.200 A 
ATOM     49  F   UNL A   1      41.013  37.114  40.083  1.00  0.00    -0.200 F 
ATOM     50  F   UNL A   1      39.465  36.276  42.166  1.00  0.00    -0.200 F 
ENDBRANCH  26  40
BRANCH  27  51
ATOM     51  C   UNL A   1      40.017  28.717  30.130  1.00  0.00     0.064 A 
ATOM     52  C   UNL A   1      39.421  27.454  30.020  1.00  0.00     0.173 A 
ATOM     53  C   UNL A   1      40.623  29.249  28.979  1.00  0.00     0.173 A 
ATOM     54  F   UNL A   1      38.846  26.889  31.092  1.00  0.00    -0.203 F 
ATOM     55  C   UNL A   1      39.443  26.748  28.817  1.00  0.00     0.198 A 
ATOM     56  C   UNL A   1      40.617  28.557  27.771  1.00  0.00     0.198 A 
ATOM     57  F   UNL A   1      41.212  30.453  29.025  1.00  0.00    -0.203 F 
ATOM     58  F   UNL A   1      38.902  25.523  28.752  1.00  0.00    -0.200 F 
ATOM     59  C   UNL A   1      40.032  27.303  27.692  1.00  0.00     0.200 A 
ATOM     60  F   UNL A   1      41.175  29.105  26.683  1.00  0.00    -0.200 F 
ATOM     61  F   UNL A   1      40.047  26.626  26.535  1.00  0.00    -0.200 F 
ENDBRANCH  27  51
BRANCH  39  62
ATOM     62  C   UNL A   1      44.352  29.147  35.588  1.00  0.00     0.064 A 
ATOM     63  C   UNL A   1      45.581  29.714  35.223  1.00  0.00     0.173 A 
ATOM     64  C   UNL A   1      44.363  27.945  36.309  1.00  0.00     0.173 A 
ATOM     65  F   UNL A   1      45.618  30.855  34.519  1.00  0.00    -0.203 F 
ATOM     66  C   UNL A   1      46.778  29.087  35.552  1.00  0.00     0.198 A 
ATOM     67  C   UNL A   1      45.562  27.337  36.664  1.00  0.00     0.198 A 
ATOM     68  F   UNL A   1      43.210  27.370  36.685  1.00  0.00    -0.203 F 
ATOM     69  F   UNL A   1      47.942  29.621  35.158  1.00  0.00    -0.200 F 
ATOM     70  C   UNL A   1      46.768  27.905  36.281  1.00  0.00     0.200 A 
ATOM     71  F   UNL A   1      45.551  26.205  37.380  1.00  0.00    -0.200 F 
ATOM     72  F   UNL A   1      47.923  27.310  36.610  1.00  0.00    -0.200 F 
ENDBRANCH  39  62
ENDBRANCH  13  14
ENDBRANCH   6   8
ENDBRANCH   5   6
ENDBRANCH   4   5
ENDBRANCH   3   4
ENDBRANCH   2   3
ENDBRANCH   1   2
BRANCH   1  73
ATOM     73  C   UNL A   1      35.195  32.245  28.035  1.00  0.00     0.261 C 
BRANCH  73  74
ATOM     74  O   UNL A   1      34.104  31.390  27.666  1.00  0.00    -0.460 OA
BRANCH  74  75
ATOM     75  C   UNL A   1      34.431  30.079  27.534  1.00  0.00     0.338 C 
ATOM     76  O   UNL A   1      35.347  29.481  28.073  1.00  0.00    -0.246 OA
BRANCH  75  77
ATOM     77  C   UNL A   1      33.338  29.424  26.786  1.00  0.00     0.062 A 
ATOM     78  C   UNL A   1      32.808  30.068  25.664  1.00  0.00     0.016 A 
ATOM     79  C   UNL A   1      32.888  28.151  27.148  1.00  0.00     0.041 A 
ATOM     80  C   UNL A   1      31.854  29.419  24.888  1.00  0.00     0.003 A 
ATOM     81  C   UNL A   1      31.882  27.518  26.415  1.00  0.00     0.039 A 
ATOM     82  C   UNL A   1      31.394  28.154  25.265  1.00  0.00     0.026 A 
BRANCH  81  83
ATOM     83  N   UNL A   1      31.403  26.273  26.872  1.00  0.00    -0.355 N 
ATOM     84  H   UNL A   1      30.795  26.289  27.646  1.00  0.00     0.167 HD
BRANCH  83  85
ATOM     85  C   UNL A   1      31.706  25.015  26.331  1.00  0.00     0.039 A 
ATOM     86  C   UNL A   1      33.039  24.585  26.313  1.00  0.00     0.033 A 
ATOM     87  C   UNL A   1      30.698  24.153  25.889  1.00  0.00     0.033 A 
ATOM     88  C   UNL A   1      33.367  23.305  25.866  1.00  0.00     0.088 A 
ATOM     89  C   UNL A   1      31.012  22.872  25.431  1.00  0.00     0.088 A 
ATOM     90  C   UNL A   1      32.348  22.451  25.428  1.00  0.00     0.269 A 
BRANCH  90  91
ATOM     91  N   UNL A   1      32.685  21.096  24.977  1.00  0.00     0.062 N 
ATOM     92  O   UNL A   1      31.789  20.240  25.007  1.00  0.00    -0.258 OA
ATOM     93  O   UNL A   1      33.844  20.889  24.591  1.00  0.00    -0.258 OA
ENDBRANCH  90  91
ENDBRANCH  83  85
ENDBRANCH  81  83
ENDBRANCH  75  77
ENDBRANCH  74  75
ENDBRANCH  73  74
ENDBRANCH   1  73
TORSDOF 17
ENDMDL
MODEL 3
REMARK VINA RESULT:     -11.4      1.540      2.195
REMARK SMILES O=C(OCCOCCOC(=O)c1cccc(Nc2ccc([N+](=O)[O-])cc2)c1)c1ccc(-c2c3nc(c(-c4c(F)c(F)c(F)c(F)c4F)c4ccc([nH]4)c(-c4c(F)c(F)c(F)c(F)c4F)c4nc(c(-c5c(F)c(F)c(F)c(F)c5F)c5ccc2[nH]5)C=C4)C=C3)cc1
REMARK SMILES IDX 7 1 6 2 5 3 4 4 3 5 2 6 1 7 28 8 29 9 90 10 30 11 89 12
REMARK SMILES IDX 31 13 32 14 33 15 83 16 34 17 88 18 82 19 84 20 35 21 87 22
REMARK SMILES IDX 81 23 80 24 36 26 68 27 48 28 67 29 49 30 52 31 66 32 85 33
REMARK SMILES IDX 50 34 51 35 65 37 86 38 53 39 37 40 38 41 46 42 39 43 40 44
REMARK SMILES IDX 44 45 47 46 41 47 42 48 45 49 43 50 69 51 70 52 78 53 71 54
REMARK SMILES IDX 72 55 76 56 79 57 73 58 74 59 77 60 75 61 54 62 55 63 63 64
REMARK SMILES IDX 56 65 57 66 61 67 64 68 58 69 59 70 62 71 60 72 8 73 9 74
REMARK SMILES IDX 10 75 11 76 12 77 13 78 27 79 14 80 16 81 15 82 17 83 18 85
REMARK SMILES IDX 19 86 26 87 20 88 25 89 21 90 22 91 23 92 24 93
REMARK H PARENT 84 25 52 36 17 84
REMARK Flexibility Score: inf
ROOT
ATOM      1  C   UNL A   1      33.382  27.995  23.613  1.00  0.00     0.202 C 
ENDROOT
BRANCH   1   2
ATOM      2  O   UNL A   1      32.821  29.297  23.811  1.00  0.00    -0.374 OA
BRANCH   2   3
ATOM      3  C   UNL A   1      31.660  29.361  24.639  1.00  0.00     0.202 C 
BRANCH   3   4
ATOM      4  C   UNL A   1      31.776  30.352  25.799  1.00  0.00     0.261 C 
BRANCH   4   5
ATOM      5  O   UNL A   1      33.157  30.568  26.134  1.00  0.00    -0.460 OA
BRANCH   5   6
ATOM      6  C   UNL A   1      33.670  31.300  27.149  1.00  0.00     0.338 C 
ATOM      7  O   UNL A   1      33.117  32.358  27.447  1.00  0.00    -0.246 OA
BRANCH   6   8
ATOM      8  C   UNL A   1      34.868  30.898  27.947  1.00  0.00     0.060 A 
ATOM      9  C   UNL A   1      35.085  29.632  28.493  1.00  0.00     0.016 A 
ATOM     10  C   UNL A   1      35.896  31.849  28.067  1.00  0.00     0.016 A 
ATOM     11  C   UNL A   1      36.249  29.320  29.174  1.00  0.00     0.010 A 
ATOM     12  C   UNL A   1      37.088  31.539  28.727  1.00  0.00     0.010 A 
ATOM     13  C   UNL A   1      37.255  30.272  29.293  1.00  0.00    -0.014 A 
BRANCH  13  14
ATOM     14  C   UNL A   1      38.416  29.934  30.128  1.00  0.00     0.031 A 
ATOM     15  C   UNL A   1      39.480  29.072  29.531  1.00  0.00     0.074 A 
ATOM     16  C   UNL A   1      38.557  30.515  31.331  1.00  0.00     0.049 A 
ATOM     17  N   UNL A   1      40.566  28.600  30.075  1.00  0.00    -0.248 NA
ATOM     18  C   UNL A   1      39.301  28.706  28.116  1.00  0.00     0.031 C 
ATOM     19  C   UNL A   1      37.624  31.483  31.913  1.00  0.00     0.029 A 
ATOM     20  N   UNL A   1      39.548  30.402  32.266  1.00  0.00    -0.354 N 
ATOM     21  C   UNL A   1      41.184  27.854  29.081  1.00  0.00     0.074 A 
ATOM     22  C   UNL A   1      40.356  27.937  27.900  1.00  0.00     0.031 C 
ATOM     23  C   UNL A   1      38.096  31.885  33.103  1.00  0.00     0.029 A 
ATOM     24  C   UNL A   1      39.322  31.150  33.394  1.00  0.00     0.049 A 
ATOM     25  H   UNL A   1      40.346  29.839  32.142  1.00  0.00     0.167 HD
ATOM     26  C   UNL A   1      42.339  27.155  29.168  1.00  0.00     0.037 A 
ATOM     27  C   UNL A   1      40.017  31.193  34.546  1.00  0.00     0.037 A 
ATOM     28  C   UNL A   1      43.128  27.096  30.367  1.00  0.00     0.049 A 
ATOM     29  C   UNL A   1      41.243  30.325  34.652  1.00  0.00     0.074 A 
ATOM     30  C   UNL A   1      44.275  26.370  30.620  1.00  0.00     0.029 A 
ATOM     31  N   UNL A   1      42.835  27.807  31.527  1.00  0.00    -0.354 N 
ATOM     32  N   UNL A   1      41.788  29.550  33.743  1.00  0.00    -0.248 NA
ATOM     33  C   UNL A   1      41.941  30.321  35.943  1.00  0.00     0.031 C 
ATOM     34  C   UNL A   1      44.649  26.605  31.948  1.00  0.00     0.029 A 
ATOM     35  C   UNL A   1      43.770  27.522  32.506  1.00  0.00     0.049 A 
ATOM     36  H   UNL A   1      42.074  28.422  31.636  1.00  0.00     0.167 HD
ATOM     37  C   UNL A   1      42.901  28.979  34.341  1.00  0.00     0.074 A 
ATOM     38  C   UNL A   1      42.962  29.514  35.689  1.00  0.00     0.031 C 
ATOM     39  C   UNL A   1      43.792  28.091  33.832  1.00  0.00     0.037 A 
BRANCH  26  40
ATOM     40  C   UNL A   1      42.734  26.345  27.968  1.00  0.00     0.064 A 
ATOM     41  C   UNL A   1      42.335  25.011  27.802  1.00  0.00     0.173 A 
ATOM     42  C   UNL A   1      43.581  26.901  26.997  1.00  0.00     0.173 A 
ATOM     43  F   UNL A   1      41.554  24.420  28.718  1.00  0.00    -0.203 F 
ATOM     44  C   UNL A   1      42.802  24.252  26.731  1.00  0.00     0.198 A 
ATOM     45  C   UNL A   1      44.022  26.148  25.912  1.00  0.00     0.198 A 
ATOM     46  F   UNL A   1      44.001  28.170  27.113  1.00  0.00    -0.203 F 
ATOM     47  F   UNL A   1      42.467  22.957  26.632  1.00  0.00    -0.200 F 
ATOM     48  C   UNL A   1      43.642  24.821  25.786  1.00  0.00     0.200 A 
ATOM     49  F   UNL A   1      44.833  26.702  25.000  1.00  0.00    -0.200 F 
ATOM     50  F   UNL A   1      44.103  24.085  24.764  1.00  0.00    -0.200 F 
ENDBRANCH  26  40
BRANCH  27  51
ATOM     51  C   UNL A   1      39.542  32.029  35.680  1.00  0.00     0.064 A 
ATOM     52  C   UNL A   1      40.040  33.321  35.895  1.00  0.00     0.173 A 
ATOM     53  C   UNL A   1      38.570  31.553  36.576  1.00  0.00     0.173 A 
ATOM     54  F   UNL A   1      40.984  33.818  35.082  1.00  0.00    -0.203 F 
ATOM     55  C   UNL A   1      39.597  34.096  36.966  1.00  0.00     0.198 A 
ATOM     56  C   UNL A   1      38.105  32.340  37.627  1.00  0.00     0.198 A 
ATOM     57  F   UNL A   1      38.059  30.323  36.422  1.00  0.00    -0.203 F 
ATOM     58  F   UNL A   1      40.122  35.312  37.173  1.00  0.00    -0.200 F 
ATOM     59  C   UNL A   1      38.624  33.609  37.826  1.00  0.00     0.200 A 
ATOM     60  F   UNL A   1      37.155  31.869  38.446  1.00  0.00    -0.200 F 
ATOM     61  F   UNL A   1      38.195  34.358  38.852  1.00  0.00    -0.200 F 
ENDBRANCH  27  51
BRANCH  39  62
ATOM     62  C   UNL A   1      44.923  27.682  34.726  1.00  0.00     0.064 A 
ATOM     63  C   UNL A   1      46.114  28.417  34.787  1.00  0.00     0.173 A 
ATOM     64  C   UNL A   1      44.783  26.574  35.573  1.00  0.00     0.173 A 
ATOM     65  F   UNL A   1      46.297  29.476  33.982  1.00  0.00    -0.203 F 
ATOM     66  C   UNL A   1      47.137  28.044  35.652  1.00  0.00     0.198 A 
ATOM     67  C   UNL A   1      45.794  26.222  36.460  1.00  0.00     0.198 A 
ATOM     68  F   UNL A   1      43.656  25.844  35.554  1.00  0.00    -0.203 F 
ATOM     69  F   UNL A   1      48.286  28.734  35.666  1.00  0.00    -0.200 F 
ATOM     70  C   UNL A   1      46.972  26.953  36.495  1.00  0.00     0.200 A 
ATOM     71  F   UNL A   1      45.627  25.179  37.283  1.00  0.00    -0.200 F 
ATOM     72  F   UNL A   1      47.953  26.604  37.338  1.00  0.00    -0.200 F 
ENDBRANCH  39  62
ENDBRANCH  13  14
ENDBRANCH   6   8
ENDBRANCH   5   6
ENDBRANCH   4   5
ENDBRANCH   3   4
ENDBRANCH   2   3
ENDBRANCH   1   2
BRANCH   1  73
ATOM     73  C   UNL A   1      33.577  27.754  22.113  1.00  0.00     0.261 C 
BRANCH  73  74
ATOM     74  O   UNL A   1      34.030  26.406  21.929  1.00  0.00    -0.460 OA
BRANCH  74  75
ATOM     75  C   UNL A   1      33.132  25.582  21.329  1.00  0.00     0.338 C 
ATOM     76  O   UNL A   1      32.899  25.477  20.137  1.00  0.00    -0.246 OA
BRANCH  75  77
ATOM     77  C   UNL A   1      32.627  24.653  22.360  1.00  0.00     0.062 A 
ATOM     78  C   UNL A   1      31.328  24.826  22.847  1.00  0.00     0.016 A 
ATOM     79  C   UNL A   1      33.406  23.575  22.792  1.00  0.00     0.041 A 
ATOM     80  C   UNL A   1      30.800  23.899  23.738  1.00  0.00     0.003 A 
ATOM     81  C   UNL A   1      32.910  22.675  23.738  1.00  0.00     0.039 A 
ATOM     82  C   UNL A   1      31.590  22.833  24.181  1.00  0.00     0.026 A 
BRANCH  81  83
ATOM     83  N   UNL A   1      33.765  21.656  24.205  1.00  0.00    -0.355 N 
ATOM     84  H   UNL A   1      33.441  20.731  24.119  1.00  0.00     0.167 HD
BRANCH  83  85
ATOM     85  C   UNL A   1      35.033  21.832  24.779  1.00  0.00     0.039 A 
ATOM     86  C   UNL A   1      35.905  20.737  24.851  1.00  0.00     0.033 A 
ATOM     87  C   UNL A   1      35.471  23.090  25.202  1.00  0.00     0.033 A 
ATOM     88  C   UNL A   1      37.205  20.894  25.332  1.00  0.00     0.088 A 
ATOM     89  C   UNL A   1      36.766  23.260  25.694  1.00  0.00     0.088 A 
ATOM     90  C   UNL A   1      37.631  22.160  25.750  1.00  0.00     0.269 A 
BRANCH  90  91
ATOM     91  N   UNL A   1      39.004  22.336  26.238  1.00  0.00     0.062 N 
ATOM     92  O   UNL A   1      39.817  21.430  26.008  1.00  0.00    -0.258 OA
ATOM     93  O   UNL A   1      39.268  23.381  26.849  1.00  0.00    -0.258 OA
ENDBRANCH  90  91
ENDBRANCH  83  85
ENDBRANCH  81  83
ENDBRANCH  75  77
ENDBRANCH  74  75
ENDBRANCH  73  74
ENDBRANCH   1  73
TORSDOF 17
ENDMDL
