MODEL 1
REMARK VINA RESULT:     -11.7      0.000      0.000
REMARK SMILES NS(=O)(=O)c1ccc(/N=N/c2ccc(O)c(C(=O)OCCOCCOC(=O)c3ccc(-c4c5nc(c(-c6c(F)c(F)c(F)c(F)c6F)c6ccc([nH]6)c(-c6c(F)c(F)c(F)c(F)c6F)c6nc(c(-c7c(F)c(F)c(F)c(F)c7F)c7ccc4[nH]7)C=C6)C=C5)cc3)c2)cc1
REMARK SMILES IDX 21 1 20 2 19 3 17 4 18 5 16 6 11 7 12 8 91 9 13 10 14 11
REMARK SMILES IDX 10 12 9 13 8 14 5 15 6 16 93 17 7 18 92 19 2 20 3 21 4 22
REMARK SMILES IDX 1 23 15 26 22 28 23 29 24 30 25 31 26 32 27 33 28 34 29 35
REMARK SMILES IDX 90 36 30 37 89 38 31 39 32 40 33 41 83 42 34 43 88 44 82 45
REMARK SMILES IDX 84 46 35 47 87 48 81 49 80 50 36 52 68 53 48 54 67 55 49 56
REMARK SMILES IDX 52 57 66 58 85 59 50 60 51 61 65 63 86 64 53 65 37 66 38 67
REMARK SMILES IDX 46 68 39 69 40 70 44 71 47 72 41 73 42 74 45 75 43 76 69 77
REMARK SMILES IDX 70 78 78 79 71 80 72 81 76 82 79 83 73 84 74 85 77 86 75 87
REMARK SMILES IDX 54 88 55 89 63 90 56 91 57 92 61 93 64 94 58 95 59 96 62 97
REMARK SMILES IDX 60 98
REMARK H PARENT 1 24 1 25 15 27 84 51 52 62
REMARK Flexibility Score: inf
ROOT
ATOM      1  C   UNL A   1      33.594  27.941  24.317  1.00  0.00     0.202 C 
ENDROOT
BRANCH   1   2
ATOM      2  C   UNL A   1      32.864  27.784  22.978  1.00  0.00     0.261 C 
BRANCH   2   3
ATOM      3  O   UNL A   1      32.206  26.512  22.863  1.00  0.00    -0.460 OA
BRANCH   3   4
ATOM      4  C   UNL A   1      32.841  25.624  22.060  1.00  0.00     0.342 C 
ATOM      5  O   UNL A   1      33.278  25.835  20.938  1.00  0.00    -0.246 OA
BRANCH   4   6
ATOM      6  C   UNL A   1      33.181  24.386  22.794  1.00  0.00     0.104 A 
ATOM      7  C   UNL A   1      34.784  22.850  23.796  1.00  0.00     0.087 A 
ATOM      8  C   UNL A   1      33.719  21.992  24.109  1.00  0.00     0.034 A 
ATOM      9  C   UNL A   1      34.503  24.053  23.125  1.00  0.00     0.049 A 
ATOM     10  C   UNL A   1      32.406  22.305  23.760  1.00  0.00     0.049 A 
ATOM     11  C   UNL A   1      32.140  23.499  23.104  1.00  0.00     0.130 A 
BRANCH   7  12
ATOM     12  N   UNL A   1      36.073  22.402  24.144  1.00  0.00    -0.151 NA
ATOM     13  N   UNL A   1      36.088  21.381  24.860  1.00  0.00    -0.151 NA
BRANCH  13  14
ATOM     14  C   UNL A   1      37.400  20.970  25.197  1.00  0.00     0.086 A 
ATOM     15  C   UNL A   1      40.051  20.320  25.892  1.00  0.00     0.082 A 
ATOM     16  C   UNL A   1      39.591  21.629  26.056  1.00  0.00     0.024 A 
ATOM     17  C   UNL A   1      39.207  19.333  25.384  1.00  0.00     0.024 A 
ATOM     18  C   UNL A   1      38.273  21.944  25.707  1.00  0.00     0.031 A 
ATOM     19  C   UNL A   1      37.891  19.661  25.042  1.00  0.00     0.031 A 
BRANCH  15  20
ATOM     20  S   UNL A   1      41.717  19.909  26.317  1.00  0.00     0.238 S 
ATOM     21  O   UNL A   1      41.876  20.010  27.751  1.00  0.00    -0.207 OA
ATOM     22  O   UNL A   1      42.601  20.559  25.384  1.00  0.00    -0.207 OA
BRANCH  20  23
ATOM     23  N   UNL A   1      41.800  18.264  25.985  1.00  0.00    -0.225 NA
ATOM     24  H   UNL A   1      41.198  18.046  25.191  1.00  0.00     0.137 HD
ATOM     25  H   UNL A   1      41.490  17.737  26.801  1.00  0.00     0.137 HD
ENDBRANCH  20  23
ENDBRANCH  15  20
ENDBRANCH  13  14
ENDBRANCH   7  12
BRANCH  11  26
ATOM     26  O   UNL A   1      30.833  23.716  22.756  1.00  0.00    -0.507 OA
ATOM     27  H   UNL A   1      30.577  23.688  21.855  1.00  0.00     0.293 HD
ENDBRANCH  11  26
ENDBRANCH   4   6
ENDBRANCH   3   4
ENDBRANCH   2   3
ENDBRANCH   1   2
BRANCH   1  28
ATOM     28  O   UNL A   1      33.349  29.124  25.074  1.00  0.00    -0.374 OA
BRANCH  28  29
ATOM     29  C   UNL A   1      32.003  29.583  25.188  1.00  0.00     0.202 C 
BRANCH  29  30
ATOM     30  C   UNL A   1      31.722  30.798  26.084  1.00  0.00     0.261 C 
BRANCH  30  31
ATOM     31  O   UNL A   1      32.480  30.778  27.306  1.00  0.00    -0.460 OA
BRANCH  31  32
ATOM     32  C   UNL A   1      33.278  31.859  27.491  1.00  0.00     0.338 C 
ATOM     33  O   UNL A   1      32.960  33.034  27.444  1.00  0.00    -0.246 OA
BRANCH  32  34
ATOM     34  C   UNL A   1      34.605  31.420  27.959  1.00  0.00     0.060 A 
ATOM     35  C   UNL A   1      34.802  30.049  28.168  1.00  0.00     0.016 A 
ATOM     36  C   UNL A   1      35.613  32.339  28.258  1.00  0.00     0.016 A 
ATOM     37  C   UNL A   1      35.997  29.593  28.719  1.00  0.00     0.010 A 
ATOM     38  C   UNL A   1      36.807  31.879  28.819  1.00  0.00     0.010 A 
ATOM     39  C   UNL A   1      36.992  30.509  29.082  1.00  0.00    -0.014 A 
BRANCH  39  40
ATOM     40  C   UNL A   1      38.172  30.051  29.856  1.00  0.00     0.031 A 
ATOM     41  C   UNL A   1      38.354  30.533  31.267  1.00  0.00     0.074 A 
ATOM     42  C   UNL A   1      39.064  29.206  29.308  1.00  0.00     0.049 A 
ATOM     43  N   UNL A   1      39.342  30.320  32.099  1.00  0.00    -0.248 NA
ATOM     44  C   UNL A   1      37.279  31.376  31.813  1.00  0.00     0.031 C 
ATOM     45  C   UNL A   1      38.972  28.638  27.966  1.00  0.00     0.029 A 
ATOM     46  N   UNL A   1      40.229  28.689  29.816  1.00  0.00    -0.354 N 
ATOM     47  C   UNL A   1      39.014  31.009  33.260  1.00  0.00     0.074 A 
ATOM     48  C   UNL A   1      37.753  31.676  33.014  1.00  0.00     0.031 C 
ATOM     49  C   UNL A   1      40.044  27.857  27.749  1.00  0.00     0.029 A 
ATOM     50  C   UNL A   1      40.916  27.906  28.922  1.00  0.00     0.049 A 
ATOM     51  H   UNL A   1      40.543  28.863  30.732  1.00  0.00     0.167 HD
ATOM     52  C   UNL A   1      39.700  31.072  34.425  1.00  0.00     0.037 A 
ATOM     53  C   UNL A   1      42.124  27.319  29.030  1.00  0.00     0.037 A 
ATOM     54  C   UNL A   1      40.955  30.406  34.663  1.00  0.00     0.049 A 
ATOM     55  C   UNL A   1      42.905  27.470  30.311  1.00  0.00     0.074 A 
ATOM     56  C   UNL A   1      41.718  30.389  35.816  1.00  0.00     0.029 A 
ATOM     57  N   UNL A   1      41.634  29.644  33.723  1.00  0.00    -0.354 N 
ATOM     58  N   UNL A   1      42.578  28.103  31.412  1.00  0.00    -0.248 NA
ATOM     59  C   UNL A   1      44.223  26.820  30.363  1.00  0.00     0.031 C 
ATOM     60  C   UNL A   1      42.890  29.673  35.555  1.00  0.00     0.029 A 
ATOM     61  C   UNL A   1      42.825  29.180  34.262  1.00  0.00     0.049 A 
ATOM     62  H   UNL A   1      41.318  29.459  32.809  1.00  0.00     0.167 HD
ATOM     63  C   UNL A   1      43.630  27.898  32.298  1.00  0.00     0.074 A 
ATOM     64  C   UNL A   1      44.600  27.073  31.609  1.00  0.00     0.031 C 
ATOM     65  C   UNL A   1      43.777  28.350  33.568  1.00  0.00     0.037 A 
BRANCH  52  66
ATOM     66  C   UNL A   1      39.126  31.917  35.527  1.00  0.00     0.064 A 
ATOM     67  C   UNL A   1      38.298  31.376  36.523  1.00  0.00     0.173 A 
ATOM     68  C   UNL A   1      39.439  33.283  35.609  1.00  0.00     0.173 A 
ATOM     69  F   UNL A   1      37.958  30.079  36.487  1.00  0.00    -0.203 F 
ATOM     70  C   UNL A   1      37.785  32.176  37.542  1.00  0.00     0.198 A 
ATOM     71  C   UNL A   1      38.952  34.072  36.648  1.00  0.00     0.198 A 
ATOM     72  F   UNL A   1      40.231  33.853  34.687  1.00  0.00    -0.203 F 
ATOM     73  F   UNL A   1      36.956  31.647  38.452  1.00  0.00    -0.200 F 
ATOM     74  C   UNL A   1      38.119  33.520  37.608  1.00  0.00     0.200 A 
ATOM     75  F   UNL A   1      39.289  35.368  36.718  1.00  0.00    -0.200 F 
ATOM     76  F   UNL A   1      37.631  34.286  38.593  1.00  0.00    -0.200 F 
ENDBRANCH  52  66
BRANCH  53  77
ATOM     77  C   UNL A   1      42.680  26.547  27.887  1.00  0.00     0.064 A 
ATOM     78  C   UNL A   1      43.505  27.158  26.933  1.00  0.00     0.173 A 
ATOM     79  C   UNL A   1      42.379  25.187  27.711  1.00  0.00     0.173 A 
ATOM     80  F   UNL A   1      43.802  28.463  27.043  1.00  0.00    -0.203 F 
ATOM     81  C   UNL A   1      43.990  26.448  25.838  1.00  0.00     0.198 A 
ATOM     82  C   UNL A   1      42.892  24.469  26.634  1.00  0.00     0.198 A 
ATOM     83  F   UNL A   1      41.594  24.553  28.595  1.00  0.00    -0.203 F 
ATOM     84  F   UNL A   1      44.732  27.071  24.913  1.00  0.00    -0.200 F 
ATOM     85  C   UNL A   1      43.688  25.102  25.692  1.00  0.00     0.200 A 
ATOM     86  F   UNL A   1      42.610  23.165  26.507  1.00  0.00    -0.200 F 
ATOM     87  F   UNL A   1      44.158  24.417  24.640  1.00  0.00    -0.200 F 
ENDBRANCH  53  77
BRANCH  65  88
ATOM     88  C   UNL A   1      45.008  27.924  34.318  1.00  0.00     0.064 A 
ATOM     89  C   UNL A   1      46.161  28.721  34.367  1.00  0.00     0.173 A 
ATOM     90  C   UNL A   1      45.015  26.718  35.038  1.00  0.00     0.173 A 
ATOM     91  F   UNL A   1      46.213  29.876  33.686  1.00  0.00    -0.203 F 
ATOM     92  C   UNL A   1      47.285  28.313  35.082  1.00  0.00     0.198 A 
ATOM     93  C   UNL A   1      46.126  26.331  35.782  1.00  0.00     0.198 A 
ATOM     94  F   UNL A   1      43.936  25.921  35.035  1.00  0.00    -0.203 F 
ATOM     95  F   UNL A   1      48.394  29.066  35.070  1.00  0.00    -0.200 F 
ATOM     96  C   UNL A   1      47.263  27.125  35.797  1.00  0.00     0.200 A 
ATOM     97  F   UNL A   1      46.096  25.192  36.486  1.00  0.00    -0.200 F 
ATOM     98  F   UNL A   1      48.341  26.740  36.493  1.00  0.00    -0.200 F 
ENDBRANCH  65  88
ENDBRANCH  39  40
ENDBRANCH  32  34
ENDBRANCH  31  32
ENDBRANCH  30  31
ENDBRANCH  29  30
ENDBRANCH  28  29
ENDBRANCH   1  28
TORSDOF 19
ENDMDL
MODEL 2
REMARK VINA RESULT:     -11.7      0.547      7.089
REMARK SMILES NS(=O)(=O)c1ccc(/N=N/c2ccc(O)c(C(=O)OCCOCCOC(=O)c3ccc(-c4c5nc(c(-c6c(F)c(F)c(F)c(F)c6F)c6ccc([nH]6)c(-c6c(F)c(F)c(F)c(F)c6F)c6nc(c(-c7c(F)c(F)c(F)c(F)c7F)c7ccc4[nH]7)C=C6)C=C5)cc3)c2)cc1
REMARK SMILES IDX 21 1 20 2 19 3 17 4 18 5 16 6 11 7 12 8 91 9 13 10 14 11
REMARK SMILES IDX 10 12 9 13 8 14 5 15 6 16 93 17 7 18 92 19 2 20 3 21 4 22
REMARK SMILES IDX 1 23 15 26 22 28 23 29 24 30 25 31 26 32 27 33 28 34 29 35
REMARK SMILES IDX 90 36 30 37 89 38 31 39 32 40 33 41 83 42 34 43 88 44 82 45
REMARK SMILES IDX 84 46 35 47 87 48 81 49 80 50 36 52 68 53 48 54 67 55 49 56
REMARK SMILES IDX 52 57 66 58 85 59 50 60 51 61 65 63 86 64 53 65 37 66 38 67
REMARK SMILES IDX 46 68 39 69 40 70 44 71 47 72 41 73 42 74 45 75 43 76 69 77
REMARK SMILES IDX 70 78 78 79 71 80 72 81 76 82 79 83 73 84 74 85 77 86 75 87
REMARK SMILES IDX 54 88 55 89 63 90 56 91 57 92 61 93 64 94 58 95 59 96 62 97
REMARK SMILES IDX 60 98
REMARK H PARENT 1 24 1 25 15 27 84 51 52 62
REMARK Flexibility Score: inf
ROOT
ATOM      1  C   UNL A   1      33.648  28.122  23.943  1.00  0.00     0.202 C 
ENDROOT
BRANCH   1   2
ATOM      2  C   UNL A   1      32.605  27.753  22.880  1.00  0.00     0.261 C 
BRANCH   2   3
ATOM      3  O   UNL A   1      32.212  26.374  22.959  1.00  0.00    -0.460 OA
BRANCH   3   4
ATOM      4  C   UNL A   1      32.984  25.529  22.234  1.00  0.00     0.342 C 
ATOM      5  O   UNL A   1      33.653  25.813  21.250  1.00  0.00    -0.246 OA
BRANCH   4   6
ATOM      6  C   UNL A   1      33.136  24.224  22.913  1.00  0.00     0.104 A 
ATOM      7  C   UNL A   1      34.492  22.430  23.847  1.00  0.00     0.087 A 
ATOM      8  C   UNL A   1      33.311  21.723  24.122  1.00  0.00     0.034 A 
ATOM      9  C   UNL A   1      34.393  23.689  23.230  1.00  0.00     0.049 A 
ATOM     10  C   UNL A   1      32.060  22.239  23.787  1.00  0.00     0.049 A 
ATOM     11  C   UNL A   1      31.975  23.486  23.184  1.00  0.00     0.130 A 
BRANCH   7  12
ATOM     12  N   UNL A   1      35.700  21.784  24.176  1.00  0.00    -0.151 NA
ATOM     13  N   UNL A   1      36.323  22.307  25.121  1.00  0.00    -0.151 NA
BRANCH  13  14
ATOM     14  C   UNL A   1      37.535  21.637  25.412  1.00  0.00     0.086 A 
ATOM     15  C   UNL A   1      40.010  20.456  26.052  1.00  0.00     0.082 A 
ATOM     16  C   UNL A   1      39.745  21.768  26.448  1.00  0.00     0.024 A 
ATOM     17  C   UNL A   1      39.060  19.727  25.338  1.00  0.00     0.024 A 
ATOM     18  C   UNL A   1      38.512  22.348  26.126  1.00  0.00     0.031 A 
ATOM     19  C   UNL A   1      37.832  20.317  25.025  1.00  0.00     0.031 A 
BRANCH  15  20
ATOM     20  S   UNL A   1      41.567  19.713  26.441  1.00  0.00     0.238 S 
ATOM     21  O   UNL A   1      42.600  20.723  26.374  1.00  0.00    -0.207 OA
ATOM     22  O   UNL A   1      41.658  18.452  25.751  1.00  0.00    -0.207 OA
BRANCH  20  23
ATOM     23  N   UNL A   1      41.419  19.352  28.076  1.00  0.00    -0.225 NA
ATOM     24  H   UNL A   1      42.146  19.840  28.599  1.00  0.00     0.137 HD
ATOM     25  H   UNL A   1      41.520  18.346  28.212  1.00  0.00     0.137 HD
ENDBRANCH  20  23
ENDBRANCH  15  20
ENDBRANCH  13  14
ENDBRANCH   7  12
BRANCH  11  26
ATOM     26  O   UNL A   1      30.716  23.905  22.845  1.00  0.00    -0.507 OA
ATOM     27  H   UNL A   1      30.212  24.413  23.450  1.00  0.00     0.293 HD
ENDBRANCH  11  26
ENDBRANCH   4   6
ENDBRANCH   3   4
ENDBRANCH   2   3
ENDBRANCH   1   2
BRANCH   1  28
ATOM     28  O   UNL A   1      33.376  29.242  24.781  1.00  0.00    -0.374 OA
BRANCH  28  29
ATOM     29  C   UNL A   1      32.013  29.608  24.995  1.00  0.00     0.202 C 
BRANCH  29  30
ATOM     30  C   UNL A   1      31.709  30.718  26.011  1.00  0.00     0.261 C 
BRANCH  30  31
ATOM     31  O   UNL A   1      32.569  30.672  27.163  1.00  0.00    -0.460 OA
BRANCH  31  32
ATOM     32  C   UNL A   1      33.281  31.804  27.378  1.00  0.00     0.338 C 
ATOM     33  O   UNL A   1      32.887  32.955  27.311  1.00  0.00    -0.246 OA
BRANCH  32  34
ATOM     34  C   UNL A   1      34.612  31.458  27.908  1.00  0.00     0.060 A 
ATOM     35  C   UNL A   1      34.846  30.123  28.262  1.00  0.00     0.016 A 
ATOM     36  C   UNL A   1      35.587  32.433  28.125  1.00  0.00     0.016 A 
ATOM     37  C   UNL A   1      36.043  29.763  28.875  1.00  0.00     0.010 A 
ATOM     38  C   UNL A   1      36.784  32.072  28.749  1.00  0.00     0.010 A 
ATOM     39  C   UNL A   1      37.005  30.742  29.156  1.00  0.00    -0.014 A 
BRANCH  39  40
ATOM     40  C   UNL A   1      38.184  30.404  29.989  1.00  0.00     0.031 A 
ATOM     41  C   UNL A   1      39.258  29.523  29.416  1.00  0.00     0.074 A 
ATOM     42  C   UNL A   1      38.300  30.886  31.239  1.00  0.00     0.049 A 
ATOM     43  N   UNL A   1      40.334  29.043  29.986  1.00  0.00    -0.248 NA
ATOM     44  C   UNL A   1      39.092  29.123  28.009  1.00  0.00     0.031 C 
ATOM     45  C   UNL A   1      37.347  31.783  31.889  1.00  0.00     0.029 A 
ATOM     46  N   UNL A   1      39.269  30.678  32.188  1.00  0.00    -0.354 N 
ATOM     47  C   UNL A   1      40.966  28.278  29.014  1.00  0.00     0.074 A 
ATOM     48  C   UNL A   1      40.136  28.328  27.829  1.00  0.00     0.031 C 
ATOM     49  C   UNL A   1      37.772  32.040  33.137  1.00  0.00     0.029 A 
ATOM     50  C   UNL A   1      39.004  31.293  33.386  1.00  0.00     0.049 A 
ATOM     51  H   UNL A   1      40.077  30.140  32.026  1.00  0.00     0.167 HD
ATOM     52  C   UNL A   1      42.137  27.603  29.102  1.00  0.00     0.037 A 
ATOM     53  C   UNL A   1      39.667  31.236  34.559  1.00  0.00     0.037 A 
ATOM     54  C   UNL A   1      42.957  27.558  30.285  1.00  0.00     0.049 A 
ATOM     55  C   UNL A   1      40.926  30.412  34.653  1.00  0.00     0.074 A 
ATOM     56  C   UNL A   1      44.171  26.920  30.469  1.00  0.00     0.029 A 
ATOM     57  N   UNL A   1      42.642  28.170  31.488  1.00  0.00    -0.354 N 
ATOM     58  N   UNL A   1      41.530  29.711  33.725  1.00  0.00    -0.248 NA
ATOM     59  C   UNL A   1      41.596  30.376  35.961  1.00  0.00     0.031 C 
ATOM     60  C   UNL A   1      44.558  27.091  31.801  1.00  0.00     0.029 A 
ATOM     61  C   UNL A   1      43.622  27.897  32.430  1.00  0.00     0.049 A 
ATOM     62  H   UNL A   1      41.840  28.718  31.651  1.00  0.00     0.167 HD
ATOM     63  C   UNL A   1      42.668  29.182  34.324  1.00  0.00     0.074 A 
ATOM     64  C   UNL A   1      42.674  29.652  35.694  1.00  0.00     0.031 C 
ATOM     65  C   UNL A   1      43.621  28.381  33.788  1.00  0.00     0.037 A 
BRANCH  52  66
ATOM     66  C   UNL A   1      42.587  26.828  27.896  1.00  0.00     0.064 A 
ATOM     67  C   UNL A   1      42.127  25.528  27.635  1.00  0.00     0.173 A 
ATOM     68  C   UNL A   1      43.462  27.411  26.966  1.00  0.00     0.173 A 
ATOM     69  F   UNL A   1      41.297  24.919  28.495  1.00  0.00    -0.203 F 
ATOM     70  C   UNL A   1      42.549  24.832  26.504  1.00  0.00     0.198 A 
ATOM     71  C   UNL A   1      43.855  26.725  25.820  1.00  0.00     0.198 A 
ATOM     72  F   UNL A   1      43.929  28.654  27.162  1.00  0.00    -0.203 F 
ATOM     73  F   UNL A   1      42.136  23.573  26.302  1.00  0.00    -0.200 F 
ATOM     74  C   UNL A   1      43.405  25.434  25.594  1.00  0.00     0.200 A 
ATOM     75  F   UNL A   1      44.670  27.315  24.934  1.00  0.00    -0.200 F 
ATOM     76  F   UNL A   1      43.803  24.765  24.503  1.00  0.00    -0.200 F 
ENDBRANCH  52  66
BRANCH  53  77
ATOM     77  C   UNL A   1      39.146  31.968  35.743  1.00  0.00     0.064 A 
ATOM     78  C   UNL A   1      39.545  33.284  36.014  1.00  0.00     0.173 A 
ATOM     79  C   UNL A   1      38.256  31.360  36.642  1.00  0.00     0.173 A 
ATOM     80  F   UNL A   1      40.414  33.901  35.199  1.00  0.00    -0.203 F 
ATOM     81  C   UNL A   1      39.093  33.956  37.148  1.00  0.00     0.198 A 
ATOM     82  C   UNL A   1      37.778  32.044  37.757  1.00  0.00     0.198 A 
ATOM     83  F   UNL A   1      37.842  30.102  36.430  1.00  0.00    -0.203 F 
ATOM     84  F   UNL A   1      39.533  35.193  37.411  1.00  0.00    -0.200 F 
ATOM     85  C   UNL A   1      38.204  33.338  38.016  1.00  0.00     0.200 A 
ATOM     86  F   UNL A   1      36.907  31.447  38.583  1.00  0.00    -0.200 F 
ATOM     87  F   UNL A   1      37.766  33.985  39.104  1.00  0.00    -0.200 F 
ENDBRANCH  53  77
BRANCH  65  88
ATOM     88  C   UNL A   1      44.781  27.999  34.665  1.00  0.00     0.064 A 
ATOM     89  C   UNL A   1      45.935  28.791  34.758  1.00  0.00     0.173 A 
ATOM     90  C   UNL A   1      44.716  26.842  35.458  1.00  0.00     0.173 A 
ATOM     91  F   UNL A   1      46.056  29.899  34.011  1.00  0.00    -0.203 F 
ATOM     92  C   UNL A   1      46.991  28.424  35.590  1.00  0.00     0.198 A 
ATOM     93  C   UNL A   1      45.757  26.498  36.316  1.00  0.00     0.198 A 
ATOM     94  F   UNL A   1      43.632  26.052  35.416  1.00  0.00    -0.203 F 
ATOM     95  F   UNL A   1      48.105  29.169  35.622  1.00  0.00    -0.200 F 
ATOM     96  C   UNL A   1      46.897  27.285  36.375  1.00  0.00     0.200 A 
ATOM     97  F   UNL A   1      45.656  25.407  37.087  1.00  0.00    -0.200 F 
ATOM     98  F   UNL A   1      47.909  26.940  37.182  1.00  0.00    -0.200 F 
ENDBRANCH  65  88
ENDBRANCH  39  40
ENDBRANCH  32  34
ENDBRANCH  31  32
ENDBRANCH  30  31
ENDBRANCH  29  30
ENDBRANCH  28  29
ENDBRANCH   1  28
TORSDOF 19
ENDMDL
MODEL 3
REMARK VINA RESULT:     -11.4      3.190      4.658
REMARK SMILES NS(=O)(=O)c1ccc(/N=N/c2ccc(O)c(C(=O)OCCOCCOC(=O)c3ccc(-c4c5nc(c(-c6c(F)c(F)c(F)c(F)c6F)c6ccc([nH]6)c(-c6c(F)c(F)c(F)c(F)c6F)c6nc(c(-c7c(F)c(F)c(F)c(F)c7F)c7ccc4[nH]7)C=C6)C=C5)cc3)c2)cc1
REMARK SMILES IDX 21 1 20 2 19 3 17 4 18 5 16 6 11 7 12 8 91 9 13 10 14 11
REMARK SMILES IDX 10 12 9 13 8 14 5 15 6 16 93 17 7 18 92 19 2 20 3 21 4 22
REMARK SMILES IDX 1 23 15 26 22 28 23 29 24 30 25 31 26 32 27 33 28 34 29 35
REMARK SMILES IDX 90 36 30 37 89 38 31 39 32 40 33 41 83 42 34 43 88 44 82 45
REMARK SMILES IDX 84 46 35 47 87 48 81 49 80 50 36 52 68 53 48 54 67 55 49 56
REMARK SMILES IDX 52 57 66 58 85 59 50 60 51 61 65 63 86 64 53 65 37 66 38 67
REMARK SMILES IDX 46 68 39 69 40 70 44 71 47 72 41 73 42 74 45 75 43 76 69 77
REMARK SMILES IDX 70 78 78 79 71 80 72 81 76 82 79 83 73 84 74 85 77 86 75 87
REMARK SMILES IDX 54 88 55 89 63 90 56 91 57 92 61 93 64 94 58 95 59 96 62 97
REMARK SMILES IDX 60 98
REMARK H PARENT 1 24 1 25 15 27 84 51 52 62
REMARK Flexibility Score: inf
ROOT
ATOM      1  C   UNL A   1      35.044  31.608  28.194  1.00  0.00     0.202 C 
ENDROOT
BRANCH   1   2
ATOM      2  C   UNL A   1      33.823  30.953  27.538  1.00  0.00     0.261 C 
BRANCH   2   3
ATOM      3  O   UNL A   1      34.114  29.639  27.035  1.00  0.00    -0.460 OA
BRANCH   3   4
ATOM      4  C   UNL A   1      33.040  28.817  26.961  1.00  0.00     0.342 C 
ATOM      5  O   UNL A   1      31.996  28.921  27.589  1.00  0.00    -0.246 OA
BRANCH   4   6
ATOM      6  C   UNL A   1      33.162  27.876  25.828  1.00  0.00     0.104 A 
ATOM      7  C   UNL A   1      33.210  25.626  24.895  1.00  0.00     0.087 A 
ATOM      8  C   UNL A   1      33.486  26.187  23.639  1.00  0.00     0.034 A 
ATOM      9  C   UNL A   1      33.055  26.487  25.995  1.00  0.00     0.049 A 
ATOM     10  C   UNL A   1      33.618  27.565  23.470  1.00  0.00     0.049 A 
ATOM     11  C   UNL A   1      33.457  28.405  24.563  1.00  0.00     0.130 A 
BRANCH   7  12
ATOM     12  N   UNL A   1      33.157  24.220  24.956  1.00  0.00    -0.151 NA
ATOM     13  N   UNL A   1      33.689  23.641  23.988  1.00  0.00    -0.151 NA
BRANCH  13  14
ATOM     14  C   UNL A   1      33.606  22.232  24.082  1.00  0.00     0.086 A 
ATOM     15  C   UNL A   1      33.285  19.436  24.189  1.00  0.00     0.082 A 
ATOM     16  C   UNL A   1      32.378  20.211  23.464  1.00  0.00     0.024 A 
ATOM     17  C   UNL A   1      34.347  20.037  24.864  1.00  0.00     0.024 A 
ATOM     18  C   UNL A   1      32.544  21.600  23.416  1.00  0.00     0.031 A 
ATOM     19  C   UNL A   1      34.503  21.425  24.806  1.00  0.00     0.031 A 
BRANCH  15  20
ATOM     20  S   UNL A   1      33.081  17.682  24.269  1.00  0.00     0.238 S 
ATOM     21  O   UNL A   1      33.101  17.144  22.926  1.00  0.00    -0.207 OA
ATOM     22  O   UNL A   1      32.038  17.384  25.216  1.00  0.00    -0.207 OA
BRANCH  20  23
ATOM     23  N   UNL A   1      34.520  17.162  24.965  1.00  0.00    -0.225 NA
ATOM     24  H   UNL A   1      35.276  17.790  24.692  1.00  0.00     0.137 HD
ATOM     25  H   UNL A   1      34.731  16.217  24.644  1.00  0.00     0.137 HD
ENDBRANCH  20  23
ENDBRANCH  15  20
ENDBRANCH  13  14
ENDBRANCH   7  12
BRANCH  11  26
ATOM     26  O   UNL A   1      33.646  29.740  24.327  1.00  0.00    -0.507 OA
ATOM     27  H   UNL A   1      32.975  30.355  24.552  1.00  0.00     0.293 HD
ENDBRANCH  11  26
ENDBRANCH   4   6
ENDBRANCH   3   4
ENDBRANCH   2   3
ENDBRANCH   1   2
BRANCH   1  28
ATOM     28  O   UNL A   1      34.904  32.940  28.681  1.00  0.00    -0.374 OA
BRANCH  28  29
ATOM     29  C   UNL A   1      33.669  33.616  28.447  1.00  0.00     0.202 C 
BRANCH  29  30
ATOM     30  C   UNL A   1      33.436  34.966  29.138  1.00  0.00     0.261 C 
BRANCH  30  31
ATOM     31  O   UNL A   1      32.518  34.879  30.241  1.00  0.00    -0.460 OA
BRANCH  31  32
ATOM     32  C   UNL A   1      32.890  35.580  31.340  1.00  0.00     0.338 C 
ATOM     33  O   UNL A   1      32.328  36.542  31.833  1.00  0.00    -0.246 OA
BRANCH  32  34
ATOM     34  C   UNL A   1      34.011  34.896  32.007  1.00  0.00     0.060 A 
ATOM     35  C   UNL A   1      35.273  35.502  31.948  1.00  0.00     0.016 A 
ATOM     36  C   UNL A   1      33.847  33.650  32.615  1.00  0.00     0.016 A 
ATOM     37  C   UNL A   1      36.388  34.842  32.460  1.00  0.00     0.010 A 
ATOM     38  C   UNL A   1      34.969  32.987  33.121  1.00  0.00     0.010 A 
ATOM     39  C   UNL A   1      36.248  33.565  33.016  1.00  0.00    -0.014 A 
BRANCH  39  40
ATOM     40  C   UNL A   1      37.453  32.777  33.371  1.00  0.00     0.031 A 
ATOM     41  C   UNL A   1      38.159  33.063  34.667  1.00  0.00     0.074 A 
ATOM     42  C   UNL A   1      37.905  31.810  32.553  1.00  0.00     0.049 A 
ATOM     43  N   UNL A   1      39.265  32.549  35.143  1.00  0.00    -0.248 NA
ATOM     44  C   UNL A   1      37.537  34.070  35.541  1.00  0.00     0.031 C 
ATOM     45  C   UNL A   1      37.281  31.412  31.293  1.00  0.00     0.029 A 
ATOM     46  N   UNL A   1      39.003  30.993  32.660  1.00  0.00    -0.354 N 
ATOM     47  C   UNL A   1      39.477  33.177  36.365  1.00  0.00     0.074 A 
ATOM     48  C   UNL A   1      38.405  34.134  36.540  1.00  0.00     0.031 C 
ATOM     49  C   UNL A   1      38.013  30.434  30.735  1.00  0.00     0.029 A 
ATOM     50  C   UNL A   1      39.178  30.167  31.578  1.00  0.00     0.049 A 
ATOM     51  H   UNL A   1      39.607  31.000  33.436  1.00  0.00     0.167 HD
ATOM     52  C   UNL A   1      40.471  32.966  37.259  1.00  0.00     0.037 A 
ATOM     53  C   UNL A   1      40.180  29.313  31.289  1.00  0.00     0.037 A 
ATOM     54  C   UNL A   1      41.534  32.012  37.077  1.00  0.00     0.049 A 
ATOM     55  C   UNL A   1      41.317  29.155  32.266  1.00  0.00     0.074 A 
ATOM     56  C   UNL A   1      42.577  31.708  37.935  1.00  0.00     0.029 A 
ATOM     57  N   UNL A   1      41.694  31.213  35.955  1.00  0.00    -0.354 N 
ATOM     58  N   UNL A   1      41.499  29.733  33.428  1.00  0.00    -0.248 NA
ATOM     59  C   UNL A   1      42.388  28.221  31.889  1.00  0.00     0.031 C 
ATOM     60  C   UNL A   1      43.404  30.774  37.304  1.00  0.00     0.029 A 
ATOM     61  C   UNL A   1      42.838  30.439  36.084  1.00  0.00     0.049 A 
ATOM     62  H   UNL A   1      41.086  31.196  35.181  1.00  0.00     0.167 HD
ATOM     63  C   UNL A   1      42.681  29.208  33.937  1.00  0.00     0.074 A 
ATOM     64  C   UNL A   1      43.168  28.257  32.961  1.00  0.00     0.031 C 
ATOM     65  C   UNL A   1      43.305  29.487  35.108  1.00  0.00     0.037 A 
BRANCH  52  66
ATOM     66  C   UNL A   1      40.477  33.807  38.505  1.00  0.00     0.064 A 
ATOM     67  C   UNL A   1      39.763  33.435  39.654  1.00  0.00     0.173 A 
ATOM     68  C   UNL A   1      41.240  34.983  38.562  1.00  0.00     0.173 A 
ATOM     69  F   UNL A   1      39.008  32.325  39.651  1.00  0.00    -0.203 F 
ATOM     70  C   UNL A   1      39.790  34.224  40.803  1.00  0.00     0.198 A 
ATOM     71  C   UNL A   1      41.292  35.752  39.723  1.00  0.00     0.198 A 
ATOM     72  F   UNL A   1      41.947  35.385  37.494  1.00  0.00    -0.203 F 
ATOM     73  F   UNL A   1      39.059  33.875  41.870  1.00  0.00    -0.200 F 
ATOM     74  C   UNL A   1      40.561  35.376  40.838  1.00  0.00     0.200 A 
ATOM     75  F   UNL A   1      42.051  36.856  39.760  1.00  0.00    -0.200 F 
ATOM     76  F   UNL A   1      40.593  36.128  41.946  1.00  0.00    -0.200 F 
ENDBRANCH  52  66
BRANCH  53  77
ATOM     77  C   UNL A   1      40.162  28.551  30.012  1.00  0.00     0.064 A 
ATOM     78  C   UNL A   1      40.731  29.082  28.845  1.00  0.00     0.173 A 
ATOM     79  C   UNL A   1      39.558  27.288  29.925  1.00  0.00     0.173 A 
ATOM     80  F   UNL A   1      41.298  30.298  28.871  1.00  0.00    -0.203 F 
ATOM     81  C   UNL A   1      40.676  28.390  27.638  1.00  0.00     0.198 A 
ATOM     82  C   UNL A   1      39.533  26.582  28.725  1.00  0.00     0.198 A 
ATOM     83  F   UNL A   1      39.000  26.734  31.011  1.00  0.00    -0.203 F 
ATOM     84  F   UNL A   1      41.178  28.944  26.527  1.00  0.00    -0.200 F 
ATOM     85  C   UNL A   1      40.083  27.137  27.579  1.00  0.00     0.200 A 
ATOM     86  F   UNL A   1      38.974  25.365  28.679  1.00  0.00    -0.200 F 
ATOM     87  F   UNL A   1      40.033  26.470  26.419  1.00  0.00    -0.200 F 
ENDBRANCH  53  77
BRANCH  65  88
ATOM     88  C   UNL A   1      44.559  28.721  35.427  1.00  0.00     0.064 A 
ATOM     89  C   UNL A   1      45.830  29.190  35.063  1.00  0.00     0.173 A 
ATOM     90  C   UNL A   1      44.488  27.518  36.149  1.00  0.00     0.173 A 
ATOM     91  F   UNL A   1      45.954  30.326  34.360  1.00  0.00    -0.203 F 
ATOM     92  C   UNL A   1      46.979  28.470  35.383  1.00  0.00     0.198 A 
ATOM     93  C   UNL A   1      45.640  26.820  36.500  1.00  0.00     0.198 A 
ATOM     94  F   UNL A   1      43.299  27.027  36.531  1.00  0.00    -0.203 F 
ATOM     95  F   UNL A   1      48.178  28.912  34.979  1.00  0.00    -0.200 F 
ATOM     96  C   UNL A   1      46.884  27.293  36.109  1.00  0.00     0.200 A 
ATOM     97  F   UNL A   1      45.547  25.692  37.216  1.00  0.00    -0.200 F 
ATOM     98  F   UNL A   1      47.991  26.608  36.426  1.00  0.00    -0.200 F 
ENDBRANCH  65  88
ENDBRANCH  39  40
ENDBRANCH  32  34
ENDBRANCH  31  32
ENDBRANCH  30  31
ENDBRANCH  29  30
ENDBRANCH  28  29
ENDBRANCH   1  28
TORSDOF 19
ENDMDL
