MODEL 1
REMARK VINA RESULT:     -11.2      0.000      0.000
REMARK SMILES C[C@@H](C(=O)OCCOCCOC(=O)c1ccc(-c2c3nc(c(-c4c(F)c(F)c(F)c(F)c4F)c4ccc([nH]4)c(-c4c(F)c(F)c(F)c(F)c4F)c4nc(c(-c5c(F)c(F)c(F)c(F)c5F)c5ccc2[nH]5)C=C4)C=C3)cc1)N(C)c1ccc(C(N)=O)nn1
REMARK SMILES IDX 7 1 6 2 5 3 3 4 4 5 2 6 1 7 77 8 78 9 79 10 80 11 87 12
REMARK SMILES IDX 81 13 86 14 82 15 83 16 84 17 85 18 8 21 9 22 10 23 11 24
REMARK SMILES IDX 12 25 13 26 14 27 15 28 76 29 16 30 75 31 17 32 18 33 19 34
REMARK SMILES IDX 69 35 20 36 74 37 68 38 70 39 21 40 73 41 67 42 66 43 22 45
REMARK SMILES IDX 54 46 34 47 53 48 35 49 38 50 52 51 71 52 36 53 37 54 51 56
REMARK SMILES IDX 72 57 39 58 23 59 24 60 32 61 25 62 26 63 30 64 33 65 27 66
REMARK SMILES IDX 28 67 31 68 29 69 55 70 56 71 64 72 57 73 58 74 62 75 65 76
REMARK SMILES IDX 59 77 60 78 63 79 61 80 40 81 41 82 49 83 42 84 43 85 47 86
REMARK SMILES IDX 50 87 44 88 45 89 48 90 46 91
REMARK H PARENT 84 19 84 20 70 44 38 55
REMARK Flexibility Score: inf
ROOT
ATOM      1  C   UNL A   1      32.593  29.447  26.386  1.00  0.00     0.202 C 
ENDROOT
BRANCH   1   2
ATOM      2  C   UNL A   1      32.086  28.053  26.764  1.00  0.00     0.261 C 
BRANCH   2   3
ATOM      3  O   UNL A   1      32.191  27.171  25.629  1.00  0.00    -0.462 OA
BRANCH   3   4
ATOM      4  C   UNL A   1      31.123  26.355  25.401  1.00  0.00     0.328 C 
ATOM      5  O   UNL A   1      31.024  25.216  25.842  1.00  0.00    -0.250 OA
BRANCH   4   6
ATOM      6  C   UNL A   1      30.073  27.017  24.475  1.00  0.00     0.190 C 
ATOM      7  C   UNL A   1      29.032  26.060  23.894  1.00  0.00     0.044 C 
BRANCH   6   8
ATOM      8  N   UNL A   1      30.690  27.901  23.440  1.00  0.00    -0.345 N 
ATOM      9  C   UNL A   1      31.385  27.196  22.357  1.00  0.00     0.146 C 
BRANCH   8  10
ATOM     10  C   UNL A   1      30.015  29.039  22.990  1.00  0.00     0.151 A 
ATOM     11  C   UNL A   1      29.857  30.149  23.816  1.00  0.00     0.051 A 
ATOM     12  N   UNL A   1      29.581  29.124  21.710  1.00  0.00    -0.132 NA
ATOM     13  C   UNL A   1      29.246  31.311  23.336  1.00  0.00     0.040 A 
ATOM     14  N   UNL A   1      28.976  30.266  21.215  1.00  0.00    -0.143 NA
ATOM     15  C   UNL A   1      28.819  31.334  22.023  1.00  0.00     0.150 A 
BRANCH  15  16
ATOM     16  C   UNL A   1      28.165  32.539  21.446  1.00  0.00     0.269 C 
ATOM     17  N   UNL A   1      27.723  32.436  20.155  1.00  0.00    -0.364 N 
ATOM     18  O   UNL A   1      28.028  33.573  22.090  1.00  0.00    -0.268 OA
ATOM     19  H   UNL A   1      27.844  31.594  19.658  1.00  0.00     0.160 HD
ATOM     20  H   UNL A   1      27.282  33.203  19.722  1.00  0.00     0.160 HD
ENDBRANCH  15  16
ENDBRANCH   8  10
ENDBRANCH   6   8
ENDBRANCH   4   6
ENDBRANCH   3   4
ENDBRANCH   2   3
ENDBRANCH   1   2
BRANCH   1  21
ATOM     21  O   UNL A   1      32.116  30.518  27.203  1.00  0.00    -0.374 OA
BRANCH  21  22
ATOM     22  C   UNL A   1      31.513  31.626  26.537  1.00  0.00     0.202 C 
BRANCH  22  23
ATOM     23  C   UNL A   1      32.031  33.010  26.944  1.00  0.00     0.261 C 
BRANCH  23  24
ATOM     24  O   UNL A   1      32.908  32.949  28.080  1.00  0.00    -0.460 OA
BRANCH  24  25
ATOM     25  C   UNL A   1      33.991  33.752  27.985  1.00  0.00     0.338 C 
ATOM     26  O   UNL A   1      34.009  34.960  27.778  1.00  0.00    -0.246 OA
BRANCH  25  27
ATOM     27  C   UNL A   1      35.215  33.007  28.326  1.00  0.00     0.060 A 
ATOM     28  C   UNL A   1      35.060  31.670  28.710  1.00  0.00     0.016 A 
ATOM     29  C   UNL A   1      36.473  33.615  28.352  1.00  0.00     0.016 A 
ATOM     30  C   UNL A   1      36.153  30.950  29.180  1.00  0.00     0.010 A 
ATOM     31  C   UNL A   1      37.570  32.891  28.831  1.00  0.00     0.010 A 
ATOM     32  C   UNL A   1      37.405  31.570  29.285  1.00  0.00    -0.014 A 
BRANCH  32  33
ATOM     33  C   UNL A   1      38.492  30.877  30.018  1.00  0.00     0.031 A 
ATOM     34  C   UNL A   1      38.710  31.201  31.470  1.00  0.00     0.074 A 
ATOM     35  C   UNL A   1      39.235  29.934  29.414  1.00  0.00     0.049 A 
ATOM     36  N   UNL A   1      39.593  30.718  32.306  1.00  0.00    -0.248 NA
ATOM     37  C   UNL A   1      37.808  32.203  32.059  1.00  0.00     0.031 C 
ATOM     38  C   UNL A   1      39.089  29.508  28.023  1.00  0.00     0.029 A 
ATOM     39  N   UNL A   1      40.264  29.166  29.897  1.00  0.00    -0.354 N 
ATOM     40  C   UNL A   1      39.354  31.355  33.517  1.00  0.00     0.074 A 
ATOM     41  C   UNL A   1      38.266  32.284  33.301  1.00  0.00     0.031 C 
ATOM     42  C   UNL A   1      40.003  28.557  27.762  1.00  0.00     0.029 A 
ATOM     43  C   UNL A   1      40.813  28.330  28.958  1.00  0.00     0.049 A 
ATOM     44  H   UNL A   1      40.578  29.210  30.829  1.00  0.00     0.167 HD
ATOM     45  C   UNL A   1      39.978  31.172  34.704  1.00  0.00     0.037 A 
ATOM     46  C   UNL A   1      41.862  27.490  29.051  1.00  0.00     0.037 A 
ATOM     47  C   UNL A   1      41.059  30.247  34.918  1.00  0.00     0.049 A 
ATOM     48  C   UNL A   1      42.581  27.351  30.368  1.00  0.00     0.074 A 
ATOM     49  C   UNL A   1      41.752  29.981  36.085  1.00  0.00     0.029 A 
ATOM     50  N   UNL A   1      41.609  29.440  33.933  1.00  0.00    -0.354 N 
ATOM     51  N   UNL A   1      42.334  27.941  31.513  1.00  0.00    -0.248 NA
ATOM     52  C   UNL A   1      43.722  26.426  30.406  1.00  0.00     0.031 C 
ATOM     53  C   UNL A   1      42.751  29.045  35.798  1.00  0.00     0.029 A 
ATOM     54  C   UNL A   1      42.648  28.691  34.461  1.00  0.00     0.049 A 
ATOM     55  H   UNL A   1      41.306  29.403  32.997  1.00  0.00     0.167 HD
ATOM     56  C   UNL A   1      43.269  27.441  32.410  1.00  0.00     0.074 A 
ATOM     57  C   UNL A   1      44.080  26.489  31.681  1.00  0.00     0.031 C 
ATOM     58  C   UNL A   1      43.440  27.743  33.720  1.00  0.00     0.037 A 
BRANCH  45  59
ATOM     59  C   UNL A   1      39.518  32.006  35.863  1.00  0.00     0.064 A 
ATOM     60  C   UNL A   1      38.482  31.582  36.709  1.00  0.00     0.173 A 
ATOM     61  C   UNL A   1      40.140  33.229  36.151  1.00  0.00     0.173 A 
ATOM     62  F   UNL A   1      37.843  30.427  36.468  1.00  0.00    -0.203 F 
ATOM     63  C   UNL A   1      38.073  32.363  37.788  1.00  0.00     0.198 A 
ATOM     64  C   UNL A   1      39.747  33.995  37.245  1.00  0.00     0.198 A 
ATOM     65  F   UNL A   1      41.138  33.679  35.374  1.00  0.00    -0.203 F 
ATOM     66  F   UNL A   1      37.053  31.959  38.558  1.00  0.00    -0.200 F 
ATOM     67  C   UNL A   1      38.710  33.565  38.059  1.00  0.00     0.200 A 
ATOM     68  F   UNL A   1      40.371  35.151  37.511  1.00  0.00    -0.200 F 
ATOM     69  F   UNL A   1      38.320  34.311  39.101  1.00  0.00    -0.200 F 
ENDBRANCH  45  59
BRANCH  46  70
ATOM     70  C   UNL A   1      42.303  26.720  27.858  1.00  0.00     0.064 A 
ATOM     71  C   UNL A   1      43.270  27.230  26.982  1.00  0.00     0.173 A 
ATOM     72  C   UNL A   1      41.752  25.465  27.564  1.00  0.00     0.173 A 
ATOM     73  F   UNL A   1      43.808  28.438  27.208  1.00  0.00    -0.203 F 
ATOM     74  C   UNL A   1      43.658  26.521  25.847  1.00  0.00     0.198 A 
ATOM     75  C   UNL A   1      42.161  24.743  26.444  1.00  0.00     0.198 A 
ATOM     76  F   UNL A   1      40.822  24.933  28.370  1.00  0.00    -0.203 F 
ATOM     77  F   UNL A   1      44.552  27.050  25.001  1.00  0.00    -0.200 F 
ATOM     78  C   UNL A   1      43.107  25.275  25.582  1.00  0.00     0.200 A 
ATOM     79  F   UNL A   1      41.634  23.536  26.199  1.00  0.00    -0.200 F 
ATOM     80  F   UNL A   1      43.483  24.592  24.493  1.00  0.00    -0.200 F 
ENDBRANCH  46  70
BRANCH  58  81
ATOM     81  C   UNL A   1      44.525  27.014  34.460  1.00  0.00     0.064 A 
ATOM     82  C   UNL A   1      45.816  27.547  34.584  1.00  0.00     0.173 A 
ATOM     83  C   UNL A   1      44.256  25.789  35.088  1.00  0.00     0.173 A 
ATOM     84  F   UNL A   1      46.126  28.709  33.989  1.00  0.00    -0.203 F 
ATOM     85  C   UNL A   1      46.805  26.869  35.290  1.00  0.00     0.198 A 
ATOM     86  C   UNL A   1      45.239  25.127  35.818  1.00  0.00     0.198 A 
ATOM     87  F   UNL A   1      43.034  25.240  35.005  1.00  0.00    -0.203 F 
ATOM     88  F   UNL A   1      48.043  27.375  35.359  1.00  0.00    -0.200 F 
ATOM     89  C   UNL A   1      46.513  25.664  35.913  1.00  0.00     0.200 A 
ATOM     90  F   UNL A   1      44.953  23.969  36.429  1.00  0.00    -0.200 F 
ATOM     91  F   UNL A   1      47.465  25.015  36.599  1.00  0.00    -0.200 F 
ENDBRANCH  58  81
ENDBRANCH  32  33
ENDBRANCH  25  27
ENDBRANCH  24  25
ENDBRANCH  23  24
ENDBRANCH  22  23
ENDBRANCH  21  22
ENDBRANCH   1  21
TORSDOF 17
ENDMDL
MODEL 2
REMARK VINA RESULT:     -11.1      3.971      9.100
REMARK SMILES C[C@@H](C(=O)OCCOCCOC(=O)c1ccc(-c2c3nc(c(-c4c(F)c(F)c(F)c(F)c4F)c4ccc([nH]4)c(-c4c(F)c(F)c(F)c(F)c4F)c4nc(c(-c5c(F)c(F)c(F)c(F)c5F)c5ccc2[nH]5)C=C4)C=C3)cc1)N(C)c1ccc(C(N)=O)nn1
REMARK SMILES IDX 7 1 6 2 5 3 3 4 4 5 2 6 1 7 77 8 78 9 79 10 80 11 87 12
REMARK SMILES IDX 81 13 86 14 82 15 83 16 84 17 85 18 8 21 9 22 10 23 11 24
REMARK SMILES IDX 12 25 13 26 14 27 15 28 76 29 16 30 75 31 17 32 18 33 19 34
REMARK SMILES IDX 69 35 20 36 74 37 68 38 70 39 21 40 73 41 67 42 66 43 22 45
REMARK SMILES IDX 54 46 34 47 53 48 35 49 38 50 52 51 71 52 36 53 37 54 51 56
REMARK SMILES IDX 72 57 39 58 23 59 24 60 32 61 25 62 26 63 30 64 33 65 27 66
REMARK SMILES IDX 28 67 31 68 29 69 55 70 56 71 64 72 57 73 58 74 62 75 65 76
REMARK SMILES IDX 59 77 60 78 63 79 61 80 40 81 41 82 49 83 42 84 43 85 47 86
REMARK SMILES IDX 50 87 44 88 45 89 48 90 46 91
REMARK H PARENT 84 19 84 20 70 44 38 55
REMARK Flexibility Score: inf
ROOT
ATOM      1  C   UNL A   1      41.251  20.943  27.346  1.00  0.00     0.202 C 
ENDROOT
BRANCH   1   2
ATOM      2  C   UNL A   1      40.249  20.753  26.205  1.00  0.00     0.261 C 
BRANCH   2   3
ATOM      3  O   UNL A   1      39.206  21.741  26.301  1.00  0.00    -0.462 OA
BRANCH   3   4
ATOM      4  C   UNL A   1      38.154  21.591  25.447  1.00  0.00     0.328 C 
ATOM      5  O   UNL A   1      37.876  20.541  24.880  1.00  0.00    -0.250 OA
BRANCH   4   6
ATOM      6  C   UNL A   1      37.382  22.917  25.235  1.00  0.00     0.190 C 
ATOM      7  C   UNL A   1      37.768  24.047  26.190  1.00  0.00     0.044 C 
BRANCH   6   8
ATOM      8  N   UNL A   1      35.904  22.717  25.141  1.00  0.00    -0.345 N 
ATOM      9  C   UNL A   1      35.256  22.288  26.385  1.00  0.00     0.146 C 
BRANCH   8  10
ATOM     10  C   UNL A   1      35.116  23.608  24.407  1.00  0.00     0.151 A 
ATOM     11  C   UNL A   1      34.627  24.775  24.989  1.00  0.00     0.051 A 
ATOM     12  N   UNL A   1      34.887  23.403  23.089  1.00  0.00    -0.132 NA
ATOM     13  C   UNL A   1      33.901  25.698  24.230  1.00  0.00     0.040 A 
ATOM     14  N   UNL A   1      34.173  24.306  22.319  1.00  0.00    -0.143 NA
ATOM     15  C   UNL A   1      33.696  25.429  22.891  1.00  0.00     0.150 A 
BRANCH  15  16
ATOM     16  C   UNL A   1      32.936  26.370  22.024  1.00  0.00     0.269 C 
ATOM     17  N   UNL A   1      33.453  27.631  21.890  1.00  0.00    -0.364 N 
ATOM     18  O   UNL A   1      31.901  26.037  21.459  1.00  0.00    -0.268 OA
ATOM     19  H   UNL A   1      34.287  27.873  22.355  1.00  0.00     0.160 HD
ATOM     20  H   UNL A   1      32.992  28.295  21.328  1.00  0.00     0.160 HD
ENDBRANCH  15  16
ENDBRANCH   8  10
ENDBRANCH   6   8
ENDBRANCH   4   6
ENDBRANCH   3   4
ENDBRANCH   2   3
ENDBRANCH   1   2
BRANCH   1  21
ATOM     21  O   UNL A   1      42.515  21.495  26.970  1.00  0.00    -0.374 OA
BRANCH  21  22
ATOM     22  C   UNL A   1      43.101  21.015  25.761  1.00  0.00     0.202 C 
BRANCH  22  23
ATOM     23  C   UNL A   1      43.924  22.037  24.968  1.00  0.00     0.261 C 
BRANCH  23  24
ATOM     24  O   UNL A   1      43.192  23.250  24.722  1.00  0.00    -0.460 OA
BRANCH  24  25
ATOM     25  C   UNL A   1      43.888  24.377  24.989  1.00  0.00     0.338 C 
ATOM     26  O   UNL A   1      44.946  24.739  24.486  1.00  0.00    -0.246 OA
BRANCH  25  27
ATOM     27  C   UNL A   1      43.122  25.252  25.892  1.00  0.00     0.060 A 
ATOM     28  C   UNL A   1      43.631  26.536  26.119  1.00  0.00     0.016 A 
ATOM     29  C   UNL A   1      41.981  24.808  26.566  1.00  0.00     0.016 A 
ATOM     30  C   UNL A   1      43.038  27.363  27.068  1.00  0.00     0.010 A 
ATOM     31  C   UNL A   1      41.389  25.639  27.525  1.00  0.00     0.010 A 
ATOM     32  C   UNL A   1      41.941  26.902  27.807  1.00  0.00    -0.014 A 
BRANCH  32  33
ATOM     33  C   UNL A   1      41.482  27.686  28.978  1.00  0.00     0.031 A 
ATOM     34  C   UNL A   1      42.243  27.573  30.271  1.00  0.00     0.074 A 
ATOM     35  C   UNL A   1      40.439  28.527  28.876  1.00  0.00     0.049 A 
ATOM     36  N   UNL A   1      42.027  28.165  31.417  1.00  0.00    -0.248 NA
ATOM     37  C   UNL A   1      43.406  26.671  30.269  1.00  0.00     0.031 C 
ATOM     38  C   UNL A   1      39.651  28.750  27.666  1.00  0.00     0.029 A 
ATOM     39  N   UNL A   1      39.864  29.351  29.811  1.00  0.00    -0.354 N 
ATOM     40  C   UNL A   1      43.023  27.710  32.271  1.00  0.00     0.074 A 
ATOM     41  C   UNL A   1      43.825  26.767  31.523  1.00  0.00     0.031 C 
ATOM     42  C   UNL A   1      38.687  29.648  27.934  1.00  0.00     0.029 A 
ATOM     43  C   UNL A   1      38.775  30.040  29.340  1.00  0.00     0.049 A 
ATOM     44  H   UNL A   1      40.201  29.439  30.732  1.00  0.00     0.167 HD
ATOM     45  C   UNL A   1      43.256  28.059  33.558  1.00  0.00     0.037 A 
ATOM     46  C   UNL A   1      37.937  30.878  29.978  1.00  0.00     0.037 A 
ATOM     47  C   UNL A   1      42.458  28.998  34.300  1.00  0.00     0.049 A 
ATOM     48  C   UNL A   1      38.178  31.200  31.430  1.00  0.00     0.074 A 
ATOM     49  C   UNL A   1      42.616  29.425  35.607  1.00  0.00     0.029 A 
ATOM     50  N   UNL A   1      41.343  29.652  33.798  1.00  0.00    -0.354 N 
ATOM     51  N   UNL A   1      39.136  30.783  32.222  1.00  0.00    -0.248 NA
ATOM     52  C   UNL A   1      37.225  32.115  32.074  1.00  0.00     0.031 C 
ATOM     53  C   UNL A   1      41.571  30.304  35.910  1.00  0.00     0.029 A 
ATOM     54  C   UNL A   1      40.790  30.463  34.776  1.00  0.00     0.049 A 
ATOM     55  H   UNL A   1      40.995  29.555  32.882  1.00  0.00     0.167 HD
ATOM     56  C   UNL A   1      38.917  31.401  33.447  1.00  0.00     0.074 A 
ATOM     57  C   UNL A   1      37.742  32.233  33.289  1.00  0.00     0.031 C 
ATOM     58  C   UNL A   1      39.624  31.290  34.597  1.00  0.00     0.037 A 
BRANCH  45  59
ATOM     59  C   UNL A   1      44.412  27.402  34.255  1.00  0.00     0.064 A 
ATOM     60  C   UNL A   1      45.688  27.985  34.269  1.00  0.00     0.173 A 
ATOM     61  C   UNL A   1      44.235  26.194  34.943  1.00  0.00     0.173 A 
ATOM     62  F   UNL A   1      45.914  29.133  33.612  1.00  0.00    -0.203 F 
ATOM     63  C   UNL A   1      46.749  27.368  34.929  1.00  0.00     0.198 A 
ATOM     64  C   UNL A   1      45.290  25.594  35.623  1.00  0.00     0.198 A 
ATOM     65  F   UNL A   1      43.032  25.597  34.962  1.00  0.00    -0.203 F 
ATOM     66  F   UNL A   1      47.970  27.920  34.894  1.00  0.00    -0.200 F 
ATOM     67  C   UNL A   1      46.548  26.177  35.611  1.00  0.00     0.200 A 
ATOM     68  F   UNL A   1      45.090  24.449  36.290  1.00  0.00    -0.200 F 
ATOM     69  F   UNL A   1      47.567  25.590  36.251  1.00  0.00    -0.200 F 
ENDBRANCH  45  59
BRANCH  46  70
ATOM     70  C   UNL A   1      36.781  31.466  29.251  1.00  0.00     0.064 A 
ATOM     71  C   UNL A   1      36.753  32.824  28.906  1.00  0.00     0.173 A 
ATOM     72  C   UNL A   1      35.673  30.681  28.902  1.00  0.00     0.173 A 
ATOM     73  F   UNL A   1      37.779  33.620  29.241  1.00  0.00    -0.203 F 
ATOM     74  C   UNL A   1      35.654  33.378  28.253  1.00  0.00     0.198 A 
ATOM     75  C   UNL A   1      34.586  31.229  28.224  1.00  0.00     0.198 A 
ATOM     76  F   UNL A   1      35.649  29.376  29.211  1.00  0.00    -0.203 F 
ATOM     77  F   UNL A   1      35.633  34.688  27.975  1.00  0.00    -0.200 F 
ATOM     78  C   UNL A   1      34.573  32.579  27.908  1.00  0.00     0.200 A 
ATOM     79  F   UNL A   1      33.550  30.451  27.882  1.00  0.00    -0.200 F 
ATOM     80  F   UNL A   1      33.518  33.112  27.277  1.00  0.00    -0.200 F 
ENDBRANCH  46  70
BRANCH  58  81
ATOM     81  C   UNL A   1      39.168  32.110  35.769  1.00  0.00     0.064 A 
ATOM     82  C   UNL A   1      38.332  31.576  36.760  1.00  0.00     0.173 A 
ATOM     83  C   UNL A   1      39.608  33.434  35.923  1.00  0.00     0.173 A 
ATOM     84  F   UNL A   1      37.873  30.320  36.651  1.00  0.00    -0.203 F 
ATOM     85  C   UNL A   1      37.934  32.343  37.851  1.00  0.00     0.198 A 
ATOM     86  C   UNL A   1      39.232  34.190  37.030  1.00  0.00     0.198 A 
ATOM     87  F   UNL A   1      40.415  33.989  35.006  1.00  0.00    -0.203 F 
ATOM     88  F   UNL A   1      37.100  31.827  38.763  1.00  0.00    -0.200 F 
ATOM     89  C   UNL A   1      38.391  33.647  37.989  1.00  0.00     0.200 A 
ATOM     90  F   UNL A   1      39.683  35.444  37.168  1.00  0.00    -0.200 F 
ATOM     91  F   UNL A   1      38.013  34.383  39.044  1.00  0.00    -0.200 F 
ENDBRANCH  58  81
ENDBRANCH  32  33
ENDBRANCH  25  27
ENDBRANCH  24  25
ENDBRANCH  23  24
ENDBRANCH  22  23
ENDBRANCH  21  22
ENDBRANCH   1  21
TORSDOF 17
ENDMDL
MODEL 3
REMARK VINA RESULT:     -10.8      3.513      5.143
REMARK SMILES C[C@@H](C(=O)OCCOCCOC(=O)c1ccc(-c2c3nc(c(-c4c(F)c(F)c(F)c(F)c4F)c4ccc([nH]4)c(-c4c(F)c(F)c(F)c(F)c4F)c4nc(c(-c5c(F)c(F)c(F)c(F)c5F)c5ccc2[nH]5)C=C4)C=C3)cc1)N(C)c1ccc(C(N)=O)nn1
REMARK SMILES IDX 7 1 6 2 5 3 3 4 4 5 2 6 1 7 77 8 78 9 79 10 80 11 87 12
REMARK SMILES IDX 81 13 86 14 82 15 83 16 84 17 85 18 8 21 9 22 10 23 11 24
REMARK SMILES IDX 12 25 13 26 14 27 15 28 76 29 16 30 75 31 17 32 18 33 19 34
REMARK SMILES IDX 69 35 20 36 74 37 68 38 70 39 21 40 73 41 67 42 66 43 22 45
REMARK SMILES IDX 54 46 34 47 53 48 35 49 38 50 52 51 71 52 36 53 37 54 51 56
REMARK SMILES IDX 72 57 39 58 23 59 24 60 32 61 25 62 26 63 30 64 33 65 27 66
REMARK SMILES IDX 28 67 31 68 29 69 55 70 56 71 64 72 57 73 58 74 62 75 65 76
REMARK SMILES IDX 59 77 60 78 63 79 61 80 40 81 41 82 49 83 42 84 43 85 47 86
REMARK SMILES IDX 50 87 44 88 45 89 48 90 46 91
REMARK H PARENT 84 19 84 20 70 44 38 55
REMARK Flexibility Score: inf
ROOT
ATOM      1  C   UNL A   1      32.603  26.949  25.219  1.00  0.00     0.202 C 
ENDROOT
BRANCH   1   2
ATOM      2  C   UNL A   1      31.838  25.721  24.718  1.00  0.00     0.261 C 
BRANCH   2   3
ATOM      3  O   UNL A   1      32.717  24.581  24.679  1.00  0.00    -0.462 OA
BRANCH   3   4
ATOM      4  C   UNL A   1      32.279  23.461  25.320  1.00  0.00     0.328 C 
ATOM      5  O   UNL A   1      31.384  23.457  26.158  1.00  0.00    -0.250 OA
BRANCH   4   6
ATOM      6  C   UNL A   1      33.078  22.202  24.904  1.00  0.00     0.190 C 
ATOM      7  C   UNL A   1      34.449  22.483  24.289  1.00  0.00     0.044 C 
BRANCH   6   8
ATOM      8  N   UNL A   1      32.265  21.241  24.098  1.00  0.00    -0.345 N 
ATOM      9  C   UNL A   1      32.154  21.568  22.672  1.00  0.00     0.146 C 
BRANCH   8  10
ATOM     10  C   UNL A   1      32.368  19.865  24.324  1.00  0.00     0.151 A 
ATOM     11  C   UNL A   1      32.572  18.982  23.268  1.00  0.00     0.051 A 
ATOM     12  N   UNL A   1      32.362  19.370  25.584  1.00  0.00    -0.132 NA
ATOM     13  C   UNL A   1      32.747  17.615  23.507  1.00  0.00     0.040 A 
ATOM     14  N   UNL A   1      32.536  18.022  25.843  1.00  0.00    -0.143 NA
ATOM     15  C   UNL A   1      32.726  17.171  24.815  1.00  0.00     0.150 A 
BRANCH  15  16
ATOM     16  C   UNL A   1      32.910  15.731  25.142  1.00  0.00     0.269 C 
ATOM     17  N   UNL A   1      31.809  15.065  25.611  1.00  0.00    -0.364 N 
ATOM     18  O   UNL A   1      33.989  15.168  25.002  1.00  0.00    -0.268 OA
ATOM     19  H   UNL A   1      30.953  15.541  25.715  1.00  0.00     0.160 HD
ATOM     20  H   UNL A   1      31.873  14.110  25.843  1.00  0.00     0.160 HD
ENDBRANCH  15  16
ENDBRANCH   8  10
ENDBRANCH   6   8
ENDBRANCH   4   6
ENDBRANCH   3   4
ENDBRANCH   2   3
ENDBRANCH   1   2
BRANCH   1  21
ATOM     21  O   UNL A   1      31.813  28.121  25.436  1.00  0.00    -0.374 OA
BRANCH  21  22
ATOM     22  C   UNL A   1      31.823  28.678  26.749  1.00  0.00     0.202 C 
BRANCH  22  23
ATOM     23  C   UNL A   1      31.880  30.208  26.823  1.00  0.00     0.261 C 
BRANCH  23  24
ATOM     24  O   UNL A   1      33.172  30.722  26.461  1.00  0.00    -0.460 OA
BRANCH  24  25
ATOM     25  C   UNL A   1      33.686  31.599  27.352  1.00  0.00     0.338 C 
ATOM     26  O   UNL A   1      33.120  32.554  27.872  1.00  0.00    -0.246 OA
BRANCH  25  27
ATOM     27  C   UNL A   1      35.033  31.176  27.772  1.00  0.00     0.060 A 
ATOM     28  C   UNL A   1      35.232  29.807  27.985  1.00  0.00     0.016 A 
ATOM     29  C   UNL A   1      36.054  32.093  28.031  1.00  0.00     0.016 A 
ATOM     30  C   UNL A   1      36.434  29.353  28.517  1.00  0.00     0.010 A 
ATOM     31  C   UNL A   1      37.261  31.636  28.573  1.00  0.00     0.010 A 
ATOM     32  C   UNL A   1      37.438  30.269  28.855  1.00  0.00    -0.014 A 
BRANCH  32  33
ATOM     33  C   UNL A   1      38.600  29.803  29.648  1.00  0.00     0.031 A 
ATOM     34  C   UNL A   1      38.791  30.337  31.041  1.00  0.00     0.074 A 
ATOM     35  C   UNL A   1      39.441  28.877  29.156  1.00  0.00     0.049 A 
ATOM     36  N   UNL A   1      39.728  30.069  31.914  1.00  0.00    -0.248 NA
ATOM     37  C   UNL A   1      37.786  31.303  31.515  1.00  0.00     0.031 C 
ATOM     38  C   UNL A   1      39.334  28.258  27.836  1.00  0.00     0.029 A 
ATOM     39  N   UNL A   1      40.553  28.297  29.714  1.00  0.00    -0.354 N 
ATOM     40  C   UNL A   1      39.428  30.829  33.036  1.00  0.00     0.074 A 
ATOM     41  C   UNL A   1      38.241  31.596  32.725  1.00  0.00     0.031 C 
ATOM     42  C   UNL A   1      40.347  27.388  27.681  1.00  0.00     0.029 A 
ATOM     43  C   UNL A   1      41.186  27.410  28.879  1.00  0.00     0.049 A 
ATOM     44  H   UNL A   1      40.866  28.497  30.624  1.00  0.00     0.167 HD
ATOM     45  C   UNL A   1      40.076  30.873  34.224  1.00  0.00     0.037 A 
ATOM     46  C   UNL A   1      42.322  26.710  29.058  1.00  0.00     0.037 A 
ATOM     47  C   UNL A   1      41.255  30.110  34.533  1.00  0.00     0.049 A 
ATOM     48  C   UNL A   1      43.062  26.826  30.366  1.00  0.00     0.074 A 
ATOM     49  C   UNL A   1      41.981  30.077  35.710  1.00  0.00     0.029 A 
ATOM     50  N   UNL A   1      41.885  29.245  33.650  1.00  0.00    -0.354 N 
ATOM     51  N   UNL A   1      42.757  27.530  31.429  1.00  0.00    -0.248 NA
ATOM     52  C   UNL A   1      44.299  26.045  30.500  1.00  0.00     0.031 C 
ATOM     53  C   UNL A   1      43.077  29.227  35.525  1.00  0.00     0.029 A 
ATOM     54  C   UNL A   1      43.005  28.691  34.249  1.00  0.00     0.049 A 
ATOM     55  H   UNL A   1      41.582  29.053  32.733  1.00  0.00     0.167 HD
ATOM     56  C   UNL A   1      43.748  27.258  32.364  1.00  0.00     0.074 A 
ATOM     57  C   UNL A   1      44.656  26.314  31.747  1.00  0.00     0.031 C 
ATOM     58  C   UNL A   1      43.893  27.747  33.620  1.00  0.00     0.037 A 
BRANCH  45  59
ATOM     59  C   UNL A   1      39.533  31.797  35.275  1.00  0.00     0.064 A 
ATOM     60  C   UNL A   1      38.631  31.350  36.252  1.00  0.00     0.173 A 
ATOM     61  C   UNL A   1      39.944  33.137  35.325  1.00  0.00     0.173 A 
ATOM     62  F   UNL A   1      38.194  30.081  36.238  1.00  0.00    -0.203 F 
ATOM     63  C   UNL A   1      38.143  32.217  37.227  1.00  0.00     0.198 A 
ATOM     64  C   UNL A   1      39.475  33.994  36.317  1.00  0.00     0.198 A 
ATOM     65  F   UNL A   1      40.808  33.614  34.415  1.00  0.00    -0.203 F 
ATOM     66  F   UNL A   1      37.249  31.779  38.125  1.00  0.00    -0.200 F 
ATOM     67  C   UNL A   1      38.571  33.536  37.263  1.00  0.00     0.200 A 
ATOM     68  F   UNL A   1      39.899  35.265  36.356  1.00  0.00    -0.200 F 
ATOM     69  F   UNL A   1      38.107  34.366  38.206  1.00  0.00    -0.200 F 
ENDBRANCH  45  59
BRANCH  46  70
ATOM     70  C   UNL A   1      42.839  25.844  27.966  1.00  0.00     0.064 A 
ATOM     71  C   UNL A   1      43.706  26.349  26.988  1.00  0.00     0.173 A 
ATOM     72  C   UNL A   1      42.461  24.497  27.872  1.00  0.00     0.173 A 
ATOM     73  F   UNL A   1      44.076  27.637  27.021  1.00  0.00    -0.203 F 
ATOM     74  C   UNL A   1      44.163  25.542  25.947  1.00  0.00     0.198 A 
ATOM     75  C   UNL A   1      42.941  23.684  26.847  1.00  0.00     0.198 A 
ATOM     76  F   UNL A   1      41.632  23.966  28.783  1.00  0.00    -0.203 F 
ATOM     77  F   UNL A   1      44.955  26.060  24.999  1.00  0.00    -0.200 F 
ATOM     78  C   UNL A   1      43.784  24.209  25.881  1.00  0.00     0.200 A 
ATOM     79  F   UNL A   1      42.581  22.394  26.794  1.00  0.00    -0.200 F 
ATOM     80  F   UNL A   1      44.227  23.433  24.882  1.00  0.00    -0.200 F 
ENDBRANCH  46  70
BRANCH  58  81
ATOM     81  C   UNL A   1      45.058  27.246  34.425  1.00  0.00     0.064 A 
ATOM     82  C   UNL A   1      46.286  27.923  34.441  1.00  0.00     0.173 A 
ATOM     83  C   UNL A   1      44.929  26.098  35.222  1.00  0.00     0.173 A 
ATOM     84  F   UNL A   1      46.463  29.017  33.685  1.00  0.00    -0.203 F 
ATOM     85  C   UNL A   1      47.349  27.457  35.209  1.00  0.00     0.198 A 
ATOM     86  C   UNL A   1      45.985  25.651  36.010  1.00  0.00     0.198 A 
ATOM     87  F   UNL A   1      43.772  25.419  35.246  1.00  0.00    -0.203 F 
ATOM     88  F   UNL A   1      48.527  28.094  35.175  1.00  0.00    -0.200 F 
ATOM     89  C   UNL A   1      47.195  26.326  35.998  1.00  0.00     0.200 A 
ATOM     90  F   UNL A   1      45.831  24.566  36.781  1.00  0.00    -0.200 F 
ATOM     91  F   UNL A   1      48.219  25.882  36.742  1.00  0.00    -0.200 F 
ENDBRANCH  58  81
ENDBRANCH  32  33
ENDBRANCH  25  27
ENDBRANCH  24  25
ENDBRANCH  23  24
ENDBRANCH  22  23
ENDBRANCH  21  22
ENDBRANCH   1  21
TORSDOF 17
ENDMDL
