MODEL 1
REMARK VINA RESULT:     -11.4      0.000      0.000
REMARK SMILES O=C(OCCOCCOC(=O)c1ccc(S(=O)(=O)N[C@@H]2CC[N@@H+]3CCC[C@H]23)cc1)c1ccc(-c2c3nc(c(-c4c(F)c(F)c(F)c(F)c4F)c4ccc([nH]4)c(-c4c(F)c(F)c(F)c(F)c4F)c4nc(c(-c5c(F)c(F)c(F)c(F)c5F)c5ccc2[nH]5)C=C4)C=C3)cc1
REMARK SMILES IDX 7 1 6 2 5 3 4 4 3 5 2 6 1 7 30 8 31 9 92 10 32 11 91 12
REMARK SMILES IDX 33 13 34 14 35 15 85 16 36 17 90 18 84 19 86 20 37 21 89 22
REMARK SMILES IDX 83 23 82 24 38 26 70 27 50 28 69 29 51 30 54 31 68 32 87 33
REMARK SMILES IDX 52 34 53 35 67 37 88 38 55 39 39 40 40 41 48 42 41 43 42 44
REMARK SMILES IDX 46 45 49 46 43 47 44 48 47 49 45 50 71 51 72 52 80 53 73 54
REMARK SMILES IDX 74 55 78 56 81 57 75 58 76 59 79 60 77 61 56 62 57 63 65 64
REMARK SMILES IDX 58 65 59 66 63 67 66 68 60 69 61 70 64 71 62 72 8 73 9 74
REMARK SMILES IDX 10 75 11 76 12 77 13 78 29 79 14 80 28 81 15 82 16 83 17 84
REMARK SMILES IDX 18 85 19 86 20 88 21 89 27 90 22 91 23 92 26 93 24 94 25 96
REMARK H PARENT 86 25 54 36 19 87 23 95
REMARK Flexibility Score: inf
ROOT
ATOM      1  C   UNL A   1      41.358  21.744  26.124  1.00  0.00     0.202 C 
ENDROOT
BRANCH   1   2
ATOM      2  O   UNL A   1      41.590  20.430  25.593  1.00  0.00    -0.374 OA
BRANCH   2   3
ATOM      3  C   UNL A   1      42.120  19.479  26.520  1.00  0.00     0.202 C 
BRANCH   3   4
ATOM      4  C   UNL A   1      43.103  18.479  25.903  1.00  0.00     0.261 C 
BRANCH   4   5
ATOM      5  O   UNL A   1      43.576  18.966  24.634  1.00  0.00    -0.460 OA
BRANCH   5   6
ATOM      6  C   UNL A   1      44.708  19.649  24.352  1.00  0.00     0.338 C 
ATOM      7  O   UNL A   1      45.627  19.053  23.793  1.00  0.00    -0.246 OA
BRANCH   6   8
ATOM      8  C   UNL A   1      44.925  21.090  24.695  1.00  0.00     0.060 A 
ATOM      9  C   UNL A   1      44.639  22.169  23.857  1.00  0.00     0.016 A 
ATOM     10  C   UNL A   1      45.361  21.375  26.002  1.00  0.00     0.016 A 
ATOM     11  C   UNL A   1      44.849  23.481  24.268  1.00  0.00     0.010 A 
ATOM     12  C   UNL A   1      45.524  22.693  26.443  1.00  0.00     0.010 A 
ATOM     13  C   UNL A   1      45.285  23.753  25.563  1.00  0.00    -0.014 A 
BRANCH  13  14
ATOM     14  C   UNL A   1      45.529  25.160  25.934  1.00  0.00     0.031 A 
ATOM     15  C   UNL A   1      44.423  25.948  26.565  1.00  0.00     0.074 A 
ATOM     16  C   UNL A   1      46.774  25.661  25.832  1.00  0.00     0.049 A 
ATOM     17  N   UNL A   1      44.437  27.171  27.023  1.00  0.00    -0.248 NA
ATOM     18  C   UNL A   1      43.131  25.259  26.717  1.00  0.00     0.031 C 
ATOM     19  C   UNL A   1      47.930  24.934  25.304  1.00  0.00     0.029 A 
ATOM     20  N   UNL A   1      47.285  26.875  26.207  1.00  0.00    -0.354 N 
ATOM     21  C   UNL A   1      43.162  27.399  27.519  1.00  0.00     0.074 A 
ATOM     22  C   UNL A   1      42.390  26.197  27.287  1.00  0.00     0.031 C 
ATOM     23  C   UNL A   1      49.023  25.704  25.423  1.00  0.00     0.029 A 
ATOM     24  C   UNL A   1      48.636  26.992  25.989  1.00  0.00     0.049 A 
ATOM     25  H   UNL A   1      46.736  27.595  26.594  1.00  0.00     0.167 HD
ATOM     26  C   UNL A   1      42.683  28.513  28.117  1.00  0.00     0.037 A 
ATOM     27  C   UNL A   1      49.462  28.031  26.216  1.00  0.00     0.037 A 
ATOM     28  C   UNL A   1      43.458  29.708  28.317  1.00  0.00     0.049 A 
ATOM     29  C   UNL A   1      48.884  29.281  26.821  1.00  0.00     0.074 A 
ATOM     30  C   UNL A   1      43.053  30.934  28.811  1.00  0.00     0.029 A 
ATOM     31  N   UNL A   1      44.813  29.815  28.033  1.00  0.00    -0.354 N 
ATOM     32  N   UNL A   1      47.657  29.513  27.226  1.00  0.00    -0.248 NA
ATOM     33  C   UNL A   1      49.798  30.418  26.993  1.00  0.00     0.031 C 
ATOM     34  C   UNL A   1      44.159  31.793  28.802  1.00  0.00     0.029 A 
ATOM     35  C   UNL A   1      45.261  31.090  28.337  1.00  0.00     0.049 A 
ATOM     36  H   UNL A   1      45.372  29.093  27.668  1.00  0.00     0.167 HD
ATOM     37  C   UNL A   1      47.651  30.816  27.700  1.00  0.00     0.074 A 
ATOM     38  C   UNL A   1      49.006  31.314  27.565  1.00  0.00     0.031 C 
ATOM     39  C   UNL A   1      46.617  31.546  28.187  1.00  0.00     0.037 A 
BRANCH  26  40
ATOM     40  C   UNL A   1      41.248  28.491  28.545  1.00  0.00     0.064 A 
ATOM     41  C   UNL A   1      40.222  28.922  27.690  1.00  0.00     0.173 A 
ATOM     42  C   UNL A   1      40.896  28.064  29.833  1.00  0.00     0.173 A 
ATOM     43  F   UNL A   1      40.512  29.367  26.458  1.00  0.00    -0.203 F 
ATOM     44  C   UNL A   1      38.898  28.949  28.120  1.00  0.00     0.198 A 
ATOM     45  C   UNL A   1      39.568  28.073  30.252  1.00  0.00     0.198 A 
ATOM     46  F   UNL A   1      41.841  27.651  30.691  1.00  0.00    -0.203 F 
ATOM     47  F   UNL A   1      37.939  29.412  27.306  1.00  0.00    -0.200 F 
ATOM     48  C   UNL A   1      38.571  28.522  29.399  1.00  0.00     0.200 A 
ATOM     49  F   UNL A   1      39.255  27.662  31.489  1.00  0.00    -0.200 F 
ATOM     50  F   UNL A   1      37.298  28.559  29.815  1.00  0.00    -0.200 F 
ENDBRANCH  26  40
BRANCH  27  51
ATOM     51  C   UNL A   1      50.899  27.942  25.844  1.00  0.00     0.064 A 
ATOM     52  C   UNL A   1      51.886  27.681  26.804  1.00  0.00     0.173 A 
ATOM     53  C   UNL A   1      51.315  28.128  24.517  1.00  0.00     0.173 A 
ATOM     54  F   UNL A   1      51.544  27.519  28.090  1.00  0.00    -0.203 F 
ATOM     55  C   UNL A   1      53.235  27.627  26.453  1.00  0.00     0.198 A 
ATOM     56  C   UNL A   1      52.659  28.044  24.162  1.00  0.00     0.198 A 
ATOM     57  F   UNL A   1      50.412  28.383  23.559  1.00  0.00    -0.203 F 
ATOM     58  F   UNL A   1      54.163  27.425  27.398  1.00  0.00    -0.200 F 
ATOM     59  C   UNL A   1      53.620  27.802  25.132  1.00  0.00     0.200 A 
ATOM     60  F   UNL A   1      53.024  28.201  22.883  1.00  0.00    -0.200 F 
ATOM     61  F   UNL A   1      54.915  27.748  24.795  1.00  0.00    -0.200 F 
ENDBRANCH  27  51
BRANCH  39  62
ATOM     62  C   UNL A   1      46.925  32.951  28.607  1.00  0.00     0.064 A 
ATOM     63  C   UNL A   1      46.805  34.020  27.707  1.00  0.00     0.173 A 
ATOM     64  C   UNL A   1      47.309  33.232  29.924  1.00  0.00     0.173 A 
ATOM     65  F   UNL A   1      46.456  33.792  26.431  1.00  0.00    -0.203 F 
ATOM     66  C   UNL A   1      47.082  35.322  28.108  1.00  0.00     0.198 A 
ATOM     67  C   UNL A   1      47.563  34.540  30.328  1.00  0.00     0.198 A 
ATOM     68  F   UNL A   1      47.431  32.242  30.820  1.00  0.00    -0.203 F 
ATOM     69  F   UNL A   1      47.003  36.325  27.222  1.00  0.00    -0.200 F 
ATOM     70  C   UNL A   1      47.455  35.582  29.419  1.00  0.00     0.200 A 
ATOM     71  F   UNL A   1      47.916  34.791  31.596  1.00  0.00    -0.200 F 
ATOM     72  F   UNL A   1      47.720  36.838  29.804  1.00  0.00    -0.200 F 
ENDBRANCH  39  62
ENDBRANCH  13  14
ENDBRANCH   6   8
ENDBRANCH   5   6
ENDBRANCH   4   5
ENDBRANCH   3   4
ENDBRANCH   2   3
ENDBRANCH   1   2
BRANCH   1  73
ATOM     73  C   UNL A   1      40.049  21.748  26.920  1.00  0.00     0.261 C 
BRANCH  73  74
ATOM     74  O   UNL A   1      38.985  22.035  26.002  1.00  0.00    -0.460 OA
BRANCH  74  75
ATOM     75  C   UNL A   1      38.396  23.239  26.207  1.00  0.00     0.338 C 
ATOM     76  O   UNL A   1      38.848  24.173  26.847  1.00  0.00    -0.246 OA
BRANCH  75  77
ATOM     77  C   UNL A   1      37.197  23.326  25.336  1.00  0.00     0.060 A 
ATOM     78  C   UNL A   1      36.177  24.207  25.718  1.00  0.00     0.017 A 
ATOM     79  C   UNL A   1      37.108  22.626  24.124  1.00  0.00     0.017 A 
ATOM     80  C   UNL A   1      35.049  24.359  24.915  1.00  0.00     0.022 A 
ATOM     81  C   UNL A   1      35.988  22.786  23.309  1.00  0.00     0.022 A 
ATOM     82  C   UNL A   1      34.952  23.627  23.730  1.00  0.00     0.082 A 
BRANCH  82  83
ATOM     83  S   UNL A   1      33.401  23.591  22.869  1.00  0.00     0.241 S 
ATOM     84  O   UNL A   1      33.680  23.594  21.450  1.00  0.00    -0.207 OA
ATOM     85  O   UNL A   1      32.578  22.583  23.492  1.00  0.00    -0.207 OA
BRANCH  83  86
ATOM     86  N   UNL A   1      32.731  25.072  23.254  1.00  0.00    -0.202 NA
ATOM     87  H   UNL A   1      33.278  25.441  24.031  1.00  0.00     0.141 HD
BRANCH  86  88
ATOM     88  C   UNL A   1      32.633  26.154  22.268  1.00  0.00     0.133 C 
ATOM     89  C   UNL A   1      33.588  27.294  22.637  1.00  0.00     0.087 C 
ATOM     90  C   UNL A   1      31.252  26.807  22.137  1.00  0.00     0.202 C 
ATOM     91  C   UNL A   1      32.686  28.480  22.926  1.00  0.00     0.264 C 
ATOM     92  N   UNL A   1      31.550  28.251  22.030  1.00  0.00    -0.331 N 
ATOM     93  C   UNL A   1      30.292  26.686  23.314  1.00  0.00     0.072 C 
ATOM     94  C   UNL A   1      30.340  28.957  22.449  1.00  0.00     0.262 C 
ATOM     95  H   UNL A   1      31.795  28.577  21.095  1.00  0.00     0.348 HD
ATOM     96  C   UNL A   1      29.559  28.016  23.355  1.00  0.00     0.068 C 
ENDBRANCH  86  88
ENDBRANCH  83  86
ENDBRANCH  82  83
ENDBRANCH  75  77
ENDBRANCH  74  75
ENDBRANCH  73  74
ENDBRANCH   1  73
TORSDOF 17
ENDMDL
MODEL 2
REMARK VINA RESULT:     -11.3      7.248     12.109
REMARK SMILES O=C(OCCOCCOC(=O)c1ccc(S(=O)(=O)N[C@@H]2CC[N@@H+]3CCC[C@H]23)cc1)c1ccc(-c2c3nc(c(-c4c(F)c(F)c(F)c(F)c4F)c4ccc([nH]4)c(-c4c(F)c(F)c(F)c(F)c4F)c4nc(c(-c5c(F)c(F)c(F)c(F)c5F)c5ccc2[nH]5)C=C4)C=C3)cc1
REMARK SMILES IDX 7 1 6 2 5 3 4 4 3 5 2 6 1 7 30 8 31 9 92 10 32 11 91 12
REMARK SMILES IDX 33 13 34 14 35 15 85 16 36 17 90 18 84 19 86 20 37 21 89 22
REMARK SMILES IDX 83 23 82 24 38 26 70 27 50 28 69 29 51 30 54 31 68 32 87 33
REMARK SMILES IDX 52 34 53 35 67 37 88 38 55 39 39 40 40 41 48 42 41 43 42 44
REMARK SMILES IDX 46 45 49 46 43 47 44 48 47 49 45 50 71 51 72 52 80 53 73 54
REMARK SMILES IDX 74 55 78 56 81 57 75 58 76 59 79 60 77 61 56 62 57 63 65 64
REMARK SMILES IDX 58 65 59 66 63 67 66 68 60 69 61 70 64 71 62 72 8 73 9 74
REMARK SMILES IDX 10 75 11 76 12 77 13 78 29 79 14 80 28 81 15 82 16 83 17 84
REMARK SMILES IDX 18 85 19 86 20 88 21 89 27 90 22 91 23 92 26 93 24 94 25 96
REMARK H PARENT 86 25 54 36 19 87 23 95
REMARK Flexibility Score: inf
ROOT
ATOM      1  C   UNL A   1      33.856  34.143  28.249  1.00  0.00     0.202 C 
ENDROOT
BRANCH   1   2
ATOM      2  O   UNL A   1      32.806  34.876  28.897  1.00  0.00    -0.374 OA
BRANCH   2   3
ATOM      3  C   UNL A   1      32.918  36.299  28.827  1.00  0.00     0.202 C 
BRANCH   3   4
ATOM      4  C   UNL A   1      33.184  36.977  30.175  1.00  0.00     0.261 C 
BRANCH   4   5
ATOM      5  O   UNL A   1      32.258  36.495  31.165  1.00  0.00    -0.460 OA
BRANCH   5   6
ATOM      6  C   UNL A   1      32.452  35.577  32.138  1.00  0.00     0.338 C 
ATOM      7  O   UNL A   1      31.488  35.243  32.827  1.00  0.00    -0.246 OA
BRANCH   6   8
ATOM      8  C   UNL A   1      33.774  34.950  32.448  1.00  0.00     0.060 A 
ATOM      9  C   UNL A   1      35.009  35.595  32.372  1.00  0.00     0.016 A 
ATOM     10  C   UNL A   1      33.753  33.635  32.949  1.00  0.00     0.016 A 
ATOM     11  C   UNL A   1      36.191  34.941  32.704  1.00  0.00     0.010 A 
ATOM     12  C   UNL A   1      34.931  32.986  33.337  1.00  0.00     0.010 A 
ATOM     13  C   UNL A   1      36.160  33.636  33.195  1.00  0.00    -0.014 A 
BRANCH  13  14
ATOM     14  C   UNL A   1      37.445  32.976  33.495  1.00  0.00     0.031 A 
ATOM     15  C   UNL A   1      38.094  33.217  34.823  1.00  0.00     0.074 A 
ATOM     16  C   UNL A   1      37.932  32.064  32.634  1.00  0.00     0.049 A 
ATOM     17  N   UNL A   1      39.184  32.694  35.317  1.00  0.00    -0.248 NA
ATOM     18  C   UNL A   1      37.413  34.161  35.724  1.00  0.00     0.031 C 
ATOM     19  C   UNL A   1      37.319  31.707  31.353  1.00  0.00     0.029 A 
ATOM     20  N   UNL A   1      39.022  31.239  32.724  1.00  0.00    -0.354 N 
ATOM     21  C   UNL A   1      39.320  33.241  36.584  1.00  0.00     0.074 A 
ATOM     22  C   UNL A   1      38.215  34.154  36.778  1.00  0.00     0.031 C 
ATOM     23  C   UNL A   1      38.022  30.710  30.793  1.00  0.00     0.029 A 
ATOM     24  C   UNL A   1      39.159  30.393  31.650  1.00  0.00     0.049 A 
ATOM     25  H   UNL A   1      39.649  31.254  33.483  1.00  0.00     0.167 HD
ATOM     26  C   UNL A   1      40.283  32.997  37.503  1.00  0.00     0.037 A 
ATOM     27  C   UNL A   1      40.107  29.472  31.392  1.00  0.00     0.037 A 
ATOM     28  C   UNL A   1      41.388  32.104  37.283  1.00  0.00     0.049 A 
ATOM     29  C   UNL A   1      41.201  29.271  32.403  1.00  0.00     0.074 A 
ATOM     30  C   UNL A   1      42.481  31.859  38.093  1.00  0.00     0.029 A 
ATOM     31  N   UNL A   1      41.530  31.301  36.159  1.00  0.00    -0.354 N 
ATOM     32  N   UNL A   1      41.361  29.844  33.574  1.00  0.00    -0.248 NA
ATOM     33  C   UNL A   1      42.254  28.307  32.059  1.00  0.00     0.031 C 
ATOM     34  C   UNL A   1      43.299  30.923  37.446  1.00  0.00     0.029 A 
ATOM     35  C   UNL A   1      42.696  30.561  36.251  1.00  0.00     0.049 A 
ATOM     36  H   UNL A   1      40.896  31.264  35.407  1.00  0.00     0.167 HD
ATOM     37  C   UNL A   1      42.525  29.312  34.104  1.00  0.00     0.074 A 
ATOM     38  C   UNL A   1      43.015  28.343  33.144  1.00  0.00     0.031 C 
ATOM     39  C   UNL A   1      43.149  29.607  35.272  1.00  0.00     0.037 A 
BRANCH  26  40
ATOM     40  C   UNL A   1      40.193  33.748  38.796  1.00  0.00     0.064 A 
ATOM     41  C   UNL A   1      40.922  34.927  39.010  1.00  0.00     0.173 A 
ATOM     42  C   UNL A   1      39.394  33.267  39.843  1.00  0.00     0.173 A 
ATOM     43  F   UNL A   1      41.723  35.410  38.048  1.00  0.00    -0.203 F 
ATOM     44  C   UNL A   1      40.874  35.584  40.237  1.00  0.00     0.198 A 
ATOM     45  C   UNL A   1      39.332  33.939  41.061  1.00  0.00     0.198 A 
ATOM     46  F   UNL A   1      38.685  32.139  39.690  1.00  0.00    -0.203 F 
ATOM     47  F   UNL A   1      41.618  36.681  40.439  1.00  0.00    -0.200 F 
ATOM     48  C   UNL A   1      40.077  35.092  41.261  1.00  0.00     0.200 A 
ATOM     49  F   UNL A   1      38.563  33.460  42.050  1.00  0.00    -0.200 F 
ATOM     50  F   UNL A   1      40.039  35.719  42.443  1.00  0.00    -0.200 F 
ENDBRANCH  26  40
BRANCH  27  51
ATOM     51  C   UNL A   1      40.075  28.701  30.121  1.00  0.00     0.064 A 
ATOM     52  C   UNL A   1      39.452  27.447  30.042  1.00  0.00     0.173 A 
ATOM     53  C   UNL A   1      40.679  29.200  28.957  1.00  0.00     0.173 A 
ATOM     54  F   UNL A   1      38.880  26.914  31.131  1.00  0.00    -0.203 F 
ATOM     55  C   UNL A   1      39.452  26.717  28.854  1.00  0.00     0.198 A 
ATOM     56  C   UNL A   1      40.652  28.484  27.763  1.00  0.00     0.198 A 
ATOM     57  F   UNL A   1      41.291  30.394  28.977  1.00  0.00    -0.203 F 
ATOM     58  F   UNL A   1      38.892  25.500  28.819  1.00  0.00    -0.200 F 
ATOM     59  C   UNL A   1      40.045  27.238  27.714  1.00  0.00     0.200 A 
ATOM     60  F   UNL A   1      41.216  28.998  26.662  1.00  0.00    -0.200 F 
ATOM     61  F   UNL A   1      40.042  26.538  26.573  1.00  0.00    -0.200 F 
ENDBRANCH  27  51
BRANCH  39  62
ATOM     62  C   UNL A   1      44.419  28.868  35.563  1.00  0.00     0.064 A 
ATOM     63  C   UNL A   1      44.410  27.662  36.277  1.00  0.00     0.173 A 
ATOM     64  C   UNL A   1      45.647  29.353  35.095  1.00  0.00     0.173 A 
ATOM     65  F   UNL A   1      43.257  27.169  36.758  1.00  0.00    -0.203 F 
ATOM     66  C   UNL A   1      45.593  26.977  36.533  1.00  0.00     0.198 A 
ATOM     67  C   UNL A   1      46.826  28.653  35.333  1.00  0.00     0.198 A 
ATOM     68  F   UNL A   1      45.702  30.500  34.402  1.00  0.00    -0.203 F 
ATOM     69  F   UNL A   1      45.570  25.847  37.254  1.00  0.00    -0.200 F 
ATOM     70  C   UNL A   1      46.799  27.469  36.056  1.00  0.00     0.200 A 
ATOM     71  F   UNL A   1      47.990  29.125  34.865  1.00  0.00    -0.200 F 
ATOM     72  F   UNL A   1      47.938  26.808  36.301  1.00  0.00    -0.200 F 
ENDBRANCH  39  62
ENDBRANCH  13  14
ENDBRANCH   6   8
ENDBRANCH   5   6
ENDBRANCH   4   5
ENDBRANCH   3   4
ENDBRANCH   2   3
ENDBRANCH   1   2
BRANCH   1  73
ATOM     73  C   UNL A   1      34.661  33.368  29.297  1.00  0.00     0.261 C 
BRANCH  73  74
ATOM     74  O   UNL A   1      34.394  31.972  29.103  1.00  0.00    -0.460 OA
BRANCH  74  75
ATOM     75  C   UNL A   1      35.085  31.422  28.075  1.00  0.00     0.338 C 
ATOM     76  O   UNL A   1      36.255  31.618  27.793  1.00  0.00    -0.246 OA
BRANCH  75  77
ATOM     77  C   UNL A   1      34.248  30.358  27.467  1.00  0.00     0.060 A 
ATOM     78  C   UNL A   1      32.890  30.633  27.263  1.00  0.00     0.017 A 
ATOM     79  C   UNL A   1      34.797  29.144  27.024  1.00  0.00     0.017 A 
ATOM     80  C   UNL A   1      32.069  29.685  26.657  1.00  0.00     0.022 A 
ATOM     81  C   UNL A   1      33.983  28.199  26.403  1.00  0.00     0.022 A 
ATOM     82  C   UNL A   1      32.617  28.465  26.255  1.00  0.00     0.082 A 
BRANCH  82  83
ATOM     83  S   UNL A   1      31.525  27.154  25.765  1.00  0.00     0.241 S 
ATOM     84  O   UNL A   1      30.857  26.666  26.950  1.00  0.00    -0.207 OA
ATOM     85  O   UNL A   1      30.802  27.599  24.598  1.00  0.00    -0.207 OA
BRANCH  83  86
ATOM     86  N   UNL A   1      32.583  25.966  25.256  1.00  0.00    -0.202 NA
ATOM     87  H   UNL A   1      33.520  26.358  25.346  1.00  0.00     0.141 HD
BRANCH  86  88
ATOM     88  C   UNL A   1      32.626  24.646  25.897  1.00  0.00     0.133 C 
ATOM     89  C   UNL A   1      34.078  24.189  26.070  1.00  0.00     0.087 C 
ATOM     90  C   UNL A   1      31.933  23.515  25.129  1.00  0.00     0.202 C 
ATOM     91  C   UNL A   1      34.202  22.949  25.203  1.00  0.00     0.264 C 
ATOM     92  N   UNL A   1      32.858  22.370  25.268  1.00  0.00    -0.331 N 
ATOM     93  C   UNL A   1      31.739  23.687  23.628  1.00  0.00     0.072 C 
ATOM     94  C   UNL A   1      32.570  21.465  24.156  1.00  0.00     0.262 C 
ATOM     95  H   UNL A   1      32.768  21.840  26.135  1.00  0.00     0.348 HD
ATOM     96  C   UNL A   1      31.942  22.298  23.048  1.00  0.00     0.068 C 
ENDBRANCH  86  88
ENDBRANCH  83  86
ENDBRANCH  82  83
ENDBRANCH  75  77
ENDBRANCH  74  75
ENDBRANCH  73  74
ENDBRANCH   1  73
TORSDOF 17
ENDMDL
MODEL 3
REMARK VINA RESULT:     -11.2      6.956     11.885
REMARK SMILES O=C(OCCOCCOC(=O)c1ccc(S(=O)(=O)N[C@@H]2CC[N@@H+]3CCC[C@H]23)cc1)c1ccc(-c2c3nc(c(-c4c(F)c(F)c(F)c(F)c4F)c4ccc([nH]4)c(-c4c(F)c(F)c(F)c(F)c4F)c4nc(c(-c5c(F)c(F)c(F)c(F)c5F)c5ccc2[nH]5)C=C4)C=C3)cc1
REMARK SMILES IDX 7 1 6 2 5 3 4 4 3 5 2 6 1 7 30 8 31 9 92 10 32 11 91 12
REMARK SMILES IDX 33 13 34 14 35 15 85 16 36 17 90 18 84 19 86 20 37 21 89 22
REMARK SMILES IDX 83 23 82 24 38 26 70 27 50 28 69 29 51 30 54 31 68 32 87 33
REMARK SMILES IDX 52 34 53 35 67 37 88 38 55 39 39 40 40 41 48 42 41 43 42 44
REMARK SMILES IDX 46 45 49 46 43 47 44 48 47 49 45 50 71 51 72 52 80 53 73 54
REMARK SMILES IDX 74 55 78 56 81 57 75 58 76 59 79 60 77 61 56 62 57 63 65 64
REMARK SMILES IDX 58 65 59 66 63 67 66 68 60 69 61 70 64 71 62 72 8 73 9 74
REMARK SMILES IDX 10 75 11 76 12 77 13 78 29 79 14 80 28 81 15 82 16 83 17 84
REMARK SMILES IDX 18 85 19 86 20 88 21 89 27 90 22 91 23 92 26 93 24 94 25 96
REMARK H PARENT 86 25 54 36 19 87 23 95
REMARK Flexibility Score: inf
ROOT
ATOM      1  C   UNL A   1      34.514  32.576  29.188  1.00  0.00     0.202 C 
ENDROOT
BRANCH   1   2
ATOM      2  O   UNL A   1      34.427  34.000  29.031  1.00  0.00    -0.374 OA
BRANCH   2   3
ATOM      3  C   UNL A   1      33.102  34.525  28.916  1.00  0.00     0.202 C 
BRANCH   3   4
ATOM      4  C   UNL A   1      32.904  35.887  29.587  1.00  0.00     0.261 C 
BRANCH   4   5
ATOM      5  O   UNL A   1      32.164  35.736  30.811  1.00  0.00    -0.460 OA
BRANCH   5   6
ATOM      6  C   UNL A   1      32.626  35.540  32.067  1.00  0.00     0.338 C 
ATOM      7  O   UNL A   1      31.982  36.006  33.005  1.00  0.00    -0.246 OA
BRANCH   6   8
ATOM      8  C   UNL A   1      33.886  34.802  32.391  1.00  0.00     0.060 A 
ATOM      9  C   UNL A   1      33.958  33.464  32.784  1.00  0.00     0.016 A 
ATOM     10  C   UNL A   1      35.097  35.489  32.186  1.00  0.00     0.016 A 
ATOM     11  C   UNL A   1      35.178  32.849  33.041  1.00  0.00     0.010 A 
ATOM     12  C   UNL A   1      36.332  34.862  32.391  1.00  0.00     0.010 A 
ATOM     13  C   UNL A   1      36.372  33.539  32.841  1.00  0.00    -0.014 A 
BRANCH  13  14
ATOM     14  C   UNL A   1      37.636  32.851  33.166  1.00  0.00     0.031 A 
ATOM     15  C   UNL A   1      38.275  33.094  34.498  1.00  0.00     0.074 A 
ATOM     16  C   UNL A   1      38.110  31.914  32.324  1.00  0.00     0.049 A 
ATOM     17  N   UNL A   1      39.346  32.552  35.013  1.00  0.00    -0.248 NA
ATOM     18  C   UNL A   1      37.607  34.068  35.378  1.00  0.00     0.031 C 
ATOM     19  C   UNL A   1      37.504  31.555  31.040  1.00  0.00     0.029 A 
ATOM     20  N   UNL A   1      39.178  31.065  32.438  1.00  0.00    -0.354 N 
ATOM     21  C   UNL A   1      39.480  33.113  36.274  1.00  0.00     0.074 A 
ATOM     22  C   UNL A   1      38.396  34.056  36.441  1.00  0.00     0.031 C 
ATOM     23  C   UNL A   1      38.188  30.533  30.503  1.00  0.00     0.029 A 
ATOM     24  C   UNL A   1      39.307  30.200  31.379  1.00  0.00     0.049 A 
ATOM     25  H   UNL A   1      39.796  31.074  33.206  1.00  0.00     0.167 HD
ATOM     26  C   UNL A   1      40.425  32.858  37.208  1.00  0.00     0.037 A 
ATOM     27  C   UNL A   1      40.233  29.251  31.145  1.00  0.00     0.037 A 
ATOM     28  C   UNL A   1      41.510  31.935  37.014  1.00  0.00     0.049 A 
ATOM     29  C   UNL A   1      41.311  29.038  32.173  1.00  0.00     0.074 A 
ATOM     30  C   UNL A   1      42.587  31.674  37.841  1.00  0.00     0.029 A 
ATOM     31  N   UNL A   1      41.645  31.112  35.904  1.00  0.00    -0.354 N 
ATOM     32  N   UNL A   1      41.471  29.623  33.337  1.00  0.00    -0.248 NA
ATOM     33  C   UNL A   1      42.342  28.042  31.855  1.00  0.00     0.031 C 
ATOM     34  C   UNL A   1      43.389  30.709  37.218  1.00  0.00     0.029 A 
ATOM     35  C   UNL A   1      42.791  30.344  36.020  1.00  0.00     0.049 A 
ATOM     36  H   UNL A   1      41.020  31.081  35.144  1.00  0.00     0.167 HD
ATOM     37  C   UNL A   1      42.615  29.070  33.890  1.00  0.00     0.074 A 
ATOM     38  C   UNL A   1      43.091  28.075  32.949  1.00  0.00     0.031 C 
ATOM     39  C   UNL A   1      43.231  29.365  35.061  1.00  0.00     0.037 A 
BRANCH  26  40
ATOM     40  C   UNL A   1      40.338  33.629  38.489  1.00  0.00     0.064 A 
ATOM     41  C   UNL A   1      41.148  34.751  38.725  1.00  0.00     0.173 A 
ATOM     42  C   UNL A   1      39.461  33.225  39.505  1.00  0.00     0.173 A 
ATOM     43  F   UNL A   1      42.024  35.159  37.794  1.00  0.00    -0.203 F 
ATOM     44  C   UNL A   1      41.098  35.425  39.942  1.00  0.00     0.198 A 
ATOM     45  C   UNL A   1      39.399  33.914  40.713  1.00  0.00     0.198 A 
ATOM     46  F   UNL A   1      38.673  32.153  39.331  1.00  0.00    -0.203 F 
ATOM     47  F   UNL A   1      41.916  36.463  40.167  1.00  0.00    -0.200 F 
ATOM     48  C   UNL A   1      40.223  35.008  40.934  1.00  0.00     0.200 A 
ATOM     49  F   UNL A   1      38.554  33.509  41.671  1.00  0.00    -0.200 F 
ATOM     50  F   UNL A   1      40.183  35.651  42.109  1.00  0.00    -0.200 F 
ENDBRANCH  26  40
BRANCH  27  51
ATOM     51  C   UNL A   1      40.197  28.463  29.885  1.00  0.00     0.064 A 
ATOM     52  C   UNL A   1      39.499  27.251  29.801  1.00  0.00     0.173 A 
ATOM     53  C   UNL A   1      40.874  28.904  28.737  1.00  0.00     0.173 A 
ATOM     54  F   UNL A   1      38.856  26.772  30.876  1.00  0.00    -0.203 F 
ATOM     55  C   UNL A   1      39.494  26.503  28.624  1.00  0.00     0.198 A 
ATOM     56  C   UNL A   1      40.843  28.171  27.553  1.00  0.00     0.198 A 
ATOM     57  F   UNL A   1      41.560  30.057  28.762  1.00  0.00    -0.203 F 
ATOM     58  F   UNL A   1      38.859  25.323  28.585  1.00  0.00    -0.200 F 
ATOM     59  C   UNL A   1      40.160  26.966  27.500  1.00  0.00     0.200 A 
ATOM     60  F   UNL A   1      41.477  28.631  26.466  1.00  0.00    -0.200 F 
ATOM     61  F   UNL A   1      40.153  26.249  26.368  1.00  0.00    -0.200 F 
ENDBRANCH  27  51
BRANCH  39  62
ATOM     62  C   UNL A   1      44.479  28.599  35.377  1.00  0.00     0.064 A 
ATOM     63  C   UNL A   1      45.738  29.064  34.972  1.00  0.00     0.173 A 
ATOM     64  C   UNL A   1      44.416  27.411  36.117  1.00  0.00     0.173 A 
ATOM     65  F   UNL A   1      45.842  30.190  34.248  1.00  0.00    -0.203 F 
ATOM     66  C   UNL A   1      46.893  28.352  35.279  1.00  0.00     0.198 A 
ATOM     67  C   UNL A   1      45.576  26.713  36.442  1.00  0.00     0.198 A 
ATOM     68  F   UNL A   1      43.233  26.932  36.529  1.00  0.00    -0.203 F 
ATOM     69  F   UNL A   1      48.084  28.791  34.848  1.00  0.00    -0.200 F 
ATOM     70  C   UNL A   1      46.812  27.181  36.018  1.00  0.00     0.200 A 
ATOM     71  F   UNL A   1      45.497  25.586  37.162  1.00  0.00    -0.200 F 
ATOM     72  F   UNL A   1      47.924  26.496  36.315  1.00  0.00    -0.200 F 
ENDBRANCH  39  62
ENDBRANCH  13  14
ENDBRANCH   6   8
ENDBRANCH   5   6
ENDBRANCH   4   5
ENDBRANCH   3   4
ENDBRANCH   2   3
ENDBRANCH   1   2
BRANCH   1  73
ATOM     73  C   UNL A   1      34.950  31.941  27.864  1.00  0.00     0.261 C 
BRANCH  73  74
ATOM     74  O   UNL A   1      34.453  30.596  27.843  1.00  0.00    -0.460 OA
BRANCH  74  75
ATOM     75  C   UNL A   1      33.203  30.484  27.330  1.00  0.00     0.338 C 
ATOM     76  O   UNL A   1      32.450  31.396  27.035  1.00  0.00    -0.246 OA
BRANCH  75  77
ATOM     77  C   UNL A   1      32.971  29.062  26.973  1.00  0.00     0.060 A 
ATOM     78  C   UNL A   1      31.703  28.524  27.226  1.00  0.00     0.017 A 
ATOM     79  C   UNL A   1      33.947  28.292  26.323  1.00  0.00     0.017 A 
ATOM     80  C   UNL A   1      31.419  27.208  26.871  1.00  0.00     0.022 A 
ATOM     81  C   UNL A   1      33.664  26.979  25.952  1.00  0.00     0.022 A 
ATOM     82  C   UNL A   1      32.411  26.437  26.260  1.00  0.00     0.082 A 
BRANCH  82  83
ATOM     83  S   UNL A   1      32.153  24.690  26.085  1.00  0.00     0.241 S 
ATOM     84  O   UNL A   1      31.475  24.220  27.271  1.00  0.00    -0.207 OA
ATOM     85  O   UNL A   1      31.641  24.454  24.757  1.00  0.00    -0.207 OA
BRANCH  83  86
ATOM     86  N   UNL A   1      33.709  24.084  26.119  1.00  0.00    -0.202 NA
ATOM     87  H   UNL A   1      33.781  23.525  26.969  1.00  0.00     0.141 HD
BRANCH  86  88
ATOM     88  C   UNL A   1      34.236  23.250  25.032  1.00  0.00     0.133 C 
ATOM     89  C   UNL A   1      33.963  21.771  25.320  1.00  0.00     0.087 C 
ATOM     90  C   UNL A   1      35.748  23.347  24.798  1.00  0.00     0.202 C 
ATOM     91  C   UNL A   1      35.338  21.142  25.468  1.00  0.00     0.264 C 
ATOM     92  N   UNL A   1      36.163  21.947  24.564  1.00  0.00    -0.331 N 
ATOM     93  C   UNL A   1      36.619  23.830  25.951  1.00  0.00     0.072 C 
ATOM     94  C   UNL A   1      37.589  21.878  24.876  1.00  0.00     0.262 C 
ATOM     95  H   UNL A   1      36.034  21.609  23.610  1.00  0.00     0.348 HD
ATOM     96  C   UNL A   1      37.895  23.012  25.843  1.00  0.00     0.068 C 
ENDBRANCH  86  88
ENDBRANCH  83  86
ENDBRANCH  82  83
ENDBRANCH  75  77
ENDBRANCH  74  75
ENDBRANCH  73  74
ENDBRANCH   1  73
TORSDOF 17
ENDMDL
