MODEL 1
REMARK VINA RESULT:     -11.8      0.000      0.000
REMARK SMILES N#Cc1ccc(/C=C/C(=O)N2C[C@@H](O)C[C@H]2C(=O)OCCOCCOC(=O)c2ccc(-c3c4nc(c(-c5c(F)c(F)c(F)c(F)c5F)c5ccc([nH]5)c(-c5c(F)c(F)c(F)c(F)c5F)c5nc(c(-c6c(F)c(F)c(F)c(F)c6F)c6ccc3[nH]6)C=C5)C=C4)cc2)cc1
REMARK SMILES IDX 21 1 20 2 19 3 17 4 18 5 16 6 11 7 12 8 13 9 15 10 9 11
REMARK SMILES IDX 10 12 8 13 7 14 6 15 3 16 4 17 92 18 5 19 91 20 2 21 1 22
REMARK SMILES IDX 14 23 22 25 23 26 24 27 25 28 26 29 27 30 28 31 29 32 90 33
REMARK SMILES IDX 30 34 89 35 31 36 32 37 33 38 83 39 34 40 88 41 82 42 84 43
REMARK SMILES IDX 35 44 87 45 81 46 80 47 36 49 68 50 48 51 67 52 49 53 52 54
REMARK SMILES IDX 66 55 85 56 50 57 51 58 65 60 86 61 53 62 37 63 38 64 46 65
REMARK SMILES IDX 39 66 40 67 44 68 47 69 41 70 42 71 45 72 43 73 69 74 70 75
REMARK SMILES IDX 78 76 71 77 72 78 76 79 79 80 73 81 74 82 77 83 75 84 54 85
REMARK SMILES IDX 55 86 63 87 56 88 57 89 61 90 64 91 58 92 59 93 62 94 60 95
REMARK H PARENT 14 24 84 48 52 59
REMARK Flexibility Score: inf
ROOT
ATOM      1  C   UNL A   1      31.709  29.069  23.449  1.00  0.00     0.202 C 
ENDROOT
BRANCH   1   2
ATOM      2  C   UNL A   1      32.531  27.936  22.821  1.00  0.00     0.261 C 
BRANCH   2   3
ATOM      3  O   UNL A   1      31.774  27.007  22.018  1.00  0.00    -0.462 OA
BRANCH   3   4
ATOM      4  C   UNL A   1      32.446  25.865  21.700  1.00  0.00     0.329 C 
ATOM      5  O   UNL A   1      33.214  25.762  20.746  1.00  0.00    -0.250 OA
BRANCH   4   6
ATOM      6  C   UNL A   1      32.057  24.639  22.536  1.00  0.00     0.198 C 
ATOM      7  N   UNL A   1      32.874  24.127  23.650  1.00  0.00    -0.323 N 
ATOM      8  C   UNL A   1      32.258  24.464  24.918  1.00  0.00     0.152 C 
ATOM      9  C   UNL A   1      30.774  24.379  24.580  1.00  0.00     0.136 C 
ATOM     10  C   UNL A   1      30.708  24.989  23.185  1.00  0.00     0.071 C 
BRANCH   7  11
ATOM     11  C   UNL A   1      33.769  23.110  23.406  1.00  0.00     0.247 C 
ATOM     12  O   UNL A   1      34.635  23.190  22.536  1.00  0.00    -0.270 OA
BRANCH  11  13
ATOM     13  C   UNL A   1      33.652  21.827  24.152  1.00  0.00     0.072 C 
ATOM     14  C   UNL A   1      32.729  20.928  23.763  1.00  0.00     0.014 C 
BRANCH  14  15
ATOM     15  C   UNL A   1      32.656  19.507  24.156  1.00  0.00    -0.025 A 
ATOM     16  C   UNL A   1      32.912  16.770  24.818  1.00  0.00     0.052 A 
ATOM     17  C   UNL A   1      32.798  17.733  25.824  1.00  0.00     0.020 A 
ATOM     18  C   UNL A   1      32.870  17.169  23.480  1.00  0.00     0.020 A 
ATOM     19  C   UNL A   1      32.671  19.090  25.494  1.00  0.00     0.009 A 
ATOM     20  C   UNL A   1      32.744  18.527  23.155  1.00  0.00     0.009 A 
BRANCH  16  21
ATOM     21  C   UNL A   1      33.111  15.389  25.155  1.00  0.00     0.099 C 
ATOM     22  N   UNL A   1      33.261  14.274  25.434  1.00  0.00    -0.192 NA
ENDBRANCH  16  21
ENDBRANCH  14  15
ENDBRANCH  11  13
ENDBRANCH   7  11
BRANCH   9  23
ATOM     23  O   UNL A   1      29.951  25.065  25.500  1.00  0.00    -0.391 OA
ATOM     24  H   UNL A   1      29.511  24.425  26.081  1.00  0.00     0.211 HD
ENDBRANCH   9  23
ENDBRANCH   4   6
ENDBRANCH   3   4
ENDBRANCH   2   3
ENDBRANCH   1   2
BRANCH   1  25
ATOM     25  O   UNL A   1      32.120  29.645  24.678  1.00  0.00    -0.374 OA
BRANCH  25  26
ATOM     26  C   UNL A   1      31.197  30.436  25.416  1.00  0.00     0.202 C 
BRANCH  26  27
ATOM     27  C   UNL A   1      31.703  31.397  26.507  1.00  0.00     0.261 C 
BRANCH  27  28
ATOM     28  O   UNL A   1      32.945  31.042  27.131  1.00  0.00    -0.460 OA
BRANCH  28  29
ATOM     29  C   UNL A   1      33.692  32.103  27.520  1.00  0.00     0.338 C 
ATOM     30  O   UNL A   1      33.364  33.277  27.566  1.00  0.00    -0.246 OA
BRANCH  29  31
ATOM     31  C   UNL A   1      34.987  31.633  28.031  1.00  0.00     0.060 A 
ATOM     32  C   UNL A   1      35.090  30.300  28.449  1.00  0.00     0.016 A 
ATOM     33  C   UNL A   1      36.046  32.523  28.207  1.00  0.00     0.016 A 
ATOM     34  C   UNL A   1      36.254  29.857  29.068  1.00  0.00     0.010 A 
ATOM     35  C   UNL A   1      37.211  32.078  28.837  1.00  0.00     0.010 A 
ATOM     36  C   UNL A   1      37.309  30.750  29.294  1.00  0.00    -0.014 A 
BRANCH  36  37
ATOM     37  C   UNL A   1      38.464  30.323  30.117  1.00  0.00     0.031 A 
ATOM     38  C   UNL A   1      39.469  29.370  29.534  1.00  0.00     0.074 A 
ATOM     39  C   UNL A   1      38.627  30.810  31.359  1.00  0.00     0.049 A 
ATOM     40  N   UNL A   1      40.520  28.826  30.093  1.00  0.00    -0.248 NA
ATOM     41  C   UNL A   1      39.262  28.976  28.131  1.00  0.00     0.031 C 
ATOM     42  C   UNL A   1      37.742  31.778  32.007  1.00  0.00     0.029 A 
ATOM     43  N   UNL A   1      39.592  30.554  32.300  1.00  0.00    -0.354 N 
ATOM     44  C   UNL A   1      41.097  28.028  29.115  1.00  0.00     0.074 A 
ATOM     45  C   UNL A   1      40.255  28.121  27.940  1.00  0.00     0.031 C 
ATOM     46  C   UNL A   1      38.206  32.033  33.242  1.00  0.00     0.029 A 
ATOM     47  C   UNL A   1      39.388  31.211  33.488  1.00  0.00     0.049 A 
ATOM     48  H   UNL A   1      40.358  29.957  32.138  1.00  0.00     0.167 HD
ATOM     49  C   UNL A   1      42.236  27.298  29.186  1.00  0.00     0.037 A 
ATOM     50  C   UNL A   1      40.065  31.130  34.650  1.00  0.00     0.037 A 
ATOM     51  C   UNL A   1      43.062  27.207  30.361  1.00  0.00     0.049 A 
ATOM     52  C   UNL A   1      41.265  30.220  34.736  1.00  0.00     0.074 A 
ATOM     53  C   UNL A   1      44.233  26.492  30.541  1.00  0.00     0.029 A 
ATOM     54  N   UNL A   1      42.796  27.847  31.564  1.00  0.00    -0.354 N 
ATOM     55  N   UNL A   1      41.816  29.483  33.801  1.00  0.00    -0.248 NA
ATOM     56  C   UNL A   1      41.936  30.132  36.039  1.00  0.00     0.031 C 
ATOM     57  C   UNL A   1      44.640  26.646  31.869  1.00  0.00     0.029 A 
ATOM     58  C   UNL A   1      43.766  27.519  32.498  1.00  0.00     0.049 A 
ATOM     59  H   UNL A   1      42.033  28.447  31.728  1.00  0.00     0.167 HD
ATOM     60  C   UNL A   1      42.918  28.878  34.392  1.00  0.00     0.074 A 
ATOM     61  C   UNL A   1      42.967  29.348  35.760  1.00  0.00     0.031 C 
ATOM     62  C   UNL A   1      43.811  28.011  33.851  1.00  0.00     0.037 A 
BRANCH  49  63
ATOM     63  C   UNL A   1      42.647  26.523  27.965  1.00  0.00     0.064 A 
ATOM     64  C   UNL A   1      42.153  25.235  27.707  1.00  0.00     0.173 A 
ATOM     65  C   UNL A   1      43.512  27.092  27.018  1.00  0.00     0.173 A 
ATOM     66  F   UNL A   1      41.330  24.639  28.584  1.00  0.00    -0.203 F 
ATOM     67  C   UNL A   1      42.532  24.537  26.563  1.00  0.00     0.198 A 
ATOM     68  C   UNL A   1      43.861  26.406  25.858  1.00  0.00     0.198 A 
ATOM     69  F   UNL A   1      44.010  28.324  27.210  1.00  0.00    -0.203 F 
ATOM     70  F   UNL A   1      42.087  23.288  26.365  1.00  0.00    -0.200 F 
ATOM     71  C   UNL A   1      43.377  25.126  25.636  1.00  0.00     0.200 A 
ATOM     72  F   UNL A   1      44.663  26.985  24.954  1.00  0.00    -0.200 F 
ATOM     73  F   UNL A   1      43.732  24.458  24.530  1.00  0.00    -0.200 F 
ENDBRANCH  49  63
BRANCH  50  74
ATOM     74  C   UNL A   1      39.620  31.911  35.837  1.00  0.00     0.064 A 
ATOM     75  C   UNL A   1      38.570  31.458  36.648  1.00  0.00     0.173 A 
ATOM     76  C   UNL A   1      40.197  33.150  36.154  1.00  0.00     0.173 A 
ATOM     77  F   UNL A   1      37.970  30.289  36.377  1.00  0.00    -0.203 F 
ATOM     78  C   UNL A   1      38.091  32.230  37.705  1.00  0.00     0.198 A 
ATOM     79  C   UNL A   1      39.744  33.902  37.236  1.00  0.00     0.198 A 
ATOM     80  F   UNL A   1      41.208  33.631  35.415  1.00  0.00    -0.203 F 
ATOM     81  F   UNL A   1      37.040  31.804  38.419  1.00  0.00    -0.200 F 
ATOM     82  C   UNL A   1      38.681  33.449  38.000  1.00  0.00     0.200 A 
ATOM     83  F   UNL A   1      40.332  35.070  37.528  1.00  0.00    -0.200 F 
ATOM     84  F   UNL A   1      38.217  34.194  39.013  1.00  0.00    -0.200 F 
ENDBRANCH  50  74
BRANCH  62  85
ATOM     85  C   UNL A   1      44.949  27.555  34.722  1.00  0.00     0.064 A 
ATOM     86  C   UNL A   1      46.147  28.277  34.817  1.00  0.00     0.173 A 
ATOM     87  C   UNL A   1      44.815  26.401  35.511  1.00  0.00     0.173 A 
ATOM     88  F   UNL A   1      46.333  29.378  34.074  1.00  0.00    -0.203 F 
ATOM     89  C   UNL A   1      47.180  27.845  35.646  1.00  0.00     0.198 A 
ATOM     90  C   UNL A   1      45.834  25.994  36.368  1.00  0.00     0.198 A 
ATOM     91  F   UNL A   1      43.687  25.676  35.466  1.00  0.00    -0.203 F 
ATOM     92  F   UNL A   1      48.337  28.521  35.677  1.00  0.00    -0.200 F 
ATOM     93  C   UNL A   1      47.019  26.712  36.428  1.00  0.00     0.200 A 
ATOM     94  F   UNL A   1      45.667  24.911  37.139  1.00  0.00    -0.200 F 
ATOM     95  F   UNL A   1      48.009  26.307  37.234  1.00  0.00    -0.200 F 
ENDBRANCH  62  85
ENDBRANCH  36  37
ENDBRANCH  29  31
ENDBRANCH  28  29
ENDBRANCH  27  28
ENDBRANCH  26  27
ENDBRANCH  25  26
ENDBRANCH   1  25
TORSDOF 19
ENDMDL
MODEL 2
REMARK VINA RESULT:     -11.7      0.602      7.317
REMARK SMILES N#Cc1ccc(/C=C/C(=O)N2C[C@@H](O)C[C@H]2C(=O)OCCOCCOC(=O)c2ccc(-c3c4nc(c(-c5c(F)c(F)c(F)c(F)c5F)c5ccc([nH]5)c(-c5c(F)c(F)c(F)c(F)c5F)c5nc(c(-c6c(F)c(F)c(F)c(F)c6F)c6ccc3[nH]6)C=C5)C=C4)cc2)cc1
REMARK SMILES IDX 21 1 20 2 19 3 17 4 18 5 16 6 11 7 12 8 13 9 15 10 9 11
REMARK SMILES IDX 10 12 8 13 7 14 6 15 3 16 4 17 92 18 5 19 91 20 2 21 1 22
REMARK SMILES IDX 14 23 22 25 23 26 24 27 25 28 26 29 27 30 28 31 29 32 90 33
REMARK SMILES IDX 30 34 89 35 31 36 32 37 33 38 83 39 34 40 88 41 82 42 84 43
REMARK SMILES IDX 35 44 87 45 81 46 80 47 36 49 68 50 48 51 67 52 49 53 52 54
REMARK SMILES IDX 66 55 85 56 50 57 51 58 65 60 86 61 53 62 37 63 38 64 46 65
REMARK SMILES IDX 39 66 40 67 44 68 47 69 41 70 42 71 45 72 43 73 69 74 70 75
REMARK SMILES IDX 78 76 71 77 72 78 76 79 79 80 73 81 74 82 77 83 75 84 54 85
REMARK SMILES IDX 55 86 63 87 56 88 57 89 61 90 64 91 58 92 59 93 62 94 60 95
REMARK H PARENT 14 24 84 48 52 59
REMARK Flexibility Score: inf
ROOT
ATOM      1  C   UNL A   1      31.820  28.795  23.642  1.00  0.00     0.202 C 
ENDROOT
BRANCH   1   2
ATOM      2  C   UNL A   1      32.425  27.396  23.470  1.00  0.00     0.261 C 
BRANCH   2   3
ATOM      3  O   UNL A   1      31.789  26.575  22.469  1.00  0.00    -0.462 OA
BRANCH   3   4
ATOM      4  C   UNL A   1      32.567  25.558  22.002  1.00  0.00     0.329 C 
ATOM      5  O   UNL A   1      33.261  25.632  20.990  1.00  0.00    -0.250 OA
BRANCH   4   6
ATOM      6  C   UNL A   1      32.398  24.228  22.746  1.00  0.00     0.198 C 
ATOM      7  N   UNL A   1      33.223  23.838  23.903  1.00  0.00    -0.323 N 
ATOM      8  C   UNL A   1      32.455  23.955  25.127  1.00  0.00     0.152 C 
ATOM      9  C   UNL A   1      31.056  23.571  24.660  1.00  0.00     0.136 C 
ATOM     10  C   UNL A   1      30.960  24.237  23.293  1.00  0.00     0.071 C 
BRANCH   7  11
ATOM     11  C   UNL A   1      34.336  23.056  23.692  1.00  0.00     0.247 C 
ATOM     12  O   UNL A   1      35.188  23.337  22.851  1.00  0.00    -0.270 OA
BRANCH  11  13
ATOM     13  C   UNL A   1      34.495  21.779  24.441  1.00  0.00     0.072 C 
ATOM     14  C   UNL A   1      33.537  20.840  24.338  1.00  0.00     0.014 C 
BRANCH  14  15
ATOM     15  C   UNL A   1      33.641  19.422  24.736  1.00  0.00    -0.025 A 
ATOM     16  C   UNL A   1      33.554  16.637  25.217  1.00  0.00     0.052 A 
ATOM     17  C   UNL A   1      34.630  17.202  24.527  1.00  0.00     0.020 A 
ATOM     18  C   UNL A   1      32.535  17.464  25.693  1.00  0.00     0.020 A 
ATOM     19  C   UNL A   1      34.672  18.584  24.289  1.00  0.00     0.009 A 
ATOM     20  C   UNL A   1      32.580  18.845  25.452  1.00  0.00     0.009 A 
BRANCH  16  21
ATOM     21  C   UNL A   1      33.477  15.215  25.400  1.00  0.00     0.099 C 
ATOM     22  N   UNL A   1      33.407  14.067  25.538  1.00  0.00    -0.192 NA
ENDBRANCH  16  21
ENDBRANCH  14  15
ENDBRANCH  11  13
ENDBRANCH   7  11
BRANCH   9  23
ATOM     23  O   UNL A   1      30.035  24.005  25.535  1.00  0.00    -0.391 OA
ATOM     24  H   UNL A   1      29.270  24.299  25.017  1.00  0.00     0.211 HD
ENDBRANCH   9  23
ENDBRANCH   4   6
ENDBRANCH   3   4
ENDBRANCH   2   3
ENDBRANCH   1   2
BRANCH   1  25
ATOM     25  O   UNL A   1      32.164  29.581  24.771  1.00  0.00    -0.374 OA
BRANCH  25  26
ATOM     26  C   UNL A   1      31.198  30.472  25.316  1.00  0.00     0.202 C 
BRANCH  26  27
ATOM     27  C   UNL A   1      31.585  31.420  26.464  1.00  0.00     0.261 C 
BRANCH  27  28
ATOM     28  O   UNL A   1      32.739  31.045  27.230  1.00  0.00    -0.460 OA
BRANCH  28  29
ATOM     29  C   UNL A   1      33.553  32.080  27.548  1.00  0.00     0.338 C 
ATOM     30  O   UNL A   1      33.278  33.267  27.590  1.00  0.00    -0.246 OA
BRANCH  29  31
ATOM     31  C   UNL A   1      34.857  31.564  27.984  1.00  0.00     0.060 A 
ATOM     32  C   UNL A   1      34.955  30.209  28.324  1.00  0.00     0.016 A 
ATOM     33  C   UNL A   1      35.936  32.428  28.169  1.00  0.00     0.016 A 
ATOM     34  C   UNL A   1      36.133  29.716  28.874  1.00  0.00     0.010 A 
ATOM     35  C   UNL A   1      37.116  31.932  28.730  1.00  0.00     0.010 A 
ATOM     36  C   UNL A   1      37.209  30.580  29.110  1.00  0.00    -0.014 A 
BRANCH  36  37
ATOM     37  C   UNL A   1      38.387  30.092  29.865  1.00  0.00     0.031 A 
ATOM     38  C   UNL A   1      38.617  30.585  31.266  1.00  0.00     0.074 A 
ATOM     39  C   UNL A   1      39.220  29.194  29.312  1.00  0.00     0.049 A 
ATOM     40  N   UNL A   1      39.608  30.332  32.083  1.00  0.00    -0.248 NA
ATOM     41  C   UNL A   1      37.593  31.484  31.822  1.00  0.00     0.031 C 
ATOM     42  C   UNL A   1      39.065  28.610  27.980  1.00  0.00     0.029 A 
ATOM     43  N   UNL A   1      40.364  28.617  29.802  1.00  0.00    -0.354 N 
ATOM     44  C   UNL A   1      39.328  31.039  33.245  1.00  0.00     0.074 A 
ATOM     45  C   UNL A   1      38.100  31.768  33.013  1.00  0.00     0.031 C 
ATOM     46  C   UNL A   1      40.080  27.758  27.758  1.00  0.00     0.029 A 
ATOM     47  C   UNL A   1      40.979  27.775  28.909  1.00  0.00     0.049 A 
ATOM     48  H   UNL A   1      40.711  28.791  30.707  1.00  0.00     0.167 HD
ATOM     49  C   UNL A   1      40.026  31.062  34.406  1.00  0.00     0.037 A 
ATOM     50  C   UNL A   1      42.152  27.118  29.004  1.00  0.00     0.037 A 
ATOM     51  C   UNL A   1      41.250  30.338  34.624  1.00  0.00     0.049 A 
ATOM     52  C   UNL A   1      42.965  27.253  30.266  1.00  0.00     0.074 A 
ATOM     53  C   UNL A   1      42.039  30.296  35.760  1.00  0.00     0.029 A 
ATOM     54  N   UNL A   1      41.871  29.533  33.679  1.00  0.00    -0.354 N 
ATOM     55  N   UNL A   1      42.686  27.908  31.368  1.00  0.00    -0.248 NA
ATOM     56  C   UNL A   1      44.258  26.557  30.298  1.00  0.00     0.031 C 
ATOM     57  C   UNL A   1      43.167  29.521  35.482  1.00  0.00     0.029 A 
ATOM     58  C   UNL A   1      43.047  29.015  34.197  1.00  0.00     0.049 A 
ATOM     59  H   UNL A   1      41.525  29.355  32.774  1.00  0.00     0.167 HD
ATOM     60  C   UNL A   1      43.745  27.669  32.234  1.00  0.00     0.074 A 
ATOM     61  C   UNL A   1      44.664  26.795  31.536  1.00  0.00     0.031 C 
ATOM     62  C   UNL A   1      43.942  28.131  33.495  1.00  0.00     0.037 A 
BRANCH  49  63
ATOM     63  C   UNL A   1      39.493  31.912  35.525  1.00  0.00     0.064 A 
ATOM     64  C   UNL A   1      38.579  31.409  36.464  1.00  0.00     0.173 A 
ATOM     65  C   UNL A   1      39.934  33.235  35.687  1.00  0.00     0.173 A 
ATOM     66  F   UNL A   1      38.117  30.155  36.351  1.00  0.00    -0.203 F 
ATOM     67  C   UNL A   1      38.107  32.206  37.504  1.00  0.00     0.198 A 
ATOM     68  C   UNL A   1      39.487  34.017  36.749  1.00  0.00     0.198 A 
ATOM     69  F   UNL A   1      40.812  33.767  34.822  1.00  0.00    -0.203 F 
ATOM     70  F   UNL A   1      37.196  31.719  38.358  1.00  0.00    -0.200 F 
ATOM     71  C   UNL A   1      38.568  33.505  37.651  1.00  0.00     0.200 A 
ATOM     72  F   UNL A   1      39.949  35.266  36.899  1.00  0.00    -0.200 F 
ATOM     73  F   UNL A   1      38.122  34.267  38.659  1.00  0.00    -0.200 F 
ENDBRANCH  49  63
BRANCH  50  74
ATOM     74  C   UNL A   1      42.645  26.291  27.869  1.00  0.00     0.064 A 
ATOM     75  C   UNL A   1      43.506  26.829  26.902  1.00  0.00     0.173 A 
ATOM     76  C   UNL A   1      42.226  24.963  27.697  1.00  0.00     0.173 A 
ATOM     77  F   UNL A   1      43.921  28.101  27.009  1.00  0.00    -0.203 F 
ATOM     78  C   UNL A   1      43.897  26.086  25.790  1.00  0.00     0.198 A 
ATOM     79  C   UNL A   1      42.650  24.207  26.606  1.00  0.00     0.198 A 
ATOM     80  F   UNL A   1      41.405  24.394  28.593  1.00  0.00    -0.203 F 
ATOM     81  F   UNL A   1      44.663  26.650  24.846  1.00  0.00    -0.200 F 
ATOM     82  C   UNL A   1      43.472  24.774  25.645  1.00  0.00     0.200 A 
ATOM     83  F   UNL A   1      42.251  22.934  26.482  1.00  0.00    -0.200 F 
ATOM     84  F   UNL A   1      43.843  24.061  24.573  1.00  0.00    -0.200 F 
ENDBRANCH  50  74
BRANCH  62  85
ATOM     85  C   UNL A   1      45.169  27.658  34.223  1.00  0.00     0.064 A 
ATOM     86  C   UNL A   1      45.165  26.497  35.009  1.00  0.00     0.173 A 
ATOM     87  C   UNL A   1      46.381  28.355  34.089  1.00  0.00     0.173 A 
ATOM     88  F   UNL A   1      44.031  25.802  35.182  1.00  0.00    -0.203 F 
ATOM     89  C   UNL A   1      46.320  26.068  35.659  1.00  0.00     0.198 A 
ATOM     90  C   UNL A   1      47.543  27.901  34.707  1.00  0.00     0.198 A 
ATOM     91  F   UNL A   1      46.445  29.467  33.343  1.00  0.00    -0.203 F 
ATOM     92  F   UNL A   1      46.278  24.987  36.451  1.00  0.00    -0.200 F 
ATOM     93  C   UNL A   1      47.509  26.763  35.500  1.00  0.00     0.200 A 
ATOM     94  F   UNL A   1      48.695  28.562  34.534  1.00  0.00    -0.200 F 
ATOM     95  F   UNL A   1      48.622  26.340  36.114  1.00  0.00    -0.200 F 
ENDBRANCH  62  85
ENDBRANCH  36  37
ENDBRANCH  29  31
ENDBRANCH  28  29
ENDBRANCH  27  28
ENDBRANCH  26  27
ENDBRANCH  25  26
ENDBRANCH   1  25
TORSDOF 19
ENDMDL
MODEL 3
REMARK VINA RESULT:     -11.6      4.527      8.565
REMARK SMILES N#Cc1ccc(/C=C/C(=O)N2C[C@@H](O)C[C@H]2C(=O)OCCOCCOC(=O)c2ccc(-c3c4nc(c(-c5c(F)c(F)c(F)c(F)c5F)c5ccc([nH]5)c(-c5c(F)c(F)c(F)c(F)c5F)c5nc(c(-c6c(F)c(F)c(F)c(F)c6F)c6ccc3[nH]6)C=C5)C=C4)cc2)cc1
REMARK SMILES IDX 21 1 20 2 19 3 17 4 18 5 16 6 11 7 12 8 13 9 15 10 9 11
REMARK SMILES IDX 10 12 8 13 7 14 6 15 3 16 4 17 92 18 5 19 91 20 2 21 1 22
REMARK SMILES IDX 14 23 22 25 23 26 24 27 25 28 26 29 27 30 28 31 29 32 90 33
REMARK SMILES IDX 30 34 89 35 31 36 32 37 33 38 83 39 34 40 88 41 82 42 84 43
REMARK SMILES IDX 35 44 87 45 81 46 80 47 36 49 68 50 48 51 67 52 49 53 52 54
REMARK SMILES IDX 66 55 85 56 50 57 51 58 65 60 86 61 53 62 37 63 38 64 46 65
REMARK SMILES IDX 39 66 40 67 44 68 47 69 41 70 42 71 45 72 43 73 69 74 70 75
REMARK SMILES IDX 78 76 71 77 72 78 76 79 79 80 73 81 74 82 77 83 75 84 54 85
REMARK SMILES IDX 55 86 63 87 56 88 57 89 61 90 64 91 58 92 59 93 62 94 60 95
REMARK H PARENT 14 24 84 48 52 59
REMARK Flexibility Score: inf
ROOT
ATOM      1  C   UNL A   1      36.611  21.777  25.298  1.00  0.00     0.202 C 
ENDROOT
BRANCH   1   2
ATOM      2  C   UNL A   1      35.172  21.259  25.186  1.00  0.00     0.261 C 
BRANCH   2   3
ATOM      3  O   UNL A   1      34.255  21.786  26.167  1.00  0.00    -0.462 OA
BRANCH   3   4
ATOM      4  C   UNL A   1      32.971  21.908  25.726  1.00  0.00     0.329 C 
ATOM      5  O   UNL A   1      32.271  20.959  25.379  1.00  0.00    -0.250 OA
BRANCH   4   6
ATOM      6  C   UNL A   1      32.493  23.353  25.536  1.00  0.00     0.198 C 
ATOM      7  N   UNL A   1      33.107  24.287  24.575  1.00  0.00    -0.323 N 
ATOM      8  C   UNL A   1      32.242  24.462  23.425  1.00  0.00     0.152 C 
ATOM      9  C   UNL A   1      30.857  24.364  24.054  1.00  0.00     0.136 C 
ATOM     10  C   UNL A   1      31.028  23.249  25.080  1.00  0.00     0.071 C 
BRANCH   7  11
ATOM     11  C   UNL A   1      34.083  25.150  25.019  1.00  0.00     0.247 C 
ATOM     12  O   UNL A   1      35.186  24.757  25.398  1.00  0.00    -0.270 OA
BRANCH  11  13
ATOM     13  C   UNL A   1      33.790  26.605  25.128  1.00  0.00     0.072 C 
ATOM     14  C   UNL A   1      33.833  27.189  26.340  1.00  0.00     0.014 C 
BRANCH  14  15
ATOM     15  C   UNL A   1      33.880  28.637  26.624  1.00  0.00    -0.025 A 
ATOM     16  C   UNL A   1      33.744  31.324  27.496  1.00  0.00     0.052 A 
ATOM     17  C   UNL A   1      34.924  30.590  27.646  1.00  0.00     0.020 A 
ATOM     18  C   UNL A   1      32.640  30.727  26.884  1.00  0.00     0.020 A 
ATOM     19  C   UNL A   1      34.990  29.257  27.214  1.00  0.00     0.009 A 
ATOM     20  C   UNL A   1      32.710  29.394  26.453  1.00  0.00     0.009 A 
BRANCH  16  21
ATOM     21  C   UNL A   1      33.655  32.665  28.001  1.00  0.00     0.099 C 
ATOM     22  N   UNL A   1      33.587  33.751  28.397  1.00  0.00    -0.192 NA
ENDBRANCH  16  21
ENDBRANCH  14  15
ENDBRANCH  11  13
ENDBRANCH   7  11
BRANCH   9  23
ATOM     23  O   UNL A   1      29.838  24.074  23.121  1.00  0.00    -0.391 OA
ATOM     24  H   UNL A   1      30.222  24.008  22.232  1.00  0.00     0.211 HD
ENDBRANCH   9  23
ENDBRANCH   4   6
ENDBRANCH   3   4
ENDBRANCH   2   3
ENDBRANCH   1   2
BRANCH   1  25
ATOM     25  O   UNL A   1      37.667  21.078  24.659  1.00  0.00    -0.374 OA
BRANCH  25  26
ATOM     26  C   UNL A   1      37.906  19.718  25.001  1.00  0.00     0.202 C 
BRANCH  26  27
ATOM     27  C   UNL A   1      39.205  19.322  25.723  1.00  0.00     0.261 C 
BRANCH  27  28
ATOM     28  O   UNL A   1      40.200  20.349  25.840  1.00  0.00    -0.460 OA
BRANCH  28  29
ATOM     29  C   UNL A   1      40.778  20.424  27.063  1.00  0.00     0.338 C 
ATOM     30  O   UNL A   1      41.188  19.510  27.757  1.00  0.00    -0.246 OA
BRANCH  29  31
ATOM     31  C   UNL A   1      40.979  21.833  27.426  1.00  0.00     0.060 A 
ATOM     32  C   UNL A   1      40.359  22.815  26.644  1.00  0.00     0.016 A 
ATOM     33  C   UNL A   1      41.861  22.183  28.448  1.00  0.00     0.016 A 
ATOM     34  C   UNL A   1      40.638  24.159  26.869  1.00  0.00     0.010 A 
ATOM     35  C   UNL A   1      42.146  23.534  28.668  1.00  0.00     0.010 A 
ATOM     36  C   UNL A   1      41.557  24.525  27.860  1.00  0.00    -0.014 A 
BRANCH  36  37
ATOM     37  C   UNL A   1      41.990  25.937  27.970  1.00  0.00     0.031 A 
ATOM     38  C   UNL A   1      43.300  26.354  27.363  1.00  0.00     0.074 A 
ATOM     39  C   UNL A   1      41.202  26.841  28.577  1.00  0.00     0.049 A 
ATOM     40  N   UNL A   1      43.894  27.519  27.390  1.00  0.00    -0.248 NA
ATOM     41  C   UNL A   1      44.041  25.316  26.627  1.00  0.00     0.031 C 
ATOM     42  C   UNL A   1      39.889  26.560  29.157  1.00  0.00     0.029 A 
ATOM     43  N   UNL A   1      41.393  28.180  28.811  1.00  0.00    -0.354 N 
ATOM     44  C   UNL A   1      45.076  27.356  26.678  1.00  0.00     0.074 A 
ATOM     45  C   UNL A   1      45.138  25.968  26.271  1.00  0.00     0.031 C 
ATOM     46  C   UNL A   1      39.393  27.693  29.682  1.00  0.00     0.029 A 
ATOM     47  C   UNL A   1      40.372  28.764  29.519  1.00  0.00     0.049 A 
ATOM     48  H   UNL A   1      42.186  28.673  28.500  1.00  0.00     0.167 HD
ATOM     49  C   UNL A   1      46.014  28.285  26.377  1.00  0.00     0.037 A 
ATOM     50  C   UNL A   1      40.261  30.015  30.005  1.00  0.00     0.037 A 
ATOM     51  C   UNL A   1      45.946  29.662  26.792  1.00  0.00     0.049 A 
ATOM     52  C   UNL A   1      41.375  31.000  29.752  1.00  0.00     0.074 A 
ATOM     53  C   UNL A   1      46.845  30.684  26.546  1.00  0.00     0.029 A 
ATOM     54  N   UNL A   1      44.921  30.207  27.552  1.00  0.00    -0.354 N 
ATOM     55  N   UNL A   1      42.480  30.844  29.063  1.00  0.00    -0.248 NA
ATOM     56  C   UNL A   1      41.226  32.335  30.347  1.00  0.00     0.031 C 
ATOM     57  C   UNL A   1      46.398  31.830  27.210  1.00  0.00     0.029 A 
ATOM     58  C   UNL A   1      45.181  31.544  27.807  1.00  0.00     0.049 A 
ATOM     59  H   UNL A   1      44.125  29.717  27.862  1.00  0.00     0.167 HD
ATOM     60  C   UNL A   1      43.134  32.069  29.107  1.00  0.00     0.074 A 
ATOM     61  C   UNL A   1      42.294  32.962  29.876  1.00  0.00     0.031 C 
ATOM     62  C   UNL A   1      44.324  32.425  28.560  1.00  0.00     0.037 A 
BRANCH  49  63
ATOM     63  C   UNL A   1      47.206  27.842  25.576  1.00  0.00     0.064 A 
ATOM     64  C   UNL A   1      47.195  27.846  24.173  1.00  0.00     0.173 A 
ATOM     65  C   UNL A   1      48.390  27.449  26.219  1.00  0.00     0.173 A 
ATOM     66  F   UNL A   1      46.086  28.203  23.507  1.00  0.00    -0.203 F 
ATOM     67  C   UNL A   1      48.314  27.446  23.445  1.00  0.00     0.198 A 
ATOM     68  C   UNL A   1      49.518  27.085  25.488  1.00  0.00     0.198 A 
ATOM     69  F   UNL A   1      48.460  27.432  27.559  1.00  0.00    -0.203 F 
ATOM     70  F   UNL A   1      48.261  27.410  22.106  1.00  0.00    -0.200 F 
ATOM     71  C   UNL A   1      49.476  27.076  24.103  1.00  0.00     0.200 A 
ATOM     72  F   UNL A   1      50.647  26.745  26.126  1.00  0.00    -0.200 F 
ATOM     73  F   UNL A   1      50.556  26.703  23.401  1.00  0.00    -0.200 F 
ENDBRANCH  49  63
BRANCH  50  74
ATOM     74  C   UNL A   1      39.065  30.411  30.799  1.00  0.00     0.064 A 
ATOM     75  C   UNL A   1      37.972  31.046  30.193  1.00  0.00     0.173 A 
ATOM     76  C   UNL A   1      39.012  30.212  32.187  1.00  0.00     0.173 A 
ATOM     77  F   UNL A   1      37.981  31.278  28.871  1.00  0.00    -0.203 F 
ATOM     78  C   UNL A   1      36.892  31.500  30.947  1.00  0.00     0.198 A 
ATOM     79  C   UNL A   1      37.913  30.629  32.934  1.00  0.00     0.198 A 
ATOM     80  F   UNL A   1      40.028  29.606  32.820  1.00  0.00    -0.203 F 
ATOM     81  F   UNL A   1      35.894  32.166  30.350  1.00  0.00    -0.200 F 
ATOM     82  C   UNL A   1      36.861  31.287  32.317  1.00  0.00     0.200 A 
ATOM     83  F   UNL A   1      37.881  30.403  34.255  1.00  0.00    -0.200 F 
ATOM     84  F   UNL A   1      35.825  31.728  33.044  1.00  0.00    -0.200 F 
ENDBRANCH  50  74
BRANCH  62  85
ATOM     85  C   UNL A   1      44.764  33.853  28.725  1.00  0.00     0.064 A 
ATOM     86  C   UNL A   1      45.595  34.256  29.780  1.00  0.00     0.173 A 
ATOM     87  C   UNL A   1      44.386  34.821  27.781  1.00  0.00     0.173 A 
ATOM     88  F   UNL A   1      45.974  33.374  30.717  1.00  0.00    -0.203 F 
ATOM     89  C   UNL A   1      46.007  35.581  29.901  1.00  0.00     0.198 A 
ATOM     90  C   UNL A   1      44.832  36.136  27.883  1.00  0.00     0.198 A 
ATOM     91  F   UNL A   1      43.599  34.490  26.747  1.00  0.00    -0.203 F 
ATOM     92  F   UNL A   1      46.754  35.955  30.949  1.00  0.00    -0.200 F 
ATOM     93  C   UNL A   1      45.634  36.517  28.949  1.00  0.00     0.200 A 
ATOM     94  F   UNL A   1      44.487  37.034  26.950  1.00  0.00    -0.200 F 
ATOM     95  F   UNL A   1      46.042  37.788  29.060  1.00  0.00    -0.200 F 
ENDBRANCH  62  85
ENDBRANCH  36  37
ENDBRANCH  29  31
ENDBRANCH  28  29
ENDBRANCH  27  28
ENDBRANCH  26  27
ENDBRANCH  25  26
ENDBRANCH   1  25
TORSDOF 19
ENDMDL
