MODEL 1
REMARK VINA RESULT:     -10.6      0.000      0.000
REMARK SMILES CO[C@H]1C[C@@H](C(=O)OCCOCCOC(=O)c2ccc(-c3c4nc(c(-c5c(F)c(F)c(F)c(F)c5F)c5ccc([nH]5)c(-c5c(F)c(F)c(F)c(F)c5F)c5nc(c(-c6c(F)c(F)c(F)c(F)c6F)c6ccc3[nH]6)C=C5)C=C4)cc2)N(C(=O)CSc2cccs2)C1
REMARK SMILES IDX 10 1 9 2 8 3 6 4 7 5 5 6 3 7 4 8 90 9 80 10 2 11 1 12 81 13
REMARK SMILES IDX 82 14 83 15 84 16 85 17 86 18 89 19 87 20 88 21 11 22 12 23
REMARK SMILES IDX 13 24 14 25 15 26 16 27 17 28 18 29 79 30 19 31 78 32 20 33
REMARK SMILES IDX 21 34 22 35 72 36 23 37 77 38 71 39 73 40 24 41 76 42 70 43
REMARK SMILES IDX 69 44 25 46 57 47 37 48 56 49 38 50 41 51 55 52 74 53 39 54
REMARK SMILES IDX 40 55 54 57 75 58 42 59 26 60 27 61 35 62 28 63 29 64 33 65
REMARK SMILES IDX 36 66 30 67 31 68 34 69 32 70 58 71 59 72 67 73 60 74 61 75
REMARK SMILES IDX 65 76 68 77 62 78 63 79 66 80 64 81 43 82 44 83 52 84 45 85
REMARK SMILES IDX 46 86 50 87 53 88 47 89 48 90 51 91 49 92
REMARK H PARENT 73 45 41 56
REMARK Flexibility Score: inf
ROOT
ATOM      1  C   UNL A   1      32.794  27.921  26.018  1.00  0.00     0.202 C 
ENDROOT
BRANCH   1   2
ATOM      2  C   UNL A   1      32.549  26.466  26.433  1.00  0.00     0.261 C 
BRANCH   2   3
ATOM      3  O   UNL A   1      31.219  26.056  26.060  1.00  0.00    -0.462 OA
BRANCH   3   4
ATOM      4  C   UNL A   1      30.978  24.713  26.035  1.00  0.00     0.329 C 
ATOM      5  O   UNL A   1      30.363  24.132  26.916  1.00  0.00    -0.250 OA
BRANCH   4   6
ATOM      6  C   UNL A   1      31.558  24.014  24.775  1.00  0.00     0.197 C 
ATOM      7  C   UNL A   1      32.958  22.234  23.979  1.00  0.00     0.140 C 
ATOM      8  C   UNL A   1      32.434  22.837  25.263  1.00  0.00     0.071 C 
ATOM      9  C   UNL A   1      33.270  23.484  23.162  1.00  0.00     0.152 C 
ATOM     10  N   UNL A   1      32.402  24.567  23.662  1.00  0.00    -0.325 N 
BRANCH   7  11
ATOM     11  O   UNL A   1      34.117  21.459  24.250  1.00  0.00    -0.380 OA
ATOM     12  C   UNL A   1      33.866  20.433  25.203  1.00  0.00     0.195 C 
ENDBRANCH   7  11
BRANCH  10  13
ATOM     13  C   UNL A   1      32.278  25.630  22.776  1.00  0.00     0.233 C 
ATOM     14  O   UNL A   1      33.299  26.040  22.195  1.00  0.00    -0.274 OA
BRANCH  13  15
ATOM     15  C   UNL A   1      31.052  26.505  22.615  1.00  0.00     0.175 C 
BRANCH  15  16
ATOM     16  S   UNL A   1      31.330  28.257  22.441  1.00  0.00    -0.105 SA
BRANCH  16  17
ATOM     17  C   UNL A   1      29.703  28.851  22.571  1.00  0.00     0.060 A 
ATOM     18  C   UNL A   1      28.643  28.171  23.127  1.00  0.00     0.027 A 
ATOM     19  S   UNL A   1      29.261  30.394  22.003  1.00  0.00    -0.137 S 
ATOM     20  C   UNL A   1      27.455  28.955  23.127  1.00  0.00     0.013 A 
ATOM     21  C   UNL A   1      27.653  30.187  22.544  1.00  0.00     0.066 A 
ENDBRANCH  16  17
ENDBRANCH  15  16
ENDBRANCH  13  15
ENDBRANCH  10  13
ENDBRANCH   4   6
ENDBRANCH   3   4
ENDBRANCH   2   3
ENDBRANCH   1   2
BRANCH   1  22
ATOM     22  O   UNL A   1      31.774  28.849  26.394  1.00  0.00    -0.374 OA
BRANCH  22  23
ATOM     23  C   UNL A   1      31.778  30.058  25.637  1.00  0.00     0.202 C 
BRANCH  23  24
ATOM     24  C   UNL A   1      31.807  31.313  26.501  1.00  0.00     0.261 C 
BRANCH  24  25
ATOM     25  O   UNL A   1      32.807  31.098  27.506  1.00  0.00    -0.460 OA
BRANCH  25  26
ATOM     26  C   UNL A   1      33.651  32.146  27.641  1.00  0.00     0.338 C 
ATOM     27  O   UNL A   1      33.361  33.331  27.627  1.00  0.00    -0.246 OA
BRANCH  26  28
ATOM     28  C   UNL A   1      34.978  31.634  28.031  1.00  0.00     0.060 A 
ATOM     29  C   UNL A   1      35.108  30.247  28.171  1.00  0.00     0.016 A 
ATOM     30  C   UNL A   1      36.075  32.477  28.238  1.00  0.00     0.016 A 
ATOM     31  C   UNL A   1      36.311  29.702  28.600  1.00  0.00     0.010 A 
ATOM     32  C   UNL A   1      37.284  31.932  28.668  1.00  0.00     0.010 A 
ATOM     33  C   UNL A   1      37.385  30.550  28.898  1.00  0.00    -0.014 A 
BRANCH  33  34
ATOM     34  C   UNL A   1      38.536  30.009  29.651  1.00  0.00     0.031 A 
ATOM     35  C   UNL A   1      38.745  30.485  31.059  1.00  0.00     0.074 A 
ATOM     36  C   UNL A   1      39.342  29.087  29.100  1.00  0.00     0.049 A 
ATOM     37  N   UNL A   1      39.685  30.174  31.912  1.00  0.00    -0.248 NA
ATOM     38  C   UNL A   1      37.758  31.449  31.576  1.00  0.00     0.031 C 
ATOM     39  C   UNL A   1      39.197  28.536  27.754  1.00  0.00     0.029 A 
ATOM     40  N   UNL A   1      40.447  28.456  29.608  1.00  0.00    -0.354 N 
ATOM     41  C   UNL A   1      39.405  30.905  33.059  1.00  0.00     0.074 A 
ATOM     42  C   UNL A   1      38.233  31.704  32.785  1.00  0.00     0.031 C 
ATOM     43  C   UNL A   1      40.184  27.648  27.540  1.00  0.00     0.029 A 
ATOM     44  C   UNL A   1      41.044  27.598  28.720  1.00  0.00     0.049 A 
ATOM     45  H   UNL A   1      40.779  28.604  30.523  1.00  0.00     0.167 HD
ATOM     46  C   UNL A   1      40.064  30.896  34.241  1.00  0.00     0.037 A 
ATOM     47  C   UNL A   1      42.171  26.874  28.848  1.00  0.00     0.037 A 
ATOM     48  C   UNL A   1      41.232  30.095  34.496  1.00  0.00     0.049 A 
ATOM     49  C   UNL A   1      42.928  26.935  30.151  1.00  0.00     0.074 A 
ATOM     50  C   UNL A   1      41.976  29.996  35.656  1.00  0.00     0.029 A 
ATOM     51  N   UNL A   1      41.829  29.259  33.562  1.00  0.00    -0.354 N 
ATOM     52  N   UNL A   1      42.646  27.606  31.243  1.00  0.00    -0.248 NA
ATOM     53  C   UNL A   1      44.155  26.134  30.241  1.00  0.00     0.031 C 
ATOM     54  C   UNL A   1      43.057  29.145  35.408  1.00  0.00     0.029 A 
ATOM     55  C   UNL A   1      42.951  28.662  34.111  1.00  0.00     0.049 A 
ATOM     56  H   UNL A   1      41.504  29.113  32.644  1.00  0.00     0.167 HD
ATOM     57  C   UNL A   1      43.640  27.286  32.158  1.00  0.00     0.074 A 
ATOM     58  C   UNL A   1      44.525  26.349  31.497  1.00  0.00     0.031 C 
ATOM     59  C   UNL A   1      43.809  27.726  33.431  1.00  0.00     0.037 A 
BRANCH  46  60
ATOM     60  C   UNL A   1      39.557  31.800  35.327  1.00  0.00     0.064 A 
ATOM     61  C   UNL A   1      39.994  33.129  35.449  1.00  0.00     0.173 A 
ATOM     62  C   UNL A   1      38.605  31.338  36.247  1.00  0.00     0.173 A 
ATOM     63  F   UNL A   1      40.918  33.615  34.607  1.00  0.00    -0.203 F 
ATOM     64  C   UNL A   1      39.518  33.950  36.468  1.00  0.00     0.198 A 
ATOM     65  C   UNL A   1      38.106  32.172  37.245  1.00  0.00     0.198 A 
ATOM     66  F   UNL A   1      38.152  30.077  36.177  1.00  0.00    -0.203 F 
ATOM     67  F   UNL A   1      39.989  35.199  36.596  1.00  0.00    -0.200 F 
ATOM     68  C   UNL A   1      38.568  33.474  37.360  1.00  0.00     0.200 A 
ATOM     69  F   UNL A   1      37.180  31.713  38.098  1.00  0.00    -0.200 F 
ATOM     70  F   UNL A   1      38.105  34.267  38.335  1.00  0.00    -0.200 F 
ENDBRANCH  46  60
BRANCH  47  71
ATOM     71  C   UNL A   1      42.653  26.039  27.717  1.00  0.00     0.064 A 
ATOM     72  C   UNL A   1      43.612  26.522  26.815  1.00  0.00     0.173 A 
ATOM     73  C   UNL A   1      42.157  24.744  27.507  1.00  0.00     0.173 A 
ATOM     74  F   UNL A   1      44.102  27.762  26.960  1.00  0.00    -0.203 F 
ATOM     75  C   UNL A   1      44.041  25.750  25.737  1.00  0.00     0.198 A 
ATOM     76  C   UNL A   1      42.610  23.961  26.447  1.00  0.00     0.198 A 
ATOM     77  F   UNL A   1      41.240  24.231  28.340  1.00  0.00    -0.203 F 
ATOM     78  F   UNL A   1      44.923  26.255  24.864  1.00  0.00    -0.200 F 
ATOM     79  C   UNL A   1      43.544  24.467  25.558  1.00  0.00     0.200 A 
ATOM     80  F   UNL A   1      42.139  22.716  26.287  1.00  0.00    -0.200 F 
ATOM     81  F   UNL A   1      43.961  23.724  24.524  1.00  0.00    -0.200 F 
ENDBRANCH  47  71
BRANCH  59  82
ATOM     82  C   UNL A   1      44.970  27.167  34.201  1.00  0.00     0.064 A 
ATOM     83  C   UNL A   1      44.855  25.998  34.967  1.00  0.00     0.173 A 
ATOM     84  C   UNL A   1      46.228  27.787  34.134  1.00  0.00     0.173 A 
ATOM     85  F   UNL A   1      43.672  25.374  35.074  1.00  0.00    -0.203 F 
ATOM     86  C   UNL A   1      45.950  25.487  35.661  1.00  0.00     0.198 A 
ATOM     87  C   UNL A   1      47.327  27.254  34.799  1.00  0.00     0.198 A 
ATOM     88  F   UNL A   1      46.394  28.903  33.406  1.00  0.00    -0.203 F 
ATOM     89  F   UNL A   1      45.804  24.398  36.428  1.00  0.00    -0.200 F 
ATOM     90  C   UNL A   1      47.186  26.110  35.569  1.00  0.00     0.200 A 
ATOM     91  F   UNL A   1      48.524  27.847  34.695  1.00  0.00    -0.200 F 
ATOM     92  F   UNL A   1      48.238  25.611  36.231  1.00  0.00    -0.200 F 
ENDBRANCH  59  82
ENDBRANCH  33  34
ENDBRANCH  26  28
ENDBRANCH  25  26
ENDBRANCH  24  25
ENDBRANCH  23  24
ENDBRANCH  22  23
ENDBRANCH   1  22
TORSDOF 19
ENDMDL
MODEL 2
REMARK VINA RESULT:     -10.6      0.718      7.505
REMARK SMILES CO[C@H]1C[C@@H](C(=O)OCCOCCOC(=O)c2ccc(-c3c4nc(c(-c5c(F)c(F)c(F)c(F)c5F)c5ccc([nH]5)c(-c5c(F)c(F)c(F)c(F)c5F)c5nc(c(-c6c(F)c(F)c(F)c(F)c6F)c6ccc3[nH]6)C=C5)C=C4)cc2)N(C(=O)CSc2cccs2)C1
REMARK SMILES IDX 10 1 9 2 8 3 6 4 7 5 5 6 3 7 4 8 90 9 80 10 2 11 1 12 81 13
REMARK SMILES IDX 82 14 83 15 84 16 85 17 86 18 89 19 87 20 88 21 11 22 12 23
REMARK SMILES IDX 13 24 14 25 15 26 16 27 17 28 18 29 79 30 19 31 78 32 20 33
REMARK SMILES IDX 21 34 22 35 72 36 23 37 77 38 71 39 73 40 24 41 76 42 70 43
REMARK SMILES IDX 69 44 25 46 57 47 37 48 56 49 38 50 41 51 55 52 74 53 39 54
REMARK SMILES IDX 40 55 54 57 75 58 42 59 26 60 27 61 35 62 28 63 29 64 33 65
REMARK SMILES IDX 36 66 30 67 31 68 34 69 32 70 58 71 59 72 67 73 60 74 61 75
REMARK SMILES IDX 65 76 68 77 62 78 63 79 66 80 64 81 43 82 44 83 52 84 45 85
REMARK SMILES IDX 46 86 50 87 53 88 47 89 48 90 51 91 49 92
REMARK H PARENT 73 45 41 56
REMARK Flexibility Score: inf
ROOT
ATOM      1  C   UNL A   1      32.565  27.722  26.072  1.00  0.00     0.202 C 
ENDROOT
BRANCH   1   2
ATOM      2  C   UNL A   1      32.410  26.214  26.294  1.00  0.00     0.261 C 
BRANCH   2   3
ATOM      3  O   UNL A   1      31.173  25.747  25.720  1.00  0.00    -0.462 OA
BRANCH   3   4
ATOM      4  C   UNL A   1      30.871  24.431  25.908  1.00  0.00     0.329 C 
ATOM      5  O   UNL A   1      30.322  24.013  26.916  1.00  0.00    -0.250 OA
BRANCH   4   6
ATOM      6  C   UNL A   1      31.289  23.532  24.712  1.00  0.00     0.197 C 
ATOM      7  C   UNL A   1      32.236  21.423  24.069  1.00  0.00     0.140 C 
ATOM      8  C   UNL A   1      31.849  22.216  25.297  1.00  0.00     0.071 C 
ATOM      9  C   UNL A   1      32.854  22.506  23.191  1.00  0.00     0.152 C 
ATOM     10  N   UNL A   1      32.261  23.794  23.596  1.00  0.00    -0.325 N 
BRANCH   7  11
ATOM     11  O   UNL A   1      33.171  20.414  24.425  1.00  0.00    -0.380 OA
ATOM     12  C   UNL A   1      32.645  19.105  24.237  1.00  0.00     0.195 C 
ENDBRANCH   7  11
BRANCH  10  13
ATOM     13  C   UNL A   1      32.412  24.797  22.645  1.00  0.00     0.233 C 
ATOM     14  O   UNL A   1      33.528  24.948  22.116  1.00  0.00    -0.274 OA
BRANCH  13  15
ATOM     15  C   UNL A   1      31.406  25.890  22.350  1.00  0.00     0.175 C 
BRANCH  15  16
ATOM     16  S   UNL A   1      31.997  27.569  22.429  1.00  0.00    -0.105 SA
BRANCH  16  17
ATOM     17  C   UNL A   1      30.490  28.434  22.474  1.00  0.00     0.060 A 
ATOM     18  C   UNL A   1      30.278  29.703  21.985  1.00  0.00     0.027 A 
ATOM     19  S   UNL A   1      29.084  27.754  23.153  1.00  0.00    -0.137 S 
ATOM     20  C   UNL A   1      28.921  30.104  22.131  1.00  0.00     0.013 A 
ATOM     21  C   UNL A   1      28.163  29.136  22.751  1.00  0.00     0.066 A 
ENDBRANCH  16  17
ENDBRANCH  15  16
ENDBRANCH  13  15
ENDBRANCH  10  13
ENDBRANCH   4   6
ENDBRANCH   3   4
ENDBRANCH   2   3
ENDBRANCH   1   2
BRANCH   1  22
ATOM     22  O   UNL A   1      31.345  28.464  26.005  1.00  0.00    -0.374 OA
BRANCH  22  23
ATOM     23  C   UNL A   1      31.501  29.802  25.537  1.00  0.00     0.202 C 
BRANCH  23  24
ATOM     24  C   UNL A   1      31.848  30.793  26.642  1.00  0.00     0.261 C 
BRANCH  24  25
ATOM     25  O   UNL A   1      33.244  31.092  26.504  1.00  0.00    -0.460 OA
BRANCH  25  26
ATOM     26  C   UNL A   1      33.675  32.011  27.396  1.00  0.00     0.338 C 
ATOM     27  O   UNL A   1      33.048  32.959  27.837  1.00  0.00    -0.246 OA
BRANCH  26  28
ATOM     28  C   UNL A   1      34.976  31.570  27.934  1.00  0.00     0.060 A 
ATOM     29  C   UNL A   1      35.120  30.205  28.211  1.00  0.00     0.016 A 
ATOM     30  C   UNL A   1      36.037  32.457  28.148  1.00  0.00     0.016 A 
ATOM     31  C   UNL A   1      36.294  29.732  28.781  1.00  0.00     0.010 A 
ATOM     32  C   UNL A   1      37.217  31.983  28.720  1.00  0.00     0.010 A 
ATOM     33  C   UNL A   1      37.325  30.630  29.084  1.00  0.00    -0.014 A 
BRANCH  33  34
ATOM     34  C   UNL A   1      38.421  30.189  29.970  1.00  0.00     0.031 A 
ATOM     35  C   UNL A   1      39.424  29.215  29.421  1.00  0.00     0.074 A 
ATOM     36  C   UNL A   1      38.536  30.681  31.214  1.00  0.00     0.049 A 
ATOM     37  N   UNL A   1      40.459  28.669  30.004  1.00  0.00    -0.248 NA
ATOM     38  C   UNL A   1      39.229  28.795  28.023  1.00  0.00     0.031 C 
ATOM     39  C   UNL A   1      37.635  31.658  31.821  1.00  0.00     0.029 A 
ATOM     40  N   UNL A   1      39.461  30.419  32.190  1.00  0.00    -0.354 N 
ATOM     41  C   UNL A   1      41.032  27.842  29.046  1.00  0.00     0.074 A 
ATOM     42  C   UNL A   1      40.213  27.925  27.859  1.00  0.00     0.031 C 
ATOM     43  C   UNL A   1      38.050  31.911  33.075  1.00  0.00     0.029 A 
ATOM     44  C   UNL A   1      39.223  31.088  33.363  1.00  0.00     0.049 A 
ATOM     45  H   UNL A   1      40.224  29.810  32.061  1.00  0.00     0.167 HD
ATOM     46  C   UNL A   1      42.153  27.091  29.150  1.00  0.00     0.037 A 
ATOM     47  C   UNL A   1      39.873  31.021  34.540  1.00  0.00     0.037 A 
ATOM     48  C   UNL A   1      42.956  27.019  30.342  1.00  0.00     0.049 A 
ATOM     49  C   UNL A   1      41.079  30.123  34.652  1.00  0.00     0.074 A 
ATOM     50  C   UNL A   1      44.116  26.301  30.560  1.00  0.00     0.029 A 
ATOM     51  N   UNL A   1      42.667  27.687  31.524  1.00  0.00    -0.354 N 
ATOM     52  N   UNL A   1      41.635  29.364  33.738  1.00  0.00    -0.248 NA
ATOM     53  C   UNL A   1      41.750  30.077  35.957  1.00  0.00     0.031 C 
ATOM     54  C   UNL A   1      44.500  26.489  31.892  1.00  0.00     0.029 A 
ATOM     55  C   UNL A   1      43.614  27.375  32.486  1.00  0.00     0.049 A 
ATOM     56  H   UNL A   1      41.903  28.292  31.660  1.00  0.00     0.167 HD
ATOM     57  C   UNL A   1      42.735  28.774  34.345  1.00  0.00     0.074 A 
ATOM     58  C   UNL A   1      42.777  29.276  35.703  1.00  0.00     0.031 C 
ATOM     59  C   UNL A   1      43.633  27.897  33.829  1.00  0.00     0.037 A 
BRANCH  46  60
ATOM     60  C   UNL A   1      42.552  26.269  27.959  1.00  0.00     0.064 A 
ATOM     61  C   UNL A   1      42.023  24.989  27.731  1.00  0.00     0.173 A 
ATOM     62  C   UNL A   1      43.462  26.778  27.020  1.00  0.00     0.173 A 
ATOM     63  F   UNL A   1      41.164  24.448  28.608  1.00  0.00    -0.203 F 
ATOM     64  C   UNL A   1      42.411  24.239  26.624  1.00  0.00     0.198 A 
ATOM     65  C   UNL A   1      43.824  26.038  25.896  1.00  0.00     0.198 A 
ATOM     66  F   UNL A   1      43.999  27.995  27.188  1.00  0.00    -0.203 F 
ATOM     67  F   UNL A   1      41.933  22.998  26.455  1.00  0.00    -0.200 F 
ATOM     68  C   UNL A   1      43.305  24.767  25.703  1.00  0.00     0.200 A 
ATOM     69  F   UNL A   1      44.678  26.555  25.002  1.00  0.00    -0.200 F 
ATOM     70  F   UNL A   1      43.672  24.047  24.634  1.00  0.00    -0.200 F 
ENDBRANCH  46  60
BRANCH  47  71
ATOM     71  C   UNL A   1      39.396  31.818  35.701  1.00  0.00     0.064 A 
ATOM     72  C   UNL A   1      38.443  31.305  36.591  1.00  0.00     0.173 A 
ATOM     73  C   UNL A   1      39.877  33.114  35.939  1.00  0.00     0.173 A 
ATOM     74  F   UNL A   1      37.936  30.079  36.396  1.00  0.00    -0.203 F 
ATOM     75  C   UNL A   1      37.975  32.064  37.662  1.00  0.00     0.198 A 
ATOM     76  C   UNL A   1      39.431  33.860  37.028  1.00  0.00     0.198 A 
ATOM     77  F   UNL A   1      40.791  33.654  35.120  1.00  0.00    -0.203 F 
ATOM     78  F   UNL A   1      37.028  31.566  38.470  1.00  0.00    -0.200 F 
ATOM     79  C   UNL A   1      38.474  33.339  37.884  1.00  0.00     0.200 A 
ATOM     80  F   UNL A   1      39.928  35.086  37.246  1.00  0.00    -0.200 F 
ATOM     81  F   UNL A   1      38.027  34.066  38.916  1.00  0.00    -0.200 F 
ENDBRANCH  47  71
BRANCH  59  82
ATOM     82  C   UNL A   1      44.756  27.458  34.724  1.00  0.00     0.064 A 
ATOM     83  C   UNL A   1      45.954  28.180  34.814  1.00  0.00     0.173 A 
ATOM     84  C   UNL A   1      44.609  26.323  35.537  1.00  0.00     0.173 A 
ATOM     85  F   UNL A   1      46.150  29.264  34.050  1.00  0.00    -0.203 F 
ATOM     86  C   UNL A   1      46.977  27.764  35.664  1.00  0.00     0.198 A 
ATOM     87  C   UNL A   1      45.618  25.931  36.411  1.00  0.00     0.198 A 
ATOM     88  F   UNL A   1      43.477  25.603  35.496  1.00  0.00    -0.203 F 
ATOM     89  F   UNL A   1      48.134  28.438  35.695  1.00  0.00    -0.200 F 
ATOM     90  C   UNL A   1      46.804  26.646  36.467  1.00  0.00     0.200 A 
ATOM     91  F   UNL A   1      45.443  24.862  37.199  1.00  0.00    -0.200 F 
ATOM     92  F   UNL A   1      47.787  26.254  37.290  1.00  0.00    -0.200 F 
ENDBRANCH  59  82
ENDBRANCH  33  34
ENDBRANCH  26  28
ENDBRANCH  25  26
ENDBRANCH  24  25
ENDBRANCH  23  24
ENDBRANCH  22  23
ENDBRANCH   1  22
TORSDOF 19
ENDMDL
MODEL 3
REMARK VINA RESULT:     -10.5      4.164      7.076
REMARK SMILES CO[C@H]1C[C@@H](C(=O)OCCOCCOC(=O)c2ccc(-c3c4nc(c(-c5c(F)c(F)c(F)c(F)c5F)c5ccc([nH]5)c(-c5c(F)c(F)c(F)c(F)c5F)c5nc(c(-c6c(F)c(F)c(F)c(F)c6F)c6ccc3[nH]6)C=C5)C=C4)cc2)N(C(=O)CSc2cccs2)C1
REMARK SMILES IDX 10 1 9 2 8 3 6 4 7 5 5 6 3 7 4 8 90 9 80 10 2 11 1 12 81 13
REMARK SMILES IDX 82 14 83 15 84 16 85 17 86 18 89 19 87 20 88 21 11 22 12 23
REMARK SMILES IDX 13 24 14 25 15 26 16 27 17 28 18 29 79 30 19 31 78 32 20 33
REMARK SMILES IDX 21 34 22 35 72 36 23 37 77 38 71 39 73 40 24 41 76 42 70 43
REMARK SMILES IDX 69 44 25 46 57 47 37 48 56 49 38 50 41 51 55 52 74 53 39 54
REMARK SMILES IDX 40 55 54 57 75 58 42 59 26 60 27 61 35 62 28 63 29 64 33 65
REMARK SMILES IDX 36 66 30 67 31 68 34 69 32 70 58 71 59 72 67 73 60 74 61 75
REMARK SMILES IDX 65 76 68 77 62 78 63 79 66 80 64 81 43 82 44 83 52 84 45 85
REMARK SMILES IDX 46 86 50 87 53 88 47 89 48 90 51 91 49 92
REMARK H PARENT 73 45 41 56
REMARK Flexibility Score: inf
ROOT
ATOM      1  C   UNL A   1      34.789  23.044  25.727  1.00  0.00     0.202 C 
ENDROOT
BRANCH   1   2
ATOM      2  C   UNL A   1      33.821  22.075  26.415  1.00  0.00     0.261 C 
BRANCH   2   3
ATOM      3  O   UNL A   1      32.501  22.199  25.850  1.00  0.00    -0.462 OA
BRANCH   3   4
ATOM      4  C   UNL A   1      31.741  23.240  26.297  1.00  0.00     0.329 C 
ATOM      5  O   UNL A   1      31.360  23.336  27.453  1.00  0.00    -0.250 OA
BRANCH   4   6
ATOM      6  C   UNL A   1      31.423  24.282  25.189  1.00  0.00     0.197 C 
ATOM      7  C   UNL A   1      31.641  24.806  22.857  1.00  0.00     0.140 C 
ATOM      8  C   UNL A   1      31.985  23.728  23.860  1.00  0.00     0.071 C 
ATOM      9  C   UNL A   1      31.940  26.070  23.657  1.00  0.00     0.152 C 
ATOM     10  N   UNL A   1      31.801  25.732  25.086  1.00  0.00    -0.325 N 
BRANCH   7  11
ATOM     11  O   UNL A   1      32.472  24.679  21.712  1.00  0.00    -0.380 OA
ATOM     12  C   UNL A   1      32.537  25.885  20.960  1.00  0.00     0.195 C 
ENDBRANCH   7  11
BRANCH  10  13
ATOM     13  C   UNL A   1      31.645  26.844  25.905  1.00  0.00     0.233 C 
ATOM     14  O   UNL A   1      30.874  26.759  26.878  1.00  0.00    -0.274 OA
BRANCH  13  15
ATOM     15  C   UNL A   1      32.145  28.241  25.600  1.00  0.00     0.175 C 
BRANCH  15  16
ATOM     16  S   UNL A   1      31.865  29.485  26.845  1.00  0.00    -0.105 SA
BRANCH  16  17
ATOM     17  C   UNL A   1      33.502  29.909  27.244  1.00  0.00     0.060 A 
ATOM     18  C   UNL A   1      34.572  29.044  27.264  1.00  0.00     0.027 A 
ATOM     19  S   UNL A   1      33.943  31.501  27.658  1.00  0.00    -0.137 S 
ATOM     20  C   UNL A   1      35.787  29.714  27.580  1.00  0.00     0.013 A 
ATOM     21  C   UNL A   1      35.586  31.056  27.818  1.00  0.00     0.066 A 
ENDBRANCH  16  17
ENDBRANCH  15  16
ENDBRANCH  13  15
ENDBRANCH  10  13
ENDBRANCH   4   6
ENDBRANCH   3   4
ENDBRANCH   2   3
ENDBRANCH   1   2
BRANCH   1  22
ATOM     22  O   UNL A   1      35.765  22.439  24.876  1.00  0.00    -0.374 OA
BRANCH  22  23
ATOM     23  C   UNL A   1      35.881  21.027  25.034  1.00  0.00     0.202 C 
BRANCH  23  24
ATOM     24  C   UNL A   1      37.324  20.533  25.022  1.00  0.00     0.261 C 
BRANCH  24  25
ATOM     25  O   UNL A   1      38.146  21.656  25.363  1.00  0.00    -0.460 OA
BRANCH  25  26
ATOM     26  C   UNL A   1      39.230  21.312  26.094  1.00  0.00     0.338 C 
ATOM     27  O   UNL A   1      39.763  20.217  26.149  1.00  0.00    -0.246 OA
BRANCH  26  28
ATOM     28  C   UNL A   1      39.819  22.537  26.667  1.00  0.00     0.060 A 
ATOM     29  C   UNL A   1      39.230  23.755  26.307  1.00  0.00     0.016 A 
ATOM     30  C   UNL A   1      40.906  22.504  27.548  1.00  0.00     0.016 A 
ATOM     31  C   UNL A   1      39.774  24.950  26.757  1.00  0.00     0.010 A 
ATOM     32  C   UNL A   1      41.454  23.704  28.000  1.00  0.00     0.010 A 
ATOM     33  C   UNL A   1      40.919  24.927  27.563  1.00  0.00    -0.014 A 
BRANCH  33  34
ATOM     34  C   UNL A   1      41.675  26.179  27.769  1.00  0.00     0.031 A 
ATOM     35  C   UNL A   1      41.035  27.263  28.588  1.00  0.00     0.074 A 
ATOM     36  C   UNL A   1      42.914  26.321  27.272  1.00  0.00     0.049 A 
ATOM     37  N   UNL A   1      41.486  28.451  28.894  1.00  0.00    -0.248 NA
ATOM     38  C   UNL A   1      39.699  26.967  29.134  1.00  0.00     0.031 C 
ATOM     39  C   UNL A   1      43.633  25.311  26.498  1.00  0.00     0.029 A 
ATOM     40  N   UNL A   1      43.784  27.377  27.344  1.00  0.00    -0.354 N 
ATOM     41  C   UNL A   1      40.490  29.041  29.662  1.00  0.00     0.074 A 
ATOM     42  C   UNL A   1      39.396  28.102  29.744  1.00  0.00     0.031 C 
ATOM     43  C   UNL A   1      44.838  25.800  26.159  1.00  0.00     0.029 A 
ATOM     44  C   UNL A   1      44.957  27.167  26.666  1.00  0.00     0.049 A 
ATOM     45  H   UNL A   1      43.586  28.207  27.836  1.00  0.00     0.167 HD
ATOM     46  C   UNL A   1      40.500  30.258  30.255  1.00  0.00     0.037 A 
ATOM     47  C   UNL A   1      45.997  27.998  26.464  1.00  0.00     0.037 A 
ATOM     48  C   UNL A   1      41.597  31.182  30.160  1.00  0.00     0.049 A 
ATOM     49  C   UNL A   1      45.953  29.375  27.077  1.00  0.00     0.074 A 
ATOM     50  C   UNL A   1      41.723  32.436  30.727  1.00  0.00     0.029 A 
ATOM     51  N   UNL A   1      42.760  30.948  29.438  1.00  0.00    -0.354 N 
ATOM     52  N   UNL A   1      45.022  29.920  27.825  1.00  0.00    -0.248 NA
ATOM     53  C   UNL A   1      47.105  30.249  26.824  1.00  0.00     0.031 C 
ATOM     54  C   UNL A   1      42.936  32.986  30.302  1.00  0.00     0.029 A 
ATOM     55  C   UNL A   1      43.597  32.048  29.521  1.00  0.00     0.049 A 
ATOM     56  H   UNL A   1      42.959  30.123  28.939  1.00  0.00     0.167 HD
ATOM     57  C   UNL A   1      45.488  31.186  28.155  1.00  0.00     0.074 A 
ATOM     58  C   UNL A   1      46.791  31.321  27.538  1.00  0.00     0.031 C 
ATOM     59  C   UNL A   1      44.894  32.151  28.902  1.00  0.00     0.037 A 
BRANCH  46  60
ATOM     60  C   UNL A   1      39.277  30.664  31.025  1.00  0.00     0.064 A 
ATOM     61  C   UNL A   1      39.087  30.294  32.366  1.00  0.00     0.173 A 
ATOM     62  C   UNL A   1      38.288  31.455  30.420  1.00  0.00     0.173 A 
ATOM     63  F   UNL A   1      39.993  29.523  32.987  1.00  0.00    -0.203 F 
ATOM     64  C   UNL A   1      37.943  30.675  33.062  1.00  0.00     0.198 A 
ATOM     65  C   UNL A   1      37.160  31.861  31.128  1.00  0.00     0.198 A 
ATOM     66  F   UNL A   1      38.417  31.838  29.141  1.00  0.00    -0.203 F 
ATOM     67  F   UNL A   1      37.759  30.265  34.325  1.00  0.00    -0.200 F 
ATOM     68  C   UNL A   1      36.984  31.465  32.445  1.00  0.00     0.200 A 
ATOM     69  F   UNL A   1      36.240  32.635  30.534  1.00  0.00    -0.200 F 
ATOM     70  F   UNL A   1      35.886  31.837  33.117  1.00  0.00    -0.200 F 
ENDBRANCH  46  60
BRANCH  47  71
ATOM     71  C   UNL A   1      47.156  27.557  25.645  1.00  0.00     0.064 A 
ATOM     72  C   UNL A   1      48.286  26.979  26.239  1.00  0.00     0.173 A 
ATOM     73  C   UNL A   1      47.162  27.712  24.251  1.00  0.00     0.173 A 
ATOM     74  F   UNL A   1      48.339  26.828  27.570  1.00  0.00    -0.203 F 
ATOM     75  C   UNL A   1      49.385  26.593  25.473  1.00  0.00     0.198 A 
ATOM     76  C   UNL A   1      48.247  27.297  23.483  1.00  0.00     0.198 A 
ATOM     77  F   UNL A   1      46.105  28.257  23.631  1.00  0.00    -0.203 F 
ATOM     78  F   UNL A   1      50.472  26.088  26.073  1.00  0.00    -0.200 F 
ATOM     79  C   UNL A   1      49.362  26.747  24.095  1.00  0.00     0.200 A 
ATOM     80  F   UNL A   1      48.213  27.433  22.150  1.00  0.00    -0.200 F 
ATOM     81  F   UNL A   1      50.416  26.371  23.359  1.00  0.00    -0.200 F 
ENDBRANCH  47  71
BRANCH  59  82
ATOM     82  C   UNL A   1      45.666  33.420  29.123  1.00  0.00     0.064 A 
ATOM     83  C   UNL A   1      45.520  34.531  28.281  1.00  0.00     0.173 A 
ATOM     84  C   UNL A   1      46.531  33.538  30.223  1.00  0.00     0.173 A 
ATOM     85  F   UNL A   1      44.716  34.465  27.209  1.00  0.00    -0.203 F 
ATOM     86  C   UNL A   1      46.234  35.704  28.515  1.00  0.00     0.198 A 
ATOM     87  C   UNL A   1      47.215  34.723  30.474  1.00  0.00     0.198 A 
ATOM     88  F   UNL A   1      46.699  32.506  31.066  1.00  0.00    -0.203 F 
ATOM     89  F   UNL A   1      46.118  36.735  27.667  1.00  0.00    -0.200 F 
ATOM     90  C   UNL A   1      47.073  35.802  29.615  1.00  0.00     0.200 A 
ATOM     91  F   UNL A   1      48.011  34.822  31.547  1.00  0.00    -0.200 F 
ATOM     92  F   UNL A   1      47.751  36.935  29.842  1.00  0.00    -0.200 F 
ENDBRANCH  59  82
ENDBRANCH  33  34
ENDBRANCH  26  28
ENDBRANCH  25  26
ENDBRANCH  24  25
ENDBRANCH  23  24
ENDBRANCH  22  23
ENDBRANCH   1  22
TORSDOF 19
ENDMDL
