MODEL 1
REMARK VINA RESULT:     -11.9      0.000      0.000
REMARK SMILES Cc1ccc(S(=O)(=O)Nc2ccccn2)cc1C(=O)OCCOCCOC(=O)c1ccc(-c2c3nc(c(-c4c(F)c(F)c(F)c(F)c4F)c4ccc([nH]4)c(-c4c(F)c(F)c(F)c(F)c4F)c4nc(c(-c5c(F)c(F)c(F)c(F)c5F)c5ccc2[nH]5)C=C4)C=C3)cc1
REMARK SMILES IDX 22 1 21 2 20 3 18 4 19 5 17 6 1 7 2 8 3 9 4 10 16 11 5 12
REMARK SMILES IDX 6 13 7 14 8 15 9 16 10 18 11 19 15 20 12 21 14 22 13 23
REMARK SMILES IDX 23 24 24 25 25 26 26 27 27 28 28 29 29 30 30 31 91 32 31 33
REMARK SMILES IDX 90 34 32 35 33 36 34 37 84 38 35 39 89 40 83 41 85 42 36 43
REMARK SMILES IDX 88 44 82 45 81 46 37 48 69 49 49 50 68 51 50 52 53 53 67 54
REMARK SMILES IDX 86 55 51 56 52 57 66 59 87 60 54 61 38 62 39 63 47 64 40 65
REMARK SMILES IDX 41 66 45 67 48 68 42 69 43 70 46 71 44 72 70 73 71 74 79 75
REMARK SMILES IDX 72 76 73 77 77 78 80 79 74 80 75 81 78 82 76 83 55 84 56 85
REMARK SMILES IDX 64 86 57 87 58 88 62 89 65 90 59 91 60 92 63 93 61 94
REMARK H PARENT 9 17 85 47 53 58
REMARK Flexibility Score: inf
ROOT
ATOM      1  C   UNL A   1      33.578  28.434  25.110  1.00  0.00     0.202 C 
ENDROOT
BRANCH   1   2
ATOM      2  C   UNL A   1      33.890  28.200  23.674  1.00  0.00     0.261 C 
BRANCH   2   3
ATOM      3  O   UNL A   1      34.113  26.798  23.418  1.00  0.00    -0.460 OA
BRANCH   3   4
ATOM      4  C   UNL A   1      33.388  26.123  22.498  1.00  0.00     0.338 C 
ATOM      5  O   UNL A   1      33.615  26.055  21.308  1.00  0.00    -0.246 OA
BRANCH   4   6
ATOM      6  C   UNL A   1      32.328  25.328  23.182  1.00  0.00     0.064 A 
ATOM      7  C   UNL A   1      30.429  27.125  23.207  1.00  0.00     0.045 C 
ATOM      8  C   UNL A   1      31.078  25.824  23.617  1.00  0.00    -0.036 A 
ATOM      9  C   UNL A   1      30.323  25.021  24.488  1.00  0.00     0.006 A 
ATOM     10  C   UNL A   1      30.822  23.816  24.982  1.00  0.00     0.022 A 
ATOM     11  C   UNL A   1      32.760  24.044  23.577  1.00  0.00     0.038 A 
ATOM     12  C   UNL A   1      32.059  23.338  24.545  1.00  0.00     0.088 A 
BRANCH  12  13
ATOM     13  S   UNL A   1      32.743  21.957  25.437  1.00  0.00     0.263 S 
ATOM     14  O   UNL A   1      32.940  22.428  26.792  1.00  0.00    -0.201 OA
ATOM     15  O   UNL A   1      31.870  20.834  25.160  1.00  0.00    -0.201 OA
BRANCH  13  16
ATOM     16  N   UNL A   1      34.209  21.549  24.795  1.00  0.00    -0.263 N 
ATOM     17  H   UNL A   1      34.215  20.867  24.086  1.00  0.00     0.182 HD
BRANCH  16  18
ATOM     18  C   UNL A   1      35.444  22.089  25.173  1.00  0.00     0.139 A 
ATOM     19  C   UNL A   1      35.694  23.402  25.529  1.00  0.00     0.048 A 
ATOM     20  N   UNL A   1      36.384  21.124  25.144  1.00  0.00    -0.239 NA
ATOM     21  C   UNL A   1      37.009  23.748  25.838  1.00  0.00     0.005 A 
ATOM     22  C   UNL A   1      37.650  21.496  25.431  1.00  0.00     0.113 A 
ATOM     23  C   UNL A   1      38.010  22.785  25.777  1.00  0.00     0.020 A 
ENDBRANCH  16  18
ENDBRANCH  13  16
ENDBRANCH  12  13
ENDBRANCH   4   6
ENDBRANCH   3   4
ENDBRANCH   2   3
ENDBRANCH   1   2
BRANCH   1  24
ATOM     24  O   UNL A   1      33.064  29.747  25.069  1.00  0.00    -0.374 OA
BRANCH  24  25
ATOM     25  C   UNL A   1      32.107  30.044  26.022  1.00  0.00     0.202 C 
BRANCH  25  26
ATOM     26  C   UNL A   1      32.555  31.042  27.073  1.00  0.00     0.261 C 
BRANCH  26  27
ATOM     27  O   UNL A   1      33.825  30.984  27.806  1.00  0.00    -0.460 OA
BRANCH  27  28
ATOM     28  C   UNL A   1      35.123  31.330  27.854  1.00  0.00     0.338 C 
ATOM     29  O   UNL A   1      35.445  32.480  27.562  1.00  0.00    -0.246 OA
BRANCH  28  30
ATOM     30  C   UNL A   1      36.218  30.390  28.160  1.00  0.00     0.060 A 
ATOM     31  C   UNL A   1      36.266  29.792  29.445  1.00  0.00     0.016 A 
ATOM     32  C   UNL A   1      37.206  30.103  27.235  1.00  0.00     0.016 A 
ATOM     33  C   UNL A   1      37.386  29.060  29.864  1.00  0.00     0.010 A 
ATOM     34  C   UNL A   1      38.337  29.424  27.670  1.00  0.00     0.010 A 
ATOM     35  C   UNL A   1      38.464  28.946  28.995  1.00  0.00    -0.014 A 
BRANCH  35  36
ATOM     36  C   UNL A   1      39.812  28.485  29.361  1.00  0.00     0.031 A 
ATOM     37  C   UNL A   1      40.204  27.107  28.995  1.00  0.00     0.074 A 
ATOM     38  C   UNL A   1      40.781  29.372  29.714  1.00  0.00     0.049 A 
ATOM     39  N   UNL A   1      41.354  26.604  29.268  1.00  0.00    -0.248 NA
ATOM     40  C   UNL A   1      39.328  26.149  28.323  1.00  0.00     0.031 C 
ATOM     41  C   UNL A   1      42.229  29.273  29.488  1.00  0.00     0.029 A 
ATOM     42  N   UNL A   1      40.668  30.643  30.293  1.00  0.00    -0.354 N 
ATOM     43  C   UNL A   1      41.505  25.457  28.534  1.00  0.00     0.074 A 
ATOM     44  C   UNL A   1      40.174  25.137  28.088  1.00  0.00     0.031 C 
ATOM     45  C   UNL A   1      42.867  30.252  30.155  1.00  0.00     0.029 A 
ATOM     46  C   UNL A   1      41.870  30.955  30.942  1.00  0.00     0.049 A 
ATOM     47  H   UNL A   1      39.873  31.223  30.250  1.00  0.00     0.167 HD
ATOM     48  C   UNL A   1      42.776  25.015  28.313  1.00  0.00     0.037 A 
ATOM     49  C   UNL A   1      41.894  31.243  32.268  1.00  0.00     0.037 A 
ATOM     50  C   UNL A   1      43.730  25.782  29.135  1.00  0.00     0.049 A 
ATOM     51  C   UNL A   1      42.676  30.151  32.922  1.00  0.00     0.074 A 
ATOM     52  C   UNL A   1      44.701  26.727  28.851  1.00  0.00     0.029 A 
ATOM     53  N   UNL A   1      43.533  25.834  30.519  1.00  0.00    -0.354 N 
ATOM     54  N   UNL A   1      42.754  28.956  32.398  1.00  0.00    -0.248 NA
ATOM     55  C   UNL A   1      43.557  30.334  34.067  1.00  0.00     0.031 C 
ATOM     56  C   UNL A   1      45.007  27.412  30.069  1.00  0.00     0.029 A 
ATOM     57  C   UNL A   1      44.257  26.859  31.099  1.00  0.00     0.049 A 
ATOM     58  H   UNL A   1      42.951  25.217  31.018  1.00  0.00     0.167 HD
ATOM     59  C   UNL A   1      43.771  28.286  32.992  1.00  0.00     0.074 A 
ATOM     60  C   UNL A   1      44.199  29.151  34.080  1.00  0.00     0.031 C 
ATOM     61  C   UNL A   1      44.223  27.084  32.543  1.00  0.00     0.037 A 
BRANCH  48  62
ATOM     62  C   UNL A   1      43.198  23.998  27.270  1.00  0.00     0.064 A 
ATOM     63  C   UNL A   1      43.936  24.411  26.137  1.00  0.00     0.173 A 
ATOM     64  C   UNL A   1      42.857  22.627  27.271  1.00  0.00     0.173 A 
ATOM     65  F   UNL A   1      44.302  25.691  25.977  1.00  0.00    -0.203 F 
ATOM     66  C   UNL A   1      44.311  23.529  25.115  1.00  0.00     0.198 A 
ATOM     67  C   UNL A   1      43.279  21.736  26.277  1.00  0.00     0.198 A 
ATOM     68  F   UNL A   1      42.051  22.093  28.191  1.00  0.00    -0.203 F 
ATOM     69  F   UNL A   1      44.974  23.991  24.045  1.00  0.00    -0.200 F 
ATOM     70  C   UNL A   1      44.001  22.187  25.195  1.00  0.00     0.200 A 
ATOM     71  F   UNL A   1      42.955  20.438  26.371  1.00  0.00    -0.200 F 
ATOM     72  F   UNL A   1      44.376  21.338  24.229  1.00  0.00    -0.200 F 
ENDBRANCH  48  62
BRANCH  49  73
ATOM     73  C   UNL A   1      40.664  31.968  32.705  1.00  0.00     0.064 A 
ATOM     74  C   UNL A   1      40.530  33.300  32.248  1.00  0.00     0.173 A 
ATOM     75  C   UNL A   1      39.481  31.290  33.039  1.00  0.00     0.173 A 
ATOM     76  F   UNL A   1      41.619  33.987  31.863  1.00  0.00    -0.203 F 
ATOM     77  C   UNL A   1      39.280  33.872  32.006  1.00  0.00     0.198 A 
ATOM     78  C   UNL A   1      38.228  31.863  32.777  1.00  0.00     0.198 A 
ATOM     79  F   UNL A   1      39.527  30.020  33.463  1.00  0.00    -0.203 F 
ATOM     80  F   UNL A   1      39.196  35.061  31.388  1.00  0.00    -0.200 F 
ATOM     81  C   UNL A   1      38.130  33.133  32.229  1.00  0.00     0.200 A 
ATOM     82  F   UNL A   1      37.113  31.134  32.939  1.00  0.00    -0.200 F 
ATOM     83  F   UNL A   1      36.944  33.601  31.808  1.00  0.00    -0.200 F 
ENDBRANCH  49  73
BRANCH  61  84
ATOM     84  C   UNL A   1      44.717  26.042  33.500  1.00  0.00     0.064 A 
ATOM     85  C   UNL A   1      43.856  25.348  34.373  1.00  0.00     0.173 A 
ATOM     86  C   UNL A   1      46.041  25.562  33.429  1.00  0.00     0.173 A 
ATOM     87  F   UNL A   1      42.541  25.608  34.425  1.00  0.00    -0.203 F 
ATOM     88  C   UNL A   1      44.309  24.316  35.186  1.00  0.00     0.198 A 
ATOM     89  C   UNL A   1      46.470  24.479  34.189  1.00  0.00     0.198 A 
ATOM     90  F   UNL A   1      46.941  26.098  32.593  1.00  0.00    -0.203 F 
ATOM     91  F   UNL A   1      43.461  23.730  36.042  1.00  0.00    -0.200 F 
ATOM     92  C   UNL A   1      45.613  23.873  35.086  1.00  0.00     0.200 A 
ATOM     93  F   UNL A   1      47.714  24.009  34.026  1.00  0.00    -0.200 F 
ATOM     94  F   UNL A   1      46.035  22.850  35.836  1.00  0.00    -0.200 F 
ENDBRANCH  61  84
ENDBRANCH  35  36
ENDBRANCH  28  30
ENDBRANCH  27  28
ENDBRANCH  26  27
ENDBRANCH  25  26
ENDBRANCH  24  25
ENDBRANCH   1  24
TORSDOF 17
ENDMDL
MODEL 2
REMARK VINA RESULT:     -11.8      1.674      3.219
REMARK SMILES Cc1ccc(S(=O)(=O)Nc2ccccn2)cc1C(=O)OCCOCCOC(=O)c1ccc(-c2c3nc(c(-c4c(F)c(F)c(F)c(F)c4F)c4ccc([nH]4)c(-c4c(F)c(F)c(F)c(F)c4F)c4nc(c(-c5c(F)c(F)c(F)c(F)c5F)c5ccc2[nH]5)C=C4)C=C3)cc1
REMARK SMILES IDX 22 1 21 2 20 3 18 4 19 5 17 6 1 7 2 8 3 9 4 10 16 11 5 12
REMARK SMILES IDX 6 13 7 14 8 15 9 16 10 18 11 19 15 20 12 21 14 22 13 23
REMARK SMILES IDX 23 24 24 25 25 26 26 27 27 28 28 29 29 30 30 31 91 32 31 33
REMARK SMILES IDX 90 34 32 35 33 36 34 37 84 38 35 39 89 40 83 41 85 42 36 43
REMARK SMILES IDX 88 44 82 45 81 46 37 48 69 49 49 50 68 51 50 52 53 53 67 54
REMARK SMILES IDX 86 55 51 56 52 57 66 59 87 60 54 61 38 62 39 63 47 64 40 65
REMARK SMILES IDX 41 66 45 67 48 68 42 69 43 70 46 71 44 72 70 73 71 74 79 75
REMARK SMILES IDX 72 76 73 77 77 78 80 79 74 80 75 81 78 82 76 83 55 84 56 85
REMARK SMILES IDX 64 86 57 87 58 88 62 89 65 90 59 91 60 92 63 93 61 94
REMARK H PARENT 9 17 85 47 53 58
REMARK Flexibility Score: inf
ROOT
ATOM      1  C   UNL A   1      31.767  27.939  26.854  1.00  0.00     0.202 C 
ENDROOT
BRANCH   1   2
ATOM      2  C   UNL A   1      30.933  26.785  26.421  1.00  0.00     0.261 C 
BRANCH   2   3
ATOM      3  O   UNL A   1      31.500  25.540  26.882  1.00  0.00    -0.460 OA
BRANCH   3   4
ATOM      4  C   UNL A   1      31.331  24.388  26.195  1.00  0.00     0.338 C 
ATOM      5  O   UNL A   1      30.366  23.655  26.241  1.00  0.00    -0.246 OA
BRANCH   4   6
ATOM      6  C   UNL A   1      32.456  24.212  25.232  1.00  0.00     0.064 A 
ATOM      7  C   UNL A   1      34.209  23.145  26.853  1.00  0.00     0.045 C 
ATOM      8  C   UNL A   1      33.765  23.796  25.564  1.00  0.00    -0.036 A 
ATOM      9  C   UNL A   1      34.768  23.955  24.593  1.00  0.00     0.006 A 
ATOM     10  C   UNL A   1      34.506  24.582  23.375  1.00  0.00     0.022 A 
ATOM     11  C   UNL A   1      32.175  24.716  23.945  1.00  0.00     0.038 A 
ATOM     12  C   UNL A   1      33.209  24.989  23.060  1.00  0.00     0.088 A 
BRANCH  12  13
ATOM     13  S   UNL A   1      33.023  26.032  21.629  1.00  0.00     0.263 S 
ATOM     14  O   UNL A   1      33.986  27.100  21.798  1.00  0.00    -0.201 OA
ATOM     15  O   UNL A   1      33.086  25.148  20.483  1.00  0.00    -0.201 OA
BRANCH  13  16
ATOM     16  N   UNL A   1      31.504  26.682  21.607  1.00  0.00    -0.263 N 
ATOM     17  H   UNL A   1      30.842  26.258  21.014  1.00  0.00     0.182 HD
BRANCH  16  18
ATOM     18  C   UNL A   1      31.077  27.784  22.356  1.00  0.00     0.139 A 
ATOM     19  C   UNL A   1      31.852  28.551  23.206  1.00  0.00     0.048 A 
ATOM     20  N   UNL A   1      29.767  28.004  22.127  1.00  0.00    -0.239 NA
ATOM     21  C   UNL A   1      31.223  29.589  23.894  1.00  0.00     0.005 A 
ATOM     22  C   UNL A   1      29.185  29.004  22.821  1.00  0.00     0.113 A 
ATOM     23  C   UNL A   1      29.864  29.815  23.711  1.00  0.00     0.020 A 
ENDBRANCH  16  18
ENDBRANCH  13  16
ENDBRANCH  12  13
ENDBRANCH   4   6
ENDBRANCH   3   4
ENDBRANCH   2   3
ENDBRANCH   1   2
BRANCH   1  24
ATOM     24  O   UNL A   1      33.035  27.561  26.362  1.00  0.00    -0.374 OA
BRANCH  24  25
ATOM     25  C   UNL A   1      33.999  28.552  26.372  1.00  0.00     0.202 C 
BRANCH  25  26
ATOM     26  C   UNL A   1      33.501  29.908  26.834  1.00  0.00     0.261 C 
BRANCH  26  27
ATOM     27  O   UNL A   1      34.333  30.950  27.447  1.00  0.00    -0.460 OA
BRANCH  27  28
ATOM     28  C   UNL A   1      35.499  31.268  28.036  1.00  0.00     0.338 C 
ATOM     29  O   UNL A   1      35.732  32.446  28.299  1.00  0.00    -0.246 OA
BRANCH  28  30
ATOM     30  C   UNL A   1      36.572  30.297  28.322  1.00  0.00     0.060 A 
ATOM     31  C   UNL A   1      36.614  29.681  29.598  1.00  0.00     0.016 A 
ATOM     32  C   UNL A   1      37.546  29.998  27.386  1.00  0.00     0.016 A 
ATOM     33  C   UNL A   1      37.719  28.916  30.000  1.00  0.00     0.010 A 
ATOM     34  C   UNL A   1      38.662  29.285  27.803  1.00  0.00     0.010 A 
ATOM     35  C   UNL A   1      38.787  28.787  29.121  1.00  0.00    -0.014 A 
BRANCH  35  36
ATOM     36  C   UNL A   1      40.126  28.287  29.472  1.00  0.00     0.031 A 
ATOM     37  C   UNL A   1      40.494  26.918  29.050  1.00  0.00     0.074 A 
ATOM     38  C   UNL A   1      41.109  29.142  29.863  1.00  0.00     0.049 A 
ATOM     39  N   UNL A   1      41.635  26.384  29.305  1.00  0.00    -0.248 NA
ATOM     40  C   UNL A   1      39.603  26.004  28.338  1.00  0.00     0.031 C 
ATOM     41  C   UNL A   1      42.555  29.026  29.636  1.00  0.00     0.029 A 
ATOM     42  N   UNL A   1      41.016  30.390  30.493  1.00  0.00    -0.354 N 
ATOM     43  C   UNL A   1      41.767  25.266  28.525  1.00  0.00     0.074 A 
ATOM     44  C   UNL A   1      40.432  24.988  28.063  1.00  0.00     0.031 C 
ATOM     45  C   UNL A   1      43.209  29.966  30.344  1.00  0.00     0.029 A 
ATOM     46  C   UNL A   1      42.222  30.653  31.156  1.00  0.00     0.049 A 
ATOM     47  H   UNL A   1      40.232  30.985  30.472  1.00  0.00     0.167 HD
ATOM     48  C   UNL A   1      43.031  24.811  28.290  1.00  0.00     0.037 A 
ATOM     49  C   UNL A   1      42.247  30.887  32.494  1.00  0.00     0.037 A 
ATOM     50  C   UNL A   1      43.996  25.527  29.144  1.00  0.00     0.049 A 
ATOM     51  C   UNL A   1      43.007  29.755  33.104  1.00  0.00     0.074 A 
ATOM     52  C   UNL A   1      44.985  26.465  28.902  1.00  0.00     0.029 A 
ATOM     53  N   UNL A   1      43.796  25.526  30.529  1.00  0.00    -0.354 N 
ATOM     54  N   UNL A   1      43.066  28.582  32.532  1.00  0.00    -0.248 NA
ATOM     55  C   UNL A   1      43.888  29.877  34.258  1.00  0.00     0.031 C 
ATOM     56  C   UNL A   1      45.299  27.094  30.147  1.00  0.00     0.029 A 
ATOM     57  C   UNL A   1      44.536  26.513  31.152  1.00  0.00     0.049 A 
ATOM     58  H   UNL A   1      43.202  24.899  31.001  1.00  0.00     0.167 HD
ATOM     59  C   UNL A   1      44.069  27.870  33.101  1.00  0.00     0.074 A 
ATOM     60  C   UNL A   1      44.509  28.683  34.224  1.00  0.00     0.031 C 
ATOM     61  C   UNL A   1      44.501  26.680  32.604  1.00  0.00     0.037 A 
BRANCH  48  62
ATOM     62  C   UNL A   1      43.438  23.830  27.207  1.00  0.00     0.064 A 
ATOM     63  C   UNL A   1      44.165  24.280  26.081  1.00  0.00     0.173 A 
ATOM     64  C   UNL A   1      43.092  22.460  27.163  1.00  0.00     0.173 A 
ATOM     65  F   UNL A   1      44.534  25.563  25.962  1.00  0.00    -0.203 F 
ATOM     66  C   UNL A   1      44.527  23.433  25.025  1.00  0.00     0.198 A 
ATOM     67  C   UNL A   1      43.501  21.604  26.135  1.00  0.00     0.198 A 
ATOM     68  F   UNL A   1      42.294  21.897  28.073  1.00  0.00    -0.203 F 
ATOM     69  F   UNL A   1      45.179  23.931  23.965  1.00  0.00    -0.200 F 
ATOM     70  C   UNL A   1      44.213  22.090  25.061  1.00  0.00     0.200 A 
ATOM     71  F   UNL A   1      43.173  20.304  26.186  1.00  0.00    -0.200 F 
ATOM     72  F   UNL A   1      44.574  21.275  24.062  1.00  0.00    -0.200 F 
ENDBRANCH  48  62
BRANCH  49  73
ATOM     73  C   UNL A   1      41.028  31.615  32.957  1.00  0.00     0.064 A 
ATOM     74  C   UNL A   1      40.963  32.991  32.632  1.00  0.00     0.173 A 
ATOM     75  C   UNL A   1      39.809  30.957  33.179  1.00  0.00     0.173 A 
ATOM     76  F   UNL A   1      42.092  33.666  32.357  1.00  0.00    -0.203 F 
ATOM     77  C   UNL A   1      39.746  33.635  32.404  1.00  0.00     0.198 A 
ATOM     78  C   UNL A   1      38.589  31.604  32.931  1.00  0.00     0.198 A 
ATOM     79  F   UNL A   1      39.790  29.650  33.473  1.00  0.00    -0.203 F 
ATOM     80  F   UNL A   1      39.731  34.881  31.905  1.00  0.00    -0.200 F 
ATOM     81  C   UNL A   1      38.561  32.925  32.510  1.00  0.00     0.200 A 
ATOM     82  F   UNL A   1      37.442  30.910  32.979  1.00  0.00    -0.200 F 
ATOM     83  F   UNL A   1      37.411  33.481  32.096  1.00  0.00    -0.200 F 
ENDBRANCH  49  73
BRANCH  61  84
ATOM     84  C   UNL A   1      44.974  25.591  33.519  1.00  0.00     0.064 A 
ATOM     85  C   UNL A   1      44.089  24.831  34.309  1.00  0.00     0.173 A 
ATOM     86  C   UNL A   1      46.309  25.140  33.479  1.00  0.00     0.173 A 
ATOM     87  F   UNL A   1      42.769  25.063  34.317  1.00  0.00    -0.203 F 
ATOM     88  C   UNL A   1      44.527  23.759  35.079  1.00  0.00     0.198 A 
ATOM     89  C   UNL A   1      46.726  24.021  34.192  1.00  0.00     0.198 A 
ATOM     90  F   UNL A   1      47.234  25.741  32.718  1.00  0.00    -0.203 F 
ATOM     91  F   UNL A   1      43.655  23.108  35.860  1.00  0.00    -0.200 F 
ATOM     92  C   UNL A   1      45.843  23.347  35.012  1.00  0.00     0.200 A 
ATOM     93  F   UNL A   1      47.985  23.584  34.058  1.00  0.00    -0.200 F 
ATOM     94  F   UNL A   1      46.252  22.288  35.718  1.00  0.00    -0.200 F 
ENDBRANCH  61  84
ENDBRANCH  35  36
ENDBRANCH  28  30
ENDBRANCH  27  28
ENDBRANCH  26  27
ENDBRANCH  25  26
ENDBRANCH  24  25
ENDBRANCH   1  24
TORSDOF 17
ENDMDL
MODEL 3
REMARK VINA RESULT:     -11.7      1.832      2.606
REMARK SMILES Cc1ccc(S(=O)(=O)Nc2ccccn2)cc1C(=O)OCCOCCOC(=O)c1ccc(-c2c3nc(c(-c4c(F)c(F)c(F)c(F)c4F)c4ccc([nH]4)c(-c4c(F)c(F)c(F)c(F)c4F)c4nc(c(-c5c(F)c(F)c(F)c(F)c5F)c5ccc2[nH]5)C=C4)C=C3)cc1
REMARK SMILES IDX 22 1 21 2 20 3 18 4 19 5 17 6 1 7 2 8 3 9 4 10 16 11 5 12
REMARK SMILES IDX 6 13 7 14 8 15 9 16 10 18 11 19 15 20 12 21 14 22 13 23
REMARK SMILES IDX 23 24 24 25 25 26 26 27 27 28 28 29 29 30 30 31 91 32 31 33
REMARK SMILES IDX 90 34 32 35 33 36 34 37 84 38 35 39 89 40 83 41 85 42 36 43
REMARK SMILES IDX 88 44 82 45 81 46 37 48 69 49 49 50 68 51 50 52 53 53 67 54
REMARK SMILES IDX 86 55 51 56 52 57 66 59 87 60 54 61 38 62 39 63 47 64 40 65
REMARK SMILES IDX 41 66 45 67 48 68 42 69 43 70 46 71 44 72 70 73 71 74 79 75
REMARK SMILES IDX 72 76 73 77 77 78 80 79 74 80 75 81 78 82 76 83 55 84 56 85
REMARK SMILES IDX 64 86 57 87 58 88 62 89 65 90 59 91 60 92 63 93 61 94
REMARK H PARENT 9 17 85 47 53 58
REMARK Flexibility Score: inf
ROOT
ATOM      1  C   UNL A   1      31.815  28.298  27.332  1.00  0.00     0.202 C 
ENDROOT
BRANCH   1   2
ATOM      2  C   UNL A   1      31.167  27.114  26.705  1.00  0.00     0.261 C 
BRANCH   2   3
ATOM      3  O   UNL A   1      31.602  26.955  25.339  1.00  0.00    -0.460 OA
BRANCH   3   4
ATOM      4  C   UNL A   1      31.314  25.840  24.630  1.00  0.00     0.338 C 
ATOM      5  O   UNL A   1      30.248  25.563  24.123  1.00  0.00    -0.246 OA
BRANCH   4   6
ATOM      6  C   UNL A   1      32.558  25.045  24.422  1.00  0.00     0.064 A 
ATOM      7  C   UNL A   1      33.159  25.858  22.012  1.00  0.00     0.045 C 
ATOM      8  C   UNL A   1      33.283  24.951  23.213  1.00  0.00    -0.036 A 
ATOM      9  C   UNL A   1      34.259  23.945  23.111  1.00  0.00     0.006 A 
ATOM     10  C   UNL A   1      34.447  23.011  24.130  1.00  0.00     0.022 A 
ATOM     11  C   UNL A   1      32.855  24.182  25.499  1.00  0.00     0.038 A 
ATOM     12  C   UNL A   1      33.722  23.113  25.318  1.00  0.00     0.088 A 
BRANCH  12  13
ATOM     13  S   UNL A   1      33.811  21.726  26.431  1.00  0.00     0.263 S 
ATOM     14  O   UNL A   1      35.065  21.066  26.132  1.00  0.00    -0.201 OA
ATOM     15  O   UNL A   1      33.548  22.260  27.753  1.00  0.00    -0.201 OA
BRANCH  13  16
ATOM     16  N   UNL A   1      32.571  20.680  26.119  1.00  0.00    -0.263 N 
ATOM     17  H   UNL A   1      31.756  20.774  26.664  1.00  0.00     0.182 HD
BRANCH  16  18
ATOM     18  C   UNL A   1      32.577  19.673  25.148  1.00  0.00     0.139 A 
ATOM     19  C   UNL A   1      32.556  19.851  23.777  1.00  0.00     0.048 A 
ATOM     20  N   UNL A   1      32.611  18.468  25.750  1.00  0.00    -0.239 NA
ATOM     21  C   UNL A   1      32.529  18.709  22.977  1.00  0.00     0.005 A 
ATOM     22  C   UNL A   1      32.565  17.383  24.949  1.00  0.00     0.113 A 
ATOM     23  C   UNL A   1      32.520  17.451  23.569  1.00  0.00     0.020 A 
ENDBRANCH  16  18
ENDBRANCH  13  16
ENDBRANCH  12  13
ENDBRANCH   4   6
ENDBRANCH   3   4
ENDBRANCH   2   3
ENDBRANCH   1   2
BRANCH   1  24
ATOM     24  O   UNL A   1      31.851  29.198  26.245  1.00  0.00    -0.374 OA
BRANCH  24  25
ATOM     25  C   UNL A   1      32.734  30.254  26.375  1.00  0.00     0.202 C 
BRANCH  25  26
ATOM     26  C   UNL A   1      34.040  29.902  27.062  1.00  0.00     0.261 C 
BRANCH  26  27
ATOM     27  O   UNL A   1      34.963  30.868  27.667  1.00  0.00    -0.460 OA
BRANCH  27  28
ATOM     28  C   UNL A   1      36.086  31.070  28.378  1.00  0.00     0.338 C 
ATOM     29  O   UNL A   1      36.313  32.190  28.831  1.00  0.00    -0.246 OA
BRANCH  28  30
ATOM     30  C   UNL A   1      37.125  30.043  28.590  1.00  0.00     0.060 A 
ATOM     31  C   UNL A   1      37.140  29.330  29.815  1.00  0.00     0.016 A 
ATOM     32  C   UNL A   1      38.092  29.785  27.636  1.00  0.00     0.016 A 
ATOM     33  C   UNL A   1      38.217  28.499  30.159  1.00  0.00     0.010 A 
ATOM     34  C   UNL A   1      39.182  29.004  27.999  1.00  0.00     0.010 A 
ATOM     35  C   UNL A   1      39.284  28.402  29.274  1.00  0.00    -0.014 A 
BRANCH  35  36
ATOM     36  C   UNL A   1      40.604  27.832  29.588  1.00  0.00     0.031 A 
ATOM     37  C   UNL A   1      40.940  26.502  29.036  1.00  0.00     0.074 A 
ATOM     38  C   UNL A   1      41.605  28.615  30.073  1.00  0.00     0.049 A 
ATOM     39  N   UNL A   1      42.062  25.912  29.249  1.00  0.00    -0.248 NA
ATOM     40  C   UNL A   1      40.035  25.689  28.226  1.00  0.00     0.031 C 
ATOM     41  C   UNL A   1      43.050  28.481  29.852  1.00  0.00     0.029 A 
ATOM     42  N   UNL A   1      41.538  29.797  30.824  1.00  0.00    -0.354 N 
ATOM     43  C   UNL A   1      42.175  24.874  28.363  1.00  0.00     0.074 A 
ATOM     44  C   UNL A   1      40.839  24.682  27.861  1.00  0.00     0.031 C 
ATOM     45  C   UNL A   1      43.719  29.326  30.657  1.00  0.00     0.029 A 
ATOM     46  C   UNL A   1      42.740  29.958  31.523  1.00  0.00     0.049 A 
ATOM     47  H   UNL A   1      40.771  30.413  30.854  1.00  0.00     0.167 HD
ATOM     48  C   UNL A   1      43.428  24.409  28.097  1.00  0.00     0.037 A 
ATOM     49  C   UNL A   1      42.754  30.057  32.878  1.00  0.00     0.037 A 
ATOM     50  C   UNL A   1      44.401  25.008  29.029  1.00  0.00     0.049 A 
ATOM     51  C   UNL A   1      43.474  28.848  33.380  1.00  0.00     0.074 A 
ATOM     52  C   UNL A   1      45.418  25.937  28.892  1.00  0.00     0.029 A 
ATOM     53  N   UNL A   1      44.182  24.875  30.405  1.00  0.00    -0.354 N 
ATOM     54  N   UNL A   1      43.509  27.736  32.694  1.00  0.00    -0.248 NA
ATOM     55  C   UNL A   1      44.342  28.829  34.549  1.00  0.00     0.031 C 
ATOM     56  C   UNL A   1      45.732  26.430  30.197  1.00  0.00     0.029 A 
ATOM     57  C   UNL A   1      44.940  25.774  31.131  1.00  0.00     0.049 A 
ATOM     58  H   UNL A   1      43.564  24.222  30.805  1.00  0.00     0.167 HD
ATOM     59  C   UNL A   1      44.484  26.943  33.200  1.00  0.00     0.074 A 
ATOM     60  C   UNL A   1      44.931  27.627  34.404  1.00  0.00     0.031 C 
ATOM     61  C   UNL A   1      44.890  25.796  32.592  1.00  0.00     0.037 A 
BRANCH  48  62
ATOM     62  C   UNL A   1      43.824  23.529  26.926  1.00  0.00     0.064 A 
ATOM     63  C   UNL A   1      43.348  22.200  26.847  1.00  0.00     0.173 A 
ATOM     64  C   UNL A   1      44.716  23.888  25.890  1.00  0.00     0.173 A 
ATOM     65  F   UNL A   1      42.522  21.703  27.778  1.00  0.00    -0.203 F 
ATOM     66  C   UNL A   1      43.718  21.324  25.818  1.00  0.00     0.198 A 
ATOM     67  C   UNL A   1      45.040  23.030  24.833  1.00  0.00     0.198 A 
ATOM     68  F   UNL A   1      45.364  25.055  25.879  1.00  0.00    -0.203 F 
ATOM     69  F   UNL A   1      43.266  20.062  25.823  1.00  0.00    -0.200 F 
ATOM     70  C   UNL A   1      44.547  21.745  24.799  1.00  0.00     0.200 A 
ATOM     71  F   UNL A   1      45.859  23.458  23.860  1.00  0.00    -0.200 F 
ATOM     72  F   UNL A   1      44.886  20.915  23.804  1.00  0.00    -0.200 F 
ENDBRANCH  48  62
BRANCH  49  73
ATOM     73  C   UNL A   1      41.550  30.769  33.398  1.00  0.00     0.064 A 
ATOM     74  C   UNL A   1      41.556  32.178  33.270  1.00  0.00     0.173 A 
ATOM     75  C   UNL A   1      40.295  30.146  33.482  1.00  0.00     0.173 A 
ATOM     76  F   UNL A   1      42.723  32.832  33.133  1.00  0.00    -0.203 F 
ATOM     77  C   UNL A   1      40.377  32.906  33.095  1.00  0.00     0.198 A 
ATOM     78  C   UNL A   1      39.115  30.879  33.287  1.00  0.00     0.198 A 
ATOM     79  F   UNL A   1      40.209  28.813  33.586  1.00  0.00    -0.203 F 
ATOM     80  F   UNL A   1      40.436  34.209  32.779  1.00  0.00    -0.200 F 
ATOM     81  C   UNL A   1      39.160  32.246  33.058  1.00  0.00     0.200 A 
ATOM     82  F   UNL A   1      37.939  30.240  33.196  1.00  0.00    -0.200 F 
ATOM     83  F   UNL A   1      38.053  32.909  32.688  1.00  0.00    -0.200 F 
ENDBRANCH  49  73
BRANCH  61  84
ATOM     84  C   UNL A   1      45.321  24.608  33.398  1.00  0.00     0.064 A 
ATOM     85  C   UNL A   1      44.469  23.512  33.642  1.00  0.00     0.173 A 
ATOM     86  C   UNL A   1      46.667  24.441  33.781  1.00  0.00     0.173 A 
ATOM     87  F   UNL A   1      43.205  23.485  33.196  1.00  0.00    -0.203 F 
ATOM     88  C   UNL A   1      44.909  22.374  34.307  1.00  0.00     0.198 A 
ATOM     89  C   UNL A   1      47.120  23.269  34.377  1.00  0.00     0.198 A 
ATOM     90  F   UNL A   1      47.588  25.387  33.548  1.00  0.00    -0.203 F 
ATOM     91  F   UNL A   1      44.043  21.386  34.568  1.00  0.00    -0.200 F 
ATOM     92  C   UNL A   1      46.237  22.247  34.665  1.00  0.00     0.200 A 
ATOM     93  F   UNL A   1      48.423  23.126  34.648  1.00  0.00    -0.200 F 
ATOM     94  F   UNL A   1      46.668  21.132  35.263  1.00  0.00    -0.200 F 
ENDBRANCH  61  84
ENDBRANCH  35  36
ENDBRANCH  28  30
ENDBRANCH  27  28
ENDBRANCH  26  27
ENDBRANCH  25  26
ENDBRANCH  24  25
ENDBRANCH   1  24
TORSDOF 17
ENDMDL
