MODEL 1
REMARK VINA RESULT:     -11.5      0.000      0.000
REMARK SMILES CCCCCCCNC(=O)Oc1cccc(-c2ccc([C@@H](C)C(=O)OCCOCCOC(=O)c3ccc(-c4c5nc(c(-c6c(F)c(F)c(F)c(F)c6F)c6ccc([nH]6)c(-c6c(F)c(F)c(F)c(F)c6F)c6nc(c(-c7c(F)c(F)c(F)c(F)c7F)c7ccc4[nH]7)C=C6)C=C5)cc3)cc2F)c1
REMARK SMILES IDX 23 1 24 2 21 3 22 4 20 5 17 6 18 7 98 8 19 9 97 10 99 11
REMARK SMILES IDX 16 12 12 13 13 14 100 15 14 16 15 17 11 18 9 19 8 20 10 22
REMARK SMILES IDX 7 23 6 24 5 25 4 26 3 27 2 28 1 29 25 30 26 31 27 32 28 33
REMARK SMILES IDX 29 34 30 35 31 36 32 37 33 38 34 39 35 40 96 41 36 42 95 43
REMARK SMILES IDX 37 44 38 45 39 46 89 47 40 48 94 49 88 50 90 51 41 52 93 53
REMARK SMILES IDX 87 54 86 55 42 57 74 58 54 59 73 60 55 61 58 62 72 63 91 64
REMARK SMILES IDX 56 65 57 66 71 68 92 69 59 70 43 71 44 72 52 73 45 74 46 75
REMARK SMILES IDX 50 76 53 77 47 78 48 79 51 80 49 81 75 82 76 83 84 84 77 85
REMARK SMILES IDX 78 86 82 87 85 88 79 89 80 90 83 91 81 92 60 93 61 94 69 95
REMARK SMILES IDX 62 96 63 97 67 98 70 99 64 100 65 101 68 102 66 103
REMARK H PARENT 8 21 90 56 58 67
REMARK Flexibility Score: inf
ROOT
ATOM      1  C   UNL A   1      40.998  21.115  26.789  1.00  0.00     0.313 C 
ATOM      2  O   UNL A   1      40.876  20.437  27.805  1.00  0.00    -0.252 OA
ENDROOT
BRANCH   1   3
ATOM      3  C   UNL A   1      40.229  22.413  26.598  1.00  0.00     0.126 C 
ATOM      4  C   UNL A   1      40.366  23.264  27.857  1.00  0.00     0.025 C 
BRANCH   3   5
ATOM      5  C   UNL A   1      38.780  22.329  26.125  1.00  0.00    -0.031 A 
ATOM      6  C   UNL A   1      36.159  22.144  25.000  1.00  0.00     0.018 A 
ATOM      7  C   UNL A   1      36.633  23.344  25.555  1.00  0.00     0.012 A 
ATOM      8  C   UNL A   1      37.009  21.033  25.064  1.00  0.00     0.131 A 
ATOM      9  C   UNL A   1      37.922  23.438  26.107  1.00  0.00     0.005 A 
ATOM     10  C   UNL A   1      38.292  21.117  25.613  1.00  0.00     0.044 A 
ATOM     11  F   UNL A   1      36.625  19.854  24.552  1.00  0.00    -0.206 F 
BRANCH   6  12
ATOM     12  C   UNL A   1      34.847  22.076  24.330  1.00  0.00    -0.012 A 
ATOM     13  C   UNL A   1      33.164  22.988  22.834  1.00  0.00     0.133 A 
ATOM     14  C   UNL A   1      32.284  21.953  23.140  1.00  0.00     0.047 A 
ATOM     15  C   UNL A   1      34.426  23.066  23.429  1.00  0.00     0.056 A 
ATOM     16  C   UNL A   1      32.684  20.963  24.031  1.00  0.00     0.004 A 
ATOM     17  C   UNL A   1      33.953  21.024  24.617  1.00  0.00     0.009 A 
BRANCH  13  18
ATOM     18  O   UNL A   1      32.676  24.006  21.999  1.00  0.00    -0.410 OA
BRANCH  18  19
ATOM     19  C   UNL A   1      32.995  25.314  22.330  1.00  0.00     0.412 C 
ATOM     20  N   UNL A   1      32.049  25.921  23.109  1.00  0.00    -0.321 N 
ATOM     21  H   UNL A   1      32.238  26.845  23.387  1.00  0.00     0.167 HD
ATOM     22  O   UNL A   1      34.001  25.922  21.976  1.00  0.00    -0.224 OA
BRANCH  20  23
ATOM     23  C   UNL A   1      30.798  25.350  23.571  1.00  0.00     0.119 C 
BRANCH  23  24
ATOM     24  C   UNL A   1      29.655  26.365  23.544  1.00  0.00     0.021 C 
BRANCH  24  25
ATOM     25  C   UNL A   1      30.092  27.828  23.396  1.00  0.00     0.002 C 
BRANCH  25  26
ATOM     26  C   UNL A   1      28.961  28.834  23.157  1.00  0.00     0.000 C 
BRANCH  26  27
ATOM     27  C   UNL A   1      29.411  30.262  22.832  1.00  0.00    -0.000 C 
BRANCH  27  28
ATOM     28  C   UNL A   1      28.330  31.338  22.964  1.00  0.00    -0.003 C 
ATOM     29  C   UNL A   1      28.744  32.686  22.392  1.00  0.00     0.004 C 
ENDBRANCH  27  28
ENDBRANCH  26  27
ENDBRANCH  25  26
ENDBRANCH  24  25
ENDBRANCH  23  24
ENDBRANCH  20  23
ENDBRANCH  18  19
ENDBRANCH  13  18
ENDBRANCH   6  12
ENDBRANCH   3   5
ENDBRANCH   1   3
BRANCH   1  30
ATOM     30  O   UNL A   1      41.779  20.777  25.730  1.00  0.00    -0.463 OA
BRANCH  30  31
ATOM     31  C   UNL A   1      42.760  19.753  25.977  1.00  0.00     0.261 C 
BRANCH  31  32
ATOM     32  C   UNL A   1      44.136  20.165  25.448  1.00  0.00     0.202 C 
BRANCH  32  33
ATOM     33  O   UNL A   1      44.153  20.855  24.200  1.00  0.00    -0.374 OA
BRANCH  33  34
ATOM     34  C   UNL A   1      44.724  22.163  24.176  1.00  0.00     0.202 C 
BRANCH  34  35
ATOM     35  C   UNL A   1      44.199  23.165  25.212  1.00  0.00     0.261 C 
BRANCH  35  36
ATOM     36  O   UNL A   1      43.871  24.439  24.628  1.00  0.00    -0.460 OA
BRANCH  36  37
ATOM     37  C   UNL A   1      44.535  25.493  25.165  1.00  0.00     0.338 C 
ATOM     38  O   UNL A   1      45.614  25.940  24.824  1.00  0.00    -0.246 OA
BRANCH  37  39
ATOM     39  C   UNL A   1      43.670  26.192  26.136  1.00  0.00     0.060 A 
ATOM     40  C   UNL A   1      43.956  27.539  26.392  1.00  0.00     0.016 A 
ATOM     41  C   UNL A   1      42.661  25.534  26.842  1.00  0.00     0.016 A 
ATOM     42  C   UNL A   1      43.271  28.222  27.393  1.00  0.00     0.010 A 
ATOM     43  C   UNL A   1      41.976  26.221  27.853  1.00  0.00     0.010 A 
ATOM     44  C   UNL A   1      42.303  27.557  28.158  1.00  0.00    -0.014 A 
BRANCH  44  45
ATOM     45  C   UNL A   1      41.744  28.228  29.358  1.00  0.00     0.031 A 
ATOM     46  C   UNL A   1      42.451  28.080  30.677  1.00  0.00     0.074 A 
ATOM     47  C   UNL A   1      40.651  29.005  29.263  1.00  0.00     0.049 A 
ATOM     48  N   UNL A   1      42.141  28.582  31.847  1.00  0.00    -0.248 NA
ATOM     49  C   UNL A   1      43.671  27.260  30.678  1.00  0.00     0.031 C 
ATOM     50  C   UNL A   1      39.902  29.262  28.035  1.00  0.00     0.029 A 
ATOM     51  N   UNL A   1      39.981  29.723  30.223  1.00  0.00    -0.354 N 
ATOM     52  C   UNL A   1      43.125  28.138  32.720  1.00  0.00     0.074 A 
ATOM     53  C   UNL A   1      44.023  27.299  31.956  1.00  0.00     0.031 C 
ATOM     54  C   UNL A   1      38.871  30.077  28.315  1.00  0.00     0.029 A 
ATOM     55  C   UNL A   1      38.871  30.374  29.747  1.00  0.00     0.049 A 
ATOM     56  H   UNL A   1      40.270  29.766  31.162  1.00  0.00     0.167 HD
ATOM     57  C   UNL A   1      43.272  28.412  34.039  1.00  0.00     0.037 A 
ATOM     58  C   UNL A   1      37.949  31.112  30.396  1.00  0.00     0.037 A 
ATOM     59  C   UNL A   1      42.381  29.247  34.800  1.00  0.00     0.049 A 
ATOM     60  C   UNL A   1      38.095  31.341  31.879  1.00  0.00     0.074 A 
ATOM     61  C   UNL A   1      42.458  29.601  36.135  1.00  0.00     0.029 A 
ATOM     62  N   UNL A   1      41.241  29.854  34.292  1.00  0.00    -0.354 N 
ATOM     63  N   UNL A   1      39.042  30.939  32.691  1.00  0.00    -0.248 NA
ATOM     64  C   UNL A   1      37.043  32.133  32.533  1.00  0.00     0.031 C 
ATOM     65  C   UNL A   1      41.338  30.379  36.449  1.00  0.00     0.029 A 
ATOM     66  C   UNL A   1      40.591  30.556  35.295  1.00  0.00     0.049 A 
ATOM     67  H   UNL A   1      40.938  29.795  33.357  1.00  0.00     0.167 HD
ATOM     68  C   UNL A   1      38.716  31.448  33.942  1.00  0.00     0.074 A 
ATOM     69  C   UNL A   1      37.492  32.203  33.779  1.00  0.00     0.031 C 
ATOM     70  C   UNL A   1      39.374  31.305  35.119  1.00  0.00     0.037 A 
BRANCH  57  71
ATOM     71  C   UNL A   1      44.431  27.780  34.753  1.00  0.00     0.064 A 
ATOM     72  C   UNL A   1      45.641  28.464  34.946  1.00  0.00     0.173 A 
ATOM     73  C   UNL A   1      44.317  26.486  35.284  1.00  0.00     0.173 A 
ATOM     74  F   UNL A   1      45.804  29.699  34.449  1.00  0.00    -0.203 F 
ATOM     75  C   UNL A   1      46.701  27.867  35.625  1.00  0.00     0.198 A 
ATOM     76  C   UNL A   1      45.369  25.904  35.986  1.00  0.00     0.198 A 
ATOM     77  F   UNL A   1      43.180  25.790  35.132  1.00  0.00    -0.203 F 
ATOM     78  F   UNL A   1      47.862  28.523  35.761  1.00  0.00    -0.200 F 
ATOM     79  C   UNL A   1      46.562  26.591  36.150  1.00  0.00     0.200 A 
ATOM     80  F   UNL A   1      45.227  24.675  36.504  1.00  0.00    -0.200 F 
ATOM     81  F   UNL A   1      47.579  26.021  36.809  1.00  0.00    -0.200 F 
ENDBRANCH  57  71
BRANCH  58  82
ATOM     82  C   UNL A   1      36.794  31.680  29.653  1.00  0.00     0.064 A 
ATOM     83  C   UNL A   1      35.754  30.861  29.193  1.00  0.00     0.173 A 
ATOM     84  C   UNL A   1      36.718  33.052  29.371  1.00  0.00     0.173 A 
ATOM     85  F   UNL A   1      35.795  29.539  29.415  1.00  0.00    -0.203 F 
ATOM     86  C   UNL A   1      34.691  31.390  28.463  1.00  0.00     0.198 A 
ATOM     87  C   UNL A   1      35.640  33.584  28.666  1.00  0.00     0.198 A 
ATOM     88  F   UNL A   1      37.690  33.879  29.785  1.00  0.00    -0.203 F 
ATOM     89  F   UNL A   1      33.734  30.578  27.994  1.00  0.00    -0.200 F 
ATOM     90  C   UNL A   1      34.632  32.752  28.206  1.00  0.00     0.200 A 
ATOM     91  F   UNL A   1      35.582  34.902  28.430  1.00  0.00    -0.200 F 
ATOM     92  F   UNL A   1      33.608  33.260  27.507  1.00  0.00    -0.200 F 
ENDBRANCH  58  82
BRANCH  70  93
ATOM     93  C   UNL A   1      38.798  32.000  36.320  1.00  0.00     0.064 A 
ATOM     94  C   UNL A   1      37.931  31.345  37.207  1.00  0.00     0.173 A 
ATOM     95  C   UNL A   1      39.145  33.330  36.605  1.00  0.00     0.173 A 
ATOM     96  F   UNL A   1      37.556  30.078  36.972  1.00  0.00    -0.203 F 
ATOM     97  C   UNL A   1      37.413  32.003  38.319  1.00  0.00     0.198 A 
ATOM     98  C   UNL A   1      38.649  33.975  37.734  1.00  0.00     0.198 A 
ATOM     99  F   UNL A   1      39.976  34.001  35.793  1.00  0.00    -0.203 F 
ATOM    100  F   UNL A   1      36.547  31.372  39.125  1.00  0.00    -0.200 F 
ATOM    101  C   UNL A   1      37.776  33.315  38.586  1.00  0.00     0.200 A 
ATOM    102  F   UNL A   1      39.013  35.238  37.998  1.00  0.00    -0.200 F 
ATOM    103  F   UNL A   1      37.280  33.944  39.660  1.00  0.00    -0.200 F 
ENDBRANCH  70  93
ENDBRANCH  44  45
ENDBRANCH  37  39
ENDBRANCH  36  37
ENDBRANCH  35  36
ENDBRANCH  34  35
ENDBRANCH  33  34
ENDBRANCH  32  33
ENDBRANCH  31  32
ENDBRANCH  30  31
ENDBRANCH   1  30
TORSDOF 24
ENDMDL
MODEL 2
REMARK VINA RESULT:     -11.2      1.744      3.194
REMARK SMILES CCCCCCCNC(=O)Oc1cccc(-c2ccc([C@@H](C)C(=O)OCCOCCOC(=O)c3ccc(-c4c5nc(c(-c6c(F)c(F)c(F)c(F)c6F)c6ccc([nH]6)c(-c6c(F)c(F)c(F)c(F)c6F)c6nc(c(-c7c(F)c(F)c(F)c(F)c7F)c7ccc4[nH]7)C=C6)C=C5)cc3)cc2F)c1
REMARK SMILES IDX 23 1 24 2 21 3 22 4 20 5 17 6 18 7 98 8 19 9 97 10 99 11
REMARK SMILES IDX 16 12 12 13 13 14 100 15 14 16 15 17 11 18 9 19 8 20 10 22
REMARK SMILES IDX 7 23 6 24 5 25 4 26 3 27 2 28 1 29 25 30 26 31 27 32 28 33
REMARK SMILES IDX 29 34 30 35 31 36 32 37 33 38 34 39 35 40 96 41 36 42 95 43
REMARK SMILES IDX 37 44 38 45 39 46 89 47 40 48 94 49 88 50 90 51 41 52 93 53
REMARK SMILES IDX 87 54 86 55 42 57 74 58 54 59 73 60 55 61 58 62 72 63 91 64
REMARK SMILES IDX 56 65 57 66 71 68 92 69 59 70 43 71 44 72 52 73 45 74 46 75
REMARK SMILES IDX 50 76 53 77 47 78 48 79 51 80 49 81 75 82 76 83 84 84 77 85
REMARK SMILES IDX 78 86 82 87 85 88 79 89 80 90 83 91 81 92 60 93 61 94 69 95
REMARK SMILES IDX 62 96 63 97 67 98 70 99 64 100 65 101 68 102 66 103
REMARK H PARENT 8 21 90 56 58 67
REMARK Flexibility Score: inf
ROOT
ATOM      1  C   UNL A   1      41.138  20.272  26.328  1.00  0.00     0.313 C 
ATOM      2  O   UNL A   1      40.845  19.816  27.429  1.00  0.00    -0.252 OA
ENDROOT
BRANCH   1   3
ATOM      3  C   UNL A   1      40.738  21.679  25.914  1.00  0.00     0.126 C 
ATOM      4  C   UNL A   1      41.664  22.683  26.596  1.00  0.00     0.025 C 
BRANCH   3   5
ATOM      5  C   UNL A   1      39.271  22.080  26.047  1.00  0.00    -0.031 A 
ATOM      6  C   UNL A   1      36.517  22.845  26.037  1.00  0.00     0.018 A 
ATOM      7  C   UNL A   1      37.513  23.703  26.534  1.00  0.00     0.012 A 
ATOM      8  C   UNL A   1      36.929  21.583  25.591  1.00  0.00     0.131 A 
ATOM      9  C   UNL A   1      38.868  23.330  26.537  1.00  0.00     0.005 A 
ATOM     10  C   UNL A   1      38.274  21.203  25.593  1.00  0.00     0.044 A 
ATOM     11  F   UNL A   1      36.034  20.712  25.101  1.00  0.00    -0.206 F 
BRANCH   6  12
ATOM     12  C   UNL A   1      35.112  23.279  25.940  1.00  0.00    -0.012 A 
ATOM     13  C   UNL A   1      33.320  24.478  24.819  1.00  0.00     0.133 A 
ATOM     14  C   UNL A   1      32.427  24.167  25.842  1.00  0.00     0.047 A 
ATOM     15  C   UNL A   1      34.652  24.058  24.866  1.00  0.00     0.056 A 
ATOM     16  C   UNL A   1      32.866  23.396  26.914  1.00  0.00     0.004 A 
ATOM     17  C   UNL A   1      34.193  22.956  26.960  1.00  0.00     0.009 A 
BRANCH  13  18
ATOM     18  O   UNL A   1      32.850  25.332  23.808  1.00  0.00    -0.410 OA
BRANCH  18  19
ATOM     19  C   UNL A   1      33.295  25.101  22.516  1.00  0.00     0.412 C 
ATOM     20  N   UNL A   1      32.829  23.930  21.985  1.00  0.00    -0.321 N 
ATOM     21  H   UNL A   1      33.101  23.729  21.061  1.00  0.00     0.167 HD
ATOM     22  O   UNL A   1      34.044  25.829  21.870  1.00  0.00    -0.224 OA
BRANCH  20  23
ATOM     23  C   UNL A   1      31.976  22.952  22.635  1.00  0.00     0.119 C 
BRANCH  23  24
ATOM     24  C   UNL A   1      32.432  21.518  22.365  1.00  0.00     0.021 C 
BRANCH  24  25
ATOM     25  C   UNL A   1      31.995  20.491  23.418  1.00  0.00     0.002 C 
BRANCH  25  26
ATOM     26  C   UNL A   1      32.808  20.490  24.717  1.00  0.00     0.000 C 
BRANCH  26  27
ATOM     27  C   UNL A   1      33.206  19.106  25.240  1.00  0.00    -0.000 C 
BRANCH  27  28
ATOM     28  C   UNL A   1      33.937  18.209  24.237  1.00  0.00    -0.003 C 
ATOM     29  C   UNL A   1      33.448  16.768  24.246  1.00  0.00     0.004 C 
ENDBRANCH  27  28
ENDBRANCH  26  27
ENDBRANCH  25  26
ENDBRANCH  24  25
ENDBRANCH  23  24
ENDBRANCH  20  23
ENDBRANCH  18  19
ENDBRANCH  13  18
ENDBRANCH   6  12
ENDBRANCH   3   5
ENDBRANCH   1   3
BRANCH   1  30
ATOM     30  O   UNL A   1      41.799  19.580  25.363  1.00  0.00    -0.463 OA
BRANCH  30  31
ATOM     31  C   UNL A   1      42.968  18.862  25.797  1.00  0.00     0.261 C 
BRANCH  31  32
ATOM     32  C   UNL A   1      44.154  19.118  24.863  1.00  0.00     0.202 C 
BRANCH  32  33
ATOM     33  O   UNL A   1      44.182  20.386  24.211  1.00  0.00    -0.374 OA
BRANCH  33  34
ATOM     34  C   UNL A   1      45.050  21.384  24.747  1.00  0.00     0.202 C 
BRANCH  34  35
ATOM     35  C   UNL A   1      44.718  22.843  24.406  1.00  0.00     0.261 C 
BRANCH  35  36
ATOM     36  O   UNL A   1      44.554  23.659  25.581  1.00  0.00    -0.460 OA
BRANCH  36  37
ATOM     37  C   UNL A   1      44.838  24.972  25.399  1.00  0.00     0.338 C 
ATOM     38  O   UNL A   1      45.534  25.468  24.533  1.00  0.00    -0.246 OA
BRANCH  37  39
ATOM     39  C   UNL A   1      44.010  25.796  26.303  1.00  0.00     0.060 A 
ATOM     40  C   UNL A   1      44.545  27.023  26.717  1.00  0.00     0.016 A 
ATOM     41  C   UNL A   1      42.784  25.351  26.802  1.00  0.00     0.016 A 
ATOM     42  C   UNL A   1      43.882  27.787  27.674  1.00  0.00     0.010 A 
ATOM     43  C   UNL A   1      42.122  26.119  27.769  1.00  0.00     0.010 A 
ATOM     44  C   UNL A   1      42.685  27.322  28.235  1.00  0.00    -0.014 A 
BRANCH  44  45
ATOM     45  C   UNL A   1      42.111  28.035  29.404  1.00  0.00     0.031 A 
ATOM     46  C   UNL A   1      42.816  27.957  30.730  1.00  0.00     0.074 A 
ATOM     47  C   UNL A   1      41.005  28.788  29.273  1.00  0.00     0.049 A 
ATOM     48  N   UNL A   1      42.495  28.504  31.876  1.00  0.00    -0.248 NA
ATOM     49  C   UNL A   1      44.051  27.159  30.769  1.00  0.00     0.031 C 
ATOM     50  C   UNL A   1      40.256  28.978  28.033  1.00  0.00     0.029 A 
ATOM     51  N   UNL A   1      40.320  29.535  30.200  1.00  0.00    -0.354 N 
ATOM     52  C   UNL A   1      43.483  28.114  32.770  1.00  0.00     0.074 A 
ATOM     53  C   UNL A   1      44.398  27.259  32.044  1.00  0.00     0.031 C 
ATOM     54  C   UNL A   1      39.210  29.787  28.275  1.00  0.00     0.029 A 
ATOM     55  C   UNL A   1      39.200  30.146  29.693  1.00  0.00     0.049 A 
ATOM     56  H   UNL A   1      40.605  29.624  31.137  1.00  0.00     0.167 HD
ATOM     57  C   UNL A   1      43.622  28.448  34.076  1.00  0.00     0.037 A 
ATOM     58  C   UNL A   1      38.264  30.895  30.308  1.00  0.00     0.037 A 
ATOM     59  C   UNL A   1      42.714  29.300  34.798  1.00  0.00     0.049 A 
ATOM     60  C   UNL A   1      38.402  31.191  31.779  1.00  0.00     0.074 A 
ATOM     61  C   UNL A   1      42.781  29.712  36.117  1.00  0.00     0.029 A 
ATOM     62  N   UNL A   1      41.566  29.864  34.262  1.00  0.00    -0.354 N 
ATOM     63  N   UNL A   1      39.353  30.841  32.610  1.00  0.00    -0.248 NA
ATOM     64  C   UNL A   1      37.334  31.992  32.397  1.00  0.00     0.031 C 
ATOM     65  C   UNL A   1      41.647  30.483  36.394  1.00  0.00     0.029 A 
ATOM     66  C   UNL A   1      40.900  30.597  35.232  1.00  0.00     0.049 A 
ATOM     67  H   UNL A   1      41.266  29.760  33.330  1.00  0.00     0.167 HD
ATOM     68  C   UNL A   1      39.015  31.397  33.837  1.00  0.00     0.074 A 
ATOM     69  C   UNL A   1      37.778  32.123  33.639  1.00  0.00     0.031 C 
ATOM     70  C   UNL A   1      39.671  31.316  35.022  1.00  0.00     0.037 A 
BRANCH  57  71
ATOM     71  C   UNL A   1      44.789  27.867  34.819  1.00  0.00     0.064 A 
ATOM     72  C   UNL A   1      44.727  26.598  35.414  1.00  0.00     0.173 A 
ATOM     73  C   UNL A   1      45.999  28.573  34.904  1.00  0.00     0.173 A 
ATOM     74  F   UNL A   1      43.591  25.887  35.370  1.00  0.00    -0.203 F 
ATOM     75  C   UNL A   1      45.826  26.068  36.087  1.00  0.00     0.198 A 
ATOM     76  C   UNL A   1      47.103  28.028  35.554  1.00  0.00     0.198 A 
ATOM     77  F   UNL A   1      46.113  29.789  34.348  1.00  0.00    -0.203 F 
ATOM     78  F   UNL A   1      45.731  24.872  36.685  1.00  0.00    -0.200 F 
ATOM     79  C   UNL A   1      47.014  26.780  36.150  1.00  0.00     0.200 A 
ATOM     80  F   UNL A   1      48.255  28.713  35.602  1.00  0.00    -0.200 F 
ATOM     81  F   UNL A   1      48.073  26.266  36.791  1.00  0.00    -0.200 F 
ENDBRANCH  57  71
BRANCH  58  82
ATOM     82  C   UNL A   1      37.101  31.410  29.538  1.00  0.00     0.064 A 
ATOM     83  C   UNL A   1      36.063  30.559  29.136  1.00  0.00     0.173 A 
ATOM     84  C   UNL A   1      37.016  32.762  29.174  1.00  0.00     0.173 A 
ATOM     85  F   UNL A   1      36.114  29.253  29.437  1.00  0.00    -0.203 F 
ATOM     86  C   UNL A   1      34.993  31.036  28.381  1.00  0.00     0.198 A 
ATOM     87  C   UNL A   1      35.931  33.243  28.444  1.00  0.00     0.198 A 
ATOM     88  F   UNL A   1      37.985  33.618  29.531  1.00  0.00    -0.203 F 
ATOM     89  F   UNL A   1      34.038  30.192  27.968  1.00  0.00    -0.200 F 
ATOM     90  C   UNL A   1      34.925  32.379  28.042  1.00  0.00     0.200 A 
ATOM     91  F   UNL A   1      35.864  34.544  28.128  1.00  0.00    -0.200 F 
ATOM     92  F   UNL A   1      33.894  32.838  27.319  1.00  0.00    -0.200 F 
ENDBRANCH  58  82
BRANCH  70  93
ATOM     93  C   UNL A   1      39.080  32.053  36.190  1.00  0.00     0.064 A 
ATOM     94  C   UNL A   1      38.163  31.443  37.058  1.00  0.00     0.173 A 
ATOM     95  C   UNL A   1      39.462  33.376  36.463  1.00  0.00     0.173 A 
ATOM     96  F   UNL A   1      37.753  30.186  36.833  1.00  0.00    -0.203 F 
ATOM     97  C   UNL A   1      37.630  32.139  38.141  1.00  0.00     0.198 A 
ATOM     98  C   UNL A   1      38.951  34.058  37.563  1.00  0.00     0.198 A 
ATOM     99  F   UNL A   1      40.341  34.004  35.667  1.00  0.00    -0.203 F 
ATOM    100  F   UNL A   1      36.717  31.553  38.929  1.00  0.00    -0.200 F 
ATOM    101  C   UNL A   1      38.028  33.443  38.396  1.00  0.00     0.200 A 
ATOM    102  F   UNL A   1      39.348  35.313  37.816  1.00  0.00    -0.200 F 
ATOM    103  F   UNL A   1      37.519  34.109  39.442  1.00  0.00    -0.200 F 
ENDBRANCH  70  93
ENDBRANCH  44  45
ENDBRANCH  37  39
ENDBRANCH  36  37
ENDBRANCH  35  36
ENDBRANCH  34  35
ENDBRANCH  33  34
ENDBRANCH  32  33
ENDBRANCH  31  32
ENDBRANCH  30  31
ENDBRANCH   1  30
TORSDOF 24
ENDMDL
MODEL 3
REMARK VINA RESULT:     -11.0      1.546      2.912
REMARK SMILES CCCCCCCNC(=O)Oc1cccc(-c2ccc([C@@H](C)C(=O)OCCOCCOC(=O)c3ccc(-c4c5nc(c(-c6c(F)c(F)c(F)c(F)c6F)c6ccc([nH]6)c(-c6c(F)c(F)c(F)c(F)c6F)c6nc(c(-c7c(F)c(F)c(F)c(F)c7F)c7ccc4[nH]7)C=C6)C=C5)cc3)cc2F)c1
REMARK SMILES IDX 23 1 24 2 21 3 22 4 20 5 17 6 18 7 98 8 19 9 97 10 99 11
REMARK SMILES IDX 16 12 12 13 13 14 100 15 14 16 15 17 11 18 9 19 8 20 10 22
REMARK SMILES IDX 7 23 6 24 5 25 4 26 3 27 2 28 1 29 25 30 26 31 27 32 28 33
REMARK SMILES IDX 29 34 30 35 31 36 32 37 33 38 34 39 35 40 96 41 36 42 95 43
REMARK SMILES IDX 37 44 38 45 39 46 89 47 40 48 94 49 88 50 90 51 41 52 93 53
REMARK SMILES IDX 87 54 86 55 42 57 74 58 54 59 73 60 55 61 58 62 72 63 91 64
REMARK SMILES IDX 56 65 57 66 71 68 92 69 59 70 43 71 44 72 52 73 45 74 46 75
REMARK SMILES IDX 50 76 53 77 47 78 48 79 51 80 49 81 75 82 76 83 84 84 77 85
REMARK SMILES IDX 78 86 82 87 85 88 79 89 80 90 83 91 81 92 60 93 61 94 69 95
REMARK SMILES IDX 62 96 63 97 67 98 70 99 64 100 65 101 68 102 66 103
REMARK H PARENT 8 21 90 56 58 67
REMARK Flexibility Score: inf
ROOT
ATOM      1  C   UNL A   1      41.645  19.524  26.307  1.00  0.00     0.313 C 
ATOM      2  O   UNL A   1      40.809  18.841  25.724  1.00  0.00    -0.252 OA
ENDROOT
BRANCH   1   3
ATOM      3  C   UNL A   1      41.325  20.923  26.811  1.00  0.00     0.126 C 
ATOM      4  C   UNL A   1      41.341  20.919  28.338  1.00  0.00     0.025 C 
BRANCH   3   5
ATOM      5  C   UNL A   1      40.085  21.621  26.259  1.00  0.00    -0.031 A 
ATOM      6  C   UNL A   1      37.678  22.945  25.470  1.00  0.00     0.018 A 
ATOM      7  C   UNL A   1      37.914  21.599  25.141  1.00  0.00     0.012 A 
ATOM      8  C   UNL A   1      38.693  23.619  26.161  1.00  0.00     0.131 A 
ATOM      9  C   UNL A   1      39.096  20.946  25.530  1.00  0.00     0.005 A 
ATOM     10  C   UNL A   1      39.872  22.977  26.550  1.00  0.00     0.044 A 
ATOM     11  F   UNL A   1      38.537  24.905  26.510  1.00  0.00    -0.206 F 
BRANCH   6  12
ATOM     12  C   UNL A   1      36.395  23.597  25.150  1.00  0.00    -0.012 A 
ATOM     13  C   UNL A   1      34.579  24.099  23.616  1.00  0.00     0.133 A 
ATOM     14  C   UNL A   1      33.980  24.943  24.549  1.00  0.00     0.047 A 
ATOM     15  C   UNL A   1      35.780  23.442  23.898  1.00  0.00     0.056 A 
ATOM     16  C   UNL A   1      34.576  25.107  25.795  1.00  0.00     0.004 A 
ATOM     17  C   UNL A   1      35.769  24.439  26.092  1.00  0.00     0.009 A 
BRANCH  13  18
ATOM     18  O   UNL A   1      33.985  24.040  22.346  1.00  0.00    -0.410 OA
BRANCH  18  19
ATOM     19  C   UNL A   1      32.603  24.132  22.279  1.00  0.00     0.412 C 
ATOM     20  N   UNL A   1      31.972  22.934  22.468  1.00  0.00    -0.321 N 
ATOM     21  H   UNL A   1      30.988  22.950  22.450  1.00  0.00     0.167 HD
ATOM     22  O   UNL A   1      31.958  25.154  22.061  1.00  0.00    -0.224 OA
BRANCH  20  23
ATOM     23  C   UNL A   1      32.594  21.643  22.694  1.00  0.00     0.119 C 
BRANCH  23  24
ATOM     24  C   UNL A   1      32.044  20.947  23.939  1.00  0.00     0.021 C 
BRANCH  24  25
ATOM     25  C   UNL A   1      32.326  21.671  25.263  1.00  0.00     0.002 C 
BRANCH  25  26
ATOM     26  C   UNL A   1      31.134  22.414  25.875  1.00  0.00     0.000 C 
BRANCH  26  27
ATOM     27  C   UNL A   1      31.272  23.938  25.934  1.00  0.00    -0.000 C 
BRANCH  27  28
ATOM     28  C   UNL A   1      29.963  24.710  26.124  1.00  0.00    -0.003 C 
ATOM     29  C   UNL A   1      29.949  26.061  25.424  1.00  0.00     0.004 C 
ENDBRANCH  27  28
ENDBRANCH  26  27
ENDBRANCH  25  26
ENDBRANCH  24  25
ENDBRANCH  23  24
ENDBRANCH  20  23
ENDBRANCH  18  19
ENDBRANCH  13  18
ENDBRANCH   6  12
ENDBRANCH   3   5
ENDBRANCH   1   3
BRANCH   1  30
ATOM     30  O   UNL A   1      42.929  19.139  26.530  1.00  0.00    -0.463 OA
BRANCH  30  31
ATOM     31  C   UNL A   1      43.549  18.385  25.473  1.00  0.00     0.261 C 
BRANCH  31  32
ATOM     32  C   UNL A   1      44.727  19.151  24.864  1.00  0.00     0.202 C 
BRANCH  32  33
ATOM     33  O   UNL A   1      44.409  20.363  24.184  1.00  0.00    -0.374 OA
BRANCH  33  34
ATOM     34  C   UNL A   1      44.429  21.571  24.946  1.00  0.00     0.202 C 
BRANCH  34  35
ATOM     35  C   UNL A   1      44.692  22.870  24.173  1.00  0.00     0.261 C 
BRANCH  35  36
ATOM     36  O   UNL A   1      43.836  23.946  24.599  1.00  0.00    -0.460 OA
BRANCH  36  37
ATOM     37  C   UNL A   1      44.492  25.051  25.032  1.00  0.00     0.338 C 
ATOM     38  O   UNL A   1      45.540  25.504  24.611  1.00  0.00    -0.246 OA
BRANCH  37  39
ATOM     39  C   UNL A   1      43.653  25.789  25.998  1.00  0.00     0.060 A 
ATOM     40  C   UNL A   1      43.938  27.148  26.183  1.00  0.00     0.016 A 
ATOM     41  C   UNL A   1      42.671  25.158  26.765  1.00  0.00     0.016 A 
ATOM     42  C   UNL A   1      43.280  27.872  27.173  1.00  0.00     0.010 A 
ATOM     43  C   UNL A   1      42.014  25.887  27.765  1.00  0.00     0.010 A 
ATOM     44  C   UNL A   1      42.341  27.237  27.997  1.00  0.00    -0.014 A 
BRANCH  44  45
ATOM     45  C   UNL A   1      41.814  27.959  29.183  1.00  0.00     0.031 A 
ATOM     46  C   UNL A   1      42.543  27.846  30.494  1.00  0.00     0.074 A 
ATOM     47  C   UNL A   1      40.733  28.751  29.080  1.00  0.00     0.049 A 
ATOM     48  N   UNL A   1      42.264  28.394  31.650  1.00  0.00    -0.248 NA
ATOM     49  C   UNL A   1      43.750  27.006  30.502  1.00  0.00     0.031 C 
ATOM     50  C   UNL A   1      39.966  28.977  27.857  1.00  0.00     0.029 A 
ATOM     51  N   UNL A   1      40.093  29.513  30.026  1.00  0.00    -0.354 N 
ATOM     52  C   UNL A   1      43.256  27.964  32.521  1.00  0.00     0.074 A 
ATOM     53  C   UNL A   1      44.127  27.084  31.771  1.00  0.00     0.031 C 
ATOM     54  C   UNL A   1      38.954  29.819  28.126  1.00  0.00     0.029 A 
ATOM     55  C   UNL A   1      38.984  30.166  29.547  1.00  0.00     0.049 A 
ATOM     56  H   UNL A   1      40.399  29.585  30.958  1.00  0.00     0.167 HD
ATOM     57  C   UNL A   1      43.432  28.282  33.826  1.00  0.00     0.037 A 
ATOM     58  C   UNL A   1      38.087  30.941  30.186  1.00  0.00     0.037 A 
ATOM     59  C   UNL A   1      42.569  29.159  34.573  1.00  0.00     0.049 A 
ATOM     60  C   UNL A   1      38.264  31.220  31.656  1.00  0.00     0.074 A 
ATOM     61  C   UNL A   1      42.676  29.558  35.894  1.00  0.00     0.029 A 
ATOM     62  N   UNL A   1      41.430  29.767  34.064  1.00  0.00    -0.354 N 
ATOM     63  N   UNL A   1      39.219  30.831  32.465  1.00  0.00    -0.248 NA
ATOM     64  C   UNL A   1      37.237  32.052  32.301  1.00  0.00     0.031 C 
ATOM     65  C   UNL A   1      41.574  30.365  36.199  1.00  0.00     0.029 A 
ATOM     66  C   UNL A   1      40.809  30.513  35.054  1.00  0.00     0.049 A 
ATOM     67  H   UNL A   1      41.109  29.680  33.137  1.00  0.00     0.167 HD
ATOM     68  C   UNL A   1      38.925  31.389  33.703  1.00  0.00     0.074 A 
ATOM     69  C   UNL A   1      37.710  32.158  33.535  1.00  0.00     0.031 C 
ATOM     70  C   UNL A   1      39.601  31.276  34.873  1.00  0.00     0.037 A 
BRANCH  57  71
ATOM     71  C   UNL A   1      44.593  27.656  34.541  1.00  0.00     0.064 A 
ATOM     72  C   UNL A   1      44.500  26.385  35.129  1.00  0.00     0.173 A 
ATOM     73  C   UNL A   1      45.828  28.319  34.607  1.00  0.00     0.173 A 
ATOM     74  F   UNL A   1      43.338  25.714  35.103  1.00  0.00    -0.203 F 
ATOM     75  C   UNL A   1      45.593  25.812  35.776  1.00  0.00     0.198 A 
ATOM     76  C   UNL A   1      46.926  27.731  35.230  1.00  0.00     0.198 A 
ATOM     77  F   UNL A   1      45.973  29.534  34.056  1.00  0.00    -0.203 F 
ATOM     78  F   UNL A   1      45.468  24.615  36.367  1.00  0.00    -0.200 F 
ATOM     79  C   UNL A   1      46.806  26.482  35.819  1.00  0.00     0.200 A 
ATOM     80  F   UNL A   1      48.101  28.375  35.259  1.00  0.00    -0.200 F 
ATOM     81  F   UNL A   1      47.859  25.927  36.435  1.00  0.00    -0.200 F 
ENDBRANCH  57  71
BRANCH  58  82
ATOM     82  C   UNL A   1      36.928  31.502  29.444  1.00  0.00     0.064 A 
ATOM     83  C   UNL A   1      36.854  32.867  29.137  1.00  0.00     0.173 A 
ATOM     84  C   UNL A   1      35.860  30.685  29.044  1.00  0.00     0.173 A 
ATOM     85  F   UNL A   1      37.838  33.693  29.522  1.00  0.00    -0.203 F 
ATOM     86  C   UNL A   1      35.749  33.397  28.474  1.00  0.00     0.198 A 
ATOM     87  C   UNL A   1      34.768  31.211  28.357  1.00  0.00     0.198 A 
ATOM     88  F   UNL A   1      35.879  29.371  29.317  1.00  0.00    -0.203 F 
ATOM     89  F   UNL A   1      35.681  34.714  28.235  1.00  0.00    -0.200 F 
ATOM     90  C   UNL A   1      34.710  32.567  28.079  1.00  0.00     0.200 A 
ATOM     91  F   UNL A   1      33.772  30.403  27.967  1.00  0.00    -0.200 F 
ATOM     92  F   UNL A   1      33.649  33.077  27.440  1.00  0.00    -0.200 F 
ENDBRANCH  58  82
BRANCH  70  93
ATOM     93  C   UNL A   1      39.060  32.023  36.058  1.00  0.00     0.064 A 
ATOM     94  C   UNL A   1      39.392  33.364  36.300  1.00  0.00     0.173 A 
ATOM     95  C   UNL A   1      38.169  31.399  36.946  1.00  0.00     0.173 A 
ATOM     96  F   UNL A   1      40.251  34.003  35.491  1.00  0.00    -0.203 F 
ATOM     97  C   UNL A   1      38.875  34.043  37.400  1.00  0.00     0.198 A 
ATOM     98  C   UNL A   1      37.630  32.089  38.027  1.00  0.00     0.198 A 
ATOM     99  F   UNL A   1      37.813  30.119  36.757  1.00  0.00    -0.203 F 
ATOM    100  F   UNL A   1      39.246  35.309  37.639  1.00  0.00    -0.200 F 
ATOM    101  C   UNL A   1      37.990  33.408  38.259  1.00  0.00     0.200 A 
ATOM    102  F   UNL A   1      36.764  31.478  38.847  1.00  0.00    -0.200 F 
ATOM    103  F   UNL A   1      37.489  34.066  39.314  1.00  0.00    -0.200 F 
ENDBRANCH  70  93
ENDBRANCH  44  45
ENDBRANCH  37  39
ENDBRANCH  36  37
ENDBRANCH  35  36
ENDBRANCH  34  35
ENDBRANCH  33  34
ENDBRANCH  32  33
ENDBRANCH  31  32
ENDBRANCH  30  31
ENDBRANCH   1  30
TORSDOF 24
ENDMDL
