MODEL 1
REMARK VINA RESULT:     -10.5      0.000      0.000
REMARK SMILES CCC[C@H](C)C[N@H+]1[C@@H]2CC[C@H]1C[C@H](CC(=O)OCCOCCOC(=O)c1ccc(-c3c4nc(c(-c5c(F)c(F)c(F)c(F)c5F)c5ccc([nH]5)c(-c5c(F)c(F)c(F)c(F)c5F)c5nc(c(-c6c(F)c(F)c(F)c(F)c6F)c6ccc3[nH]6)C=C5)C=C4)cc1)C2
REMARK SMILES IDX 18 1 17 2 15 3 16 4 14 5 13 6 7 7 8 8 11 9 9 11 89 12 10 13
REMARK SMILES IDX 12 14 6 15 4 16 5 17 3 18 2 19 1 20 19 21 20 22 21 23 22 24
REMARK SMILES IDX 23 25 24 26 25 27 26 28 27 29 88 30 28 31 87 32 29 33 30 34
REMARK SMILES IDX 31 35 81 36 32 37 86 38 80 39 82 40 33 41 85 42 79 43 78 44
REMARK SMILES IDX 34 46 66 47 46 48 65 49 47 50 50 51 64 52 83 53 48 54 49 55
REMARK SMILES IDX 63 57 84 58 51 59 35 60 36 61 44 62 37 63 38 64 42 65 45 66
REMARK SMILES IDX 39 67 40 68 43 69 41 70 67 71 68 72 76 73 69 74 70 75 74 76
REMARK SMILES IDX 77 77 71 78 72 79 75 80 73 81 52 82 53 83 61 84 54 85 55 86
REMARK SMILES IDX 59 87 62 88 56 89 57 90 60 91 58 92
REMARK H PARENT 7 10 82 45 50 56
REMARK Flexibility Score: inf
ROOT
ATOM      1  C   UNL A   1      29.687  30.392  22.429  1.00  0.00     0.261 C 
ENDROOT
BRANCH   1   2
ATOM      2  O   UNL A   1      28.947  29.238  22.005  1.00  0.00    -0.463 OA
BRANCH   2   3
ATOM      3  C   UNL A   1      28.745  28.261  22.910  1.00  0.00     0.306 C 
ATOM      4  O   UNL A   1      27.655  27.985  23.397  1.00  0.00    -0.252 OA
BRANCH   3   5
ATOM      5  C   UNL A   1      29.989  27.431  23.202  1.00  0.00     0.126 C 
BRANCH   5   6
ATOM      6  C   UNL A   1      31.067  27.743  24.293  1.00  0.00     0.012 C 
ATOM      7  N   UNL A   1      33.585  26.429  25.028  1.00  0.00    -0.330 N 
ATOM      8  C   UNL A   1      33.668  27.758  24.432  1.00  0.00     0.184 C 
ATOM      9  C   UNL A   1      32.592  26.552  26.074  1.00  0.00     0.184 C 
ATOM     10  H   UNL A   1      34.398  26.062  25.524  1.00  0.00     0.348 HD
ATOM     11  C   UNL A   1      33.699  28.668  25.662  1.00  0.00     0.071 C 
ATOM     12  C   UNL A   1      32.424  27.995  23.573  1.00  0.00     0.069 C 
ATOM     13  C   UNL A   1      33.120  27.810  26.786  1.00  0.00     0.071 C 
ATOM     14  C   UNL A   1      31.177  26.835  25.545  1.00  0.00     0.069 C 
BRANCH   7  15
ATOM     15  C   UNL A   1      33.811  25.287  24.147  1.00  0.00     0.265 C 
BRANCH  15  16
ATOM     16  C   UNL A   1      34.060  23.804  24.569  1.00  0.00     0.041 C 
ATOM     17  C   UNL A   1      34.265  22.813  23.437  1.00  0.00     0.013 C 
BRANCH  16  18
ATOM     18  C   UNL A   1      35.237  23.741  25.599  1.00  0.00     0.009 C 
BRANCH  18  19
ATOM     19  C   UNL A   1      36.686  23.625  25.086  1.00  0.00    -0.003 C 
ATOM     20  C   UNL A   1      37.769  23.989  26.090  1.00  0.00     0.004 C 
ENDBRANCH  18  19
ENDBRANCH  16  18
ENDBRANCH  15  16
ENDBRANCH   7  15
ENDBRANCH   5   6
ENDBRANCH   3   5
ENDBRANCH   2   3
ENDBRANCH   1   2
BRANCH   1  21
ATOM     21  C   UNL A   1      29.010  30.939  23.687  1.00  0.00     0.202 C 
BRANCH  21  22
ATOM     22  O   UNL A   1      29.833  31.793  24.490  1.00  0.00    -0.374 OA
BRANCH  22  23
ATOM     23  C   UNL A   1      30.757  31.163  25.379  1.00  0.00     0.202 C 
BRANCH  23  24
ATOM     24  C   UNL A   1      31.308  32.041  26.503  1.00  0.00     0.261 C 
BRANCH  24  25
ATOM     25  O   UNL A   1      32.601  31.578  26.929  1.00  0.00    -0.460 OA
BRANCH  25  26
ATOM     26  C   UNL A   1      33.376  32.542  27.476  1.00  0.00     0.338 C 
ATOM     27  O   UNL A   1      33.046  33.684  27.742  1.00  0.00    -0.246 OA
BRANCH  26  28
ATOM     28  C   UNL A   1      34.691  31.995  27.871  1.00  0.00     0.060 A 
ATOM     29  C   UNL A   1      34.724  30.631  28.187  1.00  0.00     0.016 A 
ATOM     30  C   UNL A   1      35.834  32.783  28.022  1.00  0.00     0.016 A 
ATOM     31  C   UNL A   1      35.861  30.075  28.757  1.00  0.00     0.010 A 
ATOM     32  C   UNL A   1      36.983  32.222  28.594  1.00  0.00     0.010 A 
ATOM     33  C   UNL A   1      36.975  30.881  29.023  1.00  0.00    -0.014 A 
BRANCH  33  34
ATOM     34  C   UNL A   1      38.019  30.356  29.938  1.00  0.00     0.031 A 
ATOM     35  C   UNL A   1      39.032  29.383  29.395  1.00  0.00     0.074 A 
ATOM     36  C   UNL A   1      38.136  30.818  31.195  1.00  0.00     0.049 A 
ATOM     37  N   UNL A   1      40.068  28.841  29.985  1.00  0.00    -0.248 NA
ATOM     38  C   UNL A   1      38.857  28.967  27.993  1.00  0.00     0.031 C 
ATOM     39  C   UNL A   1      37.251  31.801  31.818  1.00  0.00     0.029 A 
ATOM     40  N   UNL A   1      39.060  30.529  32.168  1.00  0.00    -0.354 N 
ATOM     41  C   UNL A   1      40.661  28.024  29.031  1.00  0.00     0.074 A 
ATOM     42  C   UNL A   1      39.852  28.109  27.836  1.00  0.00     0.031 C 
ATOM     43  C   UNL A   1      37.678  32.037  33.071  1.00  0.00     0.029 A 
ATOM     44  C   UNL A   1      38.848  31.204  33.345  1.00  0.00     0.049 A 
ATOM     45  H   UNL A   1      39.804  29.899  32.034  1.00  0.00     0.167 HD
ATOM     46  C   UNL A   1      41.789  27.282  29.136  1.00  0.00     0.037 A 
ATOM     47  C   UNL A   1      39.519  31.144  34.512  1.00  0.00     0.037 A 
ATOM     48  C   UNL A   1      42.602  27.206  30.321  1.00  0.00     0.049 A 
ATOM     49  C   UNL A   1      40.732  30.258  34.624  1.00  0.00     0.074 A 
ATOM     50  C   UNL A   1      43.771  26.494  30.521  1.00  0.00     0.029 A 
ATOM     51  N   UNL A   1      42.325  27.866  31.508  1.00  0.00    -0.354 N 
ATOM     52  N   UNL A   1      41.298  29.506  33.711  1.00  0.00    -0.248 NA
ATOM     53  C   UNL A   1      41.403  30.217  35.932  1.00  0.00     0.031 C 
ATOM     54  C   UNL A   1      44.174  26.681  31.847  1.00  0.00     0.029 A 
ATOM     55  C   UNL A   1      43.288  27.556  32.456  1.00  0.00     0.049 A 
ATOM     56  H   UNL A   1      41.559  28.466  31.658  1.00  0.00     0.167 HD
ATOM     57  C   UNL A   1      42.406  28.931  34.320  1.00  0.00     0.074 A 
ATOM     58  C   UNL A   1      42.439  29.429  35.679  1.00  0.00     0.031 C 
ATOM     59  C   UNL A   1      43.314  28.069  33.802  1.00  0.00     0.037 A 
BRANCH  46  60
ATOM     60  C   UNL A   1      42.198  26.469  27.941  1.00  0.00     0.064 A 
ATOM     61  C   UNL A   1      41.647  25.206  27.682  1.00  0.00     0.173 A 
ATOM     62  C   UNL A   1      43.132  26.979  27.026  1.00  0.00     0.173 A 
ATOM     63  F   UNL A   1      40.763  24.667  28.534  1.00  0.00    -0.203 F 
ATOM     64  C   UNL A   1      42.034  24.473  26.563  1.00  0.00     0.198 A 
ATOM     65  C   UNL A   1      43.493  26.256  25.893  1.00  0.00     0.198 A 
ATOM     66  F   UNL A   1      43.687  28.184  27.227  1.00  0.00    -0.203 F 
ATOM     67  F   UNL A   1      41.529  23.248  26.359  1.00  0.00    -0.200 F 
ATOM     68  C   UNL A   1      42.950  25.000  25.666  1.00  0.00     0.200 A 
ATOM     69  F   UNL A   1      44.370  26.774  25.021  1.00  0.00    -0.200 F 
ATOM     70  F   UNL A   1      43.315  24.297  24.585  1.00  0.00    -0.200 F 
ENDBRANCH  46  60
BRANCH  47  71
ATOM     71  C   UNL A   1      39.052  31.945  35.674  1.00  0.00     0.064 A 
ATOM     72  C   UNL A   1      39.468  33.271  35.858  1.00  0.00     0.173 A 
ATOM     73  C   UNL A   1      38.197  31.391  36.637  1.00  0.00     0.173 A 
ATOM     74  F   UNL A   1      40.308  33.838  34.978  1.00  0.00    -0.203 F 
ATOM     75  C   UNL A   1      39.060  34.006  36.969  1.00  0.00     0.198 A 
ATOM     76  C   UNL A   1      37.766  32.135  37.733  1.00  0.00     0.198 A 
ATOM     77  F   UNL A   1      37.772  30.125  36.510  1.00  0.00    -0.203 F 
ATOM     78  F   UNL A   1      39.511  35.255  37.146  1.00  0.00    -0.200 F 
ATOM     79  C   UNL A   1      38.206  33.439  37.903  1.00  0.00     0.200 A 
ATOM     80  F   UNL A   1      36.930  31.588  38.626  1.00  0.00    -0.200 F 
ATOM     81  F   UNL A   1      37.811  34.148  38.970  1.00  0.00    -0.200 F 
ENDBRANCH  47  71
BRANCH  59  82
ATOM     82  C   UNL A   1      44.448  27.639  34.688  1.00  0.00     0.064 A 
ATOM     83  C   UNL A   1      44.384  26.463  35.450  1.00  0.00     0.173 A 
ATOM     84  C   UNL A   1      45.631  28.391  34.739  1.00  0.00     0.173 A 
ATOM     85  F   UNL A   1      43.270  25.716  35.446  1.00  0.00    -0.203 F 
ATOM     86  C   UNL A   1      45.455  26.070  36.250  1.00  0.00     0.198 A 
ATOM     87  C   UNL A   1      46.711  27.979  35.515  1.00  0.00     0.198 A 
ATOM     88  F   UNL A   1      45.747  29.520  34.022  1.00  0.00    -0.203 F 
ATOM     89  F   UNL A   1      45.354  24.968  37.006  1.00  0.00    -0.200 F 
ATOM     90  C   UNL A   1      46.619  26.824  36.276  1.00  0.00     0.200 A 
ATOM     91  F   UNL A   1      47.841  28.700  35.527  1.00  0.00    -0.200 F 
ATOM     92  F   UNL A   1      47.650  26.439  37.041  1.00  0.00    -0.200 F 
ENDBRANCH  59  82
ENDBRANCH  33  34
ENDBRANCH  26  28
ENDBRANCH  25  26
ENDBRANCH  24  25
ENDBRANCH  23  24
ENDBRANCH  22  23
ENDBRANCH  21  22
ENDBRANCH   1  21
TORSDOF 19
ENDMDL
MODEL 2
REMARK VINA RESULT:     -10.3      0.410      2.028
REMARK SMILES CCC[C@H](C)C[N@H+]1[C@@H]2CC[C@H]1C[C@H](CC(=O)OCCOCCOC(=O)c1ccc(-c3c4nc(c(-c5c(F)c(F)c(F)c(F)c5F)c5ccc([nH]5)c(-c5c(F)c(F)c(F)c(F)c5F)c5nc(c(-c6c(F)c(F)c(F)c(F)c6F)c6ccc3[nH]6)C=C5)C=C4)cc1)C2
REMARK SMILES IDX 18 1 17 2 15 3 16 4 14 5 13 6 7 7 8 8 11 9 9 11 89 12 10 13
REMARK SMILES IDX 12 14 6 15 4 16 5 17 3 18 2 19 1 20 19 21 20 22 21 23 22 24
REMARK SMILES IDX 23 25 24 26 25 27 26 28 27 29 88 30 28 31 87 32 29 33 30 34
REMARK SMILES IDX 31 35 81 36 32 37 86 38 80 39 82 40 33 41 85 42 79 43 78 44
REMARK SMILES IDX 34 46 66 47 46 48 65 49 47 50 50 51 64 52 83 53 48 54 49 55
REMARK SMILES IDX 63 57 84 58 51 59 35 60 36 61 44 62 37 63 38 64 42 65 45 66
REMARK SMILES IDX 39 67 40 68 43 69 41 70 67 71 68 72 76 73 69 74 70 75 74 76
REMARK SMILES IDX 77 77 71 78 72 79 75 80 73 81 52 82 53 83 61 84 54 85 55 86
REMARK SMILES IDX 59 87 62 88 56 89 57 90 60 91 58 92
REMARK H PARENT 7 10 82 45 50 56
REMARK Flexibility Score: inf
ROOT
ATOM      1  C   UNL A   1      29.537  30.470  22.366  1.00  0.00     0.261 C 
ENDROOT
BRANCH   1   2
ATOM      2  O   UNL A   1      28.759  29.334  21.965  1.00  0.00    -0.463 OA
BRANCH   2   3
ATOM      3  C   UNL A   1      28.548  28.368  22.881  1.00  0.00     0.306 C 
ATOM      4  O   UNL A   1      27.468  28.149  23.417  1.00  0.00    -0.252 OA
BRANCH   3   5
ATOM      5  C   UNL A   1      29.759  27.475  23.118  1.00  0.00     0.126 C 
BRANCH   5   6
ATOM      6  C   UNL A   1      30.925  27.757  24.124  1.00  0.00     0.012 C 
ATOM      7  N   UNL A   1      33.493  26.422  24.609  1.00  0.00    -0.330 N 
ATOM      8  C   UNL A   1      33.529  27.768  24.045  1.00  0.00     0.184 C 
ATOM      9  C   UNL A   1      32.591  26.516  25.737  1.00  0.00     0.184 C 
ATOM     10  H   UNL A   1      34.343  26.042  25.025  1.00  0.00     0.348 HD
ATOM     11  C   UNL A   1      33.665  28.643  25.293  1.00  0.00     0.071 C 
ATOM     12  C   UNL A   1      32.218  28.029  23.300  1.00  0.00     0.069 C 
ATOM     13  C   UNL A   1      33.179  27.755  26.437  1.00  0.00     0.071 C 
ATOM     14  C   UNL A   1      31.137  26.815  25.337  1.00  0.00     0.069 C 
BRANCH   7  15
ATOM     15  C   UNL A   1      33.642  25.306  23.680  1.00  0.00     0.265 C 
BRANCH  15  16
ATOM     16  C   UNL A   1      33.236  23.817  23.922  1.00  0.00     0.041 C 
ATOM     17  C   UNL A   1      31.810  23.445  23.554  1.00  0.00     0.013 C 
BRANCH  16  18
ATOM     18  C   UNL A   1      34.268  22.871  23.223  1.00  0.00     0.009 C 
BRANCH  18  19
ATOM     19  C   UNL A   1      35.775  23.161  23.359  1.00  0.00    -0.003 C 
ATOM     20  C   UNL A   1      36.283  23.344  24.780  1.00  0.00     0.004 C 
ENDBRANCH  18  19
ENDBRANCH  16  18
ENDBRANCH  15  16
ENDBRANCH   7  15
ENDBRANCH   5   6
ENDBRANCH   3   5
ENDBRANCH   2   3
ENDBRANCH   1   2
BRANCH   1  21
ATOM     21  C   UNL A   1      28.988  30.956  23.709  1.00  0.00     0.202 C 
BRANCH  21  22
ATOM     22  O   UNL A   1      29.888  31.773  24.467  1.00  0.00    -0.374 OA
BRANCH  22  23
ATOM     23  C   UNL A   1      30.770  31.107  25.372  1.00  0.00     0.202 C 
BRANCH  23  24
ATOM     24  C   UNL A   1      31.283  31.945  26.544  1.00  0.00     0.261 C 
BRANCH  24  25
ATOM     25  O   UNL A   1      32.593  31.512  26.949  1.00  0.00    -0.460 OA
BRANCH  25  26
ATOM     26  C   UNL A   1      33.340  32.486  27.518  1.00  0.00     0.338 C 
ATOM     27  O   UNL A   1      32.974  33.608  27.820  1.00  0.00    -0.246 OA
BRANCH  26  28
ATOM     28  C   UNL A   1      34.675  31.972  27.887  1.00  0.00     0.060 A 
ATOM     29  C   UNL A   1      34.755  30.603  28.172  1.00  0.00     0.016 A 
ATOM     30  C   UNL A   1      35.795  32.794  28.043  1.00  0.00     0.016 A 
ATOM     31  C   UNL A   1      35.916  30.072  28.718  1.00  0.00     0.010 A 
ATOM     32  C   UNL A   1      36.967  32.256  28.591  1.00  0.00     0.010 A 
ATOM     33  C   UNL A   1      37.007  30.907  28.990  1.00  0.00    -0.014 A 
BRANCH  33  34
ATOM     34  C   UNL A   1      38.077  30.395  29.882  1.00  0.00     0.031 A 
ATOM     35  C   UNL A   1      39.072  29.412  29.326  1.00  0.00     0.074 A 
ATOM     36  C   UNL A   1      38.231  30.878  31.127  1.00  0.00     0.049 A 
ATOM     37  N   UNL A   1      40.124  28.878  29.894  1.00  0.00    -0.248 NA
ATOM     38  C   UNL A   1      38.855  28.973  27.936  1.00  0.00     0.031 C 
ATOM     39  C   UNL A   1      37.366  31.872  31.760  1.00  0.00     0.029 A 
ATOM     40  N   UNL A   1      39.183  30.603  32.077  1.00  0.00    -0.354 N 
ATOM     41  C   UNL A   1      40.688  28.045  28.936  1.00  0.00     0.074 A 
ATOM     42  C   UNL A   1      39.844  28.111  27.764  1.00  0.00     0.031 C 
ATOM     43  C   UNL A   1      37.830  32.127  32.995  1.00  0.00     0.029 A 
ATOM     44  C   UNL A   1      39.007  31.297  33.248  1.00  0.00     0.049 A 
ATOM     45  H   UNL A   1      39.922  29.969  31.932  1.00  0.00     0.167 HD
ATOM     46  C   UNL A   1      41.818  27.302  29.019  1.00  0.00     0.037 A 
ATOM     47  C   UNL A   1      39.712  31.256  34.396  1.00  0.00     0.037 A 
ATOM     48  C   UNL A   1      42.665  27.245  30.180  1.00  0.00     0.049 A 
ATOM     49  C   UNL A   1      40.927  30.369  34.487  1.00  0.00     0.074 A 
ATOM     50  C   UNL A   1      43.839  26.535  30.358  1.00  0.00     0.029 A 
ATOM     51  N   UNL A   1      42.425  27.924  31.365  1.00  0.00    -0.354 N 
ATOM     52  N   UNL A   1      41.465  29.602  33.570  1.00  0.00    -0.248 NA
ATOM     53  C   UNL A   1      41.637  30.349  35.774  1.00  0.00     0.031 C 
ATOM     54  C   UNL A   1      44.281  26.743  31.668  1.00  0.00     0.029 A 
ATOM     55  C   UNL A   1      43.415  27.629  32.288  1.00  0.00     0.049 A 
ATOM     56  H   UNL A   1      41.664  28.528  31.527  1.00  0.00     0.167 HD
ATOM     57  C   UNL A   1      42.590  29.035  34.155  1.00  0.00     0.074 A 
ATOM     58  C   UNL A   1      42.664  29.555  35.505  1.00  0.00     0.031 C 
ATOM     59  C   UNL A   1      43.482  28.164  33.624  1.00  0.00     0.037 A 
BRANCH  46  60
ATOM     60  C   UNL A   1      42.191  26.470  27.827  1.00  0.00     0.064 A 
ATOM     61  C   UNL A   1      43.115  26.918  26.872  1.00  0.00     0.173 A 
ATOM     62  C   UNL A   1      41.639  25.192  27.656  1.00  0.00     0.173 A 
ATOM     63  F   UNL A   1      43.659  28.140  26.979  1.00  0.00    -0.203 F 
ATOM     64  C   UNL A   1      43.454  26.127  25.777  1.00  0.00     0.198 A 
ATOM     65  C   UNL A   1      42.003  24.391  26.577  1.00  0.00     0.198 A 
ATOM     66  F   UNL A   1      40.752  24.714  28.543  1.00  0.00    -0.203 F 
ATOM     67  F   UNL A   1      44.304  26.594  24.851  1.00  0.00    -0.200 F 
ATOM     68  C   UNL A   1      42.905  24.862  25.634  1.00  0.00     0.200 A 
ATOM     69  F   UNL A   1      41.479  23.164  26.449  1.00  0.00    -0.200 F 
ATOM     70  F   UNL A   1      43.237  24.098  24.585  1.00  0.00    -0.200 F 
ENDBRANCH  46  60
BRANCH  47  71
ATOM     71  C   UNL A   1      39.281  32.077  35.558  1.00  0.00     0.064 A 
ATOM     72  C   UNL A   1      38.437  31.552  36.547  1.00  0.00     0.173 A 
ATOM     73  C   UNL A   1      39.689  33.412  35.691  1.00  0.00     0.173 A 
ATOM     74  F   UNL A   1      37.998  30.287  36.450  1.00  0.00    -0.203 F 
ATOM     75  C   UNL A   1      38.004  32.336  37.614  1.00  0.00     0.198 A 
ATOM     76  C   UNL A   1      39.279  34.187  36.774  1.00  0.00     0.198 A 
ATOM     77  F   UNL A   1      40.494  33.963  34.771  1.00  0.00    -0.203 F 
ATOM     78  F   UNL A   1      37.159  31.824  38.518  1.00  0.00    -0.200 F 
ATOM     79  C   UNL A   1      38.429  33.651  37.729  1.00  0.00     0.200 A 
ATOM     80  F   UNL A   1      39.703  35.453  36.888  1.00  0.00    -0.200 F 
ATOM     81  F   UNL A   1      38.014  34.404  38.757  1.00  0.00    -0.200 F 
ENDBRANCH  47  71
BRANCH  59  82
ATOM     82  C   UNL A   1      44.641  27.747  34.483  1.00  0.00     0.064 A 
ATOM     83  C   UNL A   1      45.778  28.555  34.631  1.00  0.00     0.173 A 
ATOM     84  C   UNL A   1      44.592  26.545  35.205  1.00  0.00     0.173 A 
ATOM     85  F   UNL A   1      45.880  29.708  33.953  1.00  0.00    -0.203 F 
ATOM     86  C   UNL A   1      46.834  28.161  35.449  1.00  0.00     0.198 A 
ATOM     87  C   UNL A   1      45.636  26.169  36.046  1.00  0.00     0.198 A 
ATOM     88  F   UNL A   1      43.522  25.740  35.106  1.00  0.00    -0.203 F 
ATOM     89  F   UNL A   1      47.932  28.925  35.537  1.00  0.00    -0.200 F 
ATOM     90  C   UNL A   1      46.758  26.973  36.161  1.00  0.00     0.200 A 
ATOM     91  F   UNL A   1      45.553  25.028  36.745  1.00  0.00    -0.200 F 
ATOM     92  F   UNL A   1      47.773  26.600  36.953  1.00  0.00    -0.200 F 
ENDBRANCH  59  82
ENDBRANCH  33  34
ENDBRANCH  26  28
ENDBRANCH  25  26
ENDBRANCH  24  25
ENDBRANCH  23  24
ENDBRANCH  22  23
ENDBRANCH  21  22
ENDBRANCH   1  21
TORSDOF 19
ENDMDL
MODEL 3
REMARK VINA RESULT:     -10.3      3.953      8.884
REMARK SMILES CCC[C@H](C)C[N@H+]1[C@@H]2CC[C@H]1C[C@H](CC(=O)OCCOCCOC(=O)c1ccc(-c3c4nc(c(-c5c(F)c(F)c(F)c(F)c5F)c5ccc([nH]5)c(-c5c(F)c(F)c(F)c(F)c5F)c5nc(c(-c6c(F)c(F)c(F)c(F)c6F)c6ccc3[nH]6)C=C5)C=C4)cc1)C2
REMARK SMILES IDX 18 1 17 2 15 3 16 4 14 5 13 6 7 7 8 8 11 9 9 11 89 12 10 13
REMARK SMILES IDX 12 14 6 15 4 16 5 17 3 18 2 19 1 20 19 21 20 22 21 23 22 24
REMARK SMILES IDX 23 25 24 26 25 27 26 28 27 29 88 30 28 31 87 32 29 33 30 34
REMARK SMILES IDX 31 35 81 36 32 37 86 38 80 39 82 40 33 41 85 42 79 43 78 44
REMARK SMILES IDX 34 46 66 47 46 48 65 49 47 50 50 51 64 52 83 53 48 54 49 55
REMARK SMILES IDX 63 57 84 58 51 59 35 60 36 61 44 62 37 63 38 64 42 65 45 66
REMARK SMILES IDX 39 67 40 68 43 69 41 70 67 71 68 72 76 73 69 74 70 75 74 76
REMARK SMILES IDX 77 77 71 78 72 79 75 80 73 81 52 82 53 83 61 84 54 85 55 86
REMARK SMILES IDX 59 87 62 88 56 89 57 90 60 91 58 92
REMARK H PARENT 7 10 82 45 50 56
REMARK Flexibility Score: inf
ROOT
ATOM      1  C   UNL A   1      40.274  20.990  26.319  1.00  0.00     0.261 C 
ENDROOT
BRANCH   1   2
ATOM      2  O   UNL A   1      39.289  21.922  25.852  1.00  0.00    -0.463 OA
BRANCH   2   3
ATOM      3  C   UNL A   1      38.211  21.423  25.215  1.00  0.00     0.306 C 
ATOM      4  O   UNL A   1      38.030  20.231  24.995  1.00  0.00    -0.252 OA
BRANCH   3   5
ATOM      5  C   UNL A   1      37.157  22.472  24.883  1.00  0.00     0.126 C 
BRANCH   5   6
ATOM      6  C   UNL A   1      35.704  22.185  24.377  1.00  0.00     0.012 C 
ATOM      7  N   UNL A   1      33.121  23.460  24.936  1.00  0.00    -0.330 N 
ATOM      8  C   UNL A   1      33.664  23.600  23.589  1.00  0.00     0.184 C 
ATOM      9  C   UNL A   1      33.221  22.048  25.232  1.00  0.00     0.184 C 
ATOM     10  H   UNL A   1      32.132  23.658  25.090  1.00  0.00     0.348 HD
ATOM     11  C   UNL A   1      33.009  22.430  22.849  1.00  0.00     0.071 C 
ATOM     12  C   UNL A   1      35.187  23.461  23.650  1.00  0.00     0.069 C 
ATOM     13  C   UNL A   1      32.583  21.469  23.957  1.00  0.00     0.071 C 
ATOM     14  C   UNL A   1      34.669  21.543  25.337  1.00  0.00     0.069 C 
BRANCH   7  15
ATOM     15  C   UNL A   1      33.321  24.577  25.854  1.00  0.00     0.265 C 
BRANCH  15  16
ATOM     16  C   UNL A   1      32.755  26.027  25.715  1.00  0.00     0.041 C 
ATOM     17  C   UNL A   1      33.606  27.003  24.923  1.00  0.00     0.013 C 
BRANCH  16  18
ATOM     18  C   UNL A   1      31.292  25.969  25.159  1.00  0.00     0.009 C 
BRANCH  18  19
ATOM     19  C   UNL A   1      30.756  27.142  24.316  1.00  0.00    -0.003 C 
ATOM     20  C   UNL A   1      29.351  26.963  23.761  1.00  0.00     0.004 C 
ENDBRANCH  18  19
ENDBRANCH  16  18
ENDBRANCH  15  16
ENDBRANCH   7  15
ENDBRANCH   5   6
ENDBRANCH   3   5
ENDBRANCH   2   3
ENDBRANCH   1   2
BRANCH   1  21
ATOM     21  C   UNL A   1      41.650  21.625  26.104  1.00  0.00     0.202 C 
BRANCH  21  22
ATOM     22  O   UNL A   1      42.609  20.778  25.461  1.00  0.00    -0.374 OA
BRANCH  22  23
ATOM     23  C   UNL A   1      43.922  21.305  25.269  1.00  0.00     0.202 C 
BRANCH  23  24
ATOM     24  C   UNL A   1      43.999  22.762  24.811  1.00  0.00     0.261 C 
BRANCH  24  25
ATOM     25  O   UNL A   1      44.624  23.583  25.813  1.00  0.00    -0.460 OA
BRANCH  25  26
ATOM     26  C   UNL A   1      44.696  24.892  25.482  1.00  0.00     0.338 C 
ATOM     27  O   UNL A   1      45.360  25.386  24.587  1.00  0.00    -0.246 OA
BRANCH  26  28
ATOM     28  C   UNL A   1      43.723  25.683  26.263  1.00  0.00     0.060 A 
ATOM     29  C   UNL A   1      44.094  27.000  26.563  1.00  0.00     0.016 A 
ATOM     30  C   UNL A   1      42.534  25.150  26.769  1.00  0.00     0.016 A 
ATOM     31  C   UNL A   1      43.340  27.750  27.456  1.00  0.00     0.010 A 
ATOM     32  C   UNL A   1      41.772  25.909  27.667  1.00  0.00     0.010 A 
ATOM     33  C   UNL A   1      42.210  27.187  28.063  1.00  0.00    -0.014 A 
BRANCH  33  34
ATOM     34  C   UNL A   1      41.641  27.866  29.253  1.00  0.00     0.031 A 
ATOM     35  C   UNL A   1      42.357  27.735  30.571  1.00  0.00     0.074 A 
ATOM     36  C   UNL A   1      40.573  28.675  29.145  1.00  0.00     0.049 A 
ATOM     37  N   UNL A   1      42.085  28.288  31.726  1.00  0.00    -0.248 NA
ATOM     38  C   UNL A   1      43.547  26.868  30.588  1.00  0.00     0.031 C 
ATOM     39  C   UNL A   1      39.826  28.926  27.913  1.00  0.00     0.029 A 
ATOM     40  N   UNL A   1      39.941  29.446  30.088  1.00  0.00    -0.354 N 
ATOM     41  C   UNL A   1      43.064  27.833  32.602  1.00  0.00     0.074 A 
ATOM     42  C   UNL A   1      43.915  26.931  31.858  1.00  0.00     0.031 C 
ATOM     43  C   UNL A   1      38.836  29.797  28.176  1.00  0.00     0.029 A 
ATOM     44  C   UNL A   1      38.864  30.143  29.596  1.00  0.00     0.049 A 
ATOM     45  H   UNL A   1      40.232  29.496  31.027  1.00  0.00     0.167 HD
ATOM     46  C   UNL A   1      43.248  28.152  33.905  1.00  0.00     0.037 A 
ATOM     47  C   UNL A   1      37.997  30.958  30.227  1.00  0.00     0.037 A 
ATOM     48  C   UNL A   1      42.410  29.059  34.643  1.00  0.00     0.049 A 
ATOM     49  C   UNL A   1      38.183  31.243  31.695  1.00  0.00     0.074 A 
ATOM     50  C   UNL A   1      42.522  29.458  35.963  1.00  0.00     0.029 A 
ATOM     51  N   UNL A   1      41.300  29.706  34.122  1.00  0.00    -0.354 N 
ATOM     52  N   UNL A   1      39.123  30.827  32.509  1.00  0.00    -0.248 NA
ATOM     53  C   UNL A   1      37.187  32.119  32.330  1.00  0.00     0.031 C 
ATOM     54  C   UNL A   1      41.450  30.306  36.255  1.00  0.00     0.029 A 
ATOM     55  C   UNL A   1      40.701  30.481  35.102  1.00  0.00     0.049 A 
ATOM     56  H   UNL A   1      40.982  29.627  33.193  1.00  0.00     0.167 HD
ATOM     57  C   UNL A   1      38.853  31.413  33.739  1.00  0.00     0.074 A 
ATOM     58  C   UNL A   1      37.666  32.223  33.563  1.00  0.00     0.031 C 
ATOM     59  C   UNL A   1      39.527  31.292  34.909  1.00  0.00     0.037 A 
BRANCH  46  60
ATOM     60  C   UNL A   1      44.389  27.494  34.626  1.00  0.00     0.064 A 
ATOM     61  C   UNL A   1      45.650  28.099  34.722  1.00  0.00     0.173 A 
ATOM     62  C   UNL A   1      44.205  26.254  35.257  1.00  0.00     0.173 A 
ATOM     63  F   UNL A   1      45.883  29.276  34.122  1.00  0.00    -0.203 F 
ATOM     64  C   UNL A   1      46.693  27.475  35.403  1.00  0.00     0.198 A 
ATOM     65  C   UNL A   1      45.241  25.648  35.963  1.00  0.00     0.198 A 
ATOM     66  F   UNL A   1      43.016  25.635  35.198  1.00  0.00    -0.203 F 
ATOM     67  F   UNL A   1      47.904  28.049  35.443  1.00  0.00    -0.200 F 
ATOM     68  C   UNL A   1      46.486  26.255  36.029  1.00  0.00     0.200 A 
ATOM     69  F   UNL A   1      45.034  24.475  36.577  1.00  0.00    -0.200 F 
ATOM     70  F   UNL A   1      47.488  25.660  36.691  1.00  0.00    -0.200 F 
ENDBRANCH  46  60
BRANCH  47  71
ATOM     71  C   UNL A   1      36.865  31.559  29.473  1.00  0.00     0.064 A 
ATOM     72  C   UNL A   1      36.847  32.924  29.154  1.00  0.00     0.173 A 
ATOM     73  C   UNL A   1      35.767  30.782  29.077  1.00  0.00     0.173 A 
ATOM     74  F   UNL A   1      37.862  33.714  29.534  1.00  0.00    -0.203 F 
ATOM     75  C   UNL A   1      35.766  33.491  28.482  1.00  0.00     0.198 A 
ATOM     76  C   UNL A   1      34.700  31.344  28.380  1.00  0.00     0.198 A 
ATOM     77  F   UNL A   1      35.733  29.472  29.362  1.00  0.00    -0.203 F 
ATOM     78  F   UNL A   1      35.753  34.807  28.231  1.00  0.00    -0.200 F 
ATOM     79  C   UNL A   1      34.697  32.700  28.091  1.00  0.00     0.200 A 
ATOM     80  F   UNL A   1      33.674  30.574  27.993  1.00  0.00    -0.200 F 
ATOM     81  F   UNL A   1      33.659  33.246  27.442  1.00  0.00    -0.200 F 
ENDBRANCH  47  71
BRANCH  59  82
ATOM     82  C   UNL A   1      39.028  32.085  36.082  1.00  0.00     0.064 A 
ATOM     83  C   UNL A   1      38.148  31.533  37.025  1.00  0.00     0.173 A 
ATOM     84  C   UNL A   1      39.472  33.399  36.290  1.00  0.00     0.173 A 
ATOM     85  F   UNL A   1      37.683  30.285  36.865  1.00  0.00    -0.203 F 
ATOM     86  C   UNL A   1      37.712  32.277  38.119  1.00  0.00     0.198 A 
ATOM     87  C   UNL A   1      39.060  34.130  37.401  1.00  0.00     0.198 A 
ATOM     88  F   UNL A   1      40.322  33.971  35.423  1.00  0.00    -0.203 F 
ATOM     89  F   UNL A   1      36.834  31.746  38.981  1.00  0.00    -0.200 F 
ATOM     90  C   UNL A   1      38.174  33.571  38.309  1.00  0.00     0.200 A 
ATOM     91  F   UNL A   1      39.519  35.374  37.592  1.00  0.00    -0.200 F 
ATOM     92  F   UNL A   1      37.759  34.283  39.367  1.00  0.00    -0.200 F 
ENDBRANCH  59  82
ENDBRANCH  33  34
ENDBRANCH  26  28
ENDBRANCH  25  26
ENDBRANCH  24  25
ENDBRANCH  23  24
ENDBRANCH  22  23
ENDBRANCH  21  22
ENDBRANCH   1  21
TORSDOF 19
ENDMDL
