MODEL 1
REMARK VINA RESULT:     -10.8      0.000      0.000
REMARK SMILES COc1ccc(F)cc1[C@@H](C(=O)OCCOCCOC(=O)c1ccc(-c2c3nc(c(-c4c(F)c(F)c(F)c(F)c4F)c4ccc([nH]4)c(-c4c(F)c(F)c(F)c(F)c4F)c4nc(c(-c5c(F)c(F)c(F)c(F)c5F)c5ccc2[nH]5)C=C4)C=C3)cc1)[N@@H+](C)CCn1ccnc1C
REMARK SMILES IDX 15 1 14 2 13 3 11 4 12 5 10 6 9 7 3 8 4 9 5 10 8 11 6 12
REMARK SMILES IDX 7 13 2 14 1 15 85 16 86 17 87 19 88 20 89 21 90 22 93 23
REMARK SMILES IDX 91 24 92 25 94 26 16 27 17 28 18 29 19 30 20 31 21 32 22 33
REMARK SMILES IDX 23 34 84 35 24 36 83 37 25 38 26 39 27 40 77 41 28 42 82 43
REMARK SMILES IDX 76 44 78 45 29 46 81 47 75 48 74 49 30 51 62 52 42 53 61 54
REMARK SMILES IDX 43 55 46 56 60 57 79 58 44 59 45 60 59 62 80 63 47 64 31 65
REMARK SMILES IDX 32 66 40 67 33 68 34 69 38 70 41 71 35 72 36 73 39 74 37 75
REMARK SMILES IDX 63 76 64 77 72 78 65 79 66 80 70 81 73 82 67 83 68 84 71 85
REMARK SMILES IDX 69 86 48 87 49 88 57 89 50 90 51 91 55 92 58 93 52 94 53 95
REMARK SMILES IDX 56 96 54 97
REMARK H PARENT 85 18 78 50 46 61
REMARK Flexibility Score: inf
ROOT
ATOM      1  C   UNL A   1      38.387  22.259  26.044  1.00  0.00     0.202 C 
ENDROOT
BRANCH   1   2
ATOM      2  C   UNL A   1      37.768  23.763  25.974  1.00  0.00     0.261 C 
BRANCH   2   3
ATOM      3  O   UNL A   1      36.507  23.787  25.255  1.00  0.00    -0.459 OA
BRANCH   3   4
ATOM      4  C   UNL A   1      35.198  23.748  25.683  1.00  0.00     0.370 C 
ATOM      5  O   UNL A   1      34.816  23.057  26.618  1.00  0.00    -0.245 OA
BRANCH   4   6
ATOM      6  C   UNL A   1      34.339  24.898  24.942  1.00  0.00     0.330 C 
BRANCH   6   7
ATOM      7  C   UNL A   1      33.411  25.932  25.652  1.00  0.00     0.066 A 
ATOM      8  C   UNL A   1      32.066  25.702  25.970  1.00  0.00     0.128 A 
ATOM      9  C   UNL A   1      31.283  26.742  26.535  1.00  0.00     0.050 A 
ATOM     10  C   UNL A   1      31.812  28.010  26.795  1.00  0.00     0.043 A 
ATOM     11  C   UNL A   1      33.945  27.180  26.106  1.00  0.00     0.053 A 
ATOM     12  C   UNL A   1      33.155  28.214  26.590  1.00  0.00     0.124 A 
ATOM     13  F   UNL A   1      33.697  29.421  26.797  1.00  0.00    -0.207 F 
BRANCH   8  14
ATOM     14  O   UNL A   1      31.598  24.442  25.731  1.00  0.00    -0.496 OA
ATOM     15  C   UNL A   1      31.467  23.591  26.864  1.00  0.00     0.278 C 
ENDBRANCH   8  14
ENDBRANCH   6   7
BRANCH   6  16
ATOM     16  N   UNL A   1      33.542  24.261  23.858  1.00  0.00    -0.320 N 
ATOM     17  C   UNL A   1      33.569  25.073  22.636  1.00  0.00     0.333 C 
ATOM     18  H   UNL A   1      32.570  24.246  24.167  1.00  0.00     0.348 HD
BRANCH  16  19
ATOM     19  C   UNL A   1      33.846  22.807  23.654  1.00  0.00     0.285 C 
BRANCH  19  20
ATOM     20  C   UNL A   1      32.732  21.584  23.508  1.00  0.00     0.184 C 
BRANCH  20  21
ATOM     21  N   UNL A   1      32.758  20.179  23.991  1.00  0.00    -0.330 N 
ATOM     22  C   UNL A   1      32.510  19.950  25.339  1.00  0.00     0.107 A 
ATOM     23  C   UNL A   1      32.711  18.850  23.474  1.00  0.00     0.105 A 
ATOM     24  C   UNL A   1      32.828  18.651  25.597  1.00  0.00     0.131 A 
ATOM     25  N   UNL A   1      33.018  17.994  24.439  1.00  0.00    -0.242 NA
ATOM     26  C   UNL A   1      32.275  18.196  22.192  1.00  0.00     0.087 C 
ENDBRANCH  20  21
ENDBRANCH  19  20
ENDBRANCH  16  19
ENDBRANCH   6  16
ENDBRANCH   4   6
ENDBRANCH   3   4
ENDBRANCH   2   3
ENDBRANCH   1   2
BRANCH   1  27
ATOM     27  O   UNL A   1      37.830  21.336  25.057  1.00  0.00    -0.374 OA
BRANCH  27  28
ATOM     28  C   UNL A   1      38.245  19.952  24.859  1.00  0.00     0.202 C 
BRANCH  28  29
ATOM     29  C   UNL A   1      39.345  19.339  25.943  1.00  0.00     0.261 C 
BRANCH  29  30
ATOM     30  O   UNL A   1      40.738  19.189  25.449  1.00  0.00    -0.460 OA
BRANCH  30  31
ATOM     31  C   UNL A   1      41.871  19.505  26.163  1.00  0.00     0.338 C 
ATOM     32  O   UNL A   1      42.832  18.779  26.284  1.00  0.00    -0.246 OA
BRANCH  31  33
ATOM     33  C   UNL A   1      41.886  20.965  26.649  1.00  0.00     0.060 A 
ATOM     34  C   UNL A   1      41.876  21.993  25.690  1.00  0.00     0.016 A 
ATOM     35  C   UNL A   1      42.024  21.368  27.988  1.00  0.00     0.016 A 
ATOM     36  C   UNL A   1      41.897  23.367  26.040  1.00  0.00     0.010 A 
ATOM     37  C   UNL A   1      42.099  22.758  28.341  1.00  0.00     0.010 A 
ATOM     38  C   UNL A   1      42.031  23.783  27.371  1.00  0.00    -0.014 A 
BRANCH  38  39
ATOM     39  C   UNL A   1      42.350  25.237  27.667  1.00  0.00     0.031 A 
ATOM     40  C   UNL A   1      43.681  25.788  27.193  1.00  0.00     0.074 A 
ATOM     41  C   UNL A   1      41.494  26.129  28.222  1.00  0.00     0.049 A 
ATOM     42  N   UNL A   1      44.197  26.991  27.321  1.00  0.00    -0.248 NA
ATOM     43  C   UNL A   1      44.535  24.853  26.449  1.00  0.00     0.031 C 
ATOM     44  C   UNL A   1      40.121  25.856  28.627  1.00  0.00     0.029 A 
ATOM     45  N   UNL A   1      41.664  27.474  28.522  1.00  0.00    -0.354 N 
ATOM     46  C   UNL A   1      45.424  26.954  26.670  1.00  0.00     0.074 A 
ATOM     47  C   UNL A   1      45.585  25.606  26.164  1.00  0.00     0.031 C 
ATOM     48  C   UNL A   1      39.575  26.986  29.122  1.00  0.00     0.029 A 
ATOM     49  C   UNL A   1      40.565  28.068  29.106  1.00  0.00     0.049 A 
ATOM     50  H   UNL A   1      42.497  27.962  28.334  1.00  0.00     0.167 HD
ATOM     51  C   UNL A   1      46.341  27.937  26.494  1.00  0.00     0.037 A 
ATOM     52  C   UNL A   1      40.373  29.322  29.589  1.00  0.00     0.037 A 
ATOM     53  C   UNL A   1      46.235  29.286  26.984  1.00  0.00     0.049 A 
ATOM     54  C   UNL A   1      41.474  30.363  29.531  1.00  0.00     0.074 A 
ATOM     55  C   UNL A   1      47.155  30.317  26.869  1.00  0.00     0.029 A 
ATOM     56  N   UNL A   1      45.155  29.796  27.683  1.00  0.00    -0.354 N 
ATOM     57  N   UNL A   1      42.649  30.297  28.955  1.00  0.00    -0.248 NA
ATOM     58  C   UNL A   1      41.224  31.654  30.203  1.00  0.00     0.031 C 
ATOM     59  C   UNL A   1      46.656  31.434  27.542  1.00  0.00     0.029 A 
ATOM     60  C   UNL A   1      45.399  31.117  28.028  1.00  0.00     0.049 A 
ATOM     61  H   UNL A   1      44.336  29.296  27.901  1.00  0.00     0.167 HD
ATOM     62  C   UNL A   1      43.258  31.531  29.170  1.00  0.00     0.074 A 
ATOM     63  C   UNL A   1      42.327  32.338  29.925  1.00  0.00     0.031 C 
ATOM     64  C   UNL A   1      44.483  31.947  28.767  1.00  0.00     0.037 A 
BRANCH  51  65
ATOM     65  C   UNL A   1      47.594  27.577  25.748  1.00  0.00     0.064 A 
ATOM     66  C   UNL A   1      47.620  27.621  24.346  1.00  0.00     0.173 A 
ATOM     67  C   UNL A   1      48.746  27.142  26.417  1.00  0.00     0.173 A 
ATOM     68  F   UNL A   1      46.537  28.019  23.662  1.00  0.00    -0.203 F 
ATOM     69  C   UNL A   1      48.755  27.236  23.640  1.00  0.00     0.198 A 
ATOM     70  C   UNL A   1      49.890  26.785  25.708  1.00  0.00     0.198 A 
ATOM     71  F   UNL A   1      48.772  27.093  27.758  1.00  0.00    -0.203 F 
ATOM     72  F   UNL A   1      48.748  27.259  22.300  1.00  0.00    -0.200 F 
ATOM     73  C   UNL A   1      49.890  26.825  24.321  1.00  0.00     0.200 A 
ATOM     74  F   UNL A   1      50.996  26.411  26.366  1.00  0.00    -0.200 F 
ATOM     75  F   UNL A   1      50.989  26.471  23.640  1.00  0.00    -0.200 F 
ENDBRANCH  51  65
BRANCH  52  76
ATOM     76  C   UNL A   1      39.071  29.692  30.222  1.00  0.00     0.064 A 
ATOM     77  C   UNL A   1      38.842  29.481  31.590  1.00  0.00     0.173 A 
ATOM     78  C   UNL A   1      38.055  30.324  29.487  1.00  0.00     0.173 A 
ATOM     79  F   UNL A   1      39.794  28.919  32.350  1.00  0.00    -0.203 F 
ATOM     80  C   UNL A   1      37.640  29.857  32.190  1.00  0.00     0.198 A 
ATOM     81  C   UNL A   1      36.863  30.723  30.094  1.00  0.00     0.198 A 
ATOM     82  F   UNL A   1      38.244  30.607  28.189  1.00  0.00    -0.203 F 
ATOM     83  F   UNL A   1      37.446  29.627  33.495  1.00  0.00    -0.200 F 
ATOM     84  C   UNL A   1      36.653  30.479  31.443  1.00  0.00     0.200 A 
ATOM     85  F   UNL A   1      35.930  31.367  29.378  1.00  0.00    -0.200 F 
ATOM     86  F   UNL A   1      35.508  30.861  32.025  1.00  0.00    -0.200 F 
ENDBRANCH  52  76
BRANCH  64  87
ATOM     87  C   UNL A   1      44.923  33.349  29.092  1.00  0.00     0.064 A 
ATOM     88  C   UNL A   1      45.586  33.626  30.299  1.00  0.00     0.173 A 
ATOM     89  C   UNL A   1      44.582  34.436  28.273  1.00  0.00     0.173 A 
ATOM     90  F   UNL A   1      45.926  32.627  31.127  1.00  0.00    -0.203 F 
ATOM     91  C   UNL A   1      45.869  34.935  30.684  1.00  0.00     0.198 A 
ATOM     92  C   UNL A   1      44.889  35.744  28.650  1.00  0.00     0.198 A 
ATOM     93  F   UNL A   1      43.955  34.231  27.107  1.00  0.00    -0.203 F 
ATOM     94  F   UNL A   1      46.463  35.174  31.862  1.00  0.00    -0.200 F 
ATOM     95  C   UNL A   1      45.520  35.993  29.860  1.00  0.00     0.200 A 
ATOM     96  F   UNL A   1      44.564  36.766  27.845  1.00  0.00    -0.200 F 
ATOM     97  F   UNL A   1      45.788  37.253  30.231  1.00  0.00    -0.200 F 
ENDBRANCH  64  87
ENDBRANCH  38  39
ENDBRANCH  31  33
ENDBRANCH  30  31
ENDBRANCH  29  30
ENDBRANCH  28  29
ENDBRANCH  27  28
ENDBRANCH   1  27
TORSDOF 20
ENDMDL
MODEL 2
REMARK VINA RESULT:     -10.8      4.749     10.161
REMARK SMILES COc1ccc(F)cc1[C@@H](C(=O)OCCOCCOC(=O)c1ccc(-c2c3nc(c(-c4c(F)c(F)c(F)c(F)c4F)c4ccc([nH]4)c(-c4c(F)c(F)c(F)c(F)c4F)c4nc(c(-c5c(F)c(F)c(F)c(F)c5F)c5ccc2[nH]5)C=C4)C=C3)cc1)[N@@H+](C)CCn1ccnc1C
REMARK SMILES IDX 15 1 14 2 13 3 11 4 12 5 10 6 9 7 3 8 4 9 5 10 8 11 6 12
REMARK SMILES IDX 7 13 2 14 1 15 85 16 86 17 87 19 88 20 89 21 90 22 93 23
REMARK SMILES IDX 91 24 92 25 94 26 16 27 17 28 18 29 19 30 20 31 21 32 22 33
REMARK SMILES IDX 23 34 84 35 24 36 83 37 25 38 26 39 27 40 77 41 28 42 82 43
REMARK SMILES IDX 76 44 78 45 29 46 81 47 75 48 74 49 30 51 62 52 42 53 61 54
REMARK SMILES IDX 43 55 46 56 60 57 79 58 44 59 45 60 59 62 80 63 47 64 31 65
REMARK SMILES IDX 32 66 40 67 33 68 34 69 38 70 41 71 35 72 36 73 39 74 37 75
REMARK SMILES IDX 63 76 64 77 72 78 65 79 66 80 70 81 73 82 67 83 68 84 71 85
REMARK SMILES IDX 69 86 48 87 49 88 57 89 50 90 51 91 55 92 58 93 52 94 53 95
REMARK SMILES IDX 56 96 54 97
REMARK H PARENT 85 18 78 50 46 61
REMARK Flexibility Score: inf
ROOT
ATOM      1  C   UNL A   1      33.047  30.053  27.496  1.00  0.00     0.202 C 
ENDROOT
BRANCH   1   2
ATOM      2  C   UNL A   1      34.235  29.423  26.578  1.00  0.00     0.261 C 
BRANCH   2   3
ATOM      3  O   UNL A   1      34.037  28.003  26.352  1.00  0.00    -0.459 OA
BRANCH   3   4
ATOM      4  C   UNL A   1      32.920  27.263  26.032  1.00  0.00     0.370 C 
ATOM      5  O   UNL A   1      32.279  26.622  26.856  1.00  0.00    -0.245 OA
BRANCH   4   6
ATOM      6  C   UNL A   1      32.470  27.568  24.511  1.00  0.00     0.330 C 
BRANCH   6   7
ATOM      7  C   UNL A   1      31.017  27.892  24.045  1.00  0.00     0.066 A 
ATOM      8  C   UNL A   1      29.994  26.942  23.924  1.00  0.00     0.128 A 
ATOM      9  C   UNL A   1      28.730  27.325  23.404  1.00  0.00     0.050 A 
ATOM     10  C   UNL A   1      28.460  28.638  23.006  1.00  0.00     0.043 A 
ATOM     11  C   UNL A   1      30.631  29.248  23.799  1.00  0.00     0.053 A 
ATOM     12  C   UNL A   1      29.417  29.599  23.224  1.00  0.00     0.124 A 
ATOM     13  F   UNL A   1      29.211  30.862  22.829  1.00  0.00    -0.207 F 
BRANCH   8  14
ATOM     14  O   UNL A   1      30.289  25.681  24.354  1.00  0.00    -0.496 OA
ATOM     15  C   UNL A   1      30.211  24.647  23.378  1.00  0.00     0.278 C 
ENDBRANCH   8  14
ENDBRANCH   6   7
BRANCH   6  16
ATOM     16  N   UNL A   1      32.976  26.468  23.645  1.00  0.00    -0.320 N 
ATOM     17  C   UNL A   1      33.521  26.993  22.389  1.00  0.00     0.333 C 
ATOM     18  H   UNL A   1      32.174  25.892  23.388  1.00  0.00     0.348 HD
BRANCH  16  19
ATOM     19  C   UNL A   1      33.866  25.493  24.358  1.00  0.00     0.285 C 
BRANCH  19  20
ATOM     20  C   UNL A   1      33.950  23.857  24.079  1.00  0.00     0.184 C 
BRANCH  20  21
ATOM     21  N   UNL A   1      33.126  22.736  24.601  1.00  0.00    -0.330 N 
ATOM     22  C   UNL A   1      33.500  21.442  24.260  1.00  0.00     0.107 A 
ATOM     23  C   UNL A   1      32.145  22.484  25.604  1.00  0.00     0.105 A 
ATOM     24  C   UNL A   1      32.482  20.614  24.629  1.00  0.00     0.131 A 
ATOM     25  N   UNL A   1      31.612  21.286  25.404  1.00  0.00    -0.242 NA
ATOM     26  C   UNL A   1      31.685  23.153  26.870  1.00  0.00     0.087 C 
ENDBRANCH  20  21
ENDBRANCH  19  20
ENDBRANCH  16  19
ENDBRANCH   6  16
ENDBRANCH   4   6
ENDBRANCH   3   4
ENDBRANCH   2   3
ENDBRANCH   1   2
BRANCH   1  27
ATOM     27  O   UNL A   1      31.880  30.502  26.740  1.00  0.00    -0.374 OA
BRANCH  27  28
ATOM     28  C   UNL A   1      31.379  31.870  26.684  1.00  0.00     0.202 C 
BRANCH  28  29
ATOM     29  C   UNL A   1      32.497  33.084  26.877  1.00  0.00     0.261 C 
BRANCH  29  30
ATOM     30  O   UNL A   1      32.220  34.064  27.958  1.00  0.00    -0.460 OA
BRANCH  30  31
ATOM     31  C   UNL A   1      33.177  34.731  28.689  1.00  0.00     0.338 C 
ATOM     32  O   UNL A   1      33.017  35.812  29.207  1.00  0.00    -0.246 OA
BRANCH  31  33
ATOM     33  C   UNL A   1      34.433  33.879  28.949  1.00  0.00     0.060 A 
ATOM     34  C   UNL A   1      34.308  32.722  29.738  1.00  0.00     0.016 A 
ATOM     35  C   UNL A   1      35.737  34.224  28.556  1.00  0.00     0.016 A 
ATOM     36  C   UNL A   1      35.407  31.879  30.040  1.00  0.00     0.010 A 
ATOM     37  C   UNL A   1      36.860  33.400  28.907  1.00  0.00     0.010 A 
ATOM     38  C   UNL A   1      36.713  32.208  29.652  1.00  0.00    -0.014 A 
BRANCH  38  39
ATOM     39  C   UNL A   1      37.881  31.446  30.250  1.00  0.00     0.031 A 
ATOM     40  C   UNL A   1      38.208  31.671  31.714  1.00  0.00     0.074 A 
ATOM     41  C   UNL A   1      38.595  30.485  29.616  1.00  0.00     0.049 A 
ATOM     42  N   UNL A   1      39.154  31.149  32.463  1.00  0.00    -0.248 NA
ATOM     43  C   UNL A   1      37.323  32.596  32.434  1.00  0.00     0.031 C 
ATOM     44  C   UNL A   1      38.369  30.010  28.256  1.00  0.00     0.029 A 
ATOM     45  N   UNL A   1      39.662  29.715  30.059  1.00  0.00    -0.354 N 
ATOM     46  C   UNL A   1      38.971  31.677  33.736  1.00  0.00     0.074 A 
ATOM     47  C   UNL A   1      37.836  32.573  33.654  1.00  0.00     0.031 C 
ATOM     48  C   UNL A   1      39.262  29.039  27.975  1.00  0.00     0.029 A 
ATOM     49  C   UNL A   1      40.157  28.836  29.119  1.00  0.00     0.049 A 
ATOM     50  H   UNL A   1      40.033  29.789  30.967  1.00  0.00     0.167 HD
ATOM     51  C   UNL A   1      39.665  31.446  34.877  1.00  0.00     0.037 A 
ATOM     52  C   UNL A   1      41.210  27.981  29.156  1.00  0.00     0.037 A 
ATOM     53  C   UNL A   1      40.804  30.575  35.009  1.00  0.00     0.049 A 
ATOM     54  C   UNL A   1      42.079  27.859  30.393  1.00  0.00     0.074 A 
ATOM     55  C   UNL A   1      41.574  30.333  36.136  1.00  0.00     0.029 A 
ATOM     56  N   UNL A   1      41.342  29.809  33.990  1.00  0.00    -0.354 N 
ATOM     57  N   UNL A   1      41.922  28.403  31.575  1.00  0.00    -0.248 NA
ATOM     58  C   UNL A   1      43.283  27.008  30.296  1.00  0.00     0.031 C 
ATOM     59  C   UNL A   1      42.609  29.462  35.788  1.00  0.00     0.029 A 
ATOM     60  C   UNL A   1      42.449  29.116  34.457  1.00  0.00     0.049 A 
ATOM     61  H   UNL A   1      40.990  29.761  33.072  1.00  0.00     0.167 HD
ATOM     62  C   UNL A   1      42.979  27.943  32.358  1.00  0.00     0.074 A 
ATOM     63  C   UNL A   1      43.774  27.069  31.527  1.00  0.00     0.031 C 
ATOM     64  C   UNL A   1      43.251  28.228  33.654  1.00  0.00     0.037 A 
BRANCH  51  65
ATOM     65  C   UNL A   1      39.228  32.190  36.106  1.00  0.00     0.064 A 
ATOM     66  C   UNL A   1      39.799  33.432  36.422  1.00  0.00     0.173 A 
ATOM     67  C   UNL A   1      38.284  31.652  36.992  1.00  0.00     0.173 A 
ATOM     68  F   UNL A   1      40.715  33.981  35.610  1.00  0.00    -0.203 F 
ATOM     69  C   UNL A   1      39.445  34.105  37.586  1.00  0.00     0.198 A 
ATOM     70  C   UNL A   1      37.911  32.343  38.141  1.00  0.00     0.198 A 
ATOM     71  F   UNL A   1      37.703  30.472  36.726  1.00  0.00    -0.203 F 
ATOM     72  F   UNL A   1      40.024  35.277  37.882  1.00  0.00    -0.200 F 
ATOM     73  C   UNL A   1      38.497  33.564  38.440  1.00  0.00     0.200 A 
ATOM     74  F   UNL A   1      36.977  31.832  38.955  1.00  0.00    -0.200 F 
ATOM     75  F   UNL A   1      38.143  34.223  39.553  1.00  0.00    -0.200 F 
ENDBRANCH  51  65
BRANCH  52  76
ATOM     76  C   UNL A   1      41.555  27.161  27.955  1.00  0.00     0.064 A 
ATOM     77  C   UNL A   1      42.436  27.643  26.976  1.00  0.00     0.173 A 
ATOM     78  C   UNL A   1      41.064  25.855  27.797  1.00  0.00     0.173 A 
ATOM     79  F   UNL A   1      42.970  28.867  27.097  1.00  0.00    -0.203 F 
ATOM     80  C   UNL A   1      42.786  26.865  25.871  1.00  0.00     0.198 A 
ATOM     81  C   UNL A   1      41.435  25.069  26.705  1.00  0.00     0.198 A 
ATOM     82  F   UNL A   1      40.267  25.321  28.735  1.00  0.00    -0.203 F 
ATOM     83  F   UNL A   1      43.618  27.360  24.944  1.00  0.00    -0.200 F 
ATOM     84  C   UNL A   1      42.288  25.579  25.737  1.00  0.00     0.200 A 
ATOM     85  F   UNL A   1      40.988  23.810  26.604  1.00  0.00    -0.200 F 
ATOM     86  F   UNL A   1      42.643  24.825  24.688  1.00  0.00    -0.200 F 
ENDBRANCH  52  76
BRANCH  64  87
ATOM     87  C   UNL A   1      44.443  27.585  34.310  1.00  0.00     0.064 A 
ATOM     88  C   UNL A   1      44.315  26.348  34.964  1.00  0.00     0.173 A 
ATOM     89  C   UNL A   1      45.679  28.242  34.400  1.00  0.00     0.173 A 
ATOM     90  F   UNL A   1      43.153  25.678  34.922  1.00  0.00    -0.203 F 
ATOM     91  C   UNL A   1      45.367  25.808  35.701  1.00  0.00     0.198 A 
ATOM     92  C   UNL A   1      46.738  27.688  35.118  1.00  0.00     0.198 A 
ATOM     93  F   UNL A   1      45.860  29.422  33.790  1.00  0.00    -0.203 F 
ATOM     94  F   UNL A   1      45.204  24.647  36.352  1.00  0.00    -0.200 F 
ATOM     95  C   UNL A   1      46.577  26.478  35.778  1.00  0.00     0.200 A 
ATOM     96  F   UNL A   1      47.913  28.330  35.180  1.00  0.00    -0.200 F 
ATOM     97  F   UNL A   1      47.589  25.962  36.491  1.00  0.00    -0.200 F 
ENDBRANCH  64  87
ENDBRANCH  38  39
ENDBRANCH  31  33
ENDBRANCH  30  31
ENDBRANCH  29  30
ENDBRANCH  28  29
ENDBRANCH  27  28
ENDBRANCH   1  27
TORSDOF 20
ENDMDL
MODEL 3
REMARK VINA RESULT:     -10.7      5.326     10.867
REMARK SMILES COc1ccc(F)cc1[C@@H](C(=O)OCCOCCOC(=O)c1ccc(-c2c3nc(c(-c4c(F)c(F)c(F)c(F)c4F)c4ccc([nH]4)c(-c4c(F)c(F)c(F)c(F)c4F)c4nc(c(-c5c(F)c(F)c(F)c(F)c5F)c5ccc2[nH]5)C=C4)C=C3)cc1)[N@@H+](C)CCn1ccnc1C
REMARK SMILES IDX 15 1 14 2 13 3 11 4 12 5 10 6 9 7 3 8 4 9 5 10 8 11 6 12
REMARK SMILES IDX 7 13 2 14 1 15 85 16 86 17 87 19 88 20 89 21 90 22 93 23
REMARK SMILES IDX 91 24 92 25 94 26 16 27 17 28 18 29 19 30 20 31 21 32 22 33
REMARK SMILES IDX 23 34 84 35 24 36 83 37 25 38 26 39 27 40 77 41 28 42 82 43
REMARK SMILES IDX 76 44 78 45 29 46 81 47 75 48 74 49 30 51 62 52 42 53 61 54
REMARK SMILES IDX 43 55 46 56 60 57 79 58 44 59 45 60 59 62 80 63 47 64 31 65
REMARK SMILES IDX 32 66 40 67 33 68 34 69 38 70 41 71 35 72 36 73 39 74 37 75
REMARK SMILES IDX 63 76 64 77 72 78 65 79 66 80 70 81 73 82 67 83 68 84 71 85
REMARK SMILES IDX 69 86 48 87 49 88 57 89 50 90 51 91 55 92 58 93 52 94 53 95
REMARK SMILES IDX 56 96 54 97
REMARK H PARENT 85 18 78 50 46 61
REMARK Flexibility Score: inf
ROOT
ATOM      1  C   UNL A   1      33.199  30.100  27.163  1.00  0.00     0.202 C 
ENDROOT
BRANCH   1   2
ATOM      2  C   UNL A   1      33.245  28.475  27.226  1.00  0.00     0.261 C 
BRANCH   2   3
ATOM      3  O   UNL A   1      33.942  27.916  26.082  1.00  0.00    -0.459 OA
BRANCH   3   4
ATOM      4  C   UNL A   1      33.497  27.461  24.859  1.00  0.00     0.370 C 
ATOM      5  O   UNL A   1      33.948  27.854  23.791  1.00  0.00    -0.245 OA
BRANCH   4   6
ATOM      6  C   UNL A   1      32.506  26.202  25.064  1.00  0.00     0.330 C 
BRANCH   6   7
ATOM      7  C   UNL A   1      32.744  24.765  24.506  1.00  0.00     0.066 A 
ATOM      8  C   UNL A   1      32.420  24.356  23.205  1.00  0.00     0.128 A 
ATOM      9  C   UNL A   1      32.593  23.000  22.825  1.00  0.00     0.050 A 
ATOM     10  C   UNL A   1      33.087  22.039  23.713  1.00  0.00     0.043 A 
ATOM     11  C   UNL A   1      33.413  23.787  25.309  1.00  0.00     0.053 A 
ATOM     12  C   UNL A   1      33.510  22.449  24.953  1.00  0.00     0.124 A 
ATOM     13  F   UNL A   1      33.961  21.557  25.845  1.00  0.00    -0.207 F 
BRANCH   8  14
ATOM     14  O   UNL A   1      31.973  25.332  22.362  1.00  0.00    -0.496 OA
ATOM     15  C   UNL A   1      32.816  25.648  21.260  1.00  0.00     0.278 C 
ENDBRANCH   8  14
ENDBRANCH   6   7
BRANCH   6  16
ATOM     16  N   UNL A   1      31.136  26.614  24.653  1.00  0.00    -0.320 N 
ATOM     17  C   UNL A   1      30.117  25.951  25.473  1.00  0.00     0.333 C 
ATOM     18  H   UNL A   1      30.994  26.281  23.699  1.00  0.00     0.348 HD
BRANCH  16  19
ATOM     19  C   UNL A   1      30.964  28.098  24.512  1.00  0.00     0.285 C 
BRANCH  19  20
ATOM     20  C   UNL A   1      30.556  28.910  23.121  1.00  0.00     0.184 C 
BRANCH  20  21
ATOM     21  N   UNL A   1      29.296  29.592  22.726  1.00  0.00    -0.330 N 
ATOM     22  C   UNL A   1      29.338  30.451  21.634  1.00  0.00     0.107 A 
ATOM     23  C   UNL A   1      27.890  29.489  22.941  1.00  0.00     0.105 A 
ATOM     24  C   UNL A   1      28.162  31.139  21.613  1.00  0.00     0.131 A 
ATOM     25  N   UNL A   1      27.295  30.579  22.475  1.00  0.00    -0.242 NA
ATOM     26  C   UNL A   1      26.937  28.428  23.417  1.00  0.00     0.087 C 
ENDBRANCH  20  21
ENDBRANCH  19  20
ENDBRANCH  16  19
ENDBRANCH   6  16
ENDBRANCH   4   6
ENDBRANCH   3   4
ENDBRANCH   2   3
ENDBRANCH   1   2
BRANCH   1  27
ATOM     27  O   UNL A   1      31.922  30.646  26.710  1.00  0.00    -0.374 OA
BRANCH  27  28
ATOM     28  C   UNL A   1      31.553  32.057  26.708  1.00  0.00     0.202 C 
BRANCH  28  29
ATOM     29  C   UNL A   1      32.641  33.114  27.385  1.00  0.00     0.261 C 
BRANCH  29  30
ATOM     30  O   UNL A   1      32.075  34.370  27.941  1.00  0.00    -0.460 OA
BRANCH  30  31
ATOM     31  C   UNL A   1      32.788  35.323  28.633  1.00  0.00     0.338 C 
ATOM     32  O   UNL A   1      32.455  36.481  28.749  1.00  0.00    -0.246 OA
BRANCH  31  33
ATOM     33  C   UNL A   1      33.975  34.734  29.416  1.00  0.00     0.060 A 
ATOM     34  C   UNL A   1      35.213  34.603  28.761  1.00  0.00     0.016 A 
ATOM     35  C   UNL A   1      33.901  34.201  30.714  1.00  0.00     0.016 A 
ATOM     36  C   UNL A   1      36.360  34.064  29.395  1.00  0.00     0.010 A 
ATOM     37  C   UNL A   1      35.048  33.605  31.338  1.00  0.00     0.010 A 
ATOM     38  C   UNL A   1      36.302  33.531  30.690  1.00  0.00    -0.014 A 
BRANCH  38  39
ATOM     39  C   UNL A   1      37.463  32.702  31.206  1.00  0.00     0.031 A 
ATOM     40  C   UNL A   1      38.010  33.017  32.585  1.00  0.00     0.074 A 
ATOM     41  C   UNL A   1      37.986  31.617  30.586  1.00  0.00     0.049 A 
ATOM     42  N   UNL A   1      38.996  32.463  33.255  1.00  0.00    -0.248 NA
ATOM     43  C   UNL A   1      37.327  34.092  33.316  1.00  0.00     0.031 C 
ATOM     44  C   UNL A   1      37.530  31.052  29.322  1.00  0.00     0.029 A 
ATOM     45  N   UNL A   1      39.026  30.777  30.964  1.00  0.00    -0.354 N 
ATOM     46  C   UNL A   1      39.043  33.117  34.481  1.00  0.00     0.074 A 
ATOM     47  C   UNL A   1      38.000  34.121  34.456  1.00  0.00     0.031 C 
ATOM     48  C   UNL A   1      38.278  29.969  29.028  1.00  0.00     0.029 A 
ATOM     49  C   UNL A   1      39.299  29.771  30.061  1.00  0.00     0.049 A 
ATOM     50  H   UNL A   1      39.525  30.890  31.804  1.00  0.00     0.167 HD
ATOM     51  C   UNL A   1      39.864  32.913  35.541  1.00  0.00     0.037 A 
ATOM     52  C   UNL A   1      40.260  28.813  30.049  1.00  0.00     0.037 A 
ATOM     53  C   UNL A   1      40.921  31.939  35.612  1.00  0.00     0.049 A 
ATOM     54  C   UNL A   1      41.277  28.706  31.170  1.00  0.00     0.074 A 
ATOM     55  C   UNL A   1      41.813  31.714  36.649  1.00  0.00     0.029 A 
ATOM     56  N   UNL A   1      41.237  31.032  34.615  1.00  0.00    -0.354 N 
ATOM     57  N   UNL A   1      41.338  29.365  32.300  1.00  0.00    -0.248 NA
ATOM     58  C   UNL A   1      42.368  27.725  31.004  1.00  0.00     0.031 C 
ATOM     59  C   UNL A   1      42.701  30.708  36.260  1.00  0.00     0.029 A 
ATOM     60  C   UNL A   1      42.326  30.266  35.003  1.00  0.00     0.049 A 
ATOM     61  H   UNL A   1      40.758  30.943  33.760  1.00  0.00     0.167 HD
ATOM     62  C   UNL A   1      42.444  28.864  32.983  1.00  0.00     0.074 A 
ATOM     63  C   UNL A   1      43.029  27.839  32.150  1.00  0.00     0.031 C 
ATOM     64  C   UNL A   1      42.920  29.230  34.198  1.00  0.00     0.037 A 
BRANCH  51  65
ATOM     65  C   UNL A   1      39.675  33.805  36.733  1.00  0.00     0.064 A 
ATOM     66  C   UNL A   1      40.340  35.038  36.808  1.00  0.00     0.173 A 
ATOM     67  C   UNL A   1      38.878  33.417  37.820  1.00  0.00     0.173 A 
ATOM     68  F   UNL A   1      41.123  35.446  35.797  1.00  0.00    -0.203 F 
ATOM     69  C   UNL A   1      40.219  35.848  37.931  1.00  0.00     0.198 A 
ATOM     70  C   UNL A   1      38.736  34.245  38.930  1.00  0.00     0.198 A 
ATOM     71  F   UNL A   1      38.215  32.251  37.790  1.00  0.00    -0.203 F 
ATOM     72  F   UNL A   1      40.886  37.010  37.993  1.00  0.00    -0.200 F 
ATOM     73  C   UNL A   1      39.412  35.455  38.988  1.00  0.00     0.200 A 
ATOM     74  F   UNL A   1      37.938  33.876  39.941  1.00  0.00    -0.200 F 
ATOM     75  F   UNL A   1      39.282  36.245  40.063  1.00  0.00    -0.200 F 
ENDBRANCH  51  65
BRANCH  52  76
ATOM     76  C   UNL A   1      40.355  27.858  28.903  1.00  0.00     0.064 A 
ATOM     77  C   UNL A   1      39.662  26.638  28.916  1.00  0.00     0.173 A 
ATOM     78  C   UNL A   1      41.086  28.174  27.748  1.00  0.00     0.173 A 
ATOM     79  F   UNL A   1      38.913  26.302  29.976  1.00  0.00    -0.203 F 
ATOM     80  C   UNL A   1      39.723  25.760  27.833  1.00  0.00     0.198 A 
ATOM     81  C   UNL A   1      41.126  27.307  26.656  1.00  0.00     0.198 A 
ATOM     82  F   UNL A   1      41.718  29.355  27.657  1.00  0.00    -0.203 F 
ATOM     83  F   UNL A   1      39.062  24.596  27.881  1.00  0.00    -0.200 F 
ATOM     84  C   UNL A   1      40.452  26.096  26.703  1.00  0.00     0.200 A 
ATOM     85  F   UNL A   1      41.793  27.656  25.547  1.00  0.00    -0.200 F 
ATOM     86  F   UNL A   1      40.490  25.262  25.655  1.00  0.00    -0.200 F 
ENDBRANCH  52  76
BRANCH  64  87
ATOM     87  C   UNL A   1      44.124  28.521  34.756  1.00  0.00     0.064 A 
ATOM     88  C   UNL A   1      45.420  28.966  34.445  1.00  0.00     0.173 A 
ATOM     89  C   UNL A   1      44.005  27.333  35.493  1.00  0.00     0.173 A 
ATOM     90  F   UNL A   1      45.595  30.089  33.732  1.00  0.00    -0.203 F 
ATOM     91  C   UNL A   1      46.546  28.239  34.829  1.00  0.00     0.198 A 
ATOM     92  C   UNL A   1      45.134  26.620  35.897  1.00  0.00     0.198 A 
ATOM     93  F   UNL A   1      42.793  26.864  35.824  1.00  0.00    -0.203 F 
ATOM     94  F   UNL A   1      47.768  28.664  34.481  1.00  0.00    -0.200 F 
ATOM     95  C   UNL A   1      46.402  27.067  35.553  1.00  0.00     0.200 A 
ATOM     96  F   UNL A   1      44.994  25.495  36.611  1.00  0.00    -0.200 F 
ATOM     97  F   UNL A   1      47.483  26.365  35.919  1.00  0.00    -0.200 F 
ENDBRANCH  64  87
ENDBRANCH  38  39
ENDBRANCH  31  33
ENDBRANCH  30  31
ENDBRANCH  29  30
ENDBRANCH  28  29
ENDBRANCH  27  28
ENDBRANCH   1  27
TORSDOF 20
ENDMDL
