MODEL 1
REMARK VINA RESULT:     -10.3      0.000      0.000
REMARK SMILES CC(=O)N[C@H](CSCC(=O)Nc1ccc2c(c1)N1CC[NH+]=C1S2)C(=O)OCCOCCOC(=O)c1ccc(-c2c3nc(c(-c4c(F)c(F)c(F)c(F)c4F)c4ccc([nH]4)c(-c4c(F)c(F)c(F)c(F)c4F)c4nc(c(-c5c(F)c(F)c(F)c(F)c5F)c5ccc2[nH]5)C=C4)C=C3)cc1
REMARK SMILES IDX 27 1 26 2 24 3 25 4 5 5 4 6 1 7 2 8 3 9 6 11 7 12 8 13 9 14
REMARK SMILES IDX 10 15 11 16 12 18 13 19 17 20 14 21 16 22 15 23 18 24 23 25
REMARK SMILES IDX 19 26 22 27 20 28 21 29 28 31 29 32 30 33 31 34 32 35 33 36
REMARK SMILES IDX 34 37 35 38 36 39 97 40 37 41 96 42 38 43 39 44 40 45 90 46
REMARK SMILES IDX 41 47 95 48 89 49 91 50 42 51 94 52 88 53 87 54 43 56 75 57
REMARK SMILES IDX 55 58 74 59 56 60 59 61 73 62 92 63 57 64 58 65 72 67 93 68
REMARK SMILES IDX 60 69 44 70 45 71 53 72 46 73 47 74 51 75 54 76 48 77 49 78
REMARK SMILES IDX 52 79 50 80 76 81 77 82 85 83 78 84 79 85 83 86 86 87 80 88
REMARK SMILES IDX 81 89 84 90 82 91 61 92 62 93 70 94 63 95 64 96 68 97 71 98
REMARK SMILES IDX 65 99 66 100 69 101 67 102
REMARK H PARENT 4 10 11 17 21 30 91 55 59 66
REMARK Flexibility Score: inf
ROOT
ATOM      1  C   UNL A   1      33.082  27.303  23.035  1.00  0.00     0.261 C 
ENDROOT
BRANCH   1   2
ATOM      2  O   UNL A   1      32.480  26.640  24.164  1.00  0.00    -0.462 OA
BRANCH   2   3
ATOM      3  C   UNL A   1      33.330  26.123  25.083  1.00  0.00     0.329 C 
ATOM      4  O   UNL A   1      34.081  26.781  25.792  1.00  0.00    -0.250 OA
BRANCH   3   5
ATOM      5  C   UNL A   1      33.326  24.590  25.076  1.00  0.00     0.202 C 
BRANCH   5   6
ATOM      6  N   UNL A   1      32.088  24.057  24.509  1.00  0.00    -0.342 N 
ATOM      7  C   UNL A   1      32.956  23.640  22.235  1.00  0.00     0.114 C 
ATOM      8  C   UNL A   1      31.866  23.551  23.267  1.00  0.00     0.217 C 
ATOM      9  O   UNL A   1      30.767  23.067  23.007  1.00  0.00    -0.275 OA
ATOM     10  H   UNL A   1      31.308  24.068  25.109  1.00  0.00     0.164 HD
ENDBRANCH   5   6
BRANCH   5  11
ATOM     11  C   UNL A   1      33.708  23.974  26.439  1.00  0.00     0.107 C 
BRANCH  11  12
ATOM     12  S   UNL A   1      33.024  22.312  26.820  1.00  0.00    -0.149 SA
BRANCH  12  13
ATOM     13  C   UNL A   1      34.402  21.192  26.431  1.00  0.00     0.169 C 
BRANCH  13  14
ATOM     14  C   UNL A   1      34.817  21.148  24.979  1.00  0.00     0.234 C 
ATOM     15  O   UNL A   1      33.965  20.978  24.100  1.00  0.00    -0.274 OA
ATOM     16  N   UNL A   1      36.090  21.383  24.553  1.00  0.00    -0.325 N 
ATOM     17  H   UNL A   1      36.281  21.120  23.623  1.00  0.00     0.169 HD
BRANCH  16  18
ATOM     18  C   UNL A   1      37.162  21.943  25.252  1.00  0.00     0.045 A 
ATOM     19  C   UNL A   1      37.200  23.284  25.650  1.00  0.00     0.027 A 
ATOM     20  C   UNL A   1      38.215  21.081  25.571  1.00  0.00     0.079 A 
ATOM     21  C   UNL A   1      38.323  23.800  26.306  1.00  0.00     0.022 A 
ATOM     22  C   UNL A   1      39.352  21.592  26.159  1.00  0.00     0.144 A 
ATOM     23  C   UNL A   1      39.393  22.952  26.529  1.00  0.00     0.067 A 
ATOM     24  N   UNL A   1      40.534  20.944  26.374  1.00  0.00    -0.216 N 
ATOM     25  S   UNL A   1      41.010  23.354  27.208  1.00  0.00     0.002 SA
ATOM     26  C   UNL A   1      41.015  19.620  26.137  1.00  0.00     0.289 C 
ATOM     27  C   UNL A   1      41.546  21.731  26.827  1.00  0.00     0.316 C 
ATOM     28  C   UNL A   1      42.540  19.871  26.262  1.00  0.00     0.280 C 
ATOM     29  N   UNL A   1      42.745  21.233  26.888  1.00  0.00    -0.264 N 
ATOM     30  H   UNL A   1      43.569  21.635  27.246  1.00  0.00     0.305 HD
ENDBRANCH  16  18
ENDBRANCH  13  14
ENDBRANCH  12  13
ENDBRANCH  11  12
ENDBRANCH   5  11
ENDBRANCH   3   5
ENDBRANCH   2   3
ENDBRANCH   1   2
BRANCH   1  31
ATOM     31  C   UNL A   1      32.708  28.786  22.988  1.00  0.00     0.202 C 
BRANCH  31  32
ATOM     32  O   UNL A   1      32.900  29.472  24.226  1.00  0.00    -0.374 OA
BRANCH  32  33
ATOM     33  C   UNL A   1      31.727  29.629  25.024  1.00  0.00     0.202 C 
BRANCH  33  34
ATOM     34  C   UNL A   1      31.987  29.633  26.536  1.00  0.00     0.261 C 
BRANCH  34  35
ATOM     35  O   UNL A   1      33.388  29.809  26.824  1.00  0.00    -0.460 OA
BRANCH  35  36
ATOM     36  C   UNL A   1      33.741  31.031  27.297  1.00  0.00     0.338 C 
ATOM     37  O   UNL A   1      33.063  32.041  27.336  1.00  0.00    -0.246 OA
BRANCH  36  38
ATOM     38  C   UNL A   1      35.062  30.908  27.948  1.00  0.00     0.060 A 
ATOM     39  C   UNL A   1      35.944  31.986  27.998  1.00  0.00     0.016 A 
ATOM     40  C   UNL A   1      35.431  29.670  28.488  1.00  0.00     0.016 A 
ATOM     41  C   UNL A   1      37.218  31.800  28.535  1.00  0.00     0.010 A 
ATOM     42  C   UNL A   1      36.697  29.500  29.060  1.00  0.00     0.010 A 
ATOM     43  C   UNL A   1      37.608  30.564  29.083  1.00  0.00    -0.014 A 
BRANCH  43  44
ATOM     44  C   UNL A   1      38.919  30.447  29.780  1.00  0.00     0.031 A 
ATOM     45  C   UNL A   1      40.081  29.698  29.187  1.00  0.00     0.074 A 
ATOM     46  C   UNL A   1      39.058  31.049  30.978  1.00  0.00     0.049 A 
ATOM     47  N   UNL A   1      41.275  29.504  29.695  1.00  0.00    -0.248 NA
ATOM     48  C   UNL A   1      39.886  29.088  27.864  1.00  0.00     0.031 C 
ATOM     49  C   UNL A   1      38.003  31.795  31.667  1.00  0.00     0.029 A 
ATOM     50  N   UNL A   1      40.136  31.146  31.821  1.00  0.00    -0.354 N 
ATOM     51  C   UNL A   1      41.969  28.738  28.766  1.00  0.00     0.074 A 
ATOM     52  C   UNL A   1      41.055  28.488  27.669  1.00  0.00     0.031 C 
ATOM     53  C   UNL A   1      38.499  32.319  32.796  1.00  0.00     0.029 A 
ATOM     54  C   UNL A   1      39.883  31.884  32.951  1.00  0.00     0.049 A 
ATOM     55  H   UNL A   1      41.007  30.726  31.634  1.00  0.00     0.167 HD
ATOM     56  C   UNL A   1      43.248  28.292  28.825  1.00  0.00     0.037 A 
ATOM     57  C   UNL A   1      40.662  32.166  34.011  1.00  0.00     0.037 A 
ATOM     58  C   UNL A   1      44.162  28.552  29.912  1.00  0.00     0.049 A 
ATOM     59  C   UNL A   1      42.060  31.624  34.066  1.00  0.00     0.074 A 
ATOM     60  C   UNL A   1      45.487  28.165  30.034  1.00  0.00     0.029 A 
ATOM     61  N   UNL A   1      43.849  29.258  31.064  1.00  0.00    -0.354 N 
ATOM     62  N   UNL A   1      42.702  30.912  33.174  1.00  0.00    -0.248 NA
ATOM     63  C   UNL A   1      42.835  31.915  35.279  1.00  0.00     0.031 C 
ATOM     64  C   UNL A   1      45.962  28.599  31.276  1.00  0.00     0.029 A 
ATOM     65  C   UNL A   1      44.949  29.299  31.909  1.00  0.00     0.049 A 
ATOM     66  H   UNL A   1      42.976  29.670  31.254  1.00  0.00     0.167 HD
ATOM     67  C   UNL A   1      43.956  30.671  33.715  1.00  0.00     0.074 A 
ATOM     68  C   UNL A   1      43.994  31.338  35.000  1.00  0.00     0.031 C 
ATOM     69  C   UNL A   1      44.980  29.953  33.192  1.00  0.00     0.037 A 
BRANCH  56  70
ATOM     70  C   UNL A   1      43.765  27.468  27.681  1.00  0.00     0.064 A 
ATOM     71  C   UNL A   1      44.379  28.063  26.569  1.00  0.00     0.173 A 
ATOM     72  C   UNL A   1      43.748  26.065  27.748  1.00  0.00     0.173 A 
ATOM     73  F   UNL A   1      44.415  29.398  26.453  1.00  0.00    -0.203 F 
ATOM     74  C   UNL A   1      44.952  27.285  25.565  1.00  0.00     0.198 A 
ATOM     75  C   UNL A   1      44.344  25.291  26.755  1.00  0.00     0.198 A 
ATOM     76  F   UNL A   1      43.185  25.446  28.797  1.00  0.00    -0.203 F 
ATOM     77  F   UNL A   1      45.518  27.875  24.503  1.00  0.00    -0.200 F 
ATOM     78  C   UNL A   1      44.945  25.901  25.665  1.00  0.00     0.200 A 
ATOM     79  F   UNL A   1      44.351  23.955  26.862  1.00  0.00    -0.200 F 
ATOM     80  F   UNL A   1      45.518  25.155  24.710  1.00  0.00    -0.200 F 
ENDBRANCH  56  70
BRANCH  57  81
ATOM     81  C   UNL A   1      40.124  33.013  35.104  1.00  0.00     0.064 A 
ATOM     82  C   UNL A   1      39.459  32.436  36.193  1.00  0.00     0.173 A 
ATOM     83  C   UNL A   1      40.306  34.404  35.109  1.00  0.00     0.173 A 
ATOM     84  F   UNL A   1      39.252  31.111  36.224  1.00  0.00    -0.203 F 
ATOM     85  C   UNL A   1      38.994  33.219  37.246  1.00  0.00     0.198 A 
ATOM     86  C   UNL A   1      39.869  35.182  36.177  1.00  0.00     0.198 A 
ATOM     87  F   UNL A   1      40.949  34.999  34.093  1.00  0.00    -0.203 F 
ATOM     88  F   UNL A   1      38.342  32.645  38.266  1.00  0.00    -0.200 F 
ATOM     89  C   UNL A   1      39.209  34.589  37.243  1.00  0.00     0.200 A 
ATOM     90  F   UNL A   1      40.100  36.501  36.180  1.00  0.00    -0.200 F 
ATOM     91  F   UNL A   1      38.783  35.338  38.269  1.00  0.00    -0.200 F 
ENDBRANCH  57  81
BRANCH  69  92
ATOM     92  C   UNL A   1      46.236  29.855  34.007  1.00  0.00     0.064 A 
ATOM     93  C   UNL A   1      46.449  28.791  34.896  1.00  0.00     0.173 A 
ATOM     94  C   UNL A   1      47.253  30.812  33.871  1.00  0.00     0.173 A 
ATOM     95  F   UNL A   1      45.500  27.861  35.075  1.00  0.00    -0.203 F 
ATOM     96  C   UNL A   1      47.626  28.701  35.634  1.00  0.00     0.198 A 
ATOM     97  C   UNL A   1      48.440  30.704  34.591  1.00  0.00     0.198 A 
ATOM     98  F   UNL A   1      47.099  31.847  33.031  1.00  0.00    -0.203 F 
ATOM     99  F   UNL A   1      47.791  27.700  36.509  1.00  0.00    -0.200 F 
ATOM    100  C   UNL A   1      48.623  29.652  35.476  1.00  0.00     0.200 A 
ATOM    101  F   UNL A   1      49.406  31.618  34.429  1.00  0.00    -0.200 F 
ATOM    102  F   UNL A   1      49.758  29.559  36.183  1.00  0.00    -0.200 F 
ENDBRANCH  69  92
ENDBRANCH  43  44
ENDBRANCH  36  38
ENDBRANCH  35  36
ENDBRANCH  34  35
ENDBRANCH  33  34
ENDBRANCH  32  33
ENDBRANCH  31  32
ENDBRANCH   1  31
TORSDOF 20
ENDMDL
MODEL 2
REMARK VINA RESULT:     -10.2      4.541      8.476
REMARK SMILES CC(=O)N[C@H](CSCC(=O)Nc1ccc2c(c1)N1CC[NH+]=C1S2)C(=O)OCCOCCOC(=O)c1ccc(-c2c3nc(c(-c4c(F)c(F)c(F)c(F)c4F)c4ccc([nH]4)c(-c4c(F)c(F)c(F)c(F)c4F)c4nc(c(-c5c(F)c(F)c(F)c(F)c5F)c5ccc2[nH]5)C=C4)C=C3)cc1
REMARK SMILES IDX 27 1 26 2 24 3 25 4 5 5 4 6 1 7 2 8 3 9 6 11 7 12 8 13 9 14
REMARK SMILES IDX 10 15 11 16 12 18 13 19 17 20 14 21 16 22 15 23 18 24 23 25
REMARK SMILES IDX 19 26 22 27 20 28 21 29 28 31 29 32 30 33 31 34 32 35 33 36
REMARK SMILES IDX 34 37 35 38 36 39 97 40 37 41 96 42 38 43 39 44 40 45 90 46
REMARK SMILES IDX 41 47 95 48 89 49 91 50 42 51 94 52 88 53 87 54 43 56 75 57
REMARK SMILES IDX 55 58 74 59 56 60 59 61 73 62 92 63 57 64 58 65 72 67 93 68
REMARK SMILES IDX 60 69 44 70 45 71 53 72 46 73 47 74 51 75 54 76 48 77 49 78
REMARK SMILES IDX 52 79 50 80 76 81 77 82 85 83 78 84 79 85 83 86 86 87 80 88
REMARK SMILES IDX 81 89 84 90 82 91 61 92 62 93 70 94 63 95 64 96 68 97 71 98
REMARK SMILES IDX 65 99 66 100 69 101 67 102
REMARK H PARENT 4 10 11 17 21 30 91 55 59 66
REMARK Flexibility Score: inf
ROOT
ATOM      1  C   UNL A   1      36.260  19.699  25.001  1.00  0.00     0.261 C 
ENDROOT
BRANCH   1   2
ATOM      2  O   UNL A   1      35.477  20.703  25.677  1.00  0.00    -0.462 OA
BRANCH   2   3
ATOM      3  C   UNL A   1      34.432  21.218  24.985  1.00  0.00     0.329 C 
ATOM      4  O   UNL A   1      34.525  21.841  23.935  1.00  0.00    -0.250 OA
BRANCH   3   5
ATOM      5  C   UNL A   1      33.101  21.024  25.719  1.00  0.00     0.202 C 
BRANCH   5   6
ATOM      6  N   UNL A   1      32.899  19.630  26.110  1.00  0.00    -0.342 N 
ATOM      7  C   UNL A   1      32.564  18.727  23.836  1.00  0.00     0.114 C 
ATOM      8  C   UNL A   1      32.722  18.538  25.319  1.00  0.00     0.217 C 
ATOM      9  O   UNL A   1      32.655  17.427  25.841  1.00  0.00    -0.275 OA
ATOM     10  H   UNL A   1      32.890  19.458  27.079  1.00  0.00     0.164 HD
ENDBRANCH   5   6
BRANCH   5  11
ATOM     11  C   UNL A   1      31.899  21.648  24.977  1.00  0.00     0.107 C 
BRANCH  11  12
ATOM     12  S   UNL A   1      31.791  23.481  24.966  1.00  0.00    -0.149 SA
BRANCH  12  13
ATOM     13  C   UNL A   1      31.618  23.881  23.201  1.00  0.00     0.169 C 
BRANCH  13  14
ATOM     14  C   UNL A   1      32.902  24.217  22.481  1.00  0.00     0.234 C 
ATOM     15  O   UNL A   1      33.271  23.527  21.524  1.00  0.00    -0.274 OA
ATOM     16  N   UNL A   1      33.658  25.317  22.763  1.00  0.00    -0.325 N 
ATOM     17  H   UNL A   1      34.565  25.316  22.381  1.00  0.00     0.169 HD
BRANCH  16  18
ATOM     18  C   UNL A   1      33.322  26.443  23.517  1.00  0.00     0.045 A 
ATOM     19  C   UNL A   1      33.822  26.684  24.801  1.00  0.00     0.027 A 
ATOM     20  C   UNL A   1      32.462  27.363  22.910  1.00  0.00     0.079 A 
ATOM     21  C   UNL A   1      33.412  27.807  25.526  1.00  0.00     0.022 A 
ATOM     22  C   UNL A   1      32.001  28.439  23.638  1.00  0.00     0.144 A 
ATOM     23  C   UNL A   1      32.487  28.655  24.944  1.00  0.00     0.067 A 
ATOM     24  N   UNL A   1      31.028  29.326  23.276  1.00  0.00    -0.216 N 
ATOM     25  S   UNL A   1      31.669  30.082  25.674  1.00  0.00     0.002 SA
ATOM     26  C   UNL A   1      30.208  29.507  22.121  1.00  0.00     0.289 C 
ATOM     27  C   UNL A   1      30.655  30.199  24.251  1.00  0.00     0.316 C 
ATOM     28  C   UNL A   1      29.119  30.436  22.718  1.00  0.00     0.280 C 
ATOM     29  N   UNL A   1      29.619  30.955  24.048  1.00  0.00    -0.264 N 
ATOM     30  H   UNL A   1      29.254  31.676  24.611  1.00  0.00     0.305 HD
ENDBRANCH  16  18
ENDBRANCH  13  14
ENDBRANCH  12  13
ENDBRANCH  11  12
ENDBRANCH   5  11
ENDBRANCH   3   5
ENDBRANCH   2   3
ENDBRANCH   1   2
BRANCH   1  31
ATOM     31  C   UNL A   1      37.619  20.247  24.561  1.00  0.00     0.202 C 
BRANCH  31  32
ATOM     32  O   UNL A   1      38.133  21.272  25.413  1.00  0.00    -0.374 OA
BRANCH  32  33
ATOM     33  C   UNL A   1      39.332  20.939  26.112  1.00  0.00     0.202 C 
BRANCH  33  34
ATOM     34  C   UNL A   1      39.912  19.564  25.754  1.00  0.00     0.261 C 
BRANCH  34  35
ATOM     35  O   UNL A   1      41.005  19.217  26.626  1.00  0.00    -0.460 OA
BRANCH  35  36
ATOM     36  C   UNL A   1      42.248  19.419  26.120  1.00  0.00     0.338 C 
ATOM     37  O   UNL A   1      42.908  18.658  25.437  1.00  0.00    -0.246 OA
BRANCH  36  38
ATOM     38  C   UNL A   1      42.628  20.823  26.382  1.00  0.00     0.060 A 
ATOM     39  C   UNL A   1      42.984  21.679  25.342  1.00  0.00     0.016 A 
ATOM     40  C   UNL A   1      42.659  21.273  27.708  1.00  0.00     0.016 A 
ATOM     41  C   UNL A   1      43.429  22.967  25.641  1.00  0.00     0.010 A 
ATOM     42  C   UNL A   1      43.071  22.579  27.998  1.00  0.00     0.010 A 
ATOM     43  C   UNL A   1      43.468  23.438  26.966  1.00  0.00    -0.014 A 
BRANCH  43  44
ATOM     44  C   UNL A   1      43.806  24.865  27.231  1.00  0.00     0.031 A 
ATOM     45  C   UNL A   1      45.168  25.434  26.945  1.00  0.00     0.074 A 
ATOM     46  C   UNL A   1      42.844  25.663  27.735  1.00  0.00     0.049 A 
ATOM     47  N   UNL A   1      45.603  26.656  27.143  1.00  0.00    -0.248 NA
ATOM     48  C   UNL A   1      46.170  24.528  26.365  1.00  0.00     0.031 C 
ATOM     49  C   UNL A   1      41.486  25.229  28.069  1.00  0.00     0.029 A 
ATOM     50  N   UNL A   1      42.848  27.001  28.039  1.00  0.00    -0.354 N 
ATOM     51  C   UNL A   1      46.930  26.664  26.732  1.00  0.00     0.074 A 
ATOM     52  C   UNL A   1      47.235  25.318  26.286  1.00  0.00     0.031 C 
ATOM     53  C   UNL A   1      40.773  26.288  28.478  1.00  0.00     0.029 A 
ATOM     54  C   UNL A   1      41.642  27.460  28.508  1.00  0.00     0.049 A 
ATOM     55  H   UNL A   1      43.640  27.577  27.933  1.00  0.00     0.167 HD
ATOM     56  C   UNL A   1      47.806  27.699  26.723  1.00  0.00     0.037 A 
ATOM     57  C   UNL A   1      41.271  28.679  28.939  1.00  0.00     0.037 A 
ATOM     58  C   UNL A   1      47.499  29.042  27.154  1.00  0.00     0.049 A 
ATOM     59  C   UNL A   1      42.275  29.794  28.956  1.00  0.00     0.074 A 
ATOM     60  C   UNL A   1      48.321  30.158  27.146  1.00  0.00     0.029 A 
ATOM     61  N   UNL A   1      46.281  29.452  27.674  1.00  0.00    -0.354 N 
ATOM     62  N   UNL A   1      43.520  29.786  28.553  1.00  0.00    -0.248 NA
ATOM     63  C   UNL A   1      41.823  31.082  29.500  1.00  0.00     0.031 C 
ATOM     64  C   UNL A   1      47.615  31.231  27.699  1.00  0.00     0.029 A 
ATOM     65  C   UNL A   1      46.336  30.798  28.008  1.00  0.00     0.049 A 
ATOM     66  H   UNL A   1      45.493  28.875  27.789  1.00  0.00     0.167 HD
ATOM     67  C   UNL A   1      44.002  31.065  28.790  1.00  0.00     0.074 A 
ATOM     68  C   UNL A   1      42.906  31.830  29.345  1.00  0.00     0.031 C 
ATOM     69  C   UNL A   1      45.248  31.554  28.572  1.00  0.00     0.037 A 
BRANCH  56  70
ATOM     70  C   UNL A   1      49.202  27.442  26.229  1.00  0.00     0.064 A 
ATOM     71  C   UNL A   1      50.233  27.075  27.106  1.00  0.00     0.173 A 
ATOM     72  C   UNL A   1      49.485  27.453  24.854  1.00  0.00     0.173 A 
ATOM     73  F   UNL A   1      50.017  27.055  28.430  1.00  0.00    -0.203 F 
ATOM     74  C   UNL A   1      51.495  26.733  26.626  1.00  0.00     0.198 A 
ATOM     75  C   UNL A   1      50.741  27.088  24.375  1.00  0.00     0.198 A 
ATOM     76  F   UNL A   1      48.530  27.784  23.971  1.00  0.00    -0.203 F 
ATOM     77  F   UNL A   1      52.470  26.402  27.484  1.00  0.00    -0.200 F 
ATOM     78  C   UNL A   1      51.745  26.728  25.261  1.00  0.00     0.200 A 
ATOM     79  F   UNL A   1      50.974  27.066  23.056  1.00  0.00    -0.200 F 
ATOM     80  F   UNL A   1      52.953  26.376  24.800  1.00  0.00    -0.200 F 
ENDBRANCH  56  70
BRANCH  57  81
ATOM     81  C   UNL A   1      39.873  28.898  29.386  1.00  0.00     0.064 A 
ATOM     82  C   UNL A   1      38.896  29.339  28.484  1.00  0.00     0.173 A 
ATOM     83  C   UNL A   1      39.475  28.626  30.703  1.00  0.00     0.173 A 
ATOM     84  F   UNL A   1      39.235  29.622  27.217  1.00  0.00    -0.203 F 
ATOM     85  C   UNL A   1      37.572  29.499  28.884  1.00  0.00     0.198 A 
ATOM     86  C   UNL A   1      38.146  28.757  31.093  1.00  0.00     0.198 A 
ATOM     87  F   UNL A   1      40.374  28.190  31.599  1.00  0.00    -0.203 F 
ATOM     88  F   UNL A   1      36.660  29.942  28.008  1.00  0.00    -0.200 F 
ATOM     89  C   UNL A   1      37.196  29.198  30.184  1.00  0.00     0.200 A 
ATOM     90  F   UNL A   1      37.783  28.443  32.344  1.00  0.00    -0.200 F 
ATOM     91  F   UNL A   1      35.917  29.329  30.561  1.00  0.00    -0.200 F 
ENDBRANCH  57  81
BRANCH  69  92
ATOM     92  C   UNL A   1      45.493  32.990  28.928  1.00  0.00     0.064 A 
ATOM     93  C   UNL A   1      46.065  33.351  30.157  1.00  0.00     0.173 A 
ATOM     94  C   UNL A   1      45.187  34.015  28.019  1.00  0.00     0.173 A 
ATOM     95  F   UNL A   1      46.358  32.411  31.067  1.00  0.00    -0.203 F 
ATOM     96  C   UNL A   1      46.304  34.687  30.470  1.00  0.00     0.198 A 
ATOM     97  C   UNL A   1      45.452  35.347  28.325  1.00  0.00     0.198 A 
ATOM     98  F   UNL A   1      44.641  33.722  26.830  1.00  0.00    -0.203 F 
ATOM     99  F   UNL A   1      46.812  35.011  31.666  1.00  0.00    -0.200 F 
ATOM    100  C   UNL A   1      46.005  35.682  29.552  1.00  0.00     0.200 A 
ATOM    101  F   UNL A   1      45.172  36.307  27.433  1.00  0.00    -0.200 F 
ATOM    102  F   UNL A   1      46.242  36.967  29.853  1.00  0.00    -0.200 F 
ENDBRANCH  69  92
ENDBRANCH  43  44
ENDBRANCH  36  38
ENDBRANCH  35  36
ENDBRANCH  34  35
ENDBRANCH  33  34
ENDBRANCH  32  33
ENDBRANCH  31  32
ENDBRANCH   1  31
TORSDOF 20
ENDMDL
MODEL 3
REMARK VINA RESULT:     -10.2      3.431      8.788
REMARK SMILES CC(=O)N[C@H](CSCC(=O)Nc1ccc2c(c1)N1CC[NH+]=C1S2)C(=O)OCCOCCOC(=O)c1ccc(-c2c3nc(c(-c4c(F)c(F)c(F)c(F)c4F)c4ccc([nH]4)c(-c4c(F)c(F)c(F)c(F)c4F)c4nc(c(-c5c(F)c(F)c(F)c(F)c5F)c5ccc2[nH]5)C=C4)C=C3)cc1
REMARK SMILES IDX 27 1 26 2 24 3 25 4 5 5 4 6 1 7 2 8 3 9 6 11 7 12 8 13 9 14
REMARK SMILES IDX 10 15 11 16 12 18 13 19 17 20 14 21 16 22 15 23 18 24 23 25
REMARK SMILES IDX 19 26 22 27 20 28 21 29 28 31 29 32 30 33 31 34 32 35 33 36
REMARK SMILES IDX 34 37 35 38 36 39 97 40 37 41 96 42 38 43 39 44 40 45 90 46
REMARK SMILES IDX 41 47 95 48 89 49 91 50 42 51 94 52 88 53 87 54 43 56 75 57
REMARK SMILES IDX 55 58 74 59 56 60 59 61 73 62 92 63 57 64 58 65 72 67 93 68
REMARK SMILES IDX 60 69 44 70 45 71 53 72 46 73 47 74 51 75 54 76 48 77 49 78
REMARK SMILES IDX 52 79 50 80 76 81 77 82 85 83 78 84 79 85 83 86 86 87 80 88
REMARK SMILES IDX 81 89 84 90 82 91 61 92 62 93 70 94 63 95 64 96 68 97 71 98
REMARK SMILES IDX 65 99 66 100 69 101 67 102
REMARK H PARENT 4 10 11 17 21 30 91 55 59 66
REMARK Flexibility Score: inf
ROOT
ATOM      1  C   UNL A   1      38.046  21.696  25.262  1.00  0.00     0.261 C 
ENDROOT
BRANCH   1   2
ATOM      2  O   UNL A   1      37.228  22.876  25.139  1.00  0.00    -0.462 OA
BRANCH   2   3
ATOM      3  C   UNL A   1      36.400  22.927  24.067  1.00  0.00     0.329 C 
ATOM      4  O   UNL A   1      36.768  22.969  22.900  1.00  0.00    -0.250 OA
BRANCH   3   5
ATOM      5  C   UNL A   1      34.927  23.028  24.478  1.00  0.00     0.202 C 
BRANCH   5   6
ATOM      6  N   UNL A   1      34.450  21.786  25.082  1.00  0.00    -0.342 N 
ATOM      7  C   UNL A   1      34.394  22.588  27.416  1.00  0.00     0.114 C 
ATOM      8  C   UNL A   1      34.125  21.535  26.378  1.00  0.00     0.217 C 
ATOM      9  O   UNL A   1      33.655  20.438  26.675  1.00  0.00    -0.275 OA
ATOM     10  H   UNL A   1      34.351  21.025  24.465  1.00  0.00     0.164 HD
ENDBRANCH   5   6
BRANCH   5  11
ATOM     11  C   UNL A   1      34.017  23.570  23.355  1.00  0.00     0.107 C 
BRANCH  11  12
ATOM     12  S   UNL A   1      32.689  22.455  22.752  1.00  0.00    -0.149 SA
BRANCH  12  13
ATOM     13  C   UNL A   1      31.180  23.171  23.470  1.00  0.00     0.169 C 
BRANCH  13  14
ATOM     14  C   UNL A   1      30.984  22.930  24.948  1.00  0.00     0.234 C 
ATOM     15  O   UNL A   1      30.914  21.774  25.380  1.00  0.00    -0.274 OA
ATOM     16  N   UNL A   1      30.972  23.927  25.877  1.00  0.00    -0.325 N 
ATOM     17  H   UNL A   1      30.629  23.674  26.765  1.00  0.00     0.169 HD
BRANCH  16  18
ATOM     18  C   UNL A   1      31.378  25.257  25.746  1.00  0.00     0.045 A 
ATOM     19  C   UNL A   1      32.436  25.812  26.474  1.00  0.00     0.027 A 
ATOM     20  C   UNL A   1      30.683  26.029  24.809  1.00  0.00     0.079 A 
ATOM     21  C   UNL A   1      32.766  27.164  26.334  1.00  0.00     0.022 A 
ATOM     22  C   UNL A   1      30.956  27.376  24.709  1.00  0.00     0.144 A 
ATOM     23  C   UNL A   1      32.005  27.932  25.471  1.00  0.00     0.067 A 
ATOM     24  N   UNL A   1      30.264  28.309  23.992  1.00  0.00    -0.216 N 
ATOM     25  S   UNL A   1      32.090  29.708  25.191  1.00  0.00     0.002 SA
ATOM     26  C   UNL A   1      29.128  28.275  23.127  1.00  0.00     0.289 C 
ATOM     27  C   UNL A   1      30.654  29.596  24.196  1.00  0.00     0.316 C 
ATOM     28  C   UNL A   1      28.769  29.784  23.111  1.00  0.00     0.280 C 
ATOM     29  N   UNL A   1      29.935  30.553  23.691  1.00  0.00    -0.264 N 
ATOM     30  H   UNL A   1      30.103  31.523  23.687  1.00  0.00     0.305 HD
ENDBRANCH  16  18
ENDBRANCH  13  14
ENDBRANCH  12  13
ENDBRANCH  11  12
ENDBRANCH   5  11
ENDBRANCH   3   5
ENDBRANCH   2   3
ENDBRANCH   1   2
BRANCH   1  31
ATOM     31  C   UNL A   1      39.275  21.953  26.136  1.00  0.00     0.202 C 
BRANCH  31  32
ATOM     32  O   UNL A   1      40.421  21.184  25.765  1.00  0.00    -0.374 OA
BRANCH  32  33
ATOM     33  C   UNL A   1      41.632  21.534  26.432  1.00  0.00     0.202 C 
BRANCH  33  34
ATOM     34  C   UNL A   1      42.800  21.863  25.492  1.00  0.00     0.261 C 
BRANCH  34  35
ATOM     35  O   UNL A   1      42.796  23.255  25.123  1.00  0.00    -0.460 OA
BRANCH  35  36
ATOM     36  C   UNL A   1      43.842  23.988  25.583  1.00  0.00     0.338 C 
ATOM     37  O   UNL A   1      44.967  24.052  25.124  1.00  0.00    -0.246 OA
BRANCH  36  38
ATOM     38  C   UNL A   1      43.348  24.869  26.662  1.00  0.00     0.060 A 
ATOM     39  C   UNL A   1      42.979  24.352  27.902  1.00  0.00     0.016 A 
ATOM     40  C   UNL A   1      43.221  26.240  26.403  1.00  0.00     0.016 A 
ATOM     41  C   UNL A   1      42.427  25.204  28.859  1.00  0.00     0.010 A 
ATOM     42  C   UNL A   1      42.701  27.096  27.381  1.00  0.00     0.010 A 
ATOM     43  C   UNL A   1      42.291  26.585  28.619  1.00  0.00    -0.014 A 
BRANCH  43  44
ATOM     44  C   UNL A   1      41.837  27.483  29.717  1.00  0.00     0.031 A 
ATOM     45  C   UNL A   1      40.604  28.336  29.599  1.00  0.00     0.074 A 
ATOM     46  C   UNL A   1      42.561  27.513  30.854  1.00  0.00     0.049 A 
ATOM     47  N   UNL A   1      40.103  29.176  30.474  1.00  0.00    -0.248 NA
ATOM     48  C   UNL A   1      39.833  28.240  28.351  1.00  0.00     0.031 C 
ATOM     49  C   UNL A   1      43.785  26.744  31.087  1.00  0.00     0.029 A 
ATOM     50  N   UNL A   1      42.372  28.199  32.027  1.00  0.00    -0.354 N 
ATOM     51  C   UNL A   1      38.972  29.722  29.879  1.00  0.00     0.074 A 
ATOM     52  C   UNL A   1      38.868  29.129  28.561  1.00  0.00     0.031 C 
ATOM     53  C   UNL A   1      44.205  26.956  32.342  1.00  0.00     0.029 A 
ATOM     54  C   UNL A   1      43.327  27.933  32.976  1.00  0.00     0.049 A 
ATOM     55  H   UNL A   1      41.624  28.823  32.173  1.00  0.00     0.167 HD
ATOM     56  C   UNL A   1      38.103  30.628  30.391  1.00  0.00     0.037 A 
ATOM     57  C   UNL A   1      43.500  28.431  34.215  1.00  0.00     0.037 A 
ATOM     58  C   UNL A   1      38.199  31.209  31.709  1.00  0.00     0.049 A 
ATOM     59  C   UNL A   1      42.545  29.462  34.736  1.00  0.00     0.074 A 
ATOM     60  C   UNL A   1      37.339  32.110  32.317  1.00  0.00     0.029 A 
ATOM     61  N   UNL A   1      39.213  30.953  32.620  1.00  0.00    -0.354 N 
ATOM     62  N   UNL A   1      41.476  29.957  34.165  1.00  0.00    -0.248 NA
ATOM     63  C   UNL A   1      42.828  30.012  36.069  1.00  0.00     0.031 C 
ATOM     64  C   UNL A   1      37.854  32.432  33.577  1.00  0.00     0.029 A 
ATOM     65  C   UNL A   1      39.010  31.695  33.776  1.00  0.00     0.049 A 
ATOM     66  H   UNL A   1      39.964  30.337  32.470  1.00  0.00     0.167 HD
ATOM     67  C   UNL A   1      40.956  30.874  35.068  1.00  0.00     0.074 A 
ATOM     68  C   UNL A   1      41.811  30.844  36.235  1.00  0.00     0.031 C 
ATOM     69  C   UNL A   1      39.869  31.673  34.931  1.00  0.00     0.037 A 
BRANCH  56  70
ATOM     70  C   UNL A   1      36.950  31.066  29.533  1.00  0.00     0.064 A 
ATOM     71  C   UNL A   1      36.933  32.326  28.917  1.00  0.00     0.173 A 
ATOM     72  C   UNL A   1      35.906  30.176  29.232  1.00  0.00     0.173 A 
ATOM     73  F   UNL A   1      37.903  33.216  29.176  1.00  0.00    -0.203 F 
ATOM     74  C   UNL A   1      35.913  32.681  28.037  1.00  0.00     0.198 A 
ATOM     75  C   UNL A   1      34.901  30.524  28.334  1.00  0.00     0.198 A 
ATOM     76  F   UNL A   1      35.882  28.953  29.784  1.00  0.00    -0.203 F 
ATOM     77  F   UNL A   1      35.908  33.897  27.475  1.00  0.00    -0.200 F 
ATOM     78  C   UNL A   1      34.904  31.776  27.737  1.00  0.00     0.200 A 
ATOM     79  F   UNL A   1      33.938  29.642  28.032  1.00  0.00    -0.200 F 
ATOM     80  F   UNL A   1      33.937  32.110  26.872  1.00  0.00    -0.200 F 
ENDBRANCH  56  70
BRANCH  57  81
ATOM     81  C   UNL A   1      44.633  27.945  35.042  1.00  0.00     0.064 A 
ATOM     82  C   UNL A   1      44.448  26.909  35.966  1.00  0.00     0.173 A 
ATOM     83  C   UNL A   1      45.925  28.468  34.891  1.00  0.00     0.173 A 
ATOM     84  F   UNL A   1      43.226  26.387  36.151  1.00  0.00    -0.203 F 
ATOM     85  C   UNL A   1      45.516  26.414  36.710  1.00  0.00     0.198 A 
ATOM     86  C   UNL A   1      46.997  27.951  35.613  1.00  0.00     0.198 A 
ATOM     87  F   UNL A   1      46.152  29.452  34.009  1.00  0.00    -0.203 F 
ATOM     88  F   UNL A   1      45.310  25.437  37.603  1.00  0.00    -0.200 F 
ATOM     89  C   UNL A   1      46.791  26.928  36.526  1.00  0.00     0.200 A 
ATOM     90  F   UNL A   1      48.231  28.435  35.414  1.00  0.00    -0.200 F 
ATOM     91  F   UNL A   1      47.822  26.434  37.225  1.00  0.00    -0.200 F 
ENDBRANCH  57  81
BRANCH  69  92
ATOM     92  C   UNL A   1      39.536  32.580  36.078  1.00  0.00     0.064 A 
ATOM     93  C   UNL A   1      40.147  33.835  36.219  1.00  0.00     0.173 A 
ATOM     94  C   UNL A   1      38.570  32.209  37.026  1.00  0.00     0.173 A 
ATOM     95  F   UNL A   1      41.090  34.228  35.351  1.00  0.00    -0.203 F 
ATOM     96  C   UNL A   1      39.818  34.676  37.279  1.00  0.00     0.198 A 
ATOM     97  C   UNL A   1      38.224  33.064  38.069  1.00  0.00     0.198 A 
ATOM     98  F   UNL A   1      37.955  31.021  36.934  1.00  0.00    -0.203 F 
ATOM     99  F   UNL A   1      40.445  35.852  37.418  1.00  0.00    -0.200 F 
ATOM    100  C   UNL A   1      38.852  34.294  38.198  1.00  0.00     0.200 A 
ATOM    101  F   UNL A   1      37.283  32.698  38.950  1.00  0.00    -0.200 F 
ATOM    102  F   UNL A   1      38.531  35.108  39.213  1.00  0.00    -0.200 F 
ENDBRANCH  69  92
ENDBRANCH  43  44
ENDBRANCH  36  38
ENDBRANCH  35  36
ENDBRANCH  34  35
ENDBRANCH  33  34
ENDBRANCH  32  33
ENDBRANCH  31  32
ENDBRANCH   1  31
TORSDOF 20
ENDMDL
