MODEL 1
REMARK VINA RESULT:     -11.0      0.000      0.000
REMARK SMILES C[C@@H](C(=O)[C@H](C)[C@@H](C)C(=O)OCCOCCOC(=O)c1ccc(-c2c3nc(c(-c4c(F)c(F)c(F)c(F)c4F)c4ccc([nH]4)c(-c4c(F)c(F)c(F)c(F)c4F)c4nc(c(-c5c(F)c(F)c(F)c(F)c5F)c5ccc2[nH]5)C=C4)C=C3)cc1)c1ccccc1
REMARK SMILES IDX 13 1 12 2 11 3 9 4 10 5 7 6 8 7 5 8 6 9 3 10 4 11 2 12 1 13
REMARK SMILES IDX 83 14 84 15 88 16 85 17 87 18 86 19 14 20 15 21 16 22 17 23
REMARK SMILES IDX 18 24 19 25 20 26 21 27 82 28 22 29 81 30 23 31 24 32 25 33
REMARK SMILES IDX 75 34 26 35 80 36 74 37 76 38 27 39 79 40 73 41 72 42 28 44
REMARK SMILES IDX 60 45 40 46 59 47 41 48 44 49 58 50 77 51 42 52 43 53 57 55
REMARK SMILES IDX 78 56 45 57 29 58 30 59 38 60 31 61 32 62 36 63 39 64 33 65
REMARK SMILES IDX 34 66 37 67 35 68 61 69 62 70 70 71 63 72 64 73 68 74 71 75
REMARK SMILES IDX 65 76 66 77 69 78 67 79 46 80 47 81 55 82 48 83 49 84 53 85
REMARK SMILES IDX 56 86 50 87 51 88 54 89 52 90
REMARK H PARENT 76 43 44 54
REMARK Flexibility Score: inf
ROOT
ATOM      1  C   UNL A   1      33.264  28.917  23.761  1.00  0.00     0.202 C 
ENDROOT
BRANCH   1   2
ATOM      2  C   UNL A   1      32.248  27.898  23.243  1.00  0.00     0.261 C 
BRANCH   2   3
ATOM      3  O   UNL A   1      32.463  26.566  23.764  1.00  0.00    -0.463 OA
BRANCH   3   4
ATOM      4  C   UNL A   1      31.765  26.254  24.887  1.00  0.00     0.309 C 
ATOM      5  O   UNL A   1      30.633  26.651  25.143  1.00  0.00    -0.252 OA
BRANCH   4   6
ATOM      6  C   UNL A   1      32.570  25.457  25.896  1.00  0.00     0.106 C 
ATOM      7  C   UNL A   1      34.027  25.908  25.678  1.00  0.00     0.021 C 
BRANCH   6   8
ATOM      8  C   UNL A   1      32.403  23.925  25.847  1.00  0.00     0.067 C 
ATOM      9  C   UNL A   1      31.059  23.538  25.195  1.00  0.00     0.017 C 
BRANCH   8  10
ATOM     10  C   UNL A   1      33.459  23.023  25.171  1.00  0.00     0.143 C 
ATOM     11  O   UNL A   1      33.578  23.157  23.943  1.00  0.00    -0.299 OA
BRANCH  10  12
ATOM     12  C   UNL A   1      34.317  21.987  25.939  1.00  0.00     0.083 C 
ATOM     13  C   UNL A   1      33.981  21.918  27.423  1.00  0.00     0.021 C 
BRANCH  12  14
ATOM     14  C   UNL A   1      35.829  22.257  25.771  1.00  0.00    -0.038 A 
ATOM     15  C   UNL A   1      36.711  21.242  25.359  1.00  0.00     0.004 A 
ATOM     16  C   UNL A   1      36.379  23.506  26.093  1.00  0.00     0.004 A 
ATOM     17  C   UNL A   1      38.095  21.434  25.376  1.00  0.00     0.000 A 
ATOM     18  C   UNL A   1      37.767  23.693  26.130  1.00  0.00     0.000 A 
ATOM     19  C   UNL A   1      38.624  22.652  25.788  1.00  0.00     0.000 A 
ENDBRANCH  12  14
ENDBRANCH  10  12
ENDBRANCH   8  10
ENDBRANCH   6   8
ENDBRANCH   4   6
ENDBRANCH   3   4
ENDBRANCH   2   3
ENDBRANCH   1   2
BRANCH   1  20
ATOM     20  O   UNL A   1      33.081  29.428  25.079  1.00  0.00    -0.374 OA
BRANCH  20  21
ATOM     21  C   UNL A   1      31.842  30.035  25.404  1.00  0.00     0.202 C 
BRANCH  21  22
ATOM     22  C   UNL A   1      31.812  31.104  26.506  1.00  0.00     0.261 C 
BRANCH  22  23
ATOM     23  O   UNL A   1      32.824  30.978  27.486  1.00  0.00    -0.460 OA
BRANCH  23  24
ATOM     24  C   UNL A   1      33.557  32.098  27.628  1.00  0.00     0.338 C 
ATOM     25  O   UNL A   1      33.180  33.261  27.631  1.00  0.00    -0.246 OA
BRANCH  24  26
ATOM     26  C   UNL A   1      34.911  31.677  27.973  1.00  0.00     0.060 A 
ATOM     27  C   UNL A   1      35.112  30.311  28.165  1.00  0.00     0.016 A 
ATOM     28  C   UNL A   1      35.950  32.605  28.103  1.00  0.00     0.016 A 
ATOM     29  C   UNL A   1      36.355  29.866  28.572  1.00  0.00     0.010 A 
ATOM     30  C   UNL A   1      37.202  32.156  28.509  1.00  0.00     0.010 A 
ATOM     31  C   UNL A   1      37.384  30.794  28.792  1.00  0.00    -0.014 A 
BRANCH  31  32
ATOM     32  C   UNL A   1      38.582  30.325  29.507  1.00  0.00     0.031 A 
ATOM     33  C   UNL A   1      38.765  30.752  30.932  1.00  0.00     0.074 A 
ATOM     34  C   UNL A   1      39.405  29.447  28.916  1.00  0.00     0.049 A 
ATOM     35  N   UNL A   1      39.645  30.354  31.811  1.00  0.00    -0.248 NA
ATOM     36  C   UNL A   1      37.821  31.763  31.442  1.00  0.00     0.031 C 
ATOM     37  C   UNL A   1      39.272  28.963  27.542  1.00  0.00     0.029 A 
ATOM     38  N   UNL A   1      40.496  28.784  29.407  1.00  0.00    -0.354 N 
ATOM     39  C   UNL A   1      39.357  31.056  32.973  1.00  0.00     0.074 A 
ATOM     40  C   UNL A   1      38.250  31.937  32.681  1.00  0.00     0.031 C 
ATOM     41  C   UNL A   1      40.233  28.055  27.307  1.00  0.00     0.029 A 
ATOM     42  C   UNL A   1      41.053  27.910  28.508  1.00  0.00     0.049 A 
ATOM     43  H   UNL A   1      40.848  28.922  30.316  1.00  0.00     0.167 HD
ATOM     44  C   UNL A   1      39.958  30.956  34.181  1.00  0.00     0.037 A 
ATOM     45  C   UNL A   1      42.101  27.082  28.658  1.00  0.00     0.037 A 
ATOM     46  C   UNL A   1      41.062  30.073  34.443  1.00  0.00     0.049 A 
ATOM     47  C   UNL A   1      42.781  27.024  29.999  1.00  0.00     0.074 A 
ATOM     48  C   UNL A   1      41.753  29.875  35.623  1.00  0.00     0.029 A 
ATOM     49  N   UNL A   1      41.639  29.239  33.493  1.00  0.00    -0.354 N 
ATOM     50  N   UNL A   1      42.483  27.661  31.107  1.00  0.00    -0.248 NA
ATOM     51  C   UNL A   1      43.933  26.124  30.114  1.00  0.00     0.031 C 
ATOM     52  C   UNL A   1      42.781  28.959  35.374  1.00  0.00     0.029 A 
ATOM     53  C   UNL A   1      42.696  28.543  34.054  1.00  0.00     0.049 A 
ATOM     54  H   UNL A   1      41.340  29.154  32.560  1.00  0.00     0.167 HD
ATOM     55  C   UNL A   1      43.391  27.220  32.060  1.00  0.00     0.074 A 
ATOM     56  C   UNL A   1      44.240  26.247  31.398  1.00  0.00     0.031 C 
ATOM     57  C   UNL A   1      43.517  27.581  33.360  1.00  0.00     0.037 A 
BRANCH  44  58
ATOM     58  C   UNL A   1      39.455  31.849  35.277  1.00  0.00     0.064 A 
ATOM     59  C   UNL A   1      39.857  33.190  35.385  1.00  0.00     0.173 A 
ATOM     60  C   UNL A   1      38.566  31.353  36.241  1.00  0.00     0.173 A 
ATOM     61  F   UNL A   1      40.724  33.708  34.502  1.00  0.00    -0.203 F 
ATOM     62  C   UNL A   1      39.413  33.990  36.435  1.00  0.00     0.198 A 
ATOM     63  C   UNL A   1      38.100  32.164  37.273  1.00  0.00     0.198 A 
ATOM     64  F   UNL A   1      38.152  30.079  36.188  1.00  0.00    -0.203 F 
ATOM     65  F   UNL A   1      39.854  35.249  36.550  1.00  0.00    -0.200 F 
ATOM     66  C   UNL A   1      38.530  33.478  37.375  1.00  0.00     0.200 A 
ATOM     67  F   UNL A   1      37.242  31.669  38.177  1.00  0.00    -0.200 F 
ATOM     68  F   UNL A   1      38.104  34.249  38.386  1.00  0.00    -0.200 F 
ENDBRANCH  44  58
BRANCH  45  69
ATOM     69  C   UNL A   1      42.540  26.228  27.524  1.00  0.00     0.064 A 
ATOM     70  C   UNL A   1      41.967  24.970  27.300  1.00  0.00     0.173 A 
ATOM     71  C   UNL A   1      43.537  26.658  26.636  1.00  0.00     0.173 A 
ATOM     72  F   UNL A   1      41.020  24.507  28.130  1.00  0.00    -0.203 F 
ATOM     73  C   UNL A   1      42.384  24.167  26.239  1.00  0.00     0.198 A 
ATOM     74  C   UNL A   1      43.933  25.866  25.559  1.00  0.00     0.198 A 
ATOM     75  F   UNL A   1      44.114  27.857  26.802  1.00  0.00    -0.203 F 
ATOM     76  F   UNL A   1      41.844  22.952  26.070  1.00  0.00    -0.200 F 
ATOM     77  C   UNL A   1      43.362  24.618  25.367  1.00  0.00     0.200 A 
ATOM     78  F   UNL A   1      44.869  26.314  24.710  1.00  0.00    -0.200 F 
ATOM     79  F   UNL A   1      43.758  23.850  24.344  1.00  0.00    -0.200 F 
ENDBRANCH  45  69
BRANCH  57  80
ATOM     80  C   UNL A   1      44.592  26.896  34.151  1.00  0.00     0.064 A 
ATOM     81  C   UNL A   1      45.877  27.443  34.271  1.00  0.00     0.173 A 
ATOM     82  C   UNL A   1      44.324  25.689  34.813  1.00  0.00     0.173 A 
ATOM     83  F   UNL A   1      46.186  28.588  33.644  1.00  0.00    -0.203 F 
ATOM     84  C   UNL A   1      46.866  26.787  34.999  1.00  0.00     0.198 A 
ATOM     85  C   UNL A   1      45.305  25.053  35.567  1.00  0.00     0.198 A 
ATOM     86  F   UNL A   1      43.106  25.131  34.735  1.00  0.00    -0.203 F 
ATOM     87  F   UNL A   1      48.104  27.297  35.053  1.00  0.00    -0.200 F 
ATOM     88  C   UNL A   1      46.578  25.597  35.650  1.00  0.00     0.200 A 
ATOM     89  F   UNL A   1      45.021  23.911  36.207  1.00  0.00    -0.200 F 
ATOM     90  F   UNL A   1      47.531  24.968  36.351  1.00  0.00    -0.200 F 
ENDBRANCH  57  80
ENDBRANCH  31  32
ENDBRANCH  24  26
ENDBRANCH  23  24
ENDBRANCH  22  23
ENDBRANCH  21  22
ENDBRANCH  20  21
ENDBRANCH   1  20
TORSDOF 18
ENDMDL
MODEL 2
REMARK VINA RESULT:     -11.0      0.779      1.888
REMARK SMILES C[C@@H](C(=O)[C@H](C)[C@@H](C)C(=O)OCCOCCOC(=O)c1ccc(-c2c3nc(c(-c4c(F)c(F)c(F)c(F)c4F)c4ccc([nH]4)c(-c4c(F)c(F)c(F)c(F)c4F)c4nc(c(-c5c(F)c(F)c(F)c(F)c5F)c5ccc2[nH]5)C=C4)C=C3)cc1)c1ccccc1
REMARK SMILES IDX 13 1 12 2 11 3 9 4 10 5 7 6 8 7 5 8 6 9 3 10 4 11 2 12 1 13
REMARK SMILES IDX 83 14 84 15 88 16 85 17 87 18 86 19 14 20 15 21 16 22 17 23
REMARK SMILES IDX 18 24 19 25 20 26 21 27 82 28 22 29 81 30 23 31 24 32 25 33
REMARK SMILES IDX 75 34 26 35 80 36 74 37 76 38 27 39 79 40 73 41 72 42 28 44
REMARK SMILES IDX 60 45 40 46 59 47 41 48 44 49 58 50 77 51 42 52 43 53 57 55
REMARK SMILES IDX 78 56 45 57 29 58 30 59 38 60 31 61 32 62 36 63 39 64 33 65
REMARK SMILES IDX 34 66 37 67 35 68 61 69 62 70 70 71 63 72 64 73 68 74 71 75
REMARK SMILES IDX 65 76 66 77 69 78 67 79 46 80 47 81 55 82 48 83 49 84 53 85
REMARK SMILES IDX 56 86 50 87 51 88 54 89 52 90
REMARK H PARENT 76 43 44 54
REMARK Flexibility Score: inf
ROOT
ATOM      1  C   UNL A   1      33.198  28.025  24.075  1.00  0.00     0.202 C 
ENDROOT
BRANCH   1   2
ATOM      2  C   UNL A   1      31.988  27.094  24.138  1.00  0.00     0.261 C 
BRANCH   2   3
ATOM      3  O   UNL A   1      31.872  26.233  22.981  1.00  0.00    -0.463 OA
BRANCH   3   4
ATOM      4  C   UNL A   1      33.033  25.684  22.538  1.00  0.00     0.309 C 
ATOM      5  O   UNL A   1      33.718  26.134  21.626  1.00  0.00    -0.252 OA
BRANCH   4   6
ATOM      6  C   UNL A   1      33.360  24.354  23.192  1.00  0.00     0.106 C 
ATOM      7  C   UNL A   1      33.430  23.352  22.025  1.00  0.00     0.021 C 
BRANCH   6   8
ATOM      8  C   UNL A   1      32.414  23.896  24.319  1.00  0.00     0.067 C 
ATOM      9  C   UNL A   1      31.740  22.555  23.963  1.00  0.00     0.017 C 
BRANCH   8  10
ATOM     10  C   UNL A   1      32.917  23.728  25.770  1.00  0.00     0.143 C 
ATOM     11  O   UNL A   1      32.778  24.717  26.508  1.00  0.00    -0.299 OA
BRANCH  10  12
ATOM     12  C   UNL A   1      33.581  22.434  26.301  1.00  0.00     0.083 C 
ATOM     13  C   UNL A   1      33.548  22.327  27.821  1.00  0.00     0.021 C 
BRANCH  12  14
ATOM     14  C   UNL A   1      35.039  22.294  25.812  1.00  0.00    -0.038 A 
ATOM     15  C   UNL A   1      35.518  21.084  25.279  1.00  0.00     0.004 A 
ATOM     16  C   UNL A   1      35.950  23.352  25.949  1.00  0.00     0.004 A 
ATOM     17  C   UNL A   1      36.876  20.903  25.000  1.00  0.00     0.000 A 
ATOM     18  C   UNL A   1      37.314  23.164  25.689  1.00  0.00     0.000 A 
ATOM     19  C   UNL A   1      37.778  21.935  25.231  1.00  0.00     0.000 A 
ENDBRANCH  12  14
ENDBRANCH  10  12
ENDBRANCH   8  10
ENDBRANCH   6   8
ENDBRANCH   4   6
ENDBRANCH   3   4
ENDBRANCH   2   3
ENDBRANCH   1   2
BRANCH   1  20
ATOM     20  O   UNL A   1      33.075  29.316  24.667  1.00  0.00    -0.374 OA
BRANCH  20  21
ATOM     21  C   UNL A   1      31.888  29.625  25.380  1.00  0.00     0.202 C 
BRANCH  21  22
ATOM     22  C   UNL A   1      31.878  30.855  26.298  1.00  0.00     0.261 C 
BRANCH  22  23
ATOM     23  O   UNL A   1      32.764  30.783  27.399  1.00  0.00    -0.460 OA
BRANCH  23  24
ATOM     24  C   UNL A   1      33.459  31.920  27.586  1.00  0.00     0.338 C 
ATOM     25  O   UNL A   1      33.044  33.070  27.623  1.00  0.00    -0.246 OA
BRANCH  24  26
ATOM     26  C   UNL A   1      34.822  31.532  27.932  1.00  0.00     0.060 A 
ATOM     27  C   UNL A   1      35.053  30.172  28.132  1.00  0.00     0.016 A 
ATOM     28  C   UNL A   1      35.841  32.484  28.055  1.00  0.00     0.016 A 
ATOM     29  C   UNL A   1      36.307  29.757  28.539  1.00  0.00     0.010 A 
ATOM     30  C   UNL A   1      37.103  32.065  28.462  1.00  0.00     0.010 A 
ATOM     31  C   UNL A   1      37.315  30.709  28.752  1.00  0.00    -0.014 A 
BRANCH  31  32
ATOM     32  C   UNL A   1      38.524  30.271  29.469  1.00  0.00     0.031 A 
ATOM     33  C   UNL A   1      38.700  30.711  30.891  1.00  0.00     0.074 A 
ATOM     34  C   UNL A   1      39.366  29.408  28.882  1.00  0.00     0.049 A 
ATOM     35  N   UNL A   1      39.590  30.337  31.771  1.00  0.00    -0.248 NA
ATOM     36  C   UNL A   1      37.734  31.703  31.396  1.00  0.00     0.031 C 
ATOM     37  C   UNL A   1      39.242  28.912  27.512  1.00  0.00     0.029 A 
ATOM     38  N   UNL A   1      40.472  28.773  29.376  1.00  0.00    -0.354 N 
ATOM     39  C   UNL A   1      39.287  31.041  32.929  1.00  0.00     0.074 A 
ATOM     40  C   UNL A   1      38.160  31.895  32.634  1.00  0.00     0.031 C 
ATOM     41  C   UNL A   1      40.223  28.025  27.281  1.00  0.00     0.029 A 
ATOM     42  C   UNL A   1      41.046  27.906  28.481  1.00  0.00     0.049 A 
ATOM     43  H   UNL A   1      40.822  28.924  30.283  1.00  0.00     0.167 HD
ATOM     44  C   UNL A   1      39.892  30.961  34.137  1.00  0.00     0.037 A 
ATOM     45  C   UNL A   1      42.113  27.102  28.635  1.00  0.00     0.037 A 
ATOM     46  C   UNL A   1      41.015  30.104  34.403  1.00  0.00     0.049 A 
ATOM     47  C   UNL A   1      42.796  27.067  29.975  1.00  0.00     0.074 A 
ATOM     48  C   UNL A   1      41.712  29.930  35.583  1.00  0.00     0.029 A 
ATOM     49  N   UNL A   1      41.610  29.277  33.458  1.00  0.00    -0.354 N 
ATOM     50  N   UNL A   1      42.485  27.704  31.080  1.00  0.00    -0.248 NA
ATOM     51  C   UNL A   1      43.968  26.194  30.094  1.00  0.00     0.031 C 
ATOM     52  C   UNL A   1      42.760  29.034  35.338  1.00  0.00     0.029 A 
ATOM     53  C   UNL A   1      42.683  28.609  34.021  1.00  0.00     0.049 A 
ATOM     54  H   UNL A   1      41.311  29.181  32.525  1.00  0.00     0.167 HD
ATOM     55  C   UNL A   1      43.404  27.289  32.034  1.00  0.00     0.074 A 
ATOM     56  C   UNL A   1      44.274  26.332  31.377  1.00  0.00     0.031 C 
ATOM     57  C   UNL A   1      43.524  27.661  33.332  1.00  0.00     0.037 A 
BRANCH  44  58
ATOM     58  C   UNL A   1      39.371  31.849  35.228  1.00  0.00     0.064 A 
ATOM     59  C   UNL A   1      38.526  31.365  36.239  1.00  0.00     0.173 A 
ATOM     60  C   UNL A   1      39.711  33.210  35.257  1.00  0.00     0.173 A 
ATOM     61  F   UNL A   1      38.151  30.077  36.246  1.00  0.00    -0.203 F 
ATOM     62  C   UNL A   1      38.017  32.215  37.218  1.00  0.00     0.198 A 
ATOM     63  C   UNL A   1      39.225  34.051  36.254  1.00  0.00     0.198 A 
ATOM     64  F   UNL A   1      40.512  33.726  34.313  1.00  0.00    -0.203 F 
ATOM     65  F   UNL A   1      37.167  31.743  38.139  1.00  0.00    -0.200 F 
ATOM     66  C   UNL A   1      38.371  33.557  37.228  1.00  0.00     0.200 A 
ATOM     67  F   UNL A   1      39.573  35.346  36.265  1.00  0.00    -0.200 F 
ATOM     68  F   UNL A   1      37.879  34.375  38.169  1.00  0.00    -0.200 F 
ENDBRANCH  44  58
BRANCH  45  69
ATOM     69  C   UNL A   1      42.570  26.251  27.505  1.00  0.00     0.064 A 
ATOM     70  C   UNL A   1      43.589  26.677  26.644  1.00  0.00     0.173 A 
ATOM     71  C   UNL A   1      42.003  24.990  27.271  1.00  0.00     0.173 A 
ATOM     72  F   UNL A   1      44.153  27.882  26.817  1.00  0.00    -0.203 F 
ATOM     73  C   UNL A   1      44.014  25.881  25.581  1.00  0.00     0.198 A 
ATOM     74  C   UNL A   1      42.447  24.183  26.225  1.00  0.00     0.198 A 
ATOM     75  F   UNL A   1      41.029  24.532  28.070  1.00  0.00    -0.203 F 
ATOM     76  F   UNL A   1      44.964  26.329  24.750  1.00  0.00    -0.200 F 
ATOM     77  C   UNL A   1      43.446  24.633  25.377  1.00  0.00     0.200 A 
ATOM     78  F   UNL A   1      41.906  22.970  26.042  1.00  0.00    -0.200 F 
ATOM     79  F   UNL A   1      43.859  23.864  24.359  1.00  0.00    -0.200 F 
ENDBRANCH  45  69
BRANCH  57  80
ATOM     80  C   UNL A   1      44.615  27.005  34.125  1.00  0.00     0.064 A 
ATOM     81  C   UNL A   1      45.879  27.596  34.265  1.00  0.00     0.173 A 
ATOM     82  C   UNL A   1      44.383  25.781  34.770  1.00  0.00     0.173 A 
ATOM     83  F   UNL A   1      46.153  28.759  33.655  1.00  0.00    -0.203 F 
ATOM     84  C   UNL A   1      46.883  26.966  34.995  1.00  0.00     0.198 A 
ATOM     85  C   UNL A   1      45.379  25.172  35.526  1.00  0.00     0.198 A 
ATOM     86  F   UNL A   1      43.187  25.181  34.673  1.00  0.00    -0.203 F 
ATOM     87  F   UNL A   1      48.102  27.519  35.067  1.00  0.00    -0.200 F 
ATOM     88  C   UNL A   1      46.631  25.759  35.629  1.00  0.00     0.200 A 
ATOM     89  F   UNL A   1      45.129  24.012  36.150  1.00  0.00    -0.200 F 
ATOM     90  F   UNL A   1      47.599  25.156  36.332  1.00  0.00    -0.200 F 
ENDBRANCH  57  80
ENDBRANCH  31  32
ENDBRANCH  24  26
ENDBRANCH  23  24
ENDBRANCH  22  23
ENDBRANCH  21  22
ENDBRANCH  20  21
ENDBRANCH   1  20
TORSDOF 18
ENDMDL
MODEL 3
REMARK VINA RESULT:     -10.7      1.409      2.231
REMARK SMILES C[C@@H](C(=O)[C@H](C)[C@@H](C)C(=O)OCCOCCOC(=O)c1ccc(-c2c3nc(c(-c4c(F)c(F)c(F)c(F)c4F)c4ccc([nH]4)c(-c4c(F)c(F)c(F)c(F)c4F)c4nc(c(-c5c(F)c(F)c(F)c(F)c5F)c5ccc2[nH]5)C=C4)C=C3)cc1)c1ccccc1
REMARK SMILES IDX 13 1 12 2 11 3 9 4 10 5 7 6 8 7 5 8 6 9 3 10 4 11 2 12 1 13
REMARK SMILES IDX 83 14 84 15 88 16 85 17 87 18 86 19 14 20 15 21 16 22 17 23
REMARK SMILES IDX 18 24 19 25 20 26 21 27 82 28 22 29 81 30 23 31 24 32 25 33
REMARK SMILES IDX 75 34 26 35 80 36 74 37 76 38 27 39 79 40 73 41 72 42 28 44
REMARK SMILES IDX 60 45 40 46 59 47 41 48 44 49 58 50 77 51 42 52 43 53 57 55
REMARK SMILES IDX 78 56 45 57 29 58 30 59 38 60 31 61 32 62 36 63 39 64 33 65
REMARK SMILES IDX 34 66 37 67 35 68 61 69 62 70 70 71 63 72 64 73 68 74 71 75
REMARK SMILES IDX 65 76 66 77 69 78 67 79 46 80 47 81 55 82 48 83 49 84 53 85
REMARK SMILES IDX 56 86 50 87 51 88 54 89 52 90
REMARK H PARENT 76 43 44 54
REMARK Flexibility Score: inf
ROOT
ATOM      1  C   UNL A   1      31.338  28.489  24.446  1.00  0.00     0.202 C 
ENDROOT
BRANCH   1   2
ATOM      2  C   UNL A   1      30.682  27.213  24.975  1.00  0.00     0.261 C 
BRANCH   2   3
ATOM      3  O   UNL A   1      31.589  26.379  25.733  1.00  0.00    -0.463 OA
BRANCH   3   4
ATOM      4  C   UNL A   1      31.753  25.113  25.268  1.00  0.00     0.309 C 
ATOM      5  O   UNL A   1      30.882  24.451  24.714  1.00  0.00    -0.252 OA
BRANCH   4   6
ATOM      6  C   UNL A   1      33.103  24.513  25.613  1.00  0.00     0.106 C 
ATOM      7  C   UNL A   1      33.972  24.762  24.367  1.00  0.00     0.021 C 
BRANCH   6   8
ATOM      8  C   UNL A   1      33.100  23.038  26.058  1.00  0.00     0.067 C 
ATOM      9  C   UNL A   1      32.517  22.891  27.479  1.00  0.00     0.017 C 
BRANCH   8  10
ATOM     10  C   UNL A   1      32.403  21.946  25.216  1.00  0.00     0.143 C 
ATOM     11  O   UNL A   1      31.371  21.462  25.707  1.00  0.00    -0.299 OA
BRANCH  10  12
ATOM     12  C   UNL A   1      32.941  21.442  23.854  1.00  0.00     0.083 C 
ATOM     13  C   UNL A   1      32.099  21.905  22.672  1.00  0.00     0.021 C 
BRANCH  12  14
ATOM     14  C   UNL A   1      33.064  19.903  23.820  1.00  0.00    -0.038 A 
ATOM     15  C   UNL A   1      33.996  19.225  24.626  1.00  0.00     0.004 A 
ATOM     16  C   UNL A   1      32.295  19.137  22.930  1.00  0.00     0.004 A 
ATOM     17  C   UNL A   1      34.230  17.856  24.469  1.00  0.00     0.000 A 
ATOM     18  C   UNL A   1      32.543  17.770  22.758  1.00  0.00     0.000 A 
ATOM     19  C   UNL A   1      33.522  17.134  23.516  1.00  0.00     0.000 A 
ENDBRANCH  12  14
ENDBRANCH  10  12
ENDBRANCH   8  10
ENDBRANCH   6   8
ENDBRANCH   4   6
ENDBRANCH   3   4
ENDBRANCH   2   3
ENDBRANCH   1   2
BRANCH   1  20
ATOM     20  O   UNL A   1      31.943  29.366  25.393  1.00  0.00    -0.374 OA
BRANCH  20  21
ATOM     21  C   UNL A   1      31.319  30.613  25.657  1.00  0.00     0.202 C 
BRANCH  21  22
ATOM     22  C   UNL A   1      31.821  31.452  26.840  1.00  0.00     0.261 C 
BRANCH  22  23
ATOM     23  O   UNL A   1      33.139  31.158  27.262  1.00  0.00    -0.460 OA
BRANCH  23  24
ATOM     24  C   UNL A   1      33.793  32.239  27.727  1.00  0.00     0.338 C 
ATOM     25  O   UNL A   1      33.351  33.354  27.965  1.00  0.00    -0.246 OA
BRANCH  24  26
ATOM     26  C   UNL A   1      35.135  31.799  28.088  1.00  0.00     0.060 A 
ATOM     27  C   UNL A   1      35.337  30.423  28.190  1.00  0.00     0.016 A 
ATOM     28  C   UNL A   1      36.165  32.718  28.318  1.00  0.00     0.016 A 
ATOM     29  C   UNL A   1      36.568  29.955  28.607  1.00  0.00     0.010 A 
ATOM     30  C   UNL A   1      37.405  32.246  28.734  1.00  0.00     0.010 A 
ATOM     31  C   UNL A   1      37.584  30.867  28.926  1.00  0.00    -0.014 A 
BRANCH  31  32
ATOM     32  C   UNL A   1      38.759  30.353  29.648  1.00  0.00     0.031 A 
ATOM     33  C   UNL A   1      38.929  30.738  31.086  1.00  0.00     0.074 A 
ATOM     34  C   UNL A   1      39.572  29.471  29.047  1.00  0.00     0.049 A 
ATOM     35  N   UNL A   1      39.786  30.297  31.968  1.00  0.00    -0.248 NA
ATOM     36  C   UNL A   1      38.000  31.756  31.608  1.00  0.00     0.031 C 
ATOM     37  C   UNL A   1      39.450  29.027  27.659  1.00  0.00     0.029 A 
ATOM     38  N   UNL A   1      40.640  28.772  29.537  1.00  0.00    -0.354 N 
ATOM     39  C   UNL A   1      39.495  30.975  33.144  1.00  0.00     0.074 A 
ATOM     40  C   UNL A   1      38.412  31.889  32.858  1.00  0.00     0.031 C 
ATOM     41  C   UNL A   1      40.395  28.103  27.415  1.00  0.00     0.029 A 
ATOM     42  C   UNL A   1      41.191  27.909  28.624  1.00  0.00     0.049 A 
ATOM     43  H   UNL A   1      40.980  28.877  30.455  1.00  0.00     0.167 HD
ATOM     44  C   UNL A   1      40.074  30.829  34.357  1.00  0.00     0.037 A 
ATOM     45  C   UNL A   1      42.218  27.053  28.768  1.00  0.00     0.037 A 
ATOM     46  C   UNL A   1      41.153  29.915  34.614  1.00  0.00     0.049 A 
ATOM     47  C   UNL A   1      42.875  26.945  30.118  1.00  0.00     0.074 A 
ATOM     48  C   UNL A   1      41.820  29.671  35.799  1.00  0.00     0.029 A 
ATOM     49  N   UNL A   1      41.727  29.093  33.651  1.00  0.00    -0.354 N 
ATOM     50  N   UNL A   1      42.573  27.558  31.238  1.00  0.00    -0.248 NA
ATOM     51  C   UNL A   1      44.005  26.016  30.227  1.00  0.00     0.031 C 
ATOM     52  C   UNL A   1      42.832  28.737  35.541  1.00  0.00     0.029 A 
ATOM     53  C   UNL A   1      42.759  28.359  34.210  1.00  0.00     0.049 A 
ATOM     54  H   UNL A   1      41.441  29.040  32.711  1.00  0.00     0.167 HD
ATOM     55  C   UNL A   1      43.456  27.072  32.192  1.00  0.00     0.074 A 
ATOM     56  C   UNL A   1      44.293  26.098  31.518  1.00  0.00     0.031 C 
ATOM     57  C   UNL A   1      43.569  27.397  33.504  1.00  0.00     0.037 A 
BRANCH  44  58
ATOM     58  C   UNL A   1      39.573  31.705  35.469  1.00  0.00     0.064 A 
ATOM     59  C   UNL A   1      38.553  31.289  36.339  1.00  0.00     0.173 A 
ATOM     60  C   UNL A   1      40.113  32.985  35.659  1.00  0.00     0.173 A 
ATOM     61  F   UNL A   1      37.986  30.082  36.186  1.00  0.00    -0.203 F 
ATOM     62  C   UNL A   1      38.072  32.133  37.337  1.00  0.00     0.198 A 
ATOM     63  C   UNL A   1      39.651  33.816  36.677  1.00  0.00     0.198 A 
ATOM     64  F   UNL A   1      41.087  33.434  34.855  1.00  0.00    -0.203 F 
ATOM     65  F   UNL A   1      37.059  31.737  38.118  1.00  0.00    -0.200 F 
ATOM     66  C   UNL A   1      38.624  33.394  37.508  1.00  0.00     0.200 A 
ATOM     67  F   UNL A   1      40.191  35.031  36.845  1.00  0.00    -0.200 F 
ATOM     68  F   UNL A   1      38.159  34.207  38.468  1.00  0.00    -0.200 F 
ENDBRANCH  44  58
BRANCH  45  69
ATOM     69  C   UNL A   1      42.657  26.219  27.619  1.00  0.00     0.064 A 
ATOM     70  C   UNL A   1      42.095  24.958  27.384  1.00  0.00     0.173 A 
ATOM     71  C   UNL A   1      43.639  26.673  26.727  1.00  0.00     0.173 A 
ATOM     72  F   UNL A   1      41.163  24.473  28.217  1.00  0.00    -0.203 F 
ATOM     73  C   UNL A   1      42.511  24.173  26.309  1.00  0.00     0.198 A 
ATOM     74  C   UNL A   1      44.034  25.900  25.637  1.00  0.00     0.198 A 
ATOM     75  F   UNL A   1      44.204  27.876  26.903  1.00  0.00    -0.203 F 
ATOM     76  F   UNL A   1      41.985  22.954  26.129  1.00  0.00    -0.200 F 
ATOM     77  C   UNL A   1      43.476  24.648  25.434  1.00  0.00     0.200 A 
ATOM     78  F   UNL A   1      44.956  26.369  24.784  1.00  0.00    -0.200 F 
ATOM     79  F   UNL A   1      43.871  23.897  24.396  1.00  0.00    -0.200 F 
ENDBRANCH  45  69
BRANCH  57  80
ATOM     80  C   UNL A   1      44.615  26.667  34.292  1.00  0.00     0.064 A 
ATOM     81  C   UNL A   1      45.901  27.195  34.473  1.00  0.00     0.173 A 
ATOM     82  C   UNL A   1      44.318  25.434  34.893  1.00  0.00     0.173 A 
ATOM     83  F   UNL A   1      46.237  28.364  33.906  1.00  0.00    -0.203 F 
ATOM     84  C   UNL A   1      46.864  26.498  35.198  1.00  0.00     0.198 A 
ATOM     85  C   UNL A   1      45.272  24.756  35.644  1.00  0.00     0.198 A 
ATOM     86  F   UNL A   1      43.098  24.892  34.756  1.00  0.00    -0.203 F 
ATOM     87  F   UNL A   1      48.104  26.993  35.309  1.00  0.00    -0.200 F 
ATOM     88  C   UNL A   1      46.546  25.283  35.787  1.00  0.00     0.200 A 
ATOM     89  F   UNL A   1      44.960  23.590  36.225  1.00  0.00    -0.200 F 
ATOM     90  F   UNL A   1      47.474  24.615  36.486  1.00  0.00    -0.200 F 
ENDBRANCH  57  80
ENDBRANCH  31  32
ENDBRANCH  24  26
ENDBRANCH  23  24
ENDBRANCH  22  23
ENDBRANCH  21  22
ENDBRANCH  20  21
ENDBRANCH   1  20
TORSDOF 18
ENDMDL
