MODEL 1
REMARK VINA RESULT:     -11.4      0.000      0.000
REMARK SMILES C/C(=C(\C#N)C(=O)OCCOCCOC(=O)c1ccc(-c2c3nc(c(-c4c(F)c(F)c(F)c(F)c4F)c4ccc([nH]4)c(-c4c(F)c(F)c(F)c(F)c4F)c4nc(c(-c5c(F)c(F)c(F)c(F)c5F)c5ccc2[nH]5)C=C4)C=C3)cc1)c1cccc2ccccc12
REMARK SMILES IDX 12 1 11 2 10 3 9 4 8 5 6 6 7 7 3 8 1 9 2 10 80 11 81 12
REMARK SMILES IDX 89 13 82 14 84 15 88 16 83 17 85 18 87 19 86 20 4 21 5 22
REMARK SMILES IDX 13 23 14 24 15 25 16 26 17 27 18 28 79 29 19 30 78 31 20 32
REMARK SMILES IDX 21 33 22 34 72 35 23 36 77 37 71 38 73 39 24 40 76 41 70 42
REMARK SMILES IDX 69 43 25 45 57 46 37 47 56 48 38 49 41 50 55 51 74 52 39 53
REMARK SMILES IDX 40 54 54 56 75 57 42 58 26 59 27 60 35 61 28 62 29 63 33 64
REMARK SMILES IDX 36 65 30 66 31 67 34 68 32 69 58 70 59 71 67 72 60 73 61 74
REMARK SMILES IDX 65 75 68 76 62 77 63 78 66 79 64 80 43 81 44 82 52 83 45 84
REMARK SMILES IDX 46 85 50 86 53 87 47 88 48 89 51 90 49 91
REMARK H PARENT 73 44 41 55
REMARK Flexibility Score: inf
ROOT
ATOM      1  C   UNL A   1      31.779  31.211  26.889  1.00  0.00     0.202 C 
ENDROOT
BRANCH   1   2
ATOM      2  O   UNL A   1      32.129  30.331  25.833  1.00  0.00    -0.374 OA
BRANCH   2   3
ATOM      3  C   UNL A   1      33.353  29.611  25.956  1.00  0.00     0.202 C 
BRANCH   3   4
ATOM      4  C   UNL A   1      33.413  28.430  26.933  1.00  0.00     0.261 C 
BRANCH   4   5
ATOM      5  O   UNL A   1      32.962  27.205  26.324  1.00  0.00    -0.459 OA
BRANCH   5   6
ATOM      6  C   UNL A   1      31.677  26.828  26.590  1.00  0.00     0.349 C 
ATOM      7  O   UNL A   1      30.877  27.472  27.248  1.00  0.00    -0.245 OA
BRANCH   6   8
ATOM      8  C   UNL A   1      31.378  25.513  25.936  1.00  0.00     0.140 C 
ATOM      9  C   UNL A   1      30.661  24.083  23.973  1.00  0.00     0.047 C 
ATOM     10  C   UNL A   1      31.020  25.393  24.624  1.00  0.00    -0.018 C 
BRANCH  10  11
ATOM     11  C   UNL A   1      31.111  26.559  23.698  1.00  0.00    -0.013 A 
ATOM     12  C   UNL A   1      32.339  26.730  23.048  1.00  0.00     0.009 A 
ATOM     13  C   UNL A   1      30.119  27.543  23.478  1.00  0.00    -0.011 A 
ATOM     14  C   UNL A   1      32.712  27.965  22.526  1.00  0.00     0.001 A 
ATOM     15  C   UNL A   1      30.541  28.832  23.058  1.00  0.00    -0.018 A 
ATOM     16  C   UNL A   1      28.730  27.308  23.523  1.00  0.00     0.009 A 
ATOM     17  C   UNL A   1      31.858  29.047  22.657  1.00  0.00     0.009 A 
ATOM     18  C   UNL A   1      29.624  29.876  22.924  1.00  0.00     0.009 A 
ATOM     19  C   UNL A   1      27.827  28.295  23.116  1.00  0.00     0.001 A 
ATOM     20  C   UNL A   1      28.267  29.590  22.874  1.00  0.00     0.001 A 
ENDBRANCH  10  11
BRANCH   8  21
ATOM     21  C   UNL A   1      31.546  24.369  26.775  1.00  0.00     0.107 C 
ATOM     22  N   UNL A   1      31.640  23.428  27.445  1.00  0.00    -0.192 NA
ENDBRANCH   8  21
ENDBRANCH   6   8
ENDBRANCH   5   6
ENDBRANCH   4   5
ENDBRANCH   3   4
ENDBRANCH   2   3
ENDBRANCH   1   2
BRANCH   1  23
ATOM     23  C   UNL A   1      32.298  32.650  26.902  1.00  0.00     0.261 C 
BRANCH  23  24
ATOM     24  O   UNL A   1      33.041  32.972  28.069  1.00  0.00    -0.460 OA
BRANCH  24  25
ATOM     25  C   UNL A   1      34.186  33.640  27.798  1.00  0.00     0.338 C 
ATOM     26  O   UNL A   1      34.314  34.773  27.371  1.00  0.00    -0.246 OA
BRANCH  25  27
ATOM     27  C   UNL A   1      35.306  32.816  28.259  1.00  0.00     0.060 A 
ATOM     28  C   UNL A   1      35.046  31.486  28.606  1.00  0.00     0.016 A 
ATOM     29  C   UNL A   1      36.586  33.360  28.363  1.00  0.00     0.016 A 
ATOM     30  C   UNL A   1      36.070  30.696  29.110  1.00  0.00     0.010 A 
ATOM     31  C   UNL A   1      37.608  32.572  28.877  1.00  0.00     0.010 A 
ATOM     32  C   UNL A   1      37.343  31.251  29.286  1.00  0.00    -0.014 A 
BRANCH  32  33
ATOM     33  C   UNL A   1      38.371  30.524  30.055  1.00  0.00     0.031 A 
ATOM     34  C   UNL A   1      38.564  30.886  31.497  1.00  0.00     0.074 A 
ATOM     35  C   UNL A   1      39.129  29.585  29.467  1.00  0.00     0.049 A 
ATOM     36  N   UNL A   1      39.491  30.501  32.334  1.00  0.00    -0.248 NA
ATOM     37  C   UNL A   1      37.585  31.824  32.071  1.00  0.00     0.031 C 
ATOM     38  C   UNL A   1      38.989  29.131  28.086  1.00  0.00     0.029 A 
ATOM     39  N   UNL A   1      40.186  28.865  29.958  1.00  0.00    -0.354 N 
ATOM     40  C   UNL A   1      39.219  31.163  33.523  1.00  0.00     0.074 A 
ATOM     41  C   UNL A   1      38.063  32.000  33.294  1.00  0.00     0.031 C 
ATOM     42  C   UNL A   1      39.942  28.219  27.831  1.00  0.00     0.029 A 
ATOM     43  C   UNL A   1      40.785  28.068  29.014  1.00  0.00     0.049 A 
ATOM     44  H   UNL A   1      40.487  28.916  30.893  1.00  0.00     0.167 HD
ATOM     45  C   UNL A   1      39.878  31.071  34.701  1.00  0.00     0.037 A 
ATOM     46  C   UNL A   1      41.911  27.334  29.097  1.00  0.00     0.037 A 
ATOM     47  C   UNL A   1      41.029  30.234  34.907  1.00  0.00     0.049 A 
ATOM     48  C   UNL A   1      42.679  27.317  30.394  1.00  0.00     0.074 A 
ATOM     49  C   UNL A   1      41.765  30.050  36.063  1.00  0.00     0.029 A 
ATOM     50  N   UNL A   1      41.619  29.450  33.926  1.00  0.00    -0.354 N 
ATOM     51  N   UNL A   1      42.411  27.927  31.525  1.00  0.00    -0.248 NA
ATOM     52  C   UNL A   1      43.906  26.510  30.428  1.00  0.00     0.031 C 
ATOM     53  C   UNL A   1      42.842  29.212  35.764  1.00  0.00     0.029 A 
ATOM     54  C   UNL A   1      42.729  28.804  34.443  1.00  0.00     0.049 A 
ATOM     55  H   UNL A   1      41.296  29.365  32.999  1.00  0.00     0.167 HD
ATOM     56  C   UNL A   1      43.407  27.543  32.414  1.00  0.00     0.074 A 
ATOM     57  C   UNL A   1      44.285  26.647  31.692  1.00  0.00     0.031 C 
ATOM     58  C   UNL A   1      43.576  27.894  33.713  1.00  0.00     0.037 A 
BRANCH  45  59
ATOM     59  C   UNL A   1      39.394  31.921  35.840  1.00  0.00     0.064 A 
ATOM     60  C   UNL A   1      38.414  31.471  36.738  1.00  0.00     0.173 A 
ATOM     61  C   UNL A   1      39.942  33.195  36.054  1.00  0.00     0.173 A 
ATOM     62  F   UNL A   1      37.848  30.266  36.574  1.00  0.00    -0.203 F 
ATOM     63  C   UNL A   1      37.980  32.277  37.789  1.00  0.00     0.198 A 
ATOM     64  C   UNL A   1      39.532  33.982  37.127  1.00  0.00     0.198 A 
ATOM     65  F   UNL A   1      40.883  33.675  35.227  1.00  0.00    -0.203 F 
ATOM     66  F   UNL A   1      37.003  31.848  38.600  1.00  0.00    -0.200 F 
ATOM     67  C   UNL A   1      38.545  33.527  37.987  1.00  0.00     0.200 A 
ATOM     68  F   UNL A   1      40.093  35.183  37.326  1.00  0.00    -0.200 F 
ATOM     69  F   UNL A   1      38.135  34.296  39.004  1.00  0.00    -0.200 F 
ENDBRANCH  45  59
BRANCH  46  70
ATOM     70  C   UNL A   1      42.388  26.569  27.915  1.00  0.00     0.064 A 
ATOM     71  C   UNL A   1      43.295  27.136  27.008  1.00  0.00     0.173 A 
ATOM     72  C   UNL A   1      41.938  25.266  27.655  1.00  0.00     0.173 A 
ATOM     73  F   UNL A   1      43.740  28.387  27.201  1.00  0.00    -0.203 F 
ATOM     74  C   UNL A   1      43.710  26.441  25.875  1.00  0.00     0.198 A 
ATOM     75  C   UNL A   1      42.381  24.558  26.541  1.00  0.00     0.198 A 
ATOM     76  F   UNL A   1      41.072  24.674  28.492  1.00  0.00    -0.203 F 
ATOM     77  F   UNL A   1      44.532  27.029  24.995  1.00  0.00    -0.200 F 
ATOM     78  C   UNL A   1      43.258  25.150  25.645  1.00  0.00     0.200 A 
ATOM     79  F   UNL A   1      41.956  23.305  26.332  1.00  0.00    -0.200 F 
ATOM     80  F   UNL A   1      43.659  24.481  24.556  1.00  0.00    -0.200 F 
ENDBRANCH  46  70
BRANCH  58  81
ATOM     81  C   UNL A   1      44.707  27.258  34.470  1.00  0.00     0.064 A 
ATOM     82  C   UNL A   1      45.963  27.868  34.583  1.00  0.00     0.173 A 
ATOM     83  C   UNL A   1      44.496  26.054  35.162  1.00  0.00     0.173 A 
ATOM     84  F   UNL A   1      46.221  29.011  33.932  1.00  0.00    -0.203 F 
ATOM     85  C   UNL A   1      46.972  27.289  35.351  1.00  0.00     0.198 A 
ATOM     86  C   UNL A   1      45.493  25.499  35.957  1.00  0.00     0.198 A 
ATOM     87  F   UNL A   1      43.309  25.434  35.093  1.00  0.00    -0.203 F 
ATOM     88  F   UNL A   1      48.178  27.869  35.415  1.00  0.00    -0.200 F 
ATOM     89  C   UNL A   1      46.731  26.114  36.047  1.00  0.00     0.200 A 
ATOM     90  F   UNL A   1      45.250  24.374  36.646  1.00  0.00    -0.200 F 
ATOM     91  F   UNL A   1      47.696  25.572  36.804  1.00  0.00    -0.200 F 
ENDBRANCH  58  81
ENDBRANCH  32  33
ENDBRANCH  25  27
ENDBRANCH  24  25
ENDBRANCH  23  24
ENDBRANCH   1  23
TORSDOF 16
ENDMDL
MODEL 2
REMARK VINA RESULT:     -11.4      1.935      7.966
REMARK SMILES C/C(=C(\C#N)C(=O)OCCOCCOC(=O)c1ccc(-c2c3nc(c(-c4c(F)c(F)c(F)c(F)c4F)c4ccc([nH]4)c(-c4c(F)c(F)c(F)c(F)c4F)c4nc(c(-c5c(F)c(F)c(F)c(F)c5F)c5ccc2[nH]5)C=C4)C=C3)cc1)c1cccc2ccccc12
REMARK SMILES IDX 12 1 11 2 10 3 9 4 8 5 6 6 7 7 3 8 1 9 2 10 80 11 81 12
REMARK SMILES IDX 89 13 82 14 84 15 88 16 83 17 85 18 87 19 86 20 4 21 5 22
REMARK SMILES IDX 13 23 14 24 15 25 16 26 17 27 18 28 79 29 19 30 78 31 20 32
REMARK SMILES IDX 21 33 22 34 72 35 23 36 77 37 71 38 73 39 24 40 76 41 70 42
REMARK SMILES IDX 69 43 25 45 57 46 37 47 56 48 38 49 41 50 55 51 74 52 39 53
REMARK SMILES IDX 40 54 54 56 75 57 42 58 26 59 27 60 35 61 28 62 29 63 33 64
REMARK SMILES IDX 36 65 30 66 31 67 34 68 32 69 58 70 59 71 67 72 60 73 61 74
REMARK SMILES IDX 65 75 68 76 62 77 63 78 66 79 64 80 43 81 44 82 52 83 45 84
REMARK SMILES IDX 46 85 50 86 53 87 47 88 48 89 51 90 49 91
REMARK H PARENT 73 44 41 55
REMARK Flexibility Score: inf
ROOT
ATOM      1  C   UNL A   1      31.381  29.630  24.711  1.00  0.00     0.202 C 
ENDROOT
BRANCH   1   2
ATOM      2  O   UNL A   1      32.455  28.979  24.051  1.00  0.00    -0.374 OA
BRANCH   2   3
ATOM      3  C   UNL A   1      32.130  27.919  23.155  1.00  0.00     0.202 C 
BRANCH   3   4
ATOM      4  C   UNL A   1      33.226  26.912  22.784  1.00  0.00     0.261 C 
BRANCH   4   5
ATOM      5  O   UNL A   1      33.416  25.922  23.815  1.00  0.00    -0.459 OA
BRANCH   5   6
ATOM      6  C   UNL A   1      32.440  24.977  23.941  1.00  0.00     0.349 C 
ATOM      7  O   UNL A   1      31.869  24.427  23.013  1.00  0.00    -0.245 OA
BRANCH   6   8
ATOM      8  C   UNL A   1      32.183  24.689  25.389  1.00  0.00     0.140 C 
ATOM      9  C   UNL A   1      32.146  23.169  27.414  1.00  0.00     0.047 C 
ATOM     10  C   UNL A   1      32.455  23.486  25.974  1.00  0.00    -0.018 C 
BRANCH  10  11
ATOM     11  C   UNL A   1      33.230  22.439  25.244  1.00  0.00    -0.013 A 
ATOM     12  C   UNL A   1      32.476  21.412  24.665  1.00  0.00     0.009 A 
ATOM     13  C   UNL A   1      34.637  22.341  25.151  1.00  0.00    -0.011 A 
ATOM     14  C   UNL A   1      33.052  20.184  24.353  1.00  0.00     0.001 A 
ATOM     15  C   UNL A   1      35.203  21.055  24.951  1.00  0.00    -0.018 A 
ATOM     16  C   UNL A   1      35.520  23.440  25.119  1.00  0.00     0.009 A 
ATOM     17  C   UNL A   1      34.391  19.970  24.626  1.00  0.00     0.009 A 
ATOM     18  C   UNL A   1      36.588  20.874  24.955  1.00  0.00     0.009 A 
ATOM     19  C   UNL A   1      36.878  23.256  24.846  1.00  0.00     0.001 A 
ATOM     20  C   UNL A   1      37.420  21.976  24.822  1.00  0.00     0.001 A 
ENDBRANCH  10  11
BRANCH   8  21
ATOM     21  C   UNL A   1      31.676  25.791  26.142  1.00  0.00     0.107 C 
ATOM     22  N   UNL A   1      31.233  26.657  26.772  1.00  0.00    -0.192 NA
ENDBRANCH   8  21
ENDBRANCH   6   8
ENDBRANCH   5   6
ENDBRANCH   4   5
ENDBRANCH   3   4
ENDBRANCH   2   3
ENDBRANCH   1   2
BRANCH   1  23
ATOM     23  C   UNL A   1      31.655  30.601  25.862  1.00  0.00     0.261 C 
BRANCH  23  24
ATOM     24  O   UNL A   1      32.900  30.374  26.508  1.00  0.00    -0.460 OA
BRANCH  24  25
ATOM     25  C   UNL A   1      33.357  31.464  27.168  1.00  0.00     0.338 C 
ATOM     26  O   UNL A   1      32.764  32.498  27.417  1.00  0.00    -0.246 OA
BRANCH  25  27
ATOM     27  C   UNL A   1      34.685  31.143  27.698  1.00  0.00     0.060 A 
ATOM     28  C   UNL A   1      34.972  29.805  27.987  1.00  0.00     0.016 A 
ATOM     29  C   UNL A   1      35.618  32.155  27.923  1.00  0.00     0.016 A 
ATOM     30  C   UNL A   1      36.195  29.473  28.553  1.00  0.00     0.010 A 
ATOM     31  C   UNL A   1      36.838  31.823  28.499  1.00  0.00     0.010 A 
ATOM     32  C   UNL A   1      37.113  30.488  28.849  1.00  0.00    -0.014 A 
BRANCH  32  33
ATOM     33  C   UNL A   1      38.297  30.199  29.681  1.00  0.00     0.031 A 
ATOM     34  C   UNL A   1      39.320  29.241  29.148  1.00  0.00     0.074 A 
ATOM     35  C   UNL A   1      38.435  30.759  30.893  1.00  0.00     0.049 A 
ATOM     36  N   UNL A   1      40.358  28.717  29.744  1.00  0.00    -0.248 NA
ATOM     37  C   UNL A   1      39.137  28.800  27.755  1.00  0.00     0.031 C 
ATOM     38  C   UNL A   1      37.521  31.736  31.480  1.00  0.00     0.029 A 
ATOM     39  N   UNL A   1      39.390  30.563  31.856  1.00  0.00    -0.354 N 
ATOM     40  C   UNL A   1      40.939  27.873  28.808  1.00  0.00     0.074 A 
ATOM     41  C   UNL A   1      40.122  27.926  27.616  1.00  0.00     0.031 C 
ATOM     42  C   UNL A   1      37.949  32.040  32.717  1.00  0.00     0.029 A 
ATOM     43  C   UNL A   1      39.134  31.241  33.021  1.00  0.00     0.049 A 
ATOM     44  H   UNL A   1      40.180  29.990  31.725  1.00  0.00     0.167 HD
ATOM     45  C   UNL A   1      42.060  27.126  28.936  1.00  0.00     0.037 A 
ATOM     46  C   UNL A   1      39.769  31.186  34.207  1.00  0.00     0.037 A 
ATOM     47  C   UNL A   1      42.857  27.085  30.133  1.00  0.00     0.049 A 
ATOM     48  C   UNL A   1      40.965  30.278  34.354  1.00  0.00     0.074 A 
ATOM     49  C   UNL A   1      44.022  26.378  30.368  1.00  0.00     0.029 A 
ATOM     50  N   UNL A   1      42.562  27.775  31.300  1.00  0.00    -0.354 N 
ATOM     51  N   UNL A   1      41.527  29.495  33.463  1.00  0.00    -0.248 NA
ATOM     52  C   UNL A   1      41.615  30.246  35.671  1.00  0.00     0.031 C 
ATOM     53  C   UNL A   1      44.391  26.582  31.701  1.00  0.00     0.029 A 
ATOM     54  C   UNL A   1      43.506  27.484  32.271  1.00  0.00     0.049 A 
ATOM     55  H   UNL A   1      41.794  28.381  31.421  1.00  0.00     0.167 HD
ATOM     56  C   UNL A   1      42.618  28.914  34.096  1.00  0.00     0.074 A 
ATOM     57  C   UNL A   1      42.641  29.435  35.447  1.00  0.00     0.031 C 
ATOM     58  C   UNL A   1      43.524  28.035  33.603  1.00  0.00     0.037 A 
BRANCH  45  59
ATOM     59  C   UNL A   1      42.466  26.269  27.773  1.00  0.00     0.064 A 
ATOM     60  C   UNL A   1      41.894  25.009  27.543  1.00  0.00     0.173 A 
ATOM     61  C   UNL A   1      43.423  26.730  26.854  1.00  0.00     0.173 A 
ATOM     62  F   UNL A   1      40.985  24.513  28.396  1.00  0.00    -0.203 F 
ATOM     63  C   UNL A   1      42.286  24.230  26.456  1.00  0.00     0.198 A 
ATOM     64  C   UNL A   1      43.784  25.965  25.749  1.00  0.00     0.198 A 
ATOM     65  F   UNL A   1      44.001  27.929  27.024  1.00  0.00    -0.203 F 
ATOM     66  F   UNL A   1      41.767  23.006  26.290  1.00  0.00    -0.200 F 
ATOM     67  C   UNL A   1      43.224  24.713  25.557  1.00  0.00     0.200 A 
ATOM     68  F   UNL A   1      44.678  26.442  24.870  1.00  0.00    -0.200 F 
ATOM     69  F   UNL A   1      43.592  23.968  24.506  1.00  0.00    -0.200 F 
ENDBRANCH  45  59
BRANCH  46  70
ATOM     70  C   UNL A   1      39.281  32.000  35.351  1.00  0.00     0.064 A 
ATOM     71  C   UNL A   1      39.651  33.345  35.489  1.00  0.00     0.173 A 
ATOM     72  C   UNL A   1      38.451  31.449  36.340  1.00  0.00     0.173 A 
ATOM     73  F   UNL A   1      40.459  33.912  34.581  1.00  0.00    -0.203 F 
ATOM     74  C   UNL A   1      39.234  34.099  36.583  1.00  0.00     0.198 A 
ATOM     75  C   UNL A   1      38.005  32.213  37.415  1.00  0.00     0.198 A 
ATOM     76  F   UNL A   1      38.064  30.167  36.256  1.00  0.00    -0.203 F 
ATOM     77  F   UNL A   1      39.650  35.365  36.718  1.00  0.00    -0.200 F 
ATOM     78  C   UNL A   1      38.406  33.535  37.542  1.00  0.00     0.200 A 
ATOM     79  F   UNL A   1      37.191  31.670  38.330  1.00  0.00    -0.200 F 
ATOM     80  F   UNL A   1      38.004  34.261  38.594  1.00  0.00    -0.200 F 
ENDBRANCH  46  70
BRANCH  58  81
ATOM     81  C   UNL A   1      44.664  27.629  34.493  1.00  0.00     0.064 A 
ATOM     82  C   UNL A   1      45.846  28.375  34.577  1.00  0.00     0.173 A 
ATOM     83  C   UNL A   1      44.529  26.515  35.338  1.00  0.00     0.173 A 
ATOM     84  F   UNL A   1      46.032  29.440  33.783  1.00  0.00    -0.203 F 
ATOM     85  C   UNL A   1      46.858  28.015  35.465  1.00  0.00     0.198 A 
ATOM     86  C   UNL A   1      45.525  26.180  36.250  1.00  0.00     0.198 A 
ATOM     87  F   UNL A   1      43.413  25.771  35.304  1.00  0.00    -0.203 F 
ATOM     88  F   UNL A   1      47.997  28.720  35.501  1.00  0.00    -0.200 F 
ATOM     89  C   UNL A   1      46.691  26.926  36.308  1.00  0.00     0.200 A 
ATOM     90  F   UNL A   1      45.351  25.141  37.078  1.00  0.00    -0.200 F 
ATOM     91  F   UNL A   1      47.656  26.596  37.178  1.00  0.00    -0.200 F 
ENDBRANCH  58  81
ENDBRANCH  32  33
ENDBRANCH  25  27
ENDBRANCH  24  25
ENDBRANCH  23  24
ENDBRANCH   1  23
TORSDOF 16
ENDMDL
MODEL 3
REMARK VINA RESULT:     -11.3      4.864     10.441
REMARK SMILES C/C(=C(\C#N)C(=O)OCCOCCOC(=O)c1ccc(-c2c3nc(c(-c4c(F)c(F)c(F)c(F)c4F)c4ccc([nH]4)c(-c4c(F)c(F)c(F)c(F)c4F)c4nc(c(-c5c(F)c(F)c(F)c(F)c5F)c5ccc2[nH]5)C=C4)C=C3)cc1)c1cccc2ccccc12
REMARK SMILES IDX 12 1 11 2 10 3 9 4 8 5 6 6 7 7 3 8 1 9 2 10 80 11 81 12
REMARK SMILES IDX 89 13 82 14 84 15 88 16 83 17 85 18 87 19 86 20 4 21 5 22
REMARK SMILES IDX 13 23 14 24 15 25 16 26 17 27 18 28 79 29 19 30 78 31 20 32
REMARK SMILES IDX 21 33 22 34 72 35 23 36 77 37 71 38 73 39 24 40 76 41 70 42
REMARK SMILES IDX 69 43 25 45 57 46 37 47 56 48 38 49 41 50 55 51 74 52 39 53
REMARK SMILES IDX 40 54 54 56 75 57 42 58 26 59 27 60 35 61 28 62 29 63 33 64
REMARK SMILES IDX 36 65 30 66 31 67 34 68 32 69 58 70 59 71 67 72 60 73 61 74
REMARK SMILES IDX 65 75 68 76 62 77 63 78 66 79 64 80 43 81 44 82 52 83 45 84
REMARK SMILES IDX 46 85 50 86 53 87 47 88 48 89 51 90 49 91
REMARK H PARENT 73 44 41 55
REMARK Flexibility Score: inf
ROOT
ATOM      1  C   UNL A   1      38.065  19.895  25.000  1.00  0.00     0.202 C 
ENDROOT
BRANCH   1   2
ATOM      2  O   UNL A   1      37.775  21.282  24.940  1.00  0.00    -0.374 OA
BRANCH   2   3
ATOM      3  C   UNL A   1      36.585  21.676  24.260  1.00  0.00     0.202 C 
BRANCH   3   4
ATOM      4  C   UNL A   1      36.656  22.861  23.289  1.00  0.00     0.261 C 
BRANCH   4   5
ATOM      5  O   UNL A   1      35.344  23.332  22.920  1.00  0.00    -0.459 OA
BRANCH   5   6
ATOM      6  C   UNL A   1      34.776  24.262  23.741  1.00  0.00     0.349 C 
ATOM      7  O   UNL A   1      35.313  24.763  24.715  1.00  0.00    -0.245 OA
BRANCH   6   8
ATOM      8  C   UNL A   1      33.398  24.602  23.261  1.00  0.00     0.140 C 
ATOM      9  C   UNL A   1      30.898  24.219  23.126  1.00  0.00     0.047 C 
ATOM     10  C   UNL A   1      32.279  23.922  23.648  1.00  0.00    -0.018 C 
BRANCH  10  11
ATOM     11  C   UNL A   1      32.340  22.918  24.751  1.00  0.00    -0.013 A 
ATOM     12  C   UNL A   1      32.140  23.417  26.043  1.00  0.00     0.009 A 
ATOM     13  C   UNL A   1      32.656  21.545  24.628  1.00  0.00    -0.011 A 
ATOM     14  C   UNL A   1      32.590  22.721  27.161  1.00  0.00     0.001 A 
ATOM     15  C   UNL A   1      33.227  20.890  25.751  1.00  0.00    -0.018 A 
ATOM     16  C   UNL A   1      32.336  20.743  23.514  1.00  0.00     0.009 A 
ATOM     17  C   UNL A   1      33.255  21.518  26.994  1.00  0.00     0.009 A 
ATOM     18  C   UNL A   1      33.658  19.565  25.663  1.00  0.00     0.009 A 
ATOM     19  C   UNL A   1      32.527  19.358  23.554  1.00  0.00     0.001 A 
ATOM     20  C   UNL A   1      33.238  18.780  24.599  1.00  0.00     0.001 A 
ENDBRANCH  10  11
BRANCH   8  21
ATOM     21  C   UNL A   1      33.323  25.738  22.398  1.00  0.00     0.107 C 
ATOM     22  N   UNL A   1      33.302  26.676  21.717  1.00  0.00    -0.192 NA
ENDBRANCH   8  21
ENDBRANCH   6   8
ENDBRANCH   5   6
ENDBRANCH   4   5
ENDBRANCH   3   4
ENDBRANCH   2   3
ENDBRANCH   1   2
BRANCH   1  23
ATOM     23  C   UNL A   1      39.300  19.394  25.751  1.00  0.00     0.261 C 
BRANCH  23  24
ATOM     24  O   UNL A   1      40.315  20.379  25.888  1.00  0.00    -0.460 OA
BRANCH  24  25
ATOM     25  C   UNL A   1      40.783  20.482  27.154  1.00  0.00     0.338 C 
ATOM     26  O   UNL A   1      41.124  19.587  27.907  1.00  0.00    -0.246 OA
BRANCH  25  27
ATOM     27  C   UNL A   1      40.973  21.904  27.449  1.00  0.00     0.060 A 
ATOM     28  C   UNL A   1      40.217  22.833  26.726  1.00  0.00     0.016 A 
ATOM     29  C   UNL A   1      41.899  22.308  28.410  1.00  0.00     0.016 A 
ATOM     30  C   UNL A   1      40.419  24.190  26.930  1.00  0.00     0.010 A 
ATOM     31  C   UNL A   1      42.108  23.667  28.607  1.00  0.00     0.010 A 
ATOM     32  C   UNL A   1      41.396  24.609  27.842  1.00  0.00    -0.014 A 
BRANCH  32  33
ATOM     33  C   UNL A   1      41.811  26.025  27.887  1.00  0.00     0.031 A 
ATOM     34  C   UNL A   1      43.144  26.390  27.304  1.00  0.00     0.074 A 
ATOM     35  C   UNL A   1      41.027  26.950  28.462  1.00  0.00     0.049 A 
ATOM     36  N   UNL A   1      43.790  27.525  27.355  1.00  0.00    -0.248 NA
ATOM     37  C   UNL A   1      43.852  25.323  26.576  1.00  0.00     0.031 C 
ATOM     38  C   UNL A   1      39.698  26.703  29.016  1.00  0.00     0.029 A 
ATOM     39  N   UNL A   1      41.253  28.281  28.695  1.00  0.00    -0.354 N 
ATOM     40  C   UNL A   1      44.985  27.303  26.686  1.00  0.00     0.074 A 
ATOM     41  C   UNL A   1      44.993  25.919  26.266  1.00  0.00     0.031 C 
ATOM     42  C   UNL A   1      39.231  27.846  29.546  1.00  0.00     0.029 A 
ATOM     43  C   UNL A   1      40.250  28.885  29.412  1.00  0.00     0.049 A 
ATOM     44  H   UNL A   1      42.056  28.756  28.381  1.00  0.00     0.167 HD
ATOM     45  C   UNL A   1      45.983  28.184  26.440  1.00  0.00     0.037 A 
ATOM     46  C   UNL A   1      40.190  30.125  29.931  1.00  0.00     0.037 A 
ATOM     47  C   UNL A   1      45.957  29.557  26.870  1.00  0.00     0.049 A 
ATOM     48  C   UNL A   1      41.353  31.062  29.722  1.00  0.00     0.074 A 
ATOM     49  C   UNL A   1      46.904  30.542  26.662  1.00  0.00     0.029 A 
ATOM     50  N   UNL A   1      44.931  30.132  27.607  1.00  0.00    -0.354 N 
ATOM     51  N   UNL A   1      42.474  30.861  29.071  1.00  0.00    -0.248 NA
ATOM     52  C   UNL A   1      41.242  32.401  30.318  1.00  0.00     0.031 C 
ATOM     53  C   UNL A   1      46.486  31.694  27.335  1.00  0.00     0.029 A 
ATOM     54  C   UNL A   1      45.238  31.453  27.889  1.00  0.00     0.049 A 
ATOM     55  H   UNL A   1      44.108  29.670  27.888  1.00  0.00     0.167 HD
ATOM     56  C   UNL A   1      43.180  32.055  29.142  1.00  0.00     0.074 A 
ATOM     57  C   UNL A   1      42.360  32.978  29.898  1.00  0.00     0.031 C 
ATOM     58  C   UNL A   1      44.393  32.363  28.622  1.00  0.00     0.037 A 
BRANCH  45  59
ATOM     59  C   UNL A   1      47.195  27.683  25.711  1.00  0.00     0.064 A 
ATOM     60  C   UNL A   1      47.294  27.734  24.312  1.00  0.00     0.173 A 
ATOM     61  C   UNL A   1      48.289  27.169  26.426  1.00  0.00     0.173 A 
ATOM     62  F   UNL A   1      46.273  28.203  23.579  1.00  0.00    -0.203 F 
ATOM     63  C   UNL A   1      48.429  27.262  23.656  1.00  0.00     0.198 A 
ATOM     64  C   UNL A   1      49.436  26.734  25.768  1.00  0.00     0.198 A 
ATOM     65  F   UNL A   1      48.249  27.098  27.765  1.00  0.00    -0.203 F 
ATOM     66  F   UNL A   1      48.477  27.269  22.317  1.00  0.00    -0.200 F 
ATOM     67  C   UNL A   1      49.501  26.771  24.385  1.00  0.00     0.200 A 
ATOM     68  F   UNL A   1      50.478  26.277  26.476  1.00  0.00    -0.200 F 
ATOM     69  F   UNL A   1      50.596  26.328  23.753  1.00  0.00    -0.200 F 
ENDBRANCH  45  59
BRANCH  46  70
ATOM     70  C   UNL A   1      38.997  30.548  30.711  1.00  0.00     0.064 A 
ATOM     71  C   UNL A   1      38.948  30.380  32.102  1.00  0.00     0.173 A 
ATOM     72  C   UNL A   1      37.875  31.112  30.084  1.00  0.00     0.173 A 
ATOM     73  F   UNL A   1      39.988  29.828  32.745  1.00  0.00    -0.203 F 
ATOM     74  C   UNL A   1      37.815  30.733  32.831  1.00  0.00     0.198 A 
ATOM     75  C   UNL A   1      36.756  31.497  30.819  1.00  0.00     0.198 A 
ATOM     76  F   UNL A   1      37.869  31.297  28.755  1.00  0.00    -0.203 F 
ATOM     77  F   UNL A   1      37.776  30.508  34.151  1.00  0.00    -0.200 F 
ATOM     78  C   UNL A   1      36.722  31.296  32.190  1.00  0.00     0.200 A 
ATOM     79  F   UNL A   1      35.709  32.057  30.198  1.00  0.00    -0.200 F 
ATOM     80  F   UNL A   1      35.633  31.637  32.892  1.00  0.00    -0.200 F 
ENDBRANCH  46  70
BRANCH  58  81
ATOM     81  C   UNL A   1      44.887  33.773  28.781  1.00  0.00     0.064 A 
ATOM     82  C   UNL A   1      44.557  34.785  27.871  1.00  0.00     0.173 A 
ATOM     83  C   UNL A   1      45.636  34.128  29.916  1.00  0.00     0.173 A 
ATOM     84  F   UNL A   1      43.855  34.498  26.765  1.00  0.00    -0.203 F 
ATOM     85  C   UNL A   1      44.970  36.099  28.083  1.00  0.00     0.198 A 
ATOM     86  C   UNL A   1      46.015  35.447  30.143  1.00  0.00     0.198 A 
ATOM     87  F   UNL A   1      45.972  33.198  30.823  1.00  0.00    -0.203 F 
ATOM     88  F   UNL A   1      44.676  37.045  27.180  1.00  0.00    -0.200 F 
ATOM     89  C   UNL A   1      45.686  36.430  29.223  1.00  0.00     0.200 A 
ATOM     90  F   UNL A   1      46.688  35.768  31.257  1.00  0.00    -0.200 F 
ATOM     91  F   UNL A   1      46.061  37.700  29.436  1.00  0.00    -0.200 F 
ENDBRANCH  58  81
ENDBRANCH  32  33
ENDBRANCH  25  27
ENDBRANCH  24  25
ENDBRANCH  23  24
ENDBRANCH   1  23
TORSDOF 16
ENDMDL
