MODEL 1
REMARK VINA RESULT:     -11.1      0.000      0.000
REMARK SMILES CC(=O)N[C@@H](Cc1c(OCC(C)C)ccc2ccccc12)C(=O)OCCOCCOC(=O)c1ccc(-c2c3nc(c(-c4c(F)c(F)c(F)c(F)c4F)c4ccc([nH]4)c(-c4c(F)c(F)c(F)c(F)c4F)c4nc(c(-c5c(F)c(F)c(F)c(F)c5F)c5ccc2[nH]5)C=C4)C=C3)cc1
REMARK SMILES IDX 25 1 24 2 22 3 23 4 5 5 4 6 1 7 2 8 3 9 6 11 7 12 8 13 21 14
REMARK SMILES IDX 14 15 16 16 20 17 15 18 17 19 19 20 18 21 9 22 10 23 11 24
REMARK SMILES IDX 12 25 13 26 26 27 27 28 28 29 29 30 30 31 31 32 32 33 33 34
REMARK SMILES IDX 34 35 95 36 35 37 94 38 36 39 37 40 38 41 88 42 39 43 93 44
REMARK SMILES IDX 87 45 89 46 40 47 92 48 86 49 85 50 41 52 73 53 53 54 72 55
REMARK SMILES IDX 54 56 57 57 71 58 90 59 55 60 56 61 70 63 91 64 58 65 42 66
REMARK SMILES IDX 43 67 51 68 44 69 45 70 49 71 52 72 46 73 47 74 50 75 48 76
REMARK SMILES IDX 74 77 75 78 83 79 76 80 77 81 81 82 84 83 78 84 79 85 82 86
REMARK SMILES IDX 80 87 59 88 60 89 68 90 61 91 62 92 66 93 69 94 63 95 64 96
REMARK SMILES IDX 67 97 65 98
REMARK H PARENT 4 10 89 51 57 62
REMARK Flexibility Score: inf
ROOT
ATOM      1  C   UNL A   1      34.319  23.443  23.947  1.00  0.00     0.261 C 
ENDROOT
BRANCH   1   2
ATOM      2  O   UNL A   1      34.343  24.873  24.038  1.00  0.00    -0.462 OA
BRANCH   2   3
ATOM      3  C   UNL A   1      33.642  25.543  23.078  1.00  0.00     0.329 C 
ATOM      4  O   UNL A   1      33.815  25.427  21.870  1.00  0.00    -0.250 OA
BRANCH   3   5
ATOM      5  C   UNL A   1      32.647  26.542  23.692  1.00  0.00     0.196 C 
BRANCH   5   6
ATOM      6  N   UNL A   1      32.328  26.255  25.101  1.00  0.00    -0.343 N 
ATOM      7  C   UNL A   1      30.379  24.802  24.691  1.00  0.00     0.114 C 
ATOM      8  C   UNL A   1      31.335  25.486  25.626  1.00  0.00     0.217 C 
ATOM      9  O   UNL A   1      31.256  25.346  26.845  1.00  0.00    -0.275 OA
ATOM     10  H   UNL A   1      32.920  26.682  25.760  1.00  0.00     0.164 HD
ENDBRANCH   5   6
BRANCH   5  11
ATOM     11  C   UNL A   1      33.169  27.983  23.510  1.00  0.00     0.077 C 
BRANCH  11  12
ATOM     12  C   UNL A   1      32.566  28.976  24.508  1.00  0.00     0.005 A 
ATOM     13  C   UNL A   1      31.302  29.545  24.220  1.00  0.00     0.123 A 
ATOM     14  C   UNL A   1      33.288  29.396  25.669  1.00  0.00    -0.011 A 
ATOM     15  C   UNL A   1      30.822  30.592  24.999  1.00  0.00     0.047 A 
ATOM     16  C   UNL A   1      32.741  30.427  26.472  1.00  0.00    -0.018 A 
ATOM     17  C   UNL A   1      34.531  28.856  26.084  1.00  0.00     0.009 A 
ATOM     18  C   UNL A   1      31.531  31.023  26.117  1.00  0.00     0.012 A 
ATOM     19  C   UNL A   1      33.412  30.867  27.625  1.00  0.00     0.009 A 
ATOM     20  C   UNL A   1      35.193  29.307  27.228  1.00  0.00     0.001 A 
ATOM     21  C   UNL A   1      34.630  30.310  28.003  1.00  0.00     0.001 A 
BRANCH  13  22
ATOM     22  O   UNL A   1      30.626  28.990  23.168  1.00  0.00    -0.493 OA
BRANCH  22  23
ATOM     23  C   UNL A   1      29.249  28.635  23.280  1.00  0.00     0.232 C 
BRANCH  23  24
ATOM     24  C   UNL A   1      28.314  29.603  22.529  1.00  0.00     0.020 C 
ATOM     25  C   UNL A   1      27.520  30.539  23.442  1.00  0.00     0.011 C 
ATOM     26  C   UNL A   1      29.126  30.438  21.535  1.00  0.00     0.011 C 
ENDBRANCH  23  24
ENDBRANCH  22  23
ENDBRANCH  13  22
ENDBRANCH  11  12
ENDBRANCH   5  11
ENDBRANCH   3   5
ENDBRANCH   2   3
ENDBRANCH   1   2
BRANCH   1  27
ATOM     27  C   UNL A   1      33.896  22.816  25.277  1.00  0.00     0.202 C 
BRANCH  27  28
ATOM     28  O   UNL A   1      34.691  21.725  25.739  1.00  0.00    -0.374 OA
BRANCH  28  29
ATOM     29  C   UNL A   1      35.344  20.919  24.756  1.00  0.00     0.202 C 
BRANCH  29  30
ATOM     30  C   UNL A   1      36.872  20.806  24.856  1.00  0.00     0.261 C 
BRANCH  30  31
ATOM     31  O   UNL A   1      37.450  21.769  25.758  1.00  0.00    -0.460 OA
BRANCH  31  32
ATOM     32  C   UNL A   1      38.751  21.554  26.061  1.00  0.00     0.338 C 
ATOM     33  O   UNL A   1      39.430  20.570  25.797  1.00  0.00    -0.246 OA
BRANCH  32  34
ATOM     34  C   UNL A   1      39.346  22.770  26.639  1.00  0.00     0.060 A 
ATOM     35  C   UNL A   1      38.894  24.009  26.164  1.00  0.00     0.016 A 
ATOM     36  C   UNL A   1      40.403  22.700  27.547  1.00  0.00     0.016 A 
ATOM     37  C   UNL A   1      39.518  25.184  26.577  1.00  0.00     0.010 A 
ATOM     38  C   UNL A   1      41.038  23.879  27.948  1.00  0.00     0.010 A 
ATOM     39  C   UNL A   1      40.615  25.124  27.447  1.00  0.00    -0.014 A 
BRANCH  39  40
ATOM     40  C   UNL A   1      41.380  26.355  27.757  1.00  0.00     0.031 A 
ATOM     41  C   UNL A   1      40.715  27.469  28.513  1.00  0.00     0.074 A 
ATOM     42  C   UNL A   1      42.663  26.471  27.373  1.00  0.00     0.049 A 
ATOM     43  N   UNL A   1      41.182  28.652  28.830  1.00  0.00    -0.248 NA
ATOM     44  C   UNL A   1      39.343  27.218  28.979  1.00  0.00     0.031 C 
ATOM     45  C   UNL A   1      43.430  25.438  26.680  1.00  0.00     0.029 A 
ATOM     46  N   UNL A   1      43.543  27.516  27.504  1.00  0.00    -0.354 N 
ATOM     47  C   UNL A   1      40.161  29.285  29.527  1.00  0.00     0.074 A 
ATOM     48  C   UNL A   1      39.043  28.366  29.570  1.00  0.00     0.031 C 
ATOM     49  C   UNL A   1      44.663  25.909  26.427  1.00  0.00     0.029 A 
ATOM     50  C   UNL A   1      44.758  27.286  26.909  1.00  0.00     0.049 A 
ATOM     51  H   UNL A   1      43.322  28.350  27.978  1.00  0.00     0.167 HD
ATOM     52  C   UNL A   1      40.161  30.520  30.085  1.00  0.00     0.037 A 
ATOM     53  C   UNL A   1      45.813  28.107  26.747  1.00  0.00     0.037 A 
ATOM     54  C   UNL A   1      41.272  31.434  30.037  1.00  0.00     0.049 A 
ATOM     55  C   UNL A   1      45.753  29.510  27.293  1.00  0.00     0.074 A 
ATOM     56  C   UNL A   1      41.377  32.695  30.596  1.00  0.00     0.029 A 
ATOM     57  N   UNL A   1      42.468  31.186  29.381  1.00  0.00    -0.354 N 
ATOM     58  N   UNL A   1      44.795  30.092  27.972  1.00  0.00    -0.248 NA
ATOM     59  C   UNL A   1      46.919  30.369  27.045  1.00  0.00     0.031 C 
ATOM     60  C   UNL A   1      42.618  33.232  30.234  1.00  0.00     0.029 A 
ATOM     61  C   UNL A   1      43.305  32.286  29.491  1.00  0.00     0.049 A 
ATOM     62  H   UNL A   1      42.691  30.352  28.908  1.00  0.00     0.167 HD
ATOM     63  C   UNL A   1      45.247  31.377  28.247  1.00  0.00     0.074 A 
ATOM     64  C   UNL A   1      46.574  31.484  27.676  1.00  0.00     0.031 C 
ATOM     65  C   UNL A   1      44.621  32.378  28.912  1.00  0.00     0.037 A 
BRANCH  52  66
ATOM     66  C   UNL A   1      38.906  30.969  30.773  1.00  0.00     0.064 A 
ATOM     67  C   UNL A   1      37.859  31.580  30.069  1.00  0.00     0.173 A 
ATOM     68  C   UNL A   1      38.733  30.746  32.147  1.00  0.00     0.173 A 
ATOM     69  F   UNL A   1      37.980  31.823  28.755  1.00  0.00    -0.203 F 
ATOM     70  C   UNL A   1      36.690  31.970  30.720  1.00  0.00     0.198 A 
ATOM     71  C   UNL A   1      37.555  31.117  32.791  1.00  0.00     0.198 A 
ATOM     72  F   UNL A   1      39.703  30.161  32.866  1.00  0.00    -0.203 F 
ATOM     73  F   UNL A   1      35.717  32.585  30.035  1.00  0.00    -0.200 F 
ATOM     74  C   UNL A   1      36.538  31.732  32.078  1.00  0.00     0.200 A 
ATOM     75  F   UNL A   1      37.404  30.876  34.101  1.00  0.00    -0.200 F 
ATOM     76  F   UNL A   1      35.410  32.103  32.702  1.00  0.00    -0.200 F 
ENDBRANCH  52  66
BRANCH  53  77
ATOM     77  C   UNL A   1      47.011  27.633  26.006  1.00  0.00     0.064 A 
ATOM     78  C   UNL A   1      48.120  27.108  26.683  1.00  0.00     0.173 A 
ATOM     79  C   UNL A   1      47.076  27.710  24.606  1.00  0.00     0.173 A 
ATOM     80  F   UNL A   1      48.115  27.037  28.022  1.00  0.00    -0.203 F 
ATOM     81  C   UNL A   1      49.255  26.691  25.989  1.00  0.00     0.198 A 
ATOM     82  C   UNL A   1      48.198  27.268  23.912  1.00  0.00     0.198 A 
ATOM     83  F   UNL A   1      46.040  28.205  23.913  1.00  0.00    -0.203 F 
ATOM     84  F   UNL A   1      50.317  26.230  26.661  1.00  0.00    -0.200 F 
ATOM     85  C   UNL A   1      49.291  26.765  24.604  1.00  0.00     0.200 A 
ATOM     86  F   UNL A   1      48.224  27.330  22.574  1.00  0.00    -0.200 F 
ATOM     87  F   UNL A   1      50.379  26.359  23.937  1.00  0.00    -0.200 F 
ENDBRANCH  53  77
BRANCH  65  88
ATOM     88  C   UNL A   1      45.365  33.672  29.070  1.00  0.00     0.064 A 
ATOM     89  C   UNL A   1      45.223  34.716  28.145  1.00  0.00     0.173 A 
ATOM     90  C   UNL A   1      46.194  33.886  30.182  1.00  0.00     0.173 A 
ATOM     91  F   UNL A   1      44.456  34.554  27.057  1.00  0.00    -0.203 F 
ATOM     92  C   UNL A   1      45.900  35.921  28.317  1.00  0.00     0.198 A 
ATOM     93  C   UNL A   1      46.848  35.102  30.365  1.00  0.00     0.198 A 
ATOM     94  F   UNL A   1      46.358  32.921  31.098  1.00  0.00    -0.203 F 
ATOM     95  F   UNL A   1      45.782  36.890  27.398  1.00  0.00    -0.200 F 
ATOM     96  C   UNL A   1      46.705  36.116  29.429  1.00  0.00     0.200 A 
ATOM     97  F   UNL A   1      47.616  35.292  31.446  1.00  0.00    -0.200 F 
ATOM     98  F   UNL A   1      47.349  37.279  29.597  1.00  0.00    -0.200 F 
ENDBRANCH  65  88
ENDBRANCH  39  40
ENDBRANCH  32  34
ENDBRANCH  31  32
ENDBRANCH  30  31
ENDBRANCH  29  30
ENDBRANCH  28  29
ENDBRANCH  27  28
ENDBRANCH   1  27
TORSDOF 20
ENDMDL
MODEL 2
REMARK VINA RESULT:     -10.9      0.736      7.118
REMARK SMILES CC(=O)N[C@@H](Cc1c(OCC(C)C)ccc2ccccc12)C(=O)OCCOCCOC(=O)c1ccc(-c2c3nc(c(-c4c(F)c(F)c(F)c(F)c4F)c4ccc([nH]4)c(-c4c(F)c(F)c(F)c(F)c4F)c4nc(c(-c5c(F)c(F)c(F)c(F)c5F)c5ccc2[nH]5)C=C4)C=C3)cc1
REMARK SMILES IDX 25 1 24 2 22 3 23 4 5 5 4 6 1 7 2 8 3 9 6 11 7 12 8 13 21 14
REMARK SMILES IDX 14 15 16 16 20 17 15 18 17 19 19 20 18 21 9 22 10 23 11 24
REMARK SMILES IDX 12 25 13 26 26 27 27 28 28 29 29 30 30 31 31 32 32 33 33 34
REMARK SMILES IDX 34 35 95 36 35 37 94 38 36 39 37 40 38 41 88 42 39 43 93 44
REMARK SMILES IDX 87 45 89 46 40 47 92 48 86 49 85 50 41 52 73 53 53 54 72 55
REMARK SMILES IDX 54 56 57 57 71 58 90 59 55 60 56 61 70 63 91 64 58 65 42 66
REMARK SMILES IDX 43 67 51 68 44 69 45 70 49 71 52 72 46 73 47 74 50 75 48 76
REMARK SMILES IDX 74 77 75 78 83 79 76 80 77 81 81 82 84 83 78 84 79 85 82 86
REMARK SMILES IDX 80 87 59 88 60 89 68 90 61 91 62 92 66 93 69 94 63 95 64 96
REMARK SMILES IDX 67 97 65 98
REMARK H PARENT 4 10 89 51 57 62
REMARK Flexibility Score: inf
ROOT
ATOM      1  C   UNL A   1      35.137  23.444  23.804  1.00  0.00     0.261 C 
ENDROOT
BRANCH   1   2
ATOM      2  O   UNL A   1      34.389  24.631  23.514  1.00  0.00    -0.462 OA
BRANCH   2   3
ATOM      3  C   UNL A   1      33.981  25.358  24.594  1.00  0.00     0.329 C 
ATOM      4  O   UNL A   1      34.452  25.266  25.722  1.00  0.00    -0.250 OA
BRANCH   3   5
ATOM      5  C   UNL A   1      32.787  26.264  24.255  1.00  0.00     0.196 C 
BRANCH   5   6
ATOM      6  N   UNL A   1      31.766  26.304  25.315  1.00  0.00    -0.343 N 
ATOM      7  C   UNL A   1      30.711  24.132  24.817  1.00  0.00     0.114 C 
ATOM      8  C   UNL A   1      30.808  25.391  25.632  1.00  0.00     0.217 C 
ATOM      9  O   UNL A   1      30.062  25.598  26.587  1.00  0.00    -0.275 OA
ATOM     10  H   UNL A   1      31.778  27.110  25.880  1.00  0.00     0.164 HD
ENDBRANCH   5   6
BRANCH   5  11
ATOM     11  C   UNL A   1      33.286  27.680  23.894  1.00  0.00     0.077 C 
BRANCH  11  12
ATOM     12  C   UNL A   1      32.712  28.773  24.800  1.00  0.00     0.005 A 
ATOM     13  C   UNL A   1      31.443  29.317  24.487  1.00  0.00     0.123 A 
ATOM     14  C   UNL A   1      33.466  29.307  25.892  1.00  0.00    -0.011 A 
ATOM     15  C   UNL A   1      30.986  30.441  25.167  1.00  0.00     0.047 A 
ATOM     16  C   UNL A   1      32.943  30.418  26.599  1.00  0.00    -0.018 A 
ATOM     17  C   UNL A   1      34.717  28.806  26.328  1.00  0.00     0.009 A 
ATOM     18  C   UNL A   1      31.725  30.980  26.215  1.00  0.00     0.012 A 
ATOM     19  C   UNL A   1      33.644  30.970  27.683  1.00  0.00     0.009 A 
ATOM     20  C   UNL A   1      35.410  29.368  27.402  1.00  0.00     0.001 A 
ATOM     21  C   UNL A   1      34.870  30.449  28.084  1.00  0.00     0.001 A 
BRANCH  13  22
ATOM     22  O   UNL A   1      30.737  28.661  23.516  1.00  0.00    -0.493 OA
BRANCH  22  23
ATOM     23  C   UNL A   1      30.193  29.360  22.398  1.00  0.00     0.232 C 
BRANCH  23  24
ATOM     24  C   UNL A   1      28.721  29.770  22.603  1.00  0.00     0.020 C 
ATOM     25  C   UNL A   1      28.098  30.482  21.401  1.00  0.00     0.011 C 
ATOM     26  C   UNL A   1      27.885  28.534  22.946  1.00  0.00     0.011 C 
ENDBRANCH  23  24
ENDBRANCH  22  23
ENDBRANCH  13  22
ENDBRANCH  11  12
ENDBRANCH   5  11
ENDBRANCH   3   5
ENDBRANCH   2   3
ENDBRANCH   1   2
BRANCH   1  27
ATOM     27  C   UNL A   1      34.217  22.226  23.899  1.00  0.00     0.202 C 
BRANCH  27  28
ATOM     28  O   UNL A   1      34.710  21.123  24.659  1.00  0.00    -0.374 OA
BRANCH  28  29
ATOM     29  C   UNL A   1      35.806  21.366  25.543  1.00  0.00     0.202 C 
BRANCH  29  30
ATOM     30  C   UNL A   1      37.141  20.693  25.194  1.00  0.00     0.261 C 
BRANCH  30  31
ATOM     31  O   UNL A   1      38.244  21.618  25.152  1.00  0.00    -0.460 OA
BRANCH  31  32
ATOM     32  C   UNL A   1      39.199  21.406  26.087  1.00  0.00     0.338 C 
ATOM     33  O   UNL A   1      39.750  20.350  26.369  1.00  0.00    -0.246 OA
BRANCH  32  34
ATOM     34  C   UNL A   1      39.647  22.687  26.656  1.00  0.00     0.060 A 
ATOM     35  C   UNL A   1      39.106  23.865  26.121  1.00  0.00     0.016 A 
ATOM     36  C   UNL A   1      40.658  22.741  27.615  1.00  0.00     0.016 A 
ATOM     37  C   UNL A   1      39.596  25.104  26.528  1.00  0.00     0.010 A 
ATOM     38  C   UNL A   1      41.158  23.986  28.011  1.00  0.00     0.010 A 
ATOM     39  C   UNL A   1      40.647  25.172  27.452  1.00  0.00    -0.014 A 
BRANCH  39  40
ATOM     40  C   UNL A   1      41.276  26.478  27.761  1.00  0.00     0.031 A 
ATOM     41  C   UNL A   1      42.713  26.711  27.394  1.00  0.00     0.074 A 
ATOM     42  C   UNL A   1      40.564  27.450  28.355  1.00  0.00     0.049 A 
ATOM     43  N   UNL A   1      43.472  27.752  27.632  1.00  0.00    -0.248 NA
ATOM     44  C   UNL A   1      43.387  25.630  26.659  1.00  0.00     0.031 C 
ATOM     45  C   UNL A   1      39.149  27.359  28.712  1.00  0.00     0.029 A 
ATOM     46  N   UNL A   1      40.939  28.702  28.774  1.00  0.00    -0.354 N 
ATOM     47  C   UNL A   1      44.710  27.451  27.079  1.00  0.00     0.074 A 
ATOM     48  C   UNL A   1      44.609  26.122  26.513  1.00  0.00     0.031 C 
ATOM     49  C   UNL A   1      38.779  28.502  29.315  1.00  0.00     0.029 A 
ATOM     50  C   UNL A   1      39.939  29.387  29.418  1.00  0.00     0.049 A 
ATOM     51  H   UNL A   1      41.839  29.072  28.627  1.00  0.00     0.167 HD
ATOM     52  C   UNL A   1      45.827  28.217  27.043  1.00  0.00     0.037 A 
ATOM     53  C   UNL A   1      39.968  30.578  30.045  1.00  0.00     0.037 A 
ATOM     54  C   UNL A   1      45.927  29.536  27.611  1.00  0.00     0.049 A 
ATOM     55  C   UNL A   1      41.250  31.369  30.074  1.00  0.00     0.074 A 
ATOM     56  C   UNL A   1      47.007  30.401  27.601  1.00  0.00     0.029 A 
ATOM     57  N   UNL A   1      44.909  30.176  28.300  1.00  0.00    -0.354 N 
ATOM     58  N   UNL A   1      42.408  31.089  29.530  1.00  0.00    -0.248 NA
ATOM     59  C   UNL A   1      41.227  32.641  30.812  1.00  0.00     0.031 C 
ATOM     60  C   UNL A   1      46.659  31.544  28.330  1.00  0.00     0.029 A 
ATOM     61  C   UNL A   1      45.346  31.411  28.752  1.00  0.00     0.049 A 
ATOM     62  H   UNL A   1      44.007  29.808  28.447  1.00  0.00     0.167 HD
ATOM     63  C   UNL A   1      43.246  32.152  29.842  1.00  0.00     0.074 A 
ATOM     64  C   UNL A   1      42.457  33.094  30.610  1.00  0.00     0.031 C 
ATOM     65  C   UNL A   1      44.551  32.334  29.521  1.00  0.00     0.037 A 
BRANCH  52  66
ATOM     66  C   UNL A   1      47.046  27.634  26.392  1.00  0.00     0.064 A 
ATOM     67  C   UNL A   1      47.333  27.854  25.037  1.00  0.00     0.173 A 
ATOM     68  C   UNL A   1      47.961  26.883  27.144  1.00  0.00     0.173 A 
ATOM     69  F   UNL A   1      46.484  28.558  24.273  1.00  0.00    -0.203 F 
ATOM     70  C   UNL A   1      48.482  27.324  24.453  1.00  0.00     0.198 A 
ATOM     71  C   UNL A   1      49.120  26.374  26.563  1.00  0.00     0.198 A 
ATOM     72  F   UNL A   1      47.736  26.648  28.446  1.00  0.00    -0.203 F 
ATOM     73  F   UNL A   1      48.717  27.516  23.148  1.00  0.00    -0.200 F 
ATOM     74  C   UNL A   1      49.376  26.591  25.218  1.00  0.00     0.200 A 
ATOM     75  F   UNL A   1      49.990  25.676  27.307  1.00  0.00    -0.200 F 
ATOM     76  F   UNL A   1      50.485  26.087  24.656  1.00  0.00    -0.200 F 
ENDBRANCH  52  66
BRANCH  53  77
ATOM     77  C   UNL A   1      38.748  31.085  30.726  1.00  0.00     0.064 A 
ATOM     78  C   UNL A   1      37.777  31.813  30.025  1.00  0.00     0.173 A 
ATOM     79  C   UNL A   1      38.537  30.863  32.095  1.00  0.00     0.173 A 
ATOM     80  F   UNL A   1      37.947  32.070  28.720  1.00  0.00    -0.203 F 
ATOM     81  C   UNL A   1      36.648  32.312  30.671  1.00  0.00     0.198 A 
ATOM     82  C   UNL A   1      37.396  31.339  32.734  1.00  0.00     0.198 A 
ATOM     83  F   UNL A   1      39.437  30.172  32.810  1.00  0.00    -0.203 F 
ATOM     84  F   UNL A   1      35.754  33.038  29.988  1.00  0.00    -0.200 F 
ATOM     85  C   UNL A   1      36.454  32.070  32.023  1.00  0.00     0.200 A 
ATOM     86  F   UNL A   1      37.207  31.093  34.038  1.00  0.00    -0.200 F 
ATOM     87  F   UNL A   1      35.366  32.545  32.642  1.00  0.00    -0.200 F 
ENDBRANCH  53  77
BRANCH  65  88
ATOM     88  C   UNL A   1      45.205  33.601  29.988  1.00  0.00     0.064 A 
ATOM     89  C   UNL A   1      45.165  34.773  29.219  1.00  0.00     0.173 A 
ATOM     90  C   UNL A   1      45.841  33.655  31.238  1.00  0.00     0.173 A 
ATOM     91  F   UNL A   1      44.584  34.767  28.011  1.00  0.00    -0.203 F 
ATOM     92  C   UNL A   1      45.754  35.949  29.677  1.00  0.00     0.198 A 
ATOM     93  C   UNL A   1      46.406  34.840  31.704  1.00  0.00     0.198 A 
ATOM     94  F   UNL A   1      45.902  32.563  32.014  1.00  0.00    -0.203 F 
ATOM     95  F   UNL A   1      45.739  37.046  28.907  1.00  0.00    -0.200 F 
ATOM     96  C   UNL A   1      46.367  35.984  30.920  1.00  0.00     0.200 A 
ATOM     97  F   UNL A   1      46.987  34.874  32.911  1.00  0.00    -0.200 F 
ATOM     98  F   UNL A   1      46.927  37.118  31.362  1.00  0.00    -0.200 F 
ENDBRANCH  65  88
ENDBRANCH  39  40
ENDBRANCH  32  34
ENDBRANCH  31  32
ENDBRANCH  30  31
ENDBRANCH  29  30
ENDBRANCH  28  29
ENDBRANCH  27  28
ENDBRANCH   1  27
TORSDOF 20
ENDMDL
MODEL 3
REMARK VINA RESULT:     -10.8      2.774      7.511
REMARK SMILES CC(=O)N[C@@H](Cc1c(OCC(C)C)ccc2ccccc12)C(=O)OCCOCCOC(=O)c1ccc(-c2c3nc(c(-c4c(F)c(F)c(F)c(F)c4F)c4ccc([nH]4)c(-c4c(F)c(F)c(F)c(F)c4F)c4nc(c(-c5c(F)c(F)c(F)c(F)c5F)c5ccc2[nH]5)C=C4)C=C3)cc1
REMARK SMILES IDX 25 1 24 2 22 3 23 4 5 5 4 6 1 7 2 8 3 9 6 11 7 12 8 13 21 14
REMARK SMILES IDX 14 15 16 16 20 17 15 18 17 19 19 20 18 21 9 22 10 23 11 24
REMARK SMILES IDX 12 25 13 26 26 27 27 28 28 29 29 30 30 31 31 32 32 33 33 34
REMARK SMILES IDX 34 35 95 36 35 37 94 38 36 39 37 40 38 41 88 42 39 43 93 44
REMARK SMILES IDX 87 45 89 46 40 47 92 48 86 49 85 50 41 52 73 53 53 54 72 55
REMARK SMILES IDX 54 56 57 57 71 58 90 59 55 60 56 61 70 63 91 64 58 65 42 66
REMARK SMILES IDX 43 67 51 68 44 69 45 70 49 71 52 72 46 73 47 74 50 75 48 76
REMARK SMILES IDX 74 77 75 78 83 79 76 80 77 81 81 82 84 83 78 84 79 85 82 86
REMARK SMILES IDX 80 87 59 88 60 89 68 90 61 91 62 92 66 93 69 94 63 95 64 96
REMARK SMILES IDX 67 97 65 98
REMARK H PARENT 4 10 89 51 57 62
REMARK Flexibility Score: inf
ROOT
ATOM      1  C   UNL A   1      34.150  23.263  23.144  1.00  0.00     0.261 C 
ENDROOT
BRANCH   1   2
ATOM      2  O   UNL A   1      34.153  24.624  23.592  1.00  0.00    -0.462 OA
BRANCH   2   3
ATOM      3  C   UNL A   1      33.509  25.518  22.788  1.00  0.00     0.329 C 
ATOM      4  O   UNL A   1      33.649  25.600  21.573  1.00  0.00    -0.250 OA
BRANCH   3   5
ATOM      5  C   UNL A   1      32.632  26.486  23.598  1.00  0.00     0.196 C 
BRANCH   5   6
ATOM      6  N   UNL A   1      32.512  26.114  25.018  1.00  0.00    -0.343 N 
ATOM      7  C   UNL A   1      30.116  25.535  24.989  1.00  0.00     0.114 C 
ATOM      8  C   UNL A   1      31.425  25.678  25.712  1.00  0.00     0.217 C 
ATOM      9  O   UNL A   1      31.540  25.384  26.900  1.00  0.00    -0.275 OA
ATOM     10  H   UNL A   1      33.340  26.193  25.544  1.00  0.00     0.164 HD
ENDBRANCH   5   6
BRANCH   5  11
ATOM     11  C   UNL A   1      33.150  27.931  23.432  1.00  0.00     0.077 C 
BRANCH  11  12
ATOM     12  C   UNL A   1      32.486  28.926  24.387  1.00  0.00     0.005 A 
ATOM     13  C   UNL A   1      31.219  29.455  24.044  1.00  0.00     0.123 A 
ATOM     14  C   UNL A   1      33.156  29.389  25.564  1.00  0.00    -0.011 A 
ATOM     15  C   UNL A   1      30.684  30.504  24.785  1.00  0.00     0.047 A 
ATOM     16  C   UNL A   1      32.554  30.420  26.326  1.00  0.00    -0.018 A 
ATOM     17  C   UNL A   1      34.398  28.892  26.032  1.00  0.00     0.009 A 
ATOM     18  C   UNL A   1      31.342  30.976  25.917  1.00  0.00     0.012 A 
ATOM     19  C   UNL A   1      33.172  30.901  27.492  1.00  0.00     0.009 A 
ATOM     20  C   UNL A   1      35.007  29.383  27.189  1.00  0.00     0.001 A 
ATOM     21  C   UNL A   1      34.390  30.386  27.923  1.00  0.00     0.001 A 
BRANCH  13  22
ATOM     22  O   UNL A   1      30.595  28.862  22.982  1.00  0.00    -0.493 OA
BRANCH  22  23
ATOM     23  C   UNL A   1      29.229  28.456  23.060  1.00  0.00     0.232 C 
BRANCH  23  24
ATOM     24  C   UNL A   1      28.274  29.407  22.310  1.00  0.00     0.020 C 
ATOM     25  C   UNL A   1      27.351  30.213  23.225  1.00  0.00     0.011 C 
ATOM     26  C   UNL A   1      29.084  30.369  21.437  1.00  0.00     0.011 C 
ENDBRANCH  23  24
ENDBRANCH  22  23
ENDBRANCH  13  22
ENDBRANCH  11  12
ENDBRANCH   5  11
ENDBRANCH   3   5
ENDBRANCH   2   3
ENDBRANCH   1   2
BRANCH   1  27
ATOM     27  C   UNL A   1      34.563  22.314  24.270  1.00  0.00     0.202 C 
BRANCH  27  28
ATOM     28  O   UNL A   1      35.881  22.488  24.788  1.00  0.00    -0.374 OA
BRANCH  28  29
ATOM     29  C   UNL A   1      36.809  21.415  24.610  1.00  0.00     0.202 C 
BRANCH  29  30
ATOM     30  C   UNL A   1      38.138  21.514  25.371  1.00  0.00     0.261 C 
BRANCH  30  31
ATOM     31  O   UNL A   1      38.369  22.819  25.934  1.00  0.00    -0.460 OA
BRANCH  31  32
ATOM     32  C   UNL A   1      39.636  23.041  26.354  1.00  0.00     0.338 C 
ATOM     33  O   UNL A   1      40.624  22.344  26.157  1.00  0.00    -0.246 OA
BRANCH  32  34
ATOM     34  C   UNL A   1      39.740  24.370  26.977  1.00  0.00     0.060 A 
ATOM     35  C   UNL A   1      40.436  25.367  26.278  1.00  0.00     0.016 A 
ATOM     36  C   UNL A   1      39.265  24.606  28.266  1.00  0.00     0.016 A 
ATOM     37  C   UNL A   1      40.681  26.598  26.881  1.00  0.00     0.010 A 
ATOM     38  C   UNL A   1      39.525  25.838  28.876  1.00  0.00     0.010 A 
ATOM     39  C   UNL A   1      40.255  26.831  28.195  1.00  0.00    -0.014 A 
BRANCH  39  40
ATOM     40  C   UNL A   1      40.657  28.075  28.893  1.00  0.00     0.031 A 
ATOM     41  C   UNL A   1      42.062  28.218  29.401  1.00  0.00     0.074 A 
ATOM     42  C   UNL A   1      39.773  29.074  29.061  1.00  0.00     0.049 A 
ATOM     43  N   UNL A   1      42.600  29.192  30.092  1.00  0.00    -0.248 NA
ATOM     44  C   UNL A   1      42.988  27.119  29.087  1.00  0.00     0.031 C 
ATOM     45  C   UNL A   1      38.397  29.072  28.567  1.00  0.00     0.029 A 
ATOM     46  N   UNL A   1      39.900  30.278  29.706  1.00  0.00    -0.354 N 
ATOM     47  C   UNL A   1      43.923  28.822  30.297  1.00  0.00     0.074 A 
ATOM     48  C   UNL A   1      44.103  27.527  29.678  1.00  0.00     0.031 C 
ATOM     49  C   UNL A   1      37.798  30.215  28.945  1.00  0.00     0.029 A 
ATOM     50  C   UNL A   1      38.738  31.009  29.735  1.00  0.00     0.049 A 
ATOM     51  H   UNL A   1      40.743  30.588  30.108  1.00  0.00     0.167 HD
ATOM     52  C   UNL A   1      44.900  29.506  30.941  1.00  0.00     0.037 A 
ATOM     53  C   UNL A   1      38.460  32.171  30.356  1.00  0.00     0.037 A 
ATOM     54  C   UNL A   1      44.718  30.793  31.561  1.00  0.00     0.049 A 
ATOM     55  C   UNL A   1      39.538  32.866  31.147  1.00  0.00     0.074 A 
ATOM     56  C   UNL A   1      45.654  31.577  32.213  1.00  0.00     0.029 A 
ATOM     57  N   UNL A   1      43.515  31.479  31.615  1.00  0.00    -0.354 N 
ATOM     58  N   UNL A   1      40.791  32.523  31.316  1.00  0.00    -0.248 NA
ATOM     59  C   UNL A   1      39.159  34.108  31.837  1.00  0.00     0.031 C 
ATOM     60  C   UNL A   1      45.004  32.714  32.707  1.00  0.00     0.029 A 
ATOM     61  C   UNL A   1      43.675  32.661  32.320  1.00  0.00     0.049 A 
ATOM     62  H   UNL A   1      42.671  31.171  31.212  1.00  0.00     0.167 HD
ATOM     63  C   UNL A   1      41.355  33.511  32.114  1.00  0.00     0.074 A 
ATOM     64  C   UNL A   1      40.309  34.477  32.382  1.00  0.00     0.031 C 
ATOM     65  C   UNL A   1      42.623  33.610  32.583  1.00  0.00     0.037 A 
BRANCH  52  66
ATOM     66  C   UNL A   1      46.252  28.862  31.034  1.00  0.00     0.064 A 
ATOM     67  C   UNL A   1      47.237  29.077  30.061  1.00  0.00     0.173 A 
ATOM     68  C   UNL A   1      46.578  28.054  32.133  1.00  0.00     0.173 A 
ATOM     69  F   UNL A   1      46.972  29.834  28.986  1.00  0.00    -0.203 F 
ATOM     70  C   UNL A   1      48.496  28.488  30.174  1.00  0.00     0.198 A 
ATOM     71  C   UNL A   1      47.843  27.487  32.256  1.00  0.00     0.198 A 
ATOM     72  F   UNL A   1      45.671  27.822  33.095  1.00  0.00    -0.203 F 
ATOM     73  F   UNL A   1      49.411  28.677  29.215  1.00  0.00    -0.200 F 
ATOM     74  C   UNL A   1      48.798  27.700  31.274  1.00  0.00     0.200 A 
ATOM     75  F   UNL A   1      48.138  26.734  33.326  1.00  0.00    -0.200 F 
ATOM     76  F   UNL A   1      50.012  27.140  31.386  1.00  0.00    -0.200 F 
ENDBRANCH  52  66
BRANCH  53  77
ATOM     77  C   UNL A   1      37.089  32.739  30.282  1.00  0.00     0.064 A 
ATOM     78  C   UNL A   1      36.703  33.564  29.216  1.00  0.00     0.173 A 
ATOM     79  C   UNL A   1      36.141  32.479  31.284  1.00  0.00     0.173 A 
ATOM     80  F   UNL A   1      37.582  33.860  28.248  1.00  0.00    -0.203 F 
ATOM     81  C   UNL A   1      35.426  34.119  29.163  1.00  0.00     0.198 A 
ATOM     82  C   UNL A   1      34.857  33.012  31.215  1.00  0.00     0.198 A 
ATOM     83  F   UNL A   1      36.462  31.696  32.324  1.00  0.00    -0.203 F 
ATOM     84  F   UNL A   1      35.095  34.936  28.155  1.00  0.00    -0.200 F 
ATOM     85  C   UNL A   1      34.502  33.838  30.158  1.00  0.00     0.200 A 
ATOM     86  F   UNL A   1      33.964  32.729  32.173  1.00  0.00    -0.200 F 
ATOM     87  F   UNL A   1      33.273  34.367  30.104  1.00  0.00    -0.200 F 
ENDBRANCH  53  77
BRANCH  65  88
ATOM     88  C   UNL A   1      42.955  34.808  33.424  1.00  0.00     0.064 A 
ATOM     89  C   UNL A   1      42.918  34.752  34.825  1.00  0.00     0.173 A 
ATOM     90  C   UNL A   1      43.359  36.010  32.824  1.00  0.00     0.173 A 
ATOM     91  F   UNL A   1      42.523  33.631  35.445  1.00  0.00    -0.203 F 
ATOM     92  C   UNL A   1      43.254  35.864  35.594  1.00  0.00     0.198 A 
ATOM     93  C   UNL A   1      43.719  37.111  33.596  1.00  0.00     0.198 A 
ATOM     94  F   UNL A   1      43.417  36.113  31.488  1.00  0.00    -0.203 F 
ATOM     95  F   UNL A   1      43.170  35.801  36.930  1.00  0.00    -0.200 F 
ATOM     96  C   UNL A   1      43.661  37.039  34.980  1.00  0.00     0.200 A 
ATOM     97  F   UNL A   1      44.124  38.242  33.001  1.00  0.00    -0.200 F 
ATOM     98  F   UNL A   1      43.991  38.105  35.722  1.00  0.00    -0.200 F 
ENDBRANCH  65  88
ENDBRANCH  39  40
ENDBRANCH  32  34
ENDBRANCH  31  32
ENDBRANCH  30  31
ENDBRANCH  29  30
ENDBRANCH  28  29
ENDBRANCH  27  28
ENDBRANCH   1  27
TORSDOF 20
ENDMDL
