MODEL 1
REMARK VINA RESULT:     -11.2      0.000      0.000
REMARK SMILES CC[C@@H](C(=O)OCCOCCOC(=O)c1ccc(-c2c3nc(c(-c4c(F)c(F)c(F)c(F)c4F)c4ccc([nH]4)c(-c4c(F)c(F)c(F)c(F)c4F)c4nc(c(-c5c(F)c(F)c(F)c(F)c5F)c5ccc2[nH]5)C=C4)C=C3)cc1)N1CCN(Cc2cccc(C)c2)C(=O)C1=O
REMARK SMILES IDX 8 1 7 2 6 3 4 4 5 5 3 6 2 7 1 8 78 9 79 10 92 11 80 12 90 13
REMARK SMILES IDX 93 14 81 15 91 16 82 17 83 18 84 19 89 20 85 21 87 22 86 23
REMARK SMILES IDX 88 24 9 25 10 26 11 27 12 28 13 29 14 30 15 31 16 32 77 33
REMARK SMILES IDX 17 34 76 35 18 36 19 37 20 38 70 39 21 40 75 41 69 42 71 43
REMARK SMILES IDX 22 44 74 45 68 46 67 47 23 49 55 50 35 51 54 52 36 53 39 54
REMARK SMILES IDX 53 55 72 56 37 57 38 58 52 60 73 61 40 62 24 63 25 64 33 65
REMARK SMILES IDX 26 66 27 67 31 68 34 69 28 70 29 71 32 72 30 73 56 74 57 75
REMARK SMILES IDX 65 76 58 77 59 78 63 79 66 80 60 81 61 82 64 83 62 84 41 85
REMARK SMILES IDX 42 86 50 87 43 88 44 89 48 90 51 91 45 92 46 93 49 94 47 95
REMARK H PARENT 71 48 39 59
REMARK Flexibility Score: inf
ROOT
ATOM      1  C   UNL A   1      30.664  29.230  23.377  1.00  0.00     0.202 C 
ENDROOT
BRANCH   1   2
ATOM      2  C   UNL A   1      32.053  29.190  22.726  1.00  0.00     0.261 C 
BRANCH   2   3
ATOM      3  O   UNL A   1      32.505  27.824  22.605  1.00  0.00    -0.462 OA
BRANCH   3   4
ATOM      4  C   UNL A   1      33.140  27.289  23.681  1.00  0.00     0.328 C 
ATOM      5  O   UNL A   1      34.143  27.777  24.191  1.00  0.00    -0.250 OA
BRANCH   4   6
ATOM      6  C   UNL A   1      32.440  26.017  24.224  1.00  0.00     0.195 C 
BRANCH   6   7
ATOM      7  C   UNL A   1      31.717  26.090  25.588  1.00  0.00     0.034 C 
ATOM      8  C   UNL A   1      30.299  25.540  25.642  1.00  0.00     0.007 C 
ENDBRANCH   6   7
BRANCH   6   9
ATOM      9  N   UNL A   1      33.454  24.927  24.299  1.00  0.00    -0.319 N 
ATOM     10  C   UNL A   1      33.963  24.499  25.591  1.00  0.00     0.142 C 
ATOM     11  C   UNL A   1      34.029  24.391  23.143  1.00  0.00     0.312 C 
ATOM     12  C   UNL A   1      34.198  23.002  25.585  1.00  0.00     0.142 C 
ATOM     13  C   UNL A   1      35.159  23.307  23.348  1.00  0.00     0.312 C 
ATOM     14  O   UNL A   1      33.659  24.691  22.015  1.00  0.00    -0.263 OA
ATOM     15  N   UNL A   1      35.197  22.665  24.594  1.00  0.00    -0.328 N 
ATOM     16  O   UNL A   1      35.930  23.050  22.431  1.00  0.00    -0.263 OA
BRANCH  15  17
ATOM     17  C   UNL A   1      36.112  21.556  24.847  1.00  0.00     0.155 C 
BRANCH  17  18
ATOM     18  C   UNL A   1      37.413  21.971  25.505  1.00  0.00    -0.028 A 
ATOM     19  C   UNL A   1      37.574  23.277  25.984  1.00  0.00     0.005 A 
ATOM     20  C   UNL A   1      38.491  21.076  25.638  1.00  0.00     0.009 A 
ATOM     21  C   UNL A   1      38.775  23.676  26.575  1.00  0.00     0.001 A 
ATOM     22  C   UNL A   1      39.674  21.448  26.292  1.00  0.00    -0.051 A 
ATOM     23  C   UNL A   1      39.816  22.764  26.737  1.00  0.00     0.003 A 
ATOM     24  C   UNL A   1      40.781  20.456  26.501  1.00  0.00     0.044 C 
ENDBRANCH  17  18
ENDBRANCH  15  17
ENDBRANCH   6   9
ENDBRANCH   4   6
ENDBRANCH   3   4
ENDBRANCH   2   3
ENDBRANCH   1   2
BRANCH   1  25
ATOM     25  O   UNL A   1      30.569  29.955  24.607  1.00  0.00    -0.374 OA
BRANCH  25  26
ATOM     26  C   UNL A   1      31.765  30.076  25.367  1.00  0.00     0.202 C 
BRANCH  26  27
ATOM     27  C   UNL A   1      31.771  31.127  26.481  1.00  0.00     0.261 C 
BRANCH  27  28
ATOM     28  O   UNL A   1      32.814  30.868  27.431  1.00  0.00    -0.460 OA
BRANCH  28  29
ATOM     29  C   UNL A   1      33.658  31.909  27.609  1.00  0.00     0.338 C 
ATOM     30  O   UNL A   1      33.379  33.099  27.626  1.00  0.00    -0.246 OA
BRANCH  29  31
ATOM     31  C   UNL A   1      34.995  31.408  27.965  1.00  0.00     0.060 A 
ATOM     32  C   UNL A   1      35.135  30.024  28.131  1.00  0.00     0.016 A 
ATOM     33  C   UNL A   1      36.070  32.269  28.195  1.00  0.00     0.016 A 
ATOM     34  C   UNL A   1      36.333  29.497  28.599  1.00  0.00     0.010 A 
ATOM     35  C   UNL A   1      37.270  31.740  28.675  1.00  0.00     0.010 A 
ATOM     36  C   UNL A   1      37.387  30.360  28.924  1.00  0.00    -0.014 A 
BRANCH  36  37
ATOM     37  C   UNL A   1      38.522  29.850  29.724  1.00  0.00     0.031 A 
ATOM     38  C   UNL A   1      38.681  30.353  31.131  1.00  0.00     0.074 A 
ATOM     39  C   UNL A   1      39.375  28.941  29.222  1.00  0.00     0.049 A 
ATOM     40  N   UNL A   1      39.638  30.128  31.994  1.00  0.00    -0.248 NA
ATOM     41  C   UNL A   1      37.616  31.239  31.632  1.00  0.00     0.031 C 
ATOM     42  C   UNL A   1      39.279  28.335  27.897  1.00  0.00     0.029 A 
ATOM     43  N   UNL A   1      40.497  28.379  29.773  1.00  0.00    -0.354 N 
ATOM     44  C   UNL A   1      39.298  30.854  33.129  1.00  0.00     0.074 A 
ATOM     45  C   UNL A   1      38.062  31.547  32.839  1.00  0.00     0.031 C 
ATOM     46  C   UNL A   1      40.315  27.496  27.727  1.00  0.00     0.029 A 
ATOM     47  C   UNL A   1      41.165  27.540  28.917  1.00  0.00     0.049 A 
ATOM     48  H   UNL A   1      40.796  28.560  30.694  1.00  0.00     0.167 HD
ATOM     49  C   UNL A   1      39.957  30.929  34.309  1.00  0.00     0.037 A 
ATOM     50  C   UNL A   1      42.344  26.906  29.071  1.00  0.00     0.037 A 
ATOM     51  C   UNL A   1      41.181  30.229  34.588  1.00  0.00     0.049 A 
ATOM     52  C   UNL A   1      43.101  27.066  30.366  1.00  0.00     0.074 A 
ATOM     53  C   UNL A   1      41.930  30.231  35.751  1.00  0.00     0.029 A 
ATOM     54  N   UNL A   1      41.839  29.403  33.688  1.00  0.00    -0.354 N 
ATOM     55  N   UNL A   1      42.775  27.750  31.437  1.00  0.00    -0.248 NA
ATOM     56  C   UNL A   1      44.389  26.366  30.475  1.00  0.00     0.031 C 
ATOM     57  C   UNL A   1      43.068  29.448  35.537  1.00  0.00     0.029 A 
ATOM     58  C   UNL A   1      42.996  28.906  34.263  1.00  0.00     0.049 A 
ATOM     59  H   UNL A   1      41.529  29.200  32.776  1.00  0.00     0.167 HD
ATOM     60  C   UNL A   1      43.791  27.528  32.358  1.00  0.00     0.074 A 
ATOM     61  C   UNL A   1      44.747  26.648  31.719  1.00  0.00     0.031 C 
ATOM     62  C   UNL A   1      43.917  28.005  33.620  1.00  0.00     0.037 A 
BRANCH  49  63
ATOM     63  C   UNL A   1      39.385  31.821  35.369  1.00  0.00     0.064 A 
ATOM     64  C   UNL A   1      39.698  33.187  35.437  1.00  0.00     0.173 A 
ATOM     65  C   UNL A   1      38.487  31.307  36.318  1.00  0.00     0.173 A 
ATOM     66  F   UNL A   1      40.564  33.726  34.565  1.00  0.00    -0.203 F 
ATOM     67  C   UNL A   1      39.152  33.999  36.429  1.00  0.00     0.198 A 
ATOM     68  C   UNL A   1      37.920  32.126  37.288  1.00  0.00     0.198 A 
ATOM     69  F   UNL A   1      38.155  30.007  36.299  1.00  0.00    -0.203 F 
ATOM     70  F   UNL A   1      39.503  35.290  36.505  1.00  0.00    -0.200 F 
ATOM     71  C   UNL A   1      38.258  33.470  37.348  1.00  0.00     0.200 A 
ATOM     72  F   UNL A   1      37.047  31.616  38.168  1.00  0.00    -0.200 F 
ATOM     73  F   UNL A   1      37.727  34.254  38.297  1.00  0.00    -0.200 F 
ENDBRANCH  49  63
BRANCH  50  74
ATOM     74  C   UNL A   1      42.892  26.076  27.967  1.00  0.00     0.064 A 
ATOM     75  C   UNL A   1      42.725  24.684  27.955  1.00  0.00     0.173 A 
ATOM     76  C   UNL A   1      43.610  26.654  26.909  1.00  0.00     0.173 A 
ATOM     77  F   UNL A   1      42.067  24.081  28.955  1.00  0.00    -0.203 F 
ATOM     78  C   UNL A   1      43.270  23.901  26.939  1.00  0.00     0.198 A 
ATOM     79  C   UNL A   1      44.129  25.874  25.878  1.00  0.00     0.198 A 
ATOM     80  F   UNL A   1      43.799  27.982  26.872  1.00  0.00    -0.203 F 
ATOM     81  F   UNL A   1      43.137  22.569  26.978  1.00  0.00    -0.200 F 
ATOM     82  C   UNL A   1      43.967  24.497  25.898  1.00  0.00     0.200 A 
ATOM     83  F   UNL A   1      44.789  26.457  24.868  1.00  0.00    -0.200 F 
ATOM     84  F   UNL A   1      44.489  23.745  24.921  1.00  0.00    -0.200 F 
ENDBRANCH  50  74
BRANCH  62  85
ATOM     85  C   UNL A   1      45.090  27.533  34.430  1.00  0.00     0.064 A 
ATOM     86  C   UNL A   1      45.064  26.325  35.141  1.00  0.00     0.173 A 
ATOM     87  C   UNL A   1      46.287  28.267  34.425  1.00  0.00     0.173 A 
ATOM     88  F   UNL A   1      43.941  25.593  35.186  1.00  0.00    -0.203 F 
ATOM     89  C   UNL A   1      46.189  25.877  35.828  1.00  0.00     0.198 A 
ATOM     90  C   UNL A   1      47.418  27.801  35.087  1.00  0.00     0.198 A 
ATOM     91  F   UNL A   1      46.366  29.425  33.752  1.00  0.00    -0.203 F 
ATOM     92  F   UNL A   1      46.132  24.736  36.529  1.00  0.00    -0.200 F 
ATOM     93  C   UNL A   1      47.366  26.609  35.792  1.00  0.00     0.200 A 
ATOM     94  F   UNL A   1      48.559  28.502  35.037  1.00  0.00    -0.200 F 
ATOM     95  F   UNL A   1      48.454  26.166  36.439  1.00  0.00    -0.200 F 
ENDBRANCH  62  85
ENDBRANCH  36  37
ENDBRANCH  29  31
ENDBRANCH  28  29
ENDBRANCH  27  28
ENDBRANCH  26  27
ENDBRANCH  25  26
ENDBRANCH   1  25
TORSDOF 18
ENDMDL
MODEL 2
REMARK VINA RESULT:     -11.2      1.666      3.100
REMARK SMILES CC[C@@H](C(=O)OCCOCCOC(=O)c1ccc(-c2c3nc(c(-c4c(F)c(F)c(F)c(F)c4F)c4ccc([nH]4)c(-c4c(F)c(F)c(F)c(F)c4F)c4nc(c(-c5c(F)c(F)c(F)c(F)c5F)c5ccc2[nH]5)C=C4)C=C3)cc1)N1CCN(Cc2cccc(C)c2)C(=O)C1=O
REMARK SMILES IDX 8 1 7 2 6 3 4 4 5 5 3 6 2 7 1 8 78 9 79 10 92 11 80 12 90 13
REMARK SMILES IDX 93 14 81 15 91 16 82 17 83 18 84 19 89 20 85 21 87 22 86 23
REMARK SMILES IDX 88 24 9 25 10 26 11 27 12 28 13 29 14 30 15 31 16 32 77 33
REMARK SMILES IDX 17 34 76 35 18 36 19 37 20 38 70 39 21 40 75 41 69 42 71 43
REMARK SMILES IDX 22 44 74 45 68 46 67 47 23 49 55 50 35 51 54 52 36 53 39 54
REMARK SMILES IDX 53 55 72 56 37 57 38 58 52 60 73 61 40 62 24 63 25 64 33 65
REMARK SMILES IDX 26 66 27 67 31 68 34 69 28 70 29 71 32 72 30 73 56 74 57 75
REMARK SMILES IDX 65 76 58 77 59 78 63 79 66 80 60 81 61 82 64 83 62 84 41 85
REMARK SMILES IDX 42 86 50 87 43 88 44 89 48 90 51 91 45 92 46 93 49 94 47 95
REMARK H PARENT 71 48 39 59
REMARK Flexibility Score: inf
ROOT
ATOM      1  C   UNL A   1      31.857  30.051  25.564  1.00  0.00     0.202 C 
ENDROOT
BRANCH   1   2
ATOM      2  C   UNL A   1      32.912  28.965  25.316  1.00  0.00     0.261 C 
BRANCH   2   3
ATOM      3  O   UNL A   1      32.836  27.955  26.347  1.00  0.00    -0.462 OA
BRANCH   3   4
ATOM      4  C   UNL A   1      31.749  27.141  26.330  1.00  0.00     0.328 C 
ATOM      5  O   UNL A   1      30.965  27.034  27.268  1.00  0.00    -0.250 OA
BRANCH   4   6
ATOM      6  C   UNL A   1      31.577  26.390  24.985  1.00  0.00     0.195 C 
BRANCH   6   7
ATOM      7  C   UNL A   1      30.149  26.072  24.488  1.00  0.00     0.034 C 
ATOM      8  C   UNL A   1      29.492  27.106  23.585  1.00  0.00     0.007 C 
ENDBRANCH   6   7
BRANCH   6   9
ATOM      9  N   UNL A   1      32.331  25.107  25.073  1.00  0.00    -0.319 N 
ATOM     10  C   UNL A   1      32.214  24.278  26.261  1.00  0.00     0.142 C 
ATOM     11  C   UNL A   1      33.254  24.740  24.090  1.00  0.00     0.312 C 
ATOM     12  C   UNL A   1      32.244  22.813  25.875  1.00  0.00     0.142 C 
ATOM     13  C   UNL A   1      34.060  23.404  24.335  1.00  0.00     0.312 C 
ATOM     14  O   UNL A   1      33.415  25.376  23.056  1.00  0.00    -0.263 OA
ATOM     15  N   UNL A   1      33.509  22.496  25.250  1.00  0.00    -0.328 N 
ATOM     16  O   UNL A   1      35.099  23.198  23.720  1.00  0.00    -0.263 OA
BRANCH  15  17
ATOM     17  C   UNL A   1      34.098  21.175  25.453  1.00  0.00     0.155 C 
BRANCH  17  18
ATOM     18  C   UNL A   1      33.561  20.112  24.516  1.00  0.00    -0.028 A 
ATOM     19  C   UNL A   1      32.604  20.445  23.549  1.00  0.00     0.005 A 
ATOM     20  C   UNL A   1      33.986  18.773  24.598  1.00  0.00     0.009 A 
ATOM     21  C   UNL A   1      32.088  19.469  22.693  1.00  0.00     0.001 A 
ATOM     22  C   UNL A   1      33.524  17.802  23.698  1.00  0.00    -0.051 A 
ATOM     23  C   UNL A   1      32.553  18.157  22.760  1.00  0.00     0.003 A 
ATOM     24  C   UNL A   1      34.052  16.398  23.744  1.00  0.00     0.044 C 
ENDBRANCH  17  18
ENDBRANCH  15  17
ENDBRANCH   6   9
ENDBRANCH   4   6
ENDBRANCH   3   4
ENDBRANCH   2   3
ENDBRANCH   1   2
BRANCH   1  25
ATOM     25  O   UNL A   1      32.148  30.980  26.614  1.00  0.00    -0.374 OA
BRANCH  25  26
ATOM     26  C   UNL A   1      31.402  32.191  26.613  1.00  0.00     0.202 C 
BRANCH  26  27
ATOM     27  C   UNL A   1      32.082  33.420  27.225  1.00  0.00     0.261 C 
BRANCH  27  28
ATOM     28  O   UNL A   1      33.247  33.048  27.974  1.00  0.00    -0.460 OA
BRANCH  28  29
ATOM     29  C   UNL A   1      34.340  33.788  27.682  1.00  0.00     0.338 C 
ATOM     30  O   UNL A   1      34.373  34.953  27.311  1.00  0.00    -0.246 OA
BRANCH  29  31
ATOM     31  C   UNL A   1      35.555  33.041  28.041  1.00  0.00     0.060 A 
ATOM     32  C   UNL A   1      35.471  31.643  28.035  1.00  0.00     0.016 A 
ATOM     33  C   UNL A   1      36.729  33.685  28.436  1.00  0.00     0.016 A 
ATOM     34  C   UNL A   1      36.537  30.879  28.494  1.00  0.00     0.010 A 
ATOM     35  C   UNL A   1      37.797  32.918  28.908  1.00  0.00     0.010 A 
ATOM     36  C   UNL A   1      37.683  31.517  28.983  1.00  0.00    -0.014 A 
BRANCH  36  37
ATOM     37  C   UNL A   1      38.667  30.740  29.771  1.00  0.00     0.031 A 
ATOM     38  C   UNL A   1      38.804  31.047  31.236  1.00  0.00     0.074 A 
ATOM     39  C   UNL A   1      39.400  29.767  29.204  1.00  0.00     0.049 A 
ATOM     40  N   UNL A   1      39.651  30.572  32.111  1.00  0.00    -0.248 NA
ATOM     41  C   UNL A   1      37.857  32.032  31.787  1.00  0.00     0.031 C 
ATOM     42  C   UNL A   1      39.303  29.341  27.811  1.00  0.00     0.029 A 
ATOM     43  N   UNL A   1      40.380  28.971  29.737  1.00  0.00    -0.354 N 
ATOM     44  C   UNL A   1      39.350  31.210  33.308  1.00  0.00     0.074 A 
ATOM     45  C   UNL A   1      38.262  32.124  33.044  1.00  0.00     0.031 C 
ATOM     46  C   UNL A   1      40.205  28.369  27.591  1.00  0.00     0.029 A 
ATOM     47  C   UNL A   1      40.966  28.137  28.818  1.00  0.00     0.049 A 
ATOM     48  H   UNL A   1      40.638  28.994  30.687  1.00  0.00     0.167 HD
ATOM     49  C   UNL A   1      39.929  31.040  34.520  1.00  0.00     0.037 A 
ATOM     50  C   UNL A   1      42.019  27.306  28.952  1.00  0.00     0.037 A 
ATOM     51  C   UNL A   1      41.007  30.123  34.772  1.00  0.00     0.049 A 
ATOM     52  C   UNL A   1      42.698  27.191  30.293  1.00  0.00     0.074 A 
ATOM     53  C   UNL A   1      41.663  29.870  35.963  1.00  0.00     0.029 A 
ATOM     54  N   UNL A   1      41.588  29.308  33.811  1.00  0.00    -0.354 N 
ATOM     55  N   UNL A   1      42.410  27.793  31.423  1.00  0.00    -0.248 NA
ATOM     56  C   UNL A   1      43.851  26.282  30.380  1.00  0.00     0.031 C 
ATOM     57  C   UNL A   1      42.678  28.941  35.711  1.00  0.00     0.029 A 
ATOM     58  C   UNL A   1      42.611  28.567  34.378  1.00  0.00     0.049 A 
ATOM     59  H   UNL A   1      41.315  29.265  32.867  1.00  0.00     0.167 HD
ATOM     60  C   UNL A   1      43.312  27.305  32.359  1.00  0.00     0.074 A 
ATOM     61  C   UNL A   1      44.161  26.359  31.666  1.00  0.00     0.031 C 
ATOM     62  C   UNL A   1      43.423  27.607  33.676  1.00  0.00     0.037 A 
BRANCH  49  63
ATOM     63  C   UNL A   1      39.431  31.887  35.653  1.00  0.00     0.064 A 
ATOM     64  C   UNL A   1      38.486  31.413  36.574  1.00  0.00     0.173 A 
ATOM     65  C   UNL A   1      39.930  33.187  35.836  1.00  0.00     0.173 A 
ATOM     66  F   UNL A   1      37.965  30.185  36.434  1.00  0.00    -0.203 F 
ATOM     67  C   UNL A   1      38.040  32.216  37.621  1.00  0.00     0.198 A 
ATOM     68  C   UNL A   1      39.506  33.975  36.901  1.00  0.00     0.198 A 
ATOM     69  F   UNL A   1      40.836  33.690  34.984  1.00  0.00    -0.203 F 
ATOM     70  F   UNL A   1      37.100  31.760  38.460  1.00  0.00    -0.200 F 
ATOM     71  C   UNL A   1      38.556  33.492  37.789  1.00  0.00     0.200 A 
ATOM     72  F   UNL A   1      40.015  35.204  37.068  1.00  0.00    -0.200 F 
ATOM     73  F   UNL A   1      38.132  34.261  38.802  1.00  0.00    -0.200 F 
ENDBRANCH  49  63
BRANCH  50  74
ATOM     74  C   UNL A   1      42.506  26.528  27.783  1.00  0.00     0.064 A 
ATOM     75  C   UNL A   1      43.460  27.061  26.904  1.00  0.00     0.173 A 
ATOM     76  C   UNL A   1      42.016  25.242  27.510  1.00  0.00     0.173 A 
ATOM     77  F   UNL A   1      43.941  28.295  27.110  1.00  0.00    -0.203 F 
ATOM     78  C   UNL A   1      43.889  26.347  25.788  1.00  0.00     0.198 A 
ATOM     79  C   UNL A   1      42.468  24.517  26.409  1.00  0.00     0.198 A 
ATOM     80  F   UNL A   1      41.102  24.685  28.318  1.00  0.00    -0.203 F 
ATOM     81  F   UNL A   1      44.765  26.899  24.938  1.00  0.00    -0.200 F 
ATOM     82  C   UNL A   1      43.397  25.073  25.544  1.00  0.00     0.200 A 
ATOM     83  F   UNL A   1      41.999  23.281  26.187  1.00  0.00    -0.200 F 
ATOM     84  F   UNL A   1      43.812  24.386  24.471  1.00  0.00    -0.200 F 
ENDBRANCH  50  74
BRANCH  62  85
ATOM     85  C   UNL A   1      44.448  26.860  34.480  1.00  0.00     0.064 A 
ATOM     86  C   UNL A   1      45.728  27.380  34.716  1.00  0.00     0.173 A 
ATOM     87  C   UNL A   1      44.109  25.642  35.089  1.00  0.00     0.173 A 
ATOM     88  F   UNL A   1      46.103  28.536  34.148  1.00  0.00    -0.203 F 
ATOM     89  C   UNL A   1      46.637  26.699  35.523  1.00  0.00     0.198 A 
ATOM     90  C   UNL A   1      45.009  24.980  35.919  1.00  0.00     0.198 A 
ATOM     91  F   UNL A   1      42.893  25.107  34.902  1.00  0.00    -0.203 F 
ATOM     92  F   UNL A   1      47.867  27.197  35.709  1.00  0.00    -0.200 F 
ATOM     93  C   UNL A   1      46.273  25.506  36.130  1.00  0.00     0.200 A 
ATOM     94  F   UNL A   1      44.650  23.837  36.519  1.00  0.00    -0.200 F 
ATOM     95  F   UNL A   1      47.144  24.863  36.922  1.00  0.00    -0.200 F 
ENDBRANCH  62  85
ENDBRANCH  36  37
ENDBRANCH  29  31
ENDBRANCH  28  29
ENDBRANCH  27  28
ENDBRANCH  26  27
ENDBRANCH  25  26
ENDBRANCH   1  25
TORSDOF 18
ENDMDL
MODEL 3
REMARK VINA RESULT:     -11.1      0.704      7.188
REMARK SMILES CC[C@@H](C(=O)OCCOCCOC(=O)c1ccc(-c2c3nc(c(-c4c(F)c(F)c(F)c(F)c4F)c4ccc([nH]4)c(-c4c(F)c(F)c(F)c(F)c4F)c4nc(c(-c5c(F)c(F)c(F)c(F)c5F)c5ccc2[nH]5)C=C4)C=C3)cc1)N1CCN(Cc2cccc(C)c2)C(=O)C1=O
REMARK SMILES IDX 8 1 7 2 6 3 4 4 5 5 3 6 2 7 1 8 78 9 79 10 92 11 80 12 90 13
REMARK SMILES IDX 93 14 81 15 91 16 82 17 83 18 84 19 89 20 85 21 87 22 86 23
REMARK SMILES IDX 88 24 9 25 10 26 11 27 12 28 13 29 14 30 15 31 16 32 77 33
REMARK SMILES IDX 17 34 76 35 18 36 19 37 20 38 70 39 21 40 75 41 69 42 71 43
REMARK SMILES IDX 22 44 74 45 68 46 67 47 23 49 55 50 35 51 54 52 36 53 39 54
REMARK SMILES IDX 53 55 72 56 37 57 38 58 52 60 73 61 40 62 24 63 25 64 33 65
REMARK SMILES IDX 26 66 27 67 31 68 34 69 28 70 29 71 32 72 30 73 56 74 57 75
REMARK SMILES IDX 65 76 58 77 59 78 63 79 66 80 60 81 61 82 64 83 62 84 41 85
REMARK SMILES IDX 42 86 50 87 43 88 44 89 48 90 51 91 45 92 46 93 49 94 47 95
REMARK H PARENT 71 48 39 59
REMARK Flexibility Score: inf
ROOT
ATOM      1  C   UNL A   1      30.507  29.042  23.435  1.00  0.00     0.202 C 
ENDROOT
BRANCH   1   2
ATOM      2  C   UNL A   1      31.828  28.958  22.661  1.00  0.00     0.261 C 
BRANCH   2   3
ATOM      3  O   UNL A   1      32.257  27.583  22.559  1.00  0.00    -0.462 OA
BRANCH   3   4
ATOM      4  C   UNL A   1      33.039  27.107  23.563  1.00  0.00     0.328 C 
ATOM      5  O   UNL A   1      34.049  27.674  23.967  1.00  0.00    -0.250 OA
BRANCH   4   6
ATOM      6  C   UNL A   1      32.499  25.789  24.176  1.00  0.00     0.195 C 
BRANCH   6   7
ATOM      7  C   UNL A   1      31.782  25.844  25.544  1.00  0.00     0.034 C 
ATOM      8  C   UNL A   1      30.322  25.416  25.572  1.00  0.00     0.007 C 
ENDBRANCH   6   7
BRANCH   6   9
ATOM      9  N   UNL A   1      33.635  24.831  24.288  1.00  0.00    -0.319 N 
ATOM     10  C   UNL A   1      34.253  24.590  25.581  1.00  0.00     0.142 C 
ATOM     11  C   UNL A   1      34.210  24.252  23.154  1.00  0.00     0.312 C 
ATOM     12  C   UNL A   1      34.660  23.135  25.698  1.00  0.00     0.142 C 
ATOM     13  C   UNL A   1      35.467  23.325  23.389  1.00  0.00     0.312 C 
ATOM     14  O   UNL A   1      33.753  24.398  22.027  1.00  0.00    -0.263 OA
ATOM     15  N   UNL A   1      35.641  22.816  24.684  1.00  0.00    -0.328 N 
ATOM     16  O   UNL A   1      36.216  23.068  22.454  1.00  0.00    -0.263 OA
BRANCH  15  17
ATOM     17  C   UNL A   1      36.690  21.846  24.981  1.00  0.00     0.155 C 
BRANCH  17  18
ATOM     18  C   UNL A   1      37.853  22.419  25.766  1.00  0.00    -0.028 A 
ATOM     19  C   UNL A   1      37.874  23.779  26.099  1.00  0.00     0.005 A 
ATOM     20  C   UNL A   1      38.940  21.619  26.164  1.00  0.00     0.009 A 
ATOM     21  C   UNL A   1      38.950  24.322  26.806  1.00  0.00     0.001 A 
ATOM     22  C   UNL A   1      39.990  22.142  26.932  1.00  0.00    -0.051 A 
ATOM     23  C   UNL A   1      39.998  23.506  27.229  1.00  0.00     0.003 A 
ATOM     24  C   UNL A   1      41.099  21.257  27.421  1.00  0.00     0.044 C 
ENDBRANCH  17  18
ENDBRANCH  15  17
ENDBRANCH   6   9
ENDBRANCH   4   6
ENDBRANCH   3   4
ENDBRANCH   2   3
ENDBRANCH   1   2
BRANCH   1  25
ATOM     25  O   UNL A   1      30.518  29.861  24.609  1.00  0.00    -0.374 OA
BRANCH  25  26
ATOM     26  C   UNL A   1      31.752  29.945  25.312  1.00  0.00     0.202 C 
BRANCH  26  27
ATOM     27  C   UNL A   1      31.814  30.931  26.481  1.00  0.00     0.261 C 
BRANCH  27  28
ATOM     28  O   UNL A   1      32.980  30.709  27.286  1.00  0.00    -0.460 OA
BRANCH  28  29
ATOM     29  C   UNL A   1      33.665  31.838  27.575  1.00  0.00     0.338 C 
ATOM     30  O   UNL A   1      33.229  32.980  27.626  1.00  0.00    -0.246 OA
BRANCH  29  31
ATOM     31  C   UNL A   1      35.028  31.495  28.008  1.00  0.00     0.060 A 
ATOM     32  C   UNL A   1      35.263  30.166  28.385  1.00  0.00     0.016 A 
ATOM     33  C   UNL A   1      36.036  32.455  28.106  1.00  0.00     0.016 A 
ATOM     34  C   UNL A   1      36.488  29.804  28.932  1.00  0.00     0.010 A 
ATOM     35  C   UNL A   1      37.264  32.093  28.665  1.00  0.00     0.010 A 
ATOM     36  C   UNL A   1      37.474  30.779  29.124  1.00  0.00    -0.014 A 
BRANCH  36  37
ATOM     37  C   UNL A   1      38.631  30.481  29.997  1.00  0.00     0.031 A 
ATOM     38  C   UNL A   1      39.738  29.629  29.442  1.00  0.00     0.074 A 
ATOM     39  C   UNL A   1      38.708  30.977  31.243  1.00  0.00     0.049 A 
ATOM     40  N   UNL A   1      40.804  29.157  30.034  1.00  0.00    -0.248 NA
ATOM     41  C   UNL A   1      39.623  29.254  28.022  1.00  0.00     0.031 C 
ATOM     42  C   UNL A   1      37.727  31.864  31.861  1.00  0.00     0.029 A 
ATOM     43  N   UNL A   1      39.657  30.790  32.214  1.00  0.00    -0.354 N 
ATOM     44  C   UNL A   1      41.475  28.419  29.067  1.00  0.00     0.074 A 
ATOM     45  C   UNL A   1      40.686  28.483  27.857  1.00  0.00     0.031 C 
ATOM     46  C   UNL A   1      38.115  32.132  33.120  1.00  0.00     0.029 A 
ATOM     47  C   UNL A   1      39.350  31.401  33.404  1.00  0.00     0.049 A 
ATOM     48  H   UNL A   1      40.480  30.267  32.073  1.00  0.00     0.167 HD
ATOM     49  C   UNL A   1      42.648  27.754  29.181  1.00  0.00     0.037 A 
ATOM     50  C   UNL A   1      39.982  31.347  34.593  1.00  0.00     0.037 A 
ATOM     51  C   UNL A   1      43.428  27.704  30.388  1.00  0.00     0.049 A 
ATOM     52  C   UNL A   1      41.247  30.535  34.717  1.00  0.00     0.074 A 
ATOM     53  C   UNL A   1      44.632  27.062  30.610  1.00  0.00     0.029 A 
ATOM     54  N   UNL A   1      43.074  28.319  31.579  1.00  0.00    -0.354 N 
ATOM     55  N   UNL A   1      41.879  29.841  33.800  1.00  0.00    -0.248 NA
ATOM     56  C   UNL A   1      41.887  30.498  36.040  1.00  0.00     0.031 C 
ATOM     57  C   UNL A   1      44.981  27.245  31.952  1.00  0.00     0.029 A 
ATOM     58  C   UNL A   1      44.027  28.055  32.547  1.00  0.00     0.049 A 
ATOM     59  H   UNL A   1      42.265  28.863  31.716  1.00  0.00     0.167 HD
ATOM     60  C   UNL A   1      43.009  29.324  34.422  1.00  0.00     0.074 A 
ATOM     61  C   UNL A   1      42.974  29.781  35.796  1.00  0.00     0.031 C 
ATOM     62  C   UNL A   1      43.990  28.547  33.901  1.00  0.00     0.037 A 
BRANCH  49  63
ATOM     63  C   UNL A   1      43.139  27.001  27.980  1.00  0.00     0.064 A 
ATOM     64  C   UNL A   1      43.813  27.640  26.929  1.00  0.00     0.173 A 
ATOM     65  C   UNL A   1      42.957  25.612  27.893  1.00  0.00     0.173 A 
ATOM     66  F   UNL A   1      43.999  28.968  26.955  1.00  0.00    -0.203 F 
ATOM     67  C   UNL A   1      44.265  26.921  25.825  1.00  0.00     0.198 A 
ATOM     68  C   UNL A   1      43.436  24.891  26.804  1.00  0.00     0.198 A 
ATOM     69  F   UNL A   1      42.318  24.951  28.871  1.00  0.00    -0.203 F 
ATOM     70  F   UNL A   1      44.863  27.559  24.809  1.00  0.00    -0.200 F 
ATOM     71  C   UNL A   1      44.084  25.547  25.767  1.00  0.00     0.200 A 
ATOM     72  F   UNL A   1      43.270  23.563  26.756  1.00  0.00    -0.200 F 
ATOM     73  F   UNL A   1      44.525  24.855  24.707  1.00  0.00    -0.200 F 
ENDBRANCH  49  63
BRANCH  50  74
ATOM     74  C   UNL A   1      39.423  32.069  35.766  1.00  0.00     0.064 A 
ATOM     75  C   UNL A   1      38.501  31.453  36.624  1.00  0.00     0.173 A 
ATOM     76  C   UNL A   1      39.787  33.395  36.045  1.00  0.00     0.173 A 
ATOM     77  F   UNL A   1      38.104  30.195  36.387  1.00  0.00    -0.203 F 
ATOM     78  C   UNL A   1      37.949  32.143  37.702  1.00  0.00     0.198 A 
ATOM     79  C   UNL A   1      39.256  34.073  37.140  1.00  0.00     0.198 A 
ATOM     80  F   UNL A   1      40.665  34.031  35.255  1.00  0.00    -0.203 F 
ATOM     81  F   UNL A   1      37.033  31.547  38.477  1.00  0.00    -0.200 F 
ATOM     82  C   UNL A   1      38.331  33.450  37.962  1.00  0.00     0.200 A 
ATOM     83  F   UNL A   1      39.640  35.332  37.395  1.00  0.00    -0.200 F 
ATOM     84  F   UNL A   1      37.802  34.111  39.000  1.00  0.00    -0.200 F 
ENDBRANCH  50  74
BRANCH  62  85
ATOM     85  C   UNL A   1      45.148  28.196  34.788  1.00  0.00     0.064 A 
ATOM     86  C   UNL A   1      46.278  29.019  34.894  1.00  0.00     0.173 A 
ATOM     87  C   UNL A   1      45.084  27.057  35.606  1.00  0.00     0.173 A 
ATOM     88  F   UNL A   1      46.391  30.113  34.126  1.00  0.00    -0.203 F 
ATOM     89  C   UNL A   1      47.309  28.706  35.777  1.00  0.00     0.198 A 
ATOM     90  C   UNL A   1      46.102  26.764  36.509  1.00  0.00     0.198 A 
ATOM     91  F   UNL A   1      44.020  26.243  35.550  1.00  0.00    -0.203 F 
ATOM     92  F   UNL A   1      48.396  29.487  35.839  1.00  0.00    -0.200 F 
ATOM     93  C   UNL A   1      47.215  27.585  36.590  1.00  0.00     0.200 A 
ATOM     94  F   UNL A   1      46.001  25.691  37.306  1.00  0.00    -0.200 F 
ATOM     95  F   UNL A   1      48.200  27.297  37.452  1.00  0.00    -0.200 F 
ENDBRANCH  62  85
ENDBRANCH  36  37
ENDBRANCH  29  31
ENDBRANCH  28  29
ENDBRANCH  27  28
ENDBRANCH  26  27
ENDBRANCH  25  26
ENDBRANCH   1  25
TORSDOF 18
ENDMDL
