MODEL 1
REMARK VINA RESULT:     -10.4      0.000      0.000
REMARK SMILES Cc1c(CC(=O)N[C@H](CO)C(=O)OCCOCCOC(=O)c2ccc(-c3c4nc(c(-c5c(F)c(F)c(F)c(F)c5F)c5ccc([nH]5)c(-c5c(F)c(F)c(F)c(F)c5F)c5nc(c(-c6c(F)c(F)c(F)c(F)c6F)c6ccc3[nH]6)C=C5)C=C4)cc2)cc(-c2ccc(S(C)(=O)=O)cc2)n1-c1cccc(F)c1
REMARK SMILES IDX 14 1 13 2 11 3 12 4 8 5 7 6 5 7 6 8 4 10 3 11 1 12 2 13
REMARK SMILES IDX 97 14 85 15 86 16 98 17 99 18 104 19 100 20 102 21 101 22
REMARK SMILES IDX 103 23 87 24 88 25 96 26 89 27 95 28 90 29 91 30 92 31 93 32
REMARK SMILES IDX 94 33 9 34 10 35 15 37 16 38 17 39 18 40 19 41 20 42 21 43
REMARK SMILES IDX 22 44 23 45 84 46 24 47 83 48 25 49 26 50 27 51 77 52 28 53
REMARK SMILES IDX 82 54 76 55 78 56 29 57 81 58 75 59 74 60 30 62 62 63 42 64
REMARK SMILES IDX 61 65 43 66 46 67 60 68 79 69 44 70 45 71 59 73 80 74 47 75
REMARK SMILES IDX 31 76 32 77 40 78 33 79 34 80 38 81 41 82 35 83 36 84 39 85
REMARK SMILES IDX 37 86 63 87 64 88 72 89 65 90 66 91 70 92 73 93 67 94 68 95
REMARK SMILES IDX 71 96 69 97 48 98 49 99 57 100 50 101 51 102 55 103 58 104
REMARK SMILES IDX 52 105 53 106 56 107 54 108
REMARK H PARENT 7 9 10 36 78 61 46 72
REMARK Flexibility Score: inf
ROOT
ATOM      1  C   UNL A   1      33.582  27.381  24.327  1.00  0.00     0.261 C 
ENDROOT
BRANCH   1   2
ATOM      2  O   UNL A   1      33.925  26.004  24.470  1.00  0.00    -0.462 OA
BRANCH   2   3
ATOM      3  C   UNL A   1      33.574  25.432  25.662  1.00  0.00     0.331 C 
ATOM      4  O   UNL A   1      32.865  25.935  26.520  1.00  0.00    -0.250 OA
BRANCH   3   5
ATOM      5  C   UNL A   1      34.151  24.040  25.790  1.00  0.00     0.218 C 
BRANCH   5   6
ATOM      6  N   UNL A   1      35.215  23.909  24.793  1.00  0.00    -0.341 N 
ATOM      7  C   UNL A   1      36.528  23.575  25.003  1.00  0.00     0.225 C 
ATOM      8  O   UNL A   1      37.261  23.558  24.010  1.00  0.00    -0.275 OA
ATOM      9  H   UNL A   1      34.956  24.083  23.858  1.00  0.00     0.164 HD
BRANCH   7  10
ATOM     10  C   UNL A   1      37.063  23.208  26.395  1.00  0.00     0.137 C 
BRANCH  10  11
ATOM     11  C   UNL A   1      38.563  23.306  26.593  1.00  0.00    -0.017 A 
ATOM     12  C   UNL A   1      38.758  24.935  28.586  1.00  0.00     0.065 C 
ATOM     13  C   UNL A   1      39.291  23.982  27.565  1.00  0.00     0.024 A 
ATOM     14  N   UNL A   1      40.650  23.636  27.446  1.00  0.00    -0.313 N 
ATOM     15  C   UNL A   1      39.535  22.701  25.741  1.00  0.00     0.033 A 
ATOM     16  C   UNL A   1      40.792  22.787  26.329  1.00  0.00     0.053 A 
BRANCH  14  17
ATOM     17  C   UNL A   1      41.698  23.966  28.375  1.00  0.00     0.049 A 
ATOM     18  C   UNL A   1      42.190  25.278  28.453  1.00  0.00     0.027 A 
ATOM     19  C   UNL A   1      42.348  22.957  29.098  1.00  0.00     0.065 A 
ATOM     20  C   UNL A   1      43.356  25.556  29.175  1.00  0.00     0.005 A 
ATOM     21  C   UNL A   1      43.516  23.244  29.795  1.00  0.00     0.125 A 
ATOM     22  C   UNL A   1      44.035  24.531  29.829  1.00  0.00     0.039 A 
ATOM     23  F   UNL A   1      44.180  22.248  30.397  1.00  0.00    -0.207 F 
ENDBRANCH  14  17
BRANCH  16  24
ATOM     24  C   UNL A   1      41.964  21.923  25.999  1.00  0.00    -0.001 A 
ATOM     25  C   UNL A   1      41.882  20.523  26.100  1.00  0.00     0.011 A 
ATOM     26  C   UNL A   1      43.152  22.459  25.477  1.00  0.00     0.011 A 
ATOM     27  C   UNL A   1      42.949  19.684  25.753  1.00  0.00     0.021 A 
ATOM     28  C   UNL A   1      44.230  21.628  25.116  1.00  0.00     0.021 A 
ATOM     29  C   UNL A   1      44.126  20.242  25.267  1.00  0.00     0.067 A 
BRANCH  29  30
ATOM     30  S   UNL A   1      45.483  19.182  24.816  1.00  0.00     0.175 S 
ATOM     31  C   UNL A   1      45.334  18.946  23.062  1.00  0.00     0.163 C 
ATOM     32  O   UNL A   1      46.708  19.936  25.063  1.00  0.00    -0.224 OA
ATOM     33  O   UNL A   1      45.264  17.898  25.438  1.00  0.00    -0.224 OA
ENDBRANCH  29  30
ENDBRANCH  16  24
ENDBRANCH  10  11
ENDBRANCH   7  10
ENDBRANCH   5   6
BRANCH   5  34
ATOM     34  C   UNL A   1      32.969  23.070  25.617  1.00  0.00     0.193 C 
BRANCH  34  35
ATOM     35  O   UNL A   1      31.887  23.654  24.904  1.00  0.00    -0.394 OA
ATOM     36  H   UNL A   1      31.305  24.120  25.524  1.00  0.00     0.210 HD
ENDBRANCH  34  35
ENDBRANCH   5  34
ENDBRANCH   3   5
ENDBRANCH   2   3
ENDBRANCH   1   2
BRANCH   1  37
ATOM     37  C   UNL A   1      32.104  27.736  24.143  1.00  0.00     0.202 C 
BRANCH  37  38
ATOM     38  O   UNL A   1      31.700  29.014  24.597  1.00  0.00    -0.374 OA
BRANCH  38  39
ATOM     39  C   UNL A   1      31.959  29.304  25.971  1.00  0.00     0.202 C 
BRANCH  39  40
ATOM     40  C   UNL A   1      32.736  30.608  26.253  1.00  0.00     0.261 C 
BRANCH  40  41
ATOM     41  O   UNL A   1      33.094  30.926  27.652  1.00  0.00    -0.460 OA
BRANCH  41  42
ATOM     42  C   UNL A   1      34.248  31.639  27.851  1.00  0.00     0.338 C 
ATOM     43  O   UNL A   1      34.282  32.864  27.783  1.00  0.00    -0.246 OA
BRANCH  42  44
ATOM     44  C   UNL A   1      35.527  30.852  28.223  1.00  0.00     0.060 A 
ATOM     45  C   UNL A   1      36.691  31.580  28.361  1.00  0.00     0.016 A 
ATOM     46  C   UNL A   1      35.747  29.457  28.305  1.00  0.00     0.016 A 
ATOM     47  C   UNL A   1      37.965  30.940  28.599  1.00  0.00     0.010 A 
ATOM     48  C   UNL A   1      37.110  28.802  28.462  1.00  0.00     0.010 A 
ATOM     49  C   UNL A   1      38.315  29.519  28.598  1.00  0.00    -0.014 A 
BRANCH  49  50
ATOM     50  C   UNL A   1      40.008  29.077  28.562  1.00  0.00     0.031 A 
ATOM     51  C   UNL A   1      40.306  29.084  30.017  1.00  0.00     0.074 A 
ATOM     52  C   UNL A   1      41.240  28.934  27.833  1.00  0.00     0.049 A 
ATOM     53  N   UNL A   1      40.148  30.242  30.584  1.00  0.00    -0.248 NA
ATOM     54  C   UNL A   1      40.290  27.954  30.946  1.00  0.00     0.031 C 
ATOM     55  C   UNL A   1      41.520  29.211  26.404  1.00  0.00     0.029 A 
ATOM     56  N   UNL A   1      42.624  28.554  28.212  1.00  0.00    -0.354 N 
ATOM     57  C   UNL A   1      40.199  30.072  31.935  1.00  0.00     0.074 A 
ATOM     58  C   UNL A   1      40.184  28.619  32.113  1.00  0.00     0.031 C 
ATOM     59  C   UNL A   1      42.792  28.859  26.013  1.00  0.00     0.029 A 
ATOM     60  C   UNL A   1      43.613  28.356  27.126  1.00  0.00     0.049 A 
ATOM     61  H   UNL A   1      42.876  28.436  29.156  1.00  0.00     0.167 HD
ATOM     62  C   UNL A   1      40.915  31.060  32.541  1.00  0.00     0.037 A 
ATOM     63  C   UNL A   1      44.988  27.967  27.109  1.00  0.00     0.037 A 
ATOM     64  C   UNL A   1      42.294  30.663  32.601  1.00  0.00     0.049 A 
ATOM     65  C   UNL A   1      45.544  28.540  28.334  1.00  0.00     0.074 A 
ATOM     66  C   UNL A   1      42.880  29.444  32.887  1.00  0.00     0.029 A 
ATOM     67  N   UNL A   1      43.186  31.358  31.819  1.00  0.00    -0.354 N 
ATOM     68  N   UNL A   1      45.824  29.804  28.416  1.00  0.00    -0.248 NA
ATOM     69  C   UNL A   1      45.952  27.726  29.470  1.00  0.00     0.031 C 
ATOM     70  C   UNL A   1      43.774  29.243  31.819  1.00  0.00     0.029 A 
ATOM     71  C   UNL A   1      44.077  30.477  31.259  1.00  0.00     0.049 A 
ATOM     72  H   UNL A   1      43.186  32.333  31.684  1.00  0.00     0.167 HD
ATOM     73  C   UNL A   1      45.835  30.002  29.754  1.00  0.00     0.074 A 
ATOM     74  C   UNL A   1      46.188  28.716  30.334  1.00  0.00     0.031 C 
ATOM     75  C   UNL A   1      44.928  30.911  30.186  1.00  0.00     0.037 A 
BRANCH  62  76
ATOM     76  C   UNL A   1      40.417  32.429  32.084  1.00  0.00     0.064 A 
ATOM     77  C   UNL A   1      39.531  33.128  32.908  1.00  0.00     0.173 A 
ATOM     78  C   UNL A   1      40.605  32.943  30.774  1.00  0.00     0.173 A 
ATOM     79  F   UNL A   1      39.345  32.735  34.176  1.00  0.00    -0.203 F 
ATOM     80  C   UNL A   1      38.816  34.230  32.429  1.00  0.00     0.198 A 
ATOM     81  C   UNL A   1      39.821  33.977  30.272  1.00  0.00     0.198 A 
ATOM     82  F   UNL A   1      41.536  32.427  29.952  1.00  0.00    -0.203 F 
ATOM     83  F   UNL A   1      37.999  34.902  33.251  1.00  0.00    -0.200 F 
ATOM     84  C   UNL A   1      38.926  34.622  31.101  1.00  0.00     0.200 A 
ATOM     85  F   UNL A   1      39.930  34.336  28.984  1.00  0.00    -0.200 F 
ATOM     86  F   UNL A   1      38.185  35.634  30.628  1.00  0.00    -0.200 F 
ENDBRANCH  62  76
BRANCH  63  87
ATOM     87  C   UNL A   1      46.291  27.447  26.286  1.00  0.00     0.064 A 
ATOM     88  C   UNL A   1      46.729  26.055  26.300  1.00  0.00     0.173 A 
ATOM     89  C   UNL A   1      46.778  28.123  25.154  1.00  0.00     0.173 A 
ATOM     90  F   UNL A   1      46.413  25.229  27.307  1.00  0.00    -0.203 F 
ATOM     91  C   UNL A   1      47.446  25.415  25.257  1.00  0.00     0.198 A 
ATOM     92  C   UNL A   1      47.532  27.479  24.117  1.00  0.00     0.198 A 
ATOM     93  F   UNL A   1      46.461  29.409  24.965  1.00  0.00    -0.203 F 
ATOM     94  F   UNL A   1      47.686  24.092  25.306  1.00  0.00    -0.200 F 
ATOM     95  C   UNL A   1      47.830  26.126  24.151  1.00  0.00     0.200 A 
ATOM     96  F   UNL A   1      47.907  28.175  23.033  1.00  0.00    -0.200 F 
ATOM     97  F   UNL A   1      48.441  25.514  23.121  1.00  0.00    -0.200 F 
ENDBRANCH  63  87
BRANCH  75  98
ATOM     98  C   UNL A   1      44.830  32.215  29.411  1.00  0.00     0.064 A 
ATOM     99  C   UNL A   1      44.172  32.436  28.175  1.00  0.00     0.173 A 
ATOM    100  C   UNL A   1      45.559  33.303  29.912  1.00  0.00     0.173 A 
ATOM    101  F   UNL A   1      43.335  31.539  27.635  1.00  0.00    -0.203 F 
ATOM    102  C   UNL A   1      44.335  33.625  27.455  1.00  0.00     0.198 A 
ATOM    103  C   UNL A   1      45.669  34.508  29.221  1.00  0.00     0.198 A 
ATOM    104  F   UNL A   1      46.172  33.207  31.101  1.00  0.00    -0.203 F 
ATOM    105  F   UNL A   1      43.760  33.766  26.250  1.00  0.00    -0.200 F 
ATOM    106  C   UNL A   1      45.087  34.658  27.977  1.00  0.00     0.200 A 
ATOM    107  F   UNL A   1      46.350  35.522  29.770  1.00  0.00    -0.200 F 
ATOM    108  F   UNL A   1      45.239  35.800  27.294  1.00  0.00    -0.200 F 
ENDBRANCH  75  98
ENDBRANCH  49  50
ENDBRANCH  42  44
ENDBRANCH  41  42
ENDBRANCH  40  41
ENDBRANCH  39  40
ENDBRANCH  38  39
ENDBRANCH  37  38
ENDBRANCH   1  37
TORSDOF 22
ENDMDL
MODEL 2
REMARK VINA RESULT:     -10.1      6.879     11.822
REMARK SMILES Cc1c(CC(=O)N[C@H](CO)C(=O)OCCOCCOC(=O)c2ccc(-c3c4nc(c(-c5c(F)c(F)c(F)c(F)c5F)c5ccc([nH]5)c(-c5c(F)c(F)c(F)c(F)c5F)c5nc(c(-c6c(F)c(F)c(F)c(F)c6F)c6ccc3[nH]6)C=C5)C=C4)cc2)cc(-c2ccc(S(C)(=O)=O)cc2)n1-c1cccc(F)c1
REMARK SMILES IDX 14 1 13 2 11 3 12 4 8 5 7 6 5 7 6 8 4 10 3 11 1 12 2 13
REMARK SMILES IDX 97 14 85 15 86 16 98 17 99 18 104 19 100 20 102 21 101 22
REMARK SMILES IDX 103 23 87 24 88 25 96 26 89 27 95 28 90 29 91 30 92 31 93 32
REMARK SMILES IDX 94 33 9 34 10 35 15 37 16 38 17 39 18 40 19 41 20 42 21 43
REMARK SMILES IDX 22 44 23 45 84 46 24 47 83 48 25 49 26 50 27 51 77 52 28 53
REMARK SMILES IDX 82 54 76 55 78 56 29 57 81 58 75 59 74 60 30 62 62 63 42 64
REMARK SMILES IDX 61 65 43 66 46 67 60 68 79 69 44 70 45 71 59 73 80 74 47 75
REMARK SMILES IDX 31 76 32 77 40 78 33 79 34 80 38 81 41 82 35 83 36 84 39 85
REMARK SMILES IDX 37 86 63 87 64 88 72 89 65 90 66 91 70 92 73 93 67 94 68 95
REMARK SMILES IDX 71 96 69 97 48 98 49 99 57 100 50 101 51 102 55 103 58 104
REMARK SMILES IDX 52 105 53 106 56 107 54 108
REMARK H PARENT 7 9 10 36 78 61 46 72
REMARK Flexibility Score: inf
ROOT
ATOM      1  C   UNL A   1      49.335  24.554  40.037  1.00  0.00     0.261 C 
ENDROOT
BRANCH   1   2
ATOM      2  O   UNL A   1      50.036  23.743  39.097  1.00  0.00    -0.462 OA
BRANCH   2   3
ATOM      3  C   UNL A   1      51.333  24.107  38.859  1.00  0.00     0.331 C 
ATOM      4  O   UNL A   1      52.195  24.290  39.704  1.00  0.00    -0.250 OA
BRANCH   3   5
ATOM      5  C   UNL A   1      51.603  24.226  37.375  1.00  0.00     0.218 C 
BRANCH   5   6
ATOM      6  N   UNL A   1      52.541  23.163  37.011  1.00  0.00    -0.341 N 
ATOM      7  C   UNL A   1      52.621  22.484  35.823  1.00  0.00     0.225 C 
ATOM      8  O   UNL A   1      53.475  21.595  35.749  1.00  0.00    -0.275 OA
ATOM      9  H   UNL A   1      53.193  22.904  37.703  1.00  0.00     0.164 HD
BRANCH   7  10
ATOM     10  C   UNL A   1      51.719  22.823  34.626  1.00  0.00     0.137 C 
BRANCH  10  11
ATOM     11  C   UNL A   1      50.270  22.391  34.725  1.00  0.00    -0.017 A 
ATOM     12  C   UNL A   1      50.473  19.859  35.183  1.00  0.00     0.065 C 
ATOM     13  C   UNL A   1      49.730  21.147  35.030  1.00  0.00     0.024 A 
ATOM     14  N   UNL A   1      48.336  21.273  35.174  1.00  0.00    -0.313 N 
ATOM     15  C   UNL A   1      49.151  23.241  34.476  1.00  0.00     0.033 A 
ATOM     16  C   UNL A   1      47.981  22.605  34.877  1.00  0.00     0.053 A 
BRANCH  14  17
ATOM     17  C   UNL A   1      47.436  20.268  35.674  1.00  0.00     0.049 A 
ATOM     18  C   UNL A   1      46.534  19.630  34.809  1.00  0.00     0.027 A 
ATOM     19  C   UNL A   1      47.339  20.025  37.050  1.00  0.00     0.065 A 
ATOM     20  C   UNL A   1      45.506  18.830  35.321  1.00  0.00     0.005 A 
ATOM     21  C   UNL A   1      46.300  19.244  37.547  1.00  0.00     0.125 A 
ATOM     22  C   UNL A   1      45.374  18.656  36.697  1.00  0.00     0.039 A 
ATOM     23  F   UNL A   1      46.163  19.105  38.872  1.00  0.00    -0.207 F 
ENDBRANCH  14  17
BRANCH  16  24
ATOM     24  C   UNL A   1      46.691  23.285  35.196  1.00  0.00    -0.001 A 
ATOM     25  C   UNL A   1      46.497  23.927  36.431  1.00  0.00     0.011 A 
ATOM     26  C   UNL A   1      45.664  23.401  34.245  1.00  0.00     0.011 A 
ATOM     27  C   UNL A   1      45.315  24.613  36.741  1.00  0.00     0.021 A 
ATOM     28  C   UNL A   1      44.474  24.095  34.539  1.00  0.00     0.021 A 
ATOM     29  C   UNL A   1      44.301  24.688  35.793  1.00  0.00     0.067 A 
BRANCH  29  30
ATOM     30  S   UNL A   1      42.800  25.565  36.176  1.00  0.00     0.175 S 
ATOM     31  C   UNL A   1      41.488  24.411  35.866  1.00  0.00     0.163 C 
ATOM     32  O   UNL A   1      42.826  25.840  37.609  1.00  0.00    -0.224 OA
ATOM     33  O   UNL A   1      42.660  26.636  35.218  1.00  0.00    -0.224 OA
ENDBRANCH  29  30
ENDBRANCH  16  24
ENDBRANCH  10  11
ENDBRANCH   7  10
ENDBRANCH   5   6
BRANCH   5  34
ATOM     34  C   UNL A   1      52.117  25.659  37.148  1.00  0.00     0.193 C 
BRANCH  34  35
ATOM     35  O   UNL A   1      51.562  26.588  38.070  1.00  0.00    -0.394 OA
ATOM     36  H   UNL A   1      51.721  27.491  37.754  1.00  0.00     0.210 HD
ENDBRANCH  34  35
ENDBRANCH   5  34
ENDBRANCH   3   5
ENDBRANCH   2   3
ENDBRANCH   1   2
BRANCH   1  37
ATOM     37  C   UNL A   1      48.583  25.778  39.509  1.00  0.00     0.202 C 
BRANCH  37  38
ATOM     38  O   UNL A   1      47.598  26.332  40.361  1.00  0.00    -0.374 OA
BRANCH  38  39
ATOM     39  C   UNL A   1      46.256  26.298  39.876  1.00  0.00     0.202 C 
BRANCH  39  40
ATOM     40  C   UNL A   1      45.721  27.614  39.272  1.00  0.00     0.261 C 
BRANCH  40  41
ATOM     41  O   UNL A   1      45.631  27.728  37.800  1.00  0.00    -0.460 OA
BRANCH  41  42
ATOM     42  C   UNL A   1      46.774  28.090  37.134  1.00  0.00     0.338 C 
ATOM     43  O   UNL A   1      47.701  28.671  37.691  1.00  0.00    -0.246 OA
BRANCH  42  44
ATOM     44  C   UNL A   1      46.894  27.697  35.642  1.00  0.00     0.060 A 
ATOM     45  C   UNL A   1      45.759  27.826  34.869  1.00  0.00     0.016 A 
ATOM     46  C   UNL A   1      47.956  27.074  34.948  1.00  0.00     0.016 A 
ATOM     47  C   UNL A   1      45.723  27.388  33.492  1.00  0.00     0.010 A 
ATOM     48  C   UNL A   1      47.866  26.536  33.528  1.00  0.00     0.010 A 
ATOM     49  C   UNL A   1      46.719  26.646  32.718  1.00  0.00    -0.014 A 
BRANCH  49  50
ATOM     50  C   UNL A   1      46.236  25.950  31.186  1.00  0.00     0.031 A 
ATOM     51  C   UNL A   1      46.868  26.918  30.254  1.00  0.00     0.074 A 
ATOM     52  C   UNL A   1      45.384  25.067  30.435  1.00  0.00     0.049 A 
ATOM     53  N   UNL A   1      46.419  28.132  30.366  1.00  0.00    -0.248 NA
ATOM     54  C   UNL A   1      48.174  26.820  29.601  1.00  0.00     0.031 C 
ATOM     55  C   UNL A   1      44.299  24.181  30.917  1.00  0.00     0.029 A 
ATOM     56  N   UNL A   1      45.221  24.775  28.990  1.00  0.00    -0.354 N 
ATOM     57  C   UNL A   1      47.236  28.963  29.658  1.00  0.00     0.074 A 
ATOM     58  C   UNL A   1      48.370  28.116  29.287  1.00  0.00     0.031 C 
ATOM     59  C   UNL A   1      43.757  23.387  29.932  1.00  0.00     0.029 A 
ATOM     60  C   UNL A   1      44.329  23.655  28.603  1.00  0.00     0.049 A 
ATOM     61  H   UNL A   1      45.691  25.308  28.309  1.00  0.00     0.167 HD
ATOM     62  C   UNL A   1      46.527  29.897  28.966  1.00  0.00     0.037 A 
ATOM     63  C   UNL A   1      43.965  23.078  27.347  1.00  0.00     0.037 A 
ATOM     64  C   UNL A   1      46.207  29.369  27.669  1.00  0.00     0.049 A 
ATOM     65  C   UNL A   1      43.954  24.207  26.417  1.00  0.00     0.074 A 
ATOM     66  C   UNL A   1      46.957  28.623  26.779  1.00  0.00     0.029 A 
ATOM     67  N   UNL A   1      44.887  29.086  27.409  1.00  0.00    -0.354 N 
ATOM     68  N   UNL A   1      42.970  25.052  26.401  1.00  0.00    -0.248 NA
ATOM     69  C   UNL A   1      44.949  24.375  25.369  1.00  0.00     0.031 C 
ATOM     70  C   UNL A   1      46.121  27.536  26.465  1.00  0.00     0.029 A 
ATOM     71  C   UNL A   1      44.806  27.901  26.721  1.00  0.00     0.049 A 
ATOM     72  H   UNL A   1      44.121  29.644  27.675  1.00  0.00     0.167 HD
ATOM     73  C   UNL A   1      43.535  26.130  25.810  1.00  0.00     0.074 A 
ATOM     74  C   UNL A   1      44.597  25.599  24.969  1.00  0.00     0.031 C 
ATOM     75  C   UNL A   1      43.536  27.246  26.578  1.00  0.00     0.037 A 
BRANCH  62  76
ATOM     76  C   UNL A   1      45.538  30.603  29.891  1.00  0.00     0.064 A 
ATOM     77  C   UNL A   1      45.842  31.891  30.337  1.00  0.00     0.173 A 
ATOM     78  C   UNL A   1      44.442  29.955  30.522  1.00  0.00     0.173 A 
ATOM     79  F   UNL A   1      46.828  32.587  29.751  1.00  0.00    -0.203 F 
ATOM     80  C   UNL A   1      45.144  32.472  31.400  1.00  0.00     0.198 A 
ATOM     81  C   UNL A   1      43.816  30.495  31.641  1.00  0.00     0.198 A 
ATOM     82  F   UNL A   1      43.983  28.773  30.074  1.00  0.00    -0.203 F 
ATOM     83  F   UNL A   1      45.434  33.722  31.784  1.00  0.00    -0.200 F 
ATOM     84  C   UNL A   1      44.167  31.755  32.080  1.00  0.00     0.200 A 
ATOM     85  F   UNL A   1      42.883  29.786  32.293  1.00  0.00    -0.200 F 
ATOM     86  F   UNL A   1      43.550  32.290  33.144  1.00  0.00    -0.200 F 
ENDBRANCH  62  76
BRANCH  63  87
ATOM     87  C   UNL A   1      43.298  21.860  26.501  1.00  0.00     0.064 A 
ATOM     88  C   UNL A   1      44.095  20.878  25.772  1.00  0.00     0.173 A 
ATOM     89  C   UNL A   1      42.017  21.362  26.793  1.00  0.00     0.173 A 
ATOM     90  F   UNL A   1      45.339  21.151  25.356  1.00  0.00    -0.203 F 
ATOM     91  C   UNL A   1      43.694  19.546  25.494  1.00  0.00     0.198 A 
ATOM     92  C   UNL A   1      41.603  20.025  26.479  1.00  0.00     0.198 A 
ATOM     93  F   UNL A   1      41.152  22.122  27.474  1.00  0.00    -0.203 F 
ATOM     94  F   UNL A   1      44.553  18.677  24.934  1.00  0.00    -0.200 F 
ATOM     95  C   UNL A   1      42.450  19.112  25.870  1.00  0.00     0.200 A 
ATOM     96  F   UNL A   1      40.385  19.598  26.849  1.00  0.00    -0.200 F 
ATOM     97  F   UNL A   1      42.086  17.831  25.682  1.00  0.00    -0.200 F 
ENDBRANCH  63  87
BRANCH  75  98
ATOM     98  C   UNL A   1      42.241  27.595  27.294  1.00  0.00     0.064 A 
ATOM     99  C   UNL A   1      41.771  27.078  28.527  1.00  0.00     0.173 A 
ATOM    100  C   UNL A   1      41.354  28.442  26.615  1.00  0.00     0.173 A 
ATOM    101  F   UNL A   1      42.549  26.360  29.350  1.00  0.00    -0.203 F 
ATOM    102  C   UNL A   1      40.466  27.312  28.977  1.00  0.00     0.198 A 
ATOM    103  C   UNL A   1      40.076  28.723  27.096  1.00  0.00     0.198 A 
ATOM    104  F   UNL A   1      41.729  29.022  25.465  1.00  0.00    -0.203 F 
ATOM    105  F   UNL A   1      40.032  26.739  30.110  1.00  0.00    -0.200 F 
ATOM    106  C   UNL A   1      39.619  28.131  28.258  1.00  0.00     0.200 A 
ATOM    107  F   UNL A   1      39.289  29.569  26.419  1.00  0.00    -0.200 F 
ATOM    108  F   UNL A   1      38.372  28.363  28.688  1.00  0.00    -0.200 F 
ENDBRANCH  75  98
ENDBRANCH  49  50
ENDBRANCH  42  44
ENDBRANCH  41  42
ENDBRANCH  40  41
ENDBRANCH  39  40
ENDBRANCH  38  39
ENDBRANCH  37  38
ENDBRANCH   1  37
TORSDOF 22
ENDMDL
MODEL 3
REMARK VINA RESULT:      -9.6      1.890      2.301
REMARK SMILES Cc1c(CC(=O)N[C@H](CO)C(=O)OCCOCCOC(=O)c2ccc(-c3c4nc(c(-c5c(F)c(F)c(F)c(F)c5F)c5ccc([nH]5)c(-c5c(F)c(F)c(F)c(F)c5F)c5nc(c(-c6c(F)c(F)c(F)c(F)c6F)c6ccc3[nH]6)C=C5)C=C4)cc2)cc(-c2ccc(S(C)(=O)=O)cc2)n1-c1cccc(F)c1
REMARK SMILES IDX 14 1 13 2 11 3 12 4 8 5 7 6 5 7 6 8 4 10 3 11 1 12 2 13
REMARK SMILES IDX 97 14 85 15 86 16 98 17 99 18 104 19 100 20 102 21 101 22
REMARK SMILES IDX 103 23 87 24 88 25 96 26 89 27 95 28 90 29 91 30 92 31 93 32
REMARK SMILES IDX 94 33 9 34 10 35 15 37 16 38 17 39 18 40 19 41 20 42 21 43
REMARK SMILES IDX 22 44 23 45 84 46 24 47 83 48 25 49 26 50 27 51 77 52 28 53
REMARK SMILES IDX 82 54 76 55 78 56 29 57 81 58 75 59 74 60 30 62 62 63 42 64
REMARK SMILES IDX 61 65 43 66 46 67 60 68 79 69 44 70 45 71 59 73 80 74 47 75
REMARK SMILES IDX 31 76 32 77 40 78 33 79 34 80 38 81 41 82 35 83 36 84 39 85
REMARK SMILES IDX 37 86 63 87 64 88 72 89 65 90 66 91 70 92 73 93 67 94 68 95
REMARK SMILES IDX 71 96 69 97 48 98 49 99 57 100 50 101 51 102 55 103 58 104
REMARK SMILES IDX 52 105 53 106 56 107 54 108
REMARK H PARENT 7 9 10 36 78 61 46 72
REMARK Flexibility Score: inf
ROOT
ATOM      1  C   UNL A   1      33.762  26.222  24.554  1.00  0.00     0.261 C 
ENDROOT
BRANCH   1   2
ATOM      2  O   UNL A   1      33.570  24.808  24.570  1.00  0.00    -0.462 OA
BRANCH   2   3
ATOM      3  C   UNL A   1      33.270  24.270  25.791  1.00  0.00     0.331 C 
ATOM      4  O   UNL A   1      32.352  24.609  26.521  1.00  0.00    -0.250 OA
BRANCH   3   5
ATOM      5  C   UNL A   1      34.213  23.139  26.135  1.00  0.00     0.218 C 
BRANCH   5   6
ATOM      6  N   UNL A   1      35.266  23.116  25.118  1.00  0.00    -0.341 N 
ATOM      7  C   UNL A   1      36.599  23.392  25.282  1.00  0.00     0.225 C 
ATOM      8  O   UNL A   1      37.303  23.345  24.269  1.00  0.00    -0.275 OA
ATOM      9  H   UNL A   1      34.983  22.875  24.205  1.00  0.00     0.164 HD
BRANCH   7  10
ATOM     10  C   UNL A   1      37.202  23.716  26.657  1.00  0.00     0.137 C 
BRANCH  10  11
ATOM     11  C   UNL A   1      38.715  23.779  26.738  1.00  0.00    -0.017 A 
ATOM     12  C   UNL A   1      39.102  25.588  28.538  1.00  0.00     0.065 C 
ATOM     13  C   UNL A   1      39.531  24.521  27.583  1.00  0.00     0.024 A 
ATOM     14  N   UNL A   1      40.867  24.117  27.403  1.00  0.00    -0.313 N 
ATOM     15  C   UNL A   1      39.603  23.059  25.883  1.00  0.00     0.033 A 
ATOM     16  C   UNL A   1      40.903  23.158  26.370  1.00  0.00     0.053 A 
BRANCH  14  17
ATOM     17  C   UNL A   1      41.990  24.498  28.217  1.00  0.00     0.049 A 
ATOM     18  C   UNL A   1      42.644  25.721  27.997  1.00  0.00     0.027 A 
ATOM     19  C   UNL A   1      42.543  23.592  29.132  1.00  0.00     0.065 A 
ATOM     20  C   UNL A   1      43.867  25.993  28.619  1.00  0.00     0.005 A 
ATOM     21  C   UNL A   1      43.769  23.867  29.728  1.00  0.00     0.125 A 
ATOM     22  C   UNL A   1      44.444  25.052  29.470  1.00  0.00     0.039 A 
ATOM     23  F   UNL A   1      44.331  22.946  30.522  1.00  0.00    -0.207 F 
ENDBRANCH  14  17
BRANCH  16  24
ATOM     24  C   UNL A   1      42.021  22.225  26.045  1.00  0.00    -0.001 A 
ATOM     25  C   UNL A   1      41.886  20.839  26.238  1.00  0.00     0.011 A 
ATOM     26  C   UNL A   1      43.206  22.676  25.442  1.00  0.00     0.011 A 
ATOM     27  C   UNL A   1      42.901  19.934  25.899  1.00  0.00     0.021 A 
ATOM     28  C   UNL A   1      44.232  21.777  25.088  1.00  0.00     0.021 A 
ATOM     29  C   UNL A   1      44.078  20.409  25.331  1.00  0.00     0.067 A 
BRANCH  29  30
ATOM     30  S   UNL A   1      45.368  19.265  24.890  1.00  0.00     0.175 S 
ATOM     31  C   UNL A   1      45.175  18.984  23.148  1.00  0.00     0.163 C 
ATOM     32  O   UNL A   1      46.636  19.959  25.094  1.00  0.00    -0.224 OA
ATOM     33  O   UNL A   1      45.093  18.014  25.556  1.00  0.00    -0.224 OA
ENDBRANCH  29  30
ENDBRANCH  16  24
ENDBRANCH  10  11
ENDBRANCH   7  10
ENDBRANCH   5   6
BRANCH   5  34
ATOM     34  C   UNL A   1      33.348  21.868  26.209  1.00  0.00     0.193 C 
BRANCH  34  35
ATOM     35  O   UNL A   1      33.625  21.089  27.365  1.00  0.00    -0.394 OA
ATOM     36  H   UNL A   1      33.127  21.440  28.119  1.00  0.00     0.210 HD
ENDBRANCH  34  35
ENDBRANCH   5  34
ENDBRANCH   3   5
ENDBRANCH   2   3
ENDBRANCH   1   2
BRANCH   1  37
ATOM     37  C   UNL A   1      32.663  27.088  23.934  1.00  0.00     0.202 C 
BRANCH  37  38
ATOM     38  O   UNL A   1      32.693  28.468  24.247  1.00  0.00    -0.374 OA
BRANCH  38  39
ATOM     39  C   UNL A   1      32.610  28.800  25.633  1.00  0.00     0.202 C 
BRANCH  39  40
ATOM     40  C   UNL A   1      32.979  30.252  26.005  1.00  0.00     0.261 C 
BRANCH  40  41
ATOM     41  O   UNL A   1      33.326  30.553  27.410  1.00  0.00    -0.460 OA
BRANCH  41  42
ATOM     42  C   UNL A   1      34.422  31.348  27.623  1.00  0.00     0.338 C 
ATOM     43  O   UNL A   1      34.416  32.552  27.381  1.00  0.00    -0.246 OA
BRANCH  42  44
ATOM     44  C   UNL A   1      35.682  30.692  28.238  1.00  0.00     0.060 A 
ATOM     45  C   UNL A   1      36.657  31.541  28.720  1.00  0.00     0.016 A 
ATOM     46  C   UNL A   1      36.084  29.337  28.259  1.00  0.00     0.016 A 
ATOM     47  C   UNL A   1      37.920  31.044  29.216  1.00  0.00     0.010 A 
ATOM     48  C   UNL A   1      37.454  28.845  28.697  1.00  0.00     0.010 A 
ATOM     49  C   UNL A   1      38.471  29.688  29.188  1.00  0.00    -0.014 A 
BRANCH  49  50
ATOM     50  C   UNL A   1      40.171  29.472  29.539  1.00  0.00     0.031 A 
ATOM     51  C   UNL A   1      40.090  29.088  30.972  1.00  0.00     0.074 A 
ATOM     52  C   UNL A   1      41.551  29.688  29.191  1.00  0.00     0.049 A 
ATOM     53  N   UNL A   1      39.579  30.004  31.737  1.00  0.00    -0.248 NA
ATOM     54  C   UNL A   1      40.058  27.742  31.544  1.00  0.00     0.031 C 
ATOM     55  C   UNL A   1      42.120  30.400  28.023  1.00  0.00     0.029 A 
ATOM     56  N   UNL A   1      42.842  29.374  29.852  1.00  0.00    -0.354 N 
ATOM     57  C   UNL A   1      39.322  29.455  32.958  1.00  0.00     0.074 A 
ATOM     58  C   UNL A   1      39.540  28.021  32.756  1.00  0.00     0.031 C 
ATOM     59  C   UNL A   1      43.492  30.324  27.945  1.00  0.00     0.029 A 
ATOM     60  C   UNL A   1      44.090  29.615  29.089  1.00  0.00     0.049 A 
ATOM     61  H   UNL A   1      42.868  29.016  30.768  1.00  0.00     0.167 HD
ATOM     62  C   UNL A   1      39.662  30.297  33.972  1.00  0.00     0.037 A 
ATOM     63  C   UNL A   1      45.474  29.407  29.378  1.00  0.00     0.037 A 
ATOM     64  C   UNL A   1      41.032  30.060  34.332  1.00  0.00     0.049 A 
ATOM     65  C   UNL A   1      45.587  29.657  30.814  1.00  0.00     0.074 A 
ATOM     66  C   UNL A   1      41.749  28.885  34.465  1.00  0.00     0.029 A 
ATOM     67  N   UNL A   1      41.943  31.049  34.044  1.00  0.00    -0.354 N 
ATOM     68  N   UNL A   1      45.592  30.865  31.286  1.00  0.00    -0.248 NA
ATOM     69  C   UNL A   1      45.846  28.599  31.780  1.00  0.00     0.031 C 
ATOM     70  C   UNL A   1      42.903  29.107  33.690  1.00  0.00     0.029 A 
ATOM     71  C   UNL A   1      43.096  30.477  33.568  1.00  0.00     0.049 A 
ATOM     72  H   UNL A   1      41.791  32.015  34.161  1.00  0.00     0.167 HD
ATOM     73  C   UNL A   1      45.231  30.665  32.574  1.00  0.00     0.074 A 
ATOM     74  C   UNL A   1      45.666  29.314  32.894  1.00  0.00     0.031 C 
ATOM     75  C   UNL A   1      44.089  31.299  32.934  1.00  0.00     0.037 A 
BRANCH  62  76
ATOM     76  C   UNL A   1      39.043  31.675  33.745  1.00  0.00     0.064 A 
ATOM     77  C   UNL A   1      37.946  32.052  34.523  1.00  0.00     0.173 A 
ATOM     78  C   UNL A   1      39.354  32.510  32.639  1.00  0.00     0.173 A 
ATOM     79  F   UNL A   1      37.626  31.343  35.616  1.00  0.00    -0.203 F 
ATOM     80  C   UNL A   1      37.158  33.153  34.175  1.00  0.00     0.198 A 
ATOM     81  C   UNL A   1      38.512  33.543  32.241  1.00  0.00     0.198 A 
ATOM     82  F   UNL A   1      40.468  32.313  31.911  1.00  0.00    -0.203 F 
ATOM     83  F   UNL A   1      36.133  33.512  34.959  1.00  0.00    -0.200 F 
ATOM     84  C   UNL A   1      37.413  33.866  33.011  1.00  0.00     0.200 A 
ATOM     85  F   UNL A   1      38.766  34.216  31.108  1.00  0.00    -0.200 F 
ATOM     86  F   UNL A   1      36.612  34.877  32.645  1.00  0.00    -0.200 F 
ENDBRANCH  62  76
BRANCH  63  87
ATOM     87  C   UNL A   1      47.016  29.301  28.870  1.00  0.00     0.064 A 
ATOM     88  C   UNL A   1      47.649  28.030  28.534  1.00  0.00     0.173 A 
ATOM     89  C   UNL A   1      47.673  30.379  28.252  1.00  0.00     0.173 A 
ATOM     90  F   UNL A   1      47.211  26.870  29.042  1.00  0.00    -0.203 F 
ATOM     91  C   UNL A   1      48.712  27.868  27.609  1.00  0.00     0.198 A 
ATOM     92  C   UNL A   1      48.770  30.212  27.343  1.00  0.00     0.198 A 
ATOM     93  F   UNL A   1      47.218  31.623  28.434  1.00  0.00    -0.203 F 
ATOM     94  F   UNL A   1      49.138  26.639  27.267  1.00  0.00    -0.200 F 
ATOM     95  C   UNL A   1      49.260  28.963  26.994  1.00  0.00     0.200 A 
ATOM     96  F   UNL A   1      49.306  31.285  26.739  1.00  0.00    -0.200 F 
ATOM     97  F   UNL A   1      50.214  28.818  26.058  1.00  0.00    -0.200 F 
ENDBRANCH  63  87
BRANCH  75  98
ATOM     98  C   UNL A   1      43.942  32.752  32.514  1.00  0.00     0.064 A 
ATOM     99  C   UNL A   1      43.458  33.247  31.276  1.00  0.00     0.173 A 
ATOM    100  C   UNL A   1      44.435  33.719  33.402  1.00  0.00     0.173 A 
ATOM    101  F   UNL A   1      42.841  32.465  30.380  1.00  0.00    -0.203 F 
ATOM    102  C   UNL A   1      43.573  34.598  30.926  1.00  0.00     0.198 A 
ATOM    103  C   UNL A   1      44.491  35.072  33.074  1.00  0.00     0.198 A 
ATOM    104  F   UNL A   1      44.865  33.352  34.618  1.00  0.00    -0.203 F 
ATOM    105  F   UNL A   1      43.178  35.014  29.713  1.00  0.00    -0.200 F 
ATOM    106  C   UNL A   1      44.093  35.508  31.825  1.00  0.00     0.200 A 
ATOM    107  F   UNL A   1      44.940  35.951  33.980  1.00  0.00    -0.200 F 
ATOM    108  F   UNL A   1      44.198  36.802  31.496  1.00  0.00    -0.200 F 
ENDBRANCH  75  98
ENDBRANCH  49  50
ENDBRANCH  42  44
ENDBRANCH  41  42
ENDBRANCH  40  41
ENDBRANCH  39  40
ENDBRANCH  38  39
ENDBRANCH  37  38
ENDBRANCH   1  37
TORSDOF 22
ENDMDL
