MODEL 1
REMARK VINA RESULT:     -11.1      0.000      0.000
REMARK SMILES O=C(OCCOCCOC(=O)[C@@H]1C[C@@H]2CC[C@H]1N2C(=O)C[C@H]1CCCCO1)c1ccc(-c2c3nc(c(-c4c(F)c(F)c(F)c(F)c4F)c4ccc([nH]4)c(-c4c(F)c(F)c(F)c(F)c4F)c4nc(c(-c5c(F)c(F)c(F)c(F)c5F)c5ccc2[nH]5)C=C4)C=C3)cc1
REMARK SMILES IDX 7 1 6 2 5 3 4 4 3 5 2 6 1 7 28 8 29 9 90 10 30 11 89 12
REMARK SMILES IDX 31 13 32 14 33 15 83 16 34 17 88 18 82 19 84 20 35 21 87 22
REMARK SMILES IDX 81 23 80 24 36 26 68 27 48 28 67 29 49 30 52 31 66 32 85 33
REMARK SMILES IDX 50 34 51 35 65 37 86 38 53 39 37 40 38 41 46 42 39 43 40 44
REMARK SMILES IDX 44 45 47 46 41 47 42 48 45 49 43 50 69 51 70 52 78 53 71 54
REMARK SMILES IDX 72 55 76 56 79 57 73 58 74 59 77 60 75 61 54 62 55 63 63 64
REMARK SMILES IDX 56 65 57 66 61 67 64 68 58 69 59 70 62 71 60 72 8 73 9 74
REMARK SMILES IDX 10 75 11 76 12 77 13 78 17 79 14 80 16 81 18 82 15 83 19 84
REMARK SMILES IDX 20 85 21 86 22 87 23 88 27 89 24 90 26 91 25 92
REMARK H PARENT 84 25 52 36
REMARK Flexibility Score: inf
ROOT
ATOM      1  C   UNL A   1      34.023  32.916  28.117  1.00  0.00     0.202 C 
ENDROOT
BRANCH   1   2
ATOM      2  O   UNL A   1      33.201  34.080  28.272  1.00  0.00    -0.374 OA
BRANCH   2   3
ATOM      3  C   UNL A   1      33.761  35.177  28.997  1.00  0.00     0.202 C 
BRANCH   3   4
ATOM      4  C   UNL A   1      32.781  36.212  29.560  1.00  0.00     0.261 C 
BRANCH   4   5
ATOM      5  O   UNL A   1      32.989  36.394  30.970  1.00  0.00    -0.460 OA
BRANCH   5   6
ATOM      6  C   UNL A   1      32.972  35.452  31.943  1.00  0.00     0.338 C 
ATOM      7  O   UNL A   1      31.914  35.208  32.516  1.00  0.00    -0.246 OA
BRANCH   6   8
ATOM      8  C   UNL A   1      34.192  34.702  32.373  1.00  0.00     0.060 A 
ATOM      9  C   UNL A   1      34.176  33.403  32.872  1.00  0.00     0.016 A 
ATOM     10  C   UNL A   1      35.442  35.313  32.182  1.00  0.00     0.016 A 
ATOM     11  C   UNL A   1      35.324  32.739  33.229  1.00  0.00     0.010 A 
ATOM     12  C   UNL A   1      36.626  34.632  32.497  1.00  0.00     0.010 A 
ATOM     13  C   UNL A   1      36.556  33.341  33.028  1.00  0.00    -0.014 A 
BRANCH  13  14
ATOM     14  C   UNL A   1      37.704  32.571  33.518  1.00  0.00     0.031 A 
ATOM     15  C   UNL A   1      38.345  31.603  32.580  1.00  0.00     0.074 A 
ATOM     16  C   UNL A   1      38.293  32.968  34.661  1.00  0.00     0.049 A 
ATOM     17  N   UNL A   1      39.417  30.881  32.747  1.00  0.00    -0.248 NA
ATOM     18  C   UNL A   1      37.710  31.452  31.258  1.00  0.00     0.031 C 
ATOM     19  C   UNL A   1      37.805  34.048  35.529  1.00  0.00     0.029 A 
ATOM     20  N   UNL A   1      39.459  32.571  35.253  1.00  0.00    -0.354 N 
ATOM     21  C   UNL A   1      39.579  30.181  31.561  1.00  0.00     0.074 A 
ATOM     22  C   UNL A   1      38.492  30.551  30.684  1.00  0.00     0.031 C 
ATOM     23  C   UNL A   1      38.682  34.243  36.525  1.00  0.00     0.029 A 
ATOM     24  C   UNL A   1      39.744  33.252  36.411  1.00  0.00     0.049 A 
ATOM     25  H   UNL A   1      40.039  31.865  34.886  1.00  0.00     0.167 HD
ATOM     26  C   UNL A   1      40.558  29.304  31.248  1.00  0.00     0.037 A 
ATOM     27  C   UNL A   1      40.736  33.055  37.297  1.00  0.00     0.037 A 
ATOM     28  C   UNL A   1      41.614  28.958  32.158  1.00  0.00     0.049 A 
ATOM     29  C   UNL A   1      41.731  31.970  36.981  1.00  0.00     0.074 A 
ATOM     30  C   UNL A   1      42.601  28.003  32.020  1.00  0.00     0.029 A 
ATOM     31  N   UNL A   1      41.813  29.573  33.390  1.00  0.00    -0.354 N 
ATOM     32  N   UNL A   1      41.826  31.223  35.904  1.00  0.00    -0.248 NA
ATOM     33  C   UNL A   1      42.747  31.690  37.999  1.00  0.00     0.031 C 
ATOM     34  C   UNL A   1      43.369  28.006  33.190  1.00  0.00     0.029 A 
ATOM     35  C   UNL A   1      42.900  29.006  34.032  1.00  0.00     0.049 A 
ATOM     36  H   UNL A   1      41.261  30.303  33.752  1.00  0.00     0.167 HD
ATOM     37  C   UNL A   1      42.917  30.394  36.109  1.00  0.00     0.074 A 
ATOM     38  C   UNL A   1      43.473  30.758  37.399  1.00  0.00     0.031 C 
ATOM     39  C   UNL A   1      43.414  29.409  35.317  1.00  0.00     0.037 A 
BRANCH  26  40
ATOM     40  C   UNL A   1      40.463  28.623  29.916  1.00  0.00     0.064 A 
ATOM     41  C   UNL A   1      39.706  27.456  29.729  1.00  0.00     0.173 A 
ATOM     42  C   UNL A   1      41.177  29.123  28.818  1.00  0.00     0.173 A 
ATOM     43  F   UNL A   1      39.035  26.914  30.757  1.00  0.00    -0.203 F 
ATOM     44  C   UNL A   1      39.687  26.804  28.498  1.00  0.00     0.198 A 
ATOM     45  C   UNL A   1      41.135  28.484  27.582  1.00  0.00     0.198 A 
ATOM     46  F   UNL A   1      41.932  30.225  28.948  1.00  0.00    -0.203 F 
ATOM     47  F   UNL A   1      39.007  25.657  28.359  1.00  0.00    -0.200 F 
ATOM     48  C   UNL A   1      40.397  27.321  27.425  1.00  0.00     0.200 A 
ATOM     49  F   UNL A   1      41.823  28.985  26.547  1.00  0.00    -0.200 F 
ATOM     50  F   UNL A   1      40.385  26.688  26.244  1.00  0.00    -0.200 F 
ENDBRANCH  26  40
BRANCH  27  51
ATOM     51  C   UNL A   1      40.779  33.815  38.575  1.00  0.00     0.064 A 
ATOM     52  C   UNL A   1      39.965  33.480  39.665  1.00  0.00     0.173 A 
ATOM     53  C   UNL A   1      41.612  34.940  38.714  1.00  0.00     0.173 A 
ATOM     54  F   UNL A   1      39.136  32.428  39.583  1.00  0.00    -0.203 F 
ATOM     55  C   UNL A   1      39.954  34.256  40.824  1.00  0.00     0.198 A 
ATOM     56  C   UNL A   1      41.629  35.691  39.887  1.00  0.00     0.198 A 
ATOM     57  F   UNL A   1      42.413  35.314  37.706  1.00  0.00    -0.203 F 
ATOM     58  F   UNL A   1      39.114  33.951  41.823  1.00  0.00    -0.200 F 
ATOM     59  C   UNL A   1      40.789  35.358  40.936  1.00  0.00     0.200 A 
ATOM     60  F   UNL A   1      42.450  36.744  39.994  1.00  0.00    -0.200 F 
ATOM     61  F   UNL A   1      40.771  36.107  42.047  1.00  0.00    -0.200 F 
ENDBRANCH  27  51
BRANCH  39  62
ATOM     62  C   UNL A   1      44.631  28.696  35.824  1.00  0.00     0.064 A 
ATOM     63  C   UNL A   1      45.925  29.142  35.521  1.00  0.00     0.173 A 
ATOM     64  C   UNL A   1      44.494  27.565  36.644  1.00  0.00     0.173 A 
ATOM     65  F   UNL A   1      46.103  30.210  34.728  1.00  0.00    -0.203 F 
ATOM     66  C   UNL A   1      47.042  28.457  35.989  1.00  0.00     0.198 A 
ATOM     67  C   UNL A   1      45.613  26.907  37.141  1.00  0.00     0.198 A 
ATOM     68  F   UNL A   1      43.276  27.107  36.968  1.00  0.00    -0.203 F 
ATOM     69  F   UNL A   1      48.269  28.862  35.633  1.00  0.00    -0.200 F 
ATOM     70  C   UNL A   1      46.885  27.347  36.804  1.00  0.00     0.200 A 
ATOM     71  F   UNL A   1      45.460  25.845  37.943  1.00  0.00    -0.200 F 
ATOM     72  F   UNL A   1      47.962  26.692  37.258  1.00  0.00    -0.200 F 
ENDBRANCH  39  62
ENDBRANCH  13  14
ENDBRANCH   6   8
ENDBRANCH   5   6
ENDBRANCH   4   5
ENDBRANCH   3   4
ENDBRANCH   2   3
ENDBRANCH   1   2
BRANCH   1  73
ATOM     73  C   UNL A   1      33.151  31.739  27.675  1.00  0.00     0.261 C 
BRANCH  73  74
ATOM     74  O   UNL A   1      33.993  30.856  26.923  1.00  0.00    -0.463 OA
BRANCH  74  75
ATOM     75  C   UNL A   1      33.725  29.542  27.054  1.00  0.00     0.311 C 
ATOM     76  O   UNL A   1      34.414  28.748  27.689  1.00  0.00    -0.252 OA
BRANCH  75  77
ATOM     77  C   UNL A   1      32.448  29.145  26.353  1.00  0.00     0.124 C 
ATOM     78  C   UNL A   1      31.676  28.082  27.167  1.00  0.00     0.042 C 
ATOM     79  C   UNL A   1      32.485  28.530  24.925  1.00  0.00     0.099 C 
ATOM     80  C   UNL A   1      31.487  26.963  26.132  1.00  0.00     0.086 C 
ATOM     81  C   UNL A   1      33.433  27.336  24.762  1.00  0.00     0.028 C 
ATOM     82  N   UNL A   1      31.249  27.771  24.959  1.00  0.00    -0.336 N 
ATOM     83  C   UNL A   1      32.868  26.349  25.805  1.00  0.00     0.027 C 
BRANCH  82  84
ATOM     84  C   UNL A   1      30.306  27.541  23.993  1.00  0.00     0.225 C 
ATOM     85  O   UNL A   1      29.385  26.746  24.167  1.00  0.00    -0.275 OA
BRANCH  84  86
ATOM     86  C   UNL A   1      30.435  28.341  22.706  1.00  0.00     0.132 C 
BRANCH  86  87
ATOM     87  C   UNL A   1      29.301  29.363  22.630  1.00  0.00     0.127 C 
ATOM     88  C   UNL A   1      29.426  30.490  23.656  1.00  0.00     0.033 C 
ATOM     89  O   UNL A   1      29.294  29.947  21.323  1.00  0.00    -0.378 OA
ATOM     90  C   UNL A   1      28.222  31.425  23.516  1.00  0.00     0.005 C 
ATOM     91  C   UNL A   1      28.116  30.715  21.092  1.00  0.00     0.160 C 
ATOM     92  C   UNL A   1      28.035  31.880  22.069  1.00  0.00     0.029 C 
ENDBRANCH  86  87
ENDBRANCH  84  86
ENDBRANCH  82  84
ENDBRANCH  75  77
ENDBRANCH  74  75
ENDBRANCH  73  74
ENDBRANCH   1  73
TORSDOF 17
ENDMDL
MODEL 2
REMARK VINA RESULT:     -11.1      1.575      2.467
REMARK SMILES O=C(OCCOCCOC(=O)[C@@H]1C[C@@H]2CC[C@H]1N2C(=O)C[C@H]1CCCCO1)c1ccc(-c2c3nc(c(-c4c(F)c(F)c(F)c(F)c4F)c4ccc([nH]4)c(-c4c(F)c(F)c(F)c(F)c4F)c4nc(c(-c5c(F)c(F)c(F)c(F)c5F)c5ccc2[nH]5)C=C4)C=C3)cc1
REMARK SMILES IDX 7 1 6 2 5 3 4 4 3 5 2 6 1 7 28 8 29 9 90 10 30 11 89 12
REMARK SMILES IDX 31 13 32 14 33 15 83 16 34 17 88 18 82 19 84 20 35 21 87 22
REMARK SMILES IDX 81 23 80 24 36 26 68 27 48 28 67 29 49 30 52 31 66 32 85 33
REMARK SMILES IDX 50 34 51 35 65 37 86 38 53 39 37 40 38 41 46 42 39 43 40 44
REMARK SMILES IDX 44 45 47 46 41 47 42 48 45 49 43 50 69 51 70 52 78 53 71 54
REMARK SMILES IDX 72 55 76 56 79 57 73 58 74 59 77 60 75 61 54 62 55 63 63 64
REMARK SMILES IDX 56 65 57 66 61 67 64 68 58 69 59 70 62 71 60 72 8 73 9 74
REMARK SMILES IDX 10 75 11 76 12 77 13 78 17 79 14 80 16 81 18 82 15 83 19 84
REMARK SMILES IDX 20 85 21 86 22 87 23 88 27 89 24 90 26 91 25 92
REMARK H PARENT 84 25 52 36
REMARK Flexibility Score: inf
ROOT
ATOM      1  C   UNL A   1      34.609  30.465  27.497  1.00  0.00     0.202 C 
ENDROOT
BRANCH   1   2
ATOM      2  O   UNL A   1      33.231  30.821  27.663  1.00  0.00    -0.374 OA
BRANCH   2   3
ATOM      3  C   UNL A   1      32.680  31.739  26.717  1.00  0.00     0.202 C 
BRANCH   3   4
ATOM      4  C   UNL A   1      31.744  32.824  27.262  1.00  0.00     0.261 C 
BRANCH   4   5
ATOM      5  O   UNL A   1      32.438  34.075  27.393  1.00  0.00    -0.460 OA
BRANCH   5   6
ATOM      6  C   UNL A   1      33.038  34.583  28.496  1.00  0.00     0.338 C 
ATOM      7  O   UNL A   1      32.641  35.654  28.948  1.00  0.00    -0.246 OA
BRANCH   6   8
ATOM      8  C   UNL A   1      34.182  33.912  29.183  1.00  0.00     0.060 A 
ATOM      9  C   UNL A   1      34.041  32.957  30.186  1.00  0.00     0.016 A 
ATOM     10  C   UNL A   1      35.482  34.197  28.732  1.00  0.00     0.016 A 
ATOM     11  C   UNL A   1      35.121  32.343  30.772  1.00  0.00     0.010 A 
ATOM     12  C   UNL A   1      36.591  33.544  29.287  1.00  0.00     0.010 A 
ATOM     13  C   UNL A   1      36.400  32.618  30.316  1.00  0.00    -0.014 A 
BRANCH  13  14
ATOM     14  C   UNL A   1      37.476  31.964  31.068  1.00  0.00     0.031 A 
ATOM     15  C   UNL A   1      38.313  30.957  30.352  1.00  0.00     0.074 A 
ATOM     16  C   UNL A   1      37.837  32.496  32.251  1.00  0.00     0.049 A 
ATOM     17  N   UNL A   1      39.369  30.317  30.769  1.00  0.00    -0.248 NA
ATOM     18  C   UNL A   1      37.927  30.652  28.962  1.00  0.00     0.031 C 
ATOM     19  C   UNL A   1      37.158  33.616  32.913  1.00  0.00     0.029 A 
ATOM     20  N   UNL A   1      38.897  32.222  33.069  1.00  0.00    -0.354 N 
ATOM     21  C   UNL A   1      39.766  29.526  29.702  1.00  0.00     0.074 A 
ATOM     22  C   UNL A   1      38.836  29.752  28.620  1.00  0.00     0.031 C 
ATOM     23  C   UNL A   1      37.837  33.951  34.020  1.00  0.00     0.029 A 
ATOM     24  C   UNL A   1      38.944  33.018  34.187  1.00  0.00     0.049 A 
ATOM     25  H   UNL A   1      39.562  31.521  32.876  1.00  0.00     0.167 HD
ATOM     26  C   UNL A   1      40.823  28.685  29.648  1.00  0.00     0.037 A 
ATOM     27  C   UNL A   1      39.773  32.960  35.244  1.00  0.00     0.037 A 
ATOM     28  C   UNL A   1      41.716  28.484  30.755  1.00  0.00     0.049 A 
ATOM     29  C   UNL A   1      40.854  31.913  35.210  1.00  0.00     0.074 A 
ATOM     30  C   UNL A   1      42.752  27.581  30.881  1.00  0.00     0.029 A 
ATOM     31  N   UNL A   1      41.669  29.216  31.937  1.00  0.00    -0.354 N 
ATOM     32  N   UNL A   1      41.168  31.080  34.244  1.00  0.00    -0.248 NA
ATOM     33  C   UNL A   1      41.686  31.785  36.409  1.00  0.00     0.031 C 
ATOM     34  C   UNL A   1      43.302  27.733  32.160  1.00  0.00     0.029 A 
ATOM     35  C   UNL A   1      42.649  28.774  32.807  1.00  0.00     0.049 A 
ATOM     36  H   UNL A   1      41.030  29.941  32.127  1.00  0.00     0.167 HD
ATOM     37  C   UNL A   1      42.241  30.338  34.711  1.00  0.00     0.074 A 
ATOM     38  C   UNL A   1      42.545  30.848  36.035  1.00  0.00     0.031 C 
ATOM     39  C   UNL A   1      42.911  29.319  34.116  1.00  0.00     0.037 A 
BRANCH  26  40
ATOM     40  C   UNL A   1      40.992  27.884  28.393  1.00  0.00     0.064 A 
ATOM     41  C   UNL A   1      40.364  26.642  28.211  1.00  0.00     0.173 A 
ATOM     42  C   UNL A   1      41.834  28.348  27.371  1.00  0.00     0.173 A 
ATOM     43  F   UNL A   1      39.580  26.134  29.174  1.00  0.00    -0.203 F 
ATOM     44  C   UNL A   1      40.590  25.886  27.063  1.00  0.00     0.198 A 
ATOM     45  C   UNL A   1      42.037  27.602  26.214  1.00  0.00     0.198 A 
ATOM     46  F   UNL A   1      42.473  29.520  27.503  1.00  0.00    -0.203 F 
ATOM     47  F   UNL A   1      40.029  24.675  26.938  1.00  0.00    -0.200 F 
ATOM     48  C   UNL A   1      41.422  26.369  26.064  1.00  0.00     0.200 A 
ATOM     49  F   UNL A   1      42.843  28.071  25.250  1.00  0.00    -0.200 F 
ATOM     50  F   UNL A   1      41.646  25.636  24.964  1.00  0.00    -0.200 F 
ENDBRANCH  26  40
BRANCH  27  51
ATOM     51  C   UNL A   1      39.557  33.832  36.430  1.00  0.00     0.064 A 
ATOM     52  C   UNL A   1      40.137  35.103  36.530  1.00  0.00     0.173 A 
ATOM     53  C   UNL A   1      38.797  33.381  37.525  1.00  0.00     0.173 A 
ATOM     54  F   UNL A   1      40.888  35.578  35.526  1.00  0.00    -0.203 F 
ATOM     55  C   UNL A   1      39.996  35.872  37.687  1.00  0.00     0.198 A 
ATOM     56  C   UNL A   1      38.624  34.166  38.662  1.00  0.00     0.198 A 
ATOM     57  F   UNL A   1      38.218  32.172  37.491  1.00  0.00    -0.203 F 
ATOM     58  F   UNL A   1      40.620  37.054  37.781  1.00  0.00    -0.200 F 
ATOM     59  C   UNL A   1      39.237  35.405  38.749  1.00  0.00     0.200 A 
ATOM     60  F   UNL A   1      37.876  33.715  39.677  1.00  0.00    -0.200 F 
ATOM     61  F   UNL A   1      39.110  36.141  39.862  1.00  0.00    -0.200 F 
ENDBRANCH  27  51
BRANCH  39  62
ATOM     62  C   UNL A   1      44.050  28.727  34.890  1.00  0.00     0.064 A 
ATOM     63  C   UNL A   1      45.348  29.249  34.804  1.00  0.00     0.173 A 
ATOM     64  C   UNL A   1      43.828  27.638  35.747  1.00  0.00     0.173 A 
ATOM     65  F   UNL A   1      45.609  30.279  33.987  1.00  0.00    -0.203 F 
ATOM     66  C   UNL A   1      46.394  28.675  35.520  1.00  0.00     0.198 A 
ATOM     67  C   UNL A   1      44.869  27.093  36.490  1.00  0.00     0.198 A 
ATOM     68  F   UNL A   1      42.601  27.111  35.868  1.00  0.00    -0.203 F 
ATOM     69  F   UNL A   1      47.640  29.148  35.374  1.00  0.00    -0.200 F 
ATOM     70  C   UNL A   1      46.152  27.605  36.367  1.00  0.00     0.200 A 
ATOM     71  F   UNL A   1      44.630  26.070  37.322  1.00  0.00    -0.200 F 
ATOM     72  F   UNL A   1      47.161  27.058  37.060  1.00  0.00    -0.200 F 
ENDBRANCH  39  62
ENDBRANCH  13  14
ENDBRANCH   6   8
ENDBRANCH   5   6
ENDBRANCH   4   5
ENDBRANCH   3   4
ENDBRANCH   2   3
ENDBRANCH   1   2
BRANCH   1  73
ATOM     73  C   UNL A   1      34.727  28.943  27.390  1.00  0.00     0.261 C 
BRANCH  73  74
ATOM     74  O   UNL A   1      34.329  28.587  26.060  1.00  0.00    -0.463 OA
BRANCH  74  75
ATOM     75  C   UNL A   1      33.627  27.442  25.948  1.00  0.00     0.311 C 
ATOM     76  O   UNL A   1      34.064  26.326  26.213  1.00  0.00    -0.252 OA
BRANCH  75  77
ATOM     77  C   UNL A   1      32.210  27.682  25.484  1.00  0.00     0.124 C 
ATOM     78  C   UNL A   1      31.213  26.805  26.275  1.00  0.00     0.042 C 
ATOM     79  C   UNL A   1      31.804  27.423  24.006  1.00  0.00     0.099 C 
ATOM     80  C   UNL A   1      30.462  26.080  25.148  1.00  0.00     0.086 C 
ATOM     81  C   UNL A   1      32.187  26.040  23.466  1.00  0.00     0.028 C 
ATOM     82  N   UNL A   1      30.389  27.157  24.188  1.00  0.00    -0.336 N 
ATOM     83  C   UNL A   1      31.440  25.110  24.444  1.00  0.00     0.027 C 
BRANCH  82  84
ATOM     84  C   UNL A   1      29.305  27.491  23.424  1.00  0.00     0.225 C 
ATOM     85  O   UNL A   1      28.168  27.127  23.723  1.00  0.00    -0.275 OA
BRANCH  84  86
ATOM     86  C   UNL A   1      29.567  28.359  22.203  1.00  0.00     0.132 C 
BRANCH  86  87
ATOM     87  C   UNL A   1      28.826  29.686  22.358  1.00  0.00     0.127 C 
ATOM     88  C   UNL A   1      29.374  30.562  23.485  1.00  0.00     0.033 C 
ATOM     89  O   UNL A   1      28.931  30.418  21.132  1.00  0.00    -0.378 OA
ATOM     90  C   UNL A   1      28.536  31.840  23.575  1.00  0.00     0.005 C 
ATOM     91  C   UNL A   1      28.057  31.544  21.110  1.00  0.00     0.160 C 
ATOM     92  C   UNL A   1      28.420  32.527  22.215  1.00  0.00     0.029 C 
ENDBRANCH  86  87
ENDBRANCH  84  86
ENDBRANCH  82  84
ENDBRANCH  75  77
ENDBRANCH  74  75
ENDBRANCH  73  74
ENDBRANCH   1  73
TORSDOF 17
ENDMDL
MODEL 3
REMARK VINA RESULT:     -10.9      5.605      9.419
REMARK SMILES O=C(OCCOCCOC(=O)[C@@H]1C[C@@H]2CC[C@H]1N2C(=O)C[C@H]1CCCCO1)c1ccc(-c2c3nc(c(-c4c(F)c(F)c(F)c(F)c4F)c4ccc([nH]4)c(-c4c(F)c(F)c(F)c(F)c4F)c4nc(c(-c5c(F)c(F)c(F)c(F)c5F)c5ccc2[nH]5)C=C4)C=C3)cc1
REMARK SMILES IDX 7 1 6 2 5 3 4 4 3 5 2 6 1 7 28 8 29 9 90 10 30 11 89 12
REMARK SMILES IDX 31 13 32 14 33 15 83 16 34 17 88 18 82 19 84 20 35 21 87 22
REMARK SMILES IDX 81 23 80 24 36 26 68 27 48 28 67 29 49 30 52 31 66 32 85 33
REMARK SMILES IDX 50 34 51 35 65 37 86 38 53 39 37 40 38 41 46 42 39 43 40 44
REMARK SMILES IDX 44 45 47 46 41 47 42 48 45 49 43 50 69 51 70 52 78 53 71 54
REMARK SMILES IDX 72 55 76 56 79 57 73 58 74 59 77 60 75 61 54 62 55 63 63 64
REMARK SMILES IDX 56 65 57 66 61 67 64 68 58 69 59 70 62 71 60 72 8 73 9 74
REMARK SMILES IDX 10 75 11 76 12 77 13 78 17 79 14 80 16 81 18 82 15 83 19 84
REMARK SMILES IDX 20 85 21 86 22 87 23 88 27 89 24 90 26 91 25 92
REMARK H PARENT 84 25 52 36
REMARK Flexibility Score: inf
ROOT
ATOM      1  C   UNL A   1      35.112  21.017  24.906  1.00  0.00     0.202 C 
ENDROOT
BRANCH   1   2
ATOM      2  O   UNL A   1      35.881  21.927  24.109  1.00  0.00    -0.374 OA
BRANCH   2   3
ATOM      3  C   UNL A   1      37.235  22.152  24.508  1.00  0.00     0.202 C 
BRANCH   3   4
ATOM      4  C   UNL A   1      37.702  21.474  25.801  1.00  0.00     0.261 C 
BRANCH   4   5
ATOM      5  O   UNL A   1      39.029  20.945  25.646  1.00  0.00    -0.460 OA
BRANCH   5   6
ATOM      6  C   UNL A   1      40.080  21.071  26.491  1.00  0.00     0.338 C 
ATOM      7  O   UNL A   1      40.590  20.057  26.959  1.00  0.00    -0.246 OA
BRANCH   6   8
ATOM      8  C   UNL A   1      40.642  22.393  26.901  1.00  0.00     0.060 A 
ATOM      9  C   UNL A   1      40.370  23.594  26.252  1.00  0.00     0.016 A 
ATOM     10  C   UNL A   1      41.427  22.444  28.065  1.00  0.00     0.016 A 
ATOM     11  C   UNL A   1      40.885  24.793  26.680  1.00  0.00     0.010 A 
ATOM     12  C   UNL A   1      41.921  23.665  28.542  1.00  0.00     0.010 A 
ATOM     13  C   UNL A   1      41.648  24.840  27.836  1.00  0.00    -0.014 A 
BRANCH  13  14
ATOM     14  C   UNL A   1      42.209  26.158  28.150  1.00  0.00     0.031 A 
ATOM     15  C   UNL A   1      43.517  26.524  27.532  1.00  0.00     0.074 A 
ATOM     16  C   UNL A   1      41.405  27.068  28.733  1.00  0.00     0.049 A 
ATOM     17  N   UNL A   1      44.166  27.653  27.582  1.00  0.00    -0.248 NA
ATOM     18  C   UNL A   1      44.170  25.485  26.714  1.00  0.00     0.031 C 
ATOM     19  C   UNL A   1      40.035  26.808  29.192  1.00  0.00     0.029 A 
ATOM     20  N   UNL A   1      41.587  28.400  28.973  1.00  0.00    -0.354 N 
ATOM     21  C   UNL A   1      45.307  27.458  26.818  1.00  0.00     0.074 A 
ATOM     22  C   UNL A   1      45.273  26.102  26.322  1.00  0.00     0.031 C 
ATOM     23  C   UNL A   1      39.493  27.954  29.631  1.00  0.00     0.029 A 
ATOM     24  C   UNL A   1      40.503  29.003  29.561  1.00  0.00     0.049 A 
ATOM     25  H   UNL A   1      42.416  28.882  28.747  1.00  0.00     0.167 HD
ATOM     26  C   UNL A   1      46.290  28.349  26.564  1.00  0.00     0.037 A 
ATOM     27  C   UNL A   1      40.370  30.257  30.027  1.00  0.00     0.037 A 
ATOM     28  C   UNL A   1      46.286  29.686  27.089  1.00  0.00     0.049 A 
ATOM     29  C   UNL A   1      41.544  31.182  29.850  1.00  0.00     0.074 A 
ATOM     30  C   UNL A   1      47.268  30.652  27.011  1.00  0.00     0.029 A 
ATOM     31  N   UNL A   1      45.226  30.241  27.797  1.00  0.00    -0.354 N 
ATOM     32  N   UNL A   1      42.678  30.968  29.221  1.00  0.00    -0.248 NA
ATOM     33  C   UNL A   1      41.433  32.513  30.452  1.00  0.00     0.031 C 
ATOM     34  C   UNL A   1      46.821  31.777  27.714  1.00  0.00     0.029 A 
ATOM     35  C   UNL A   1      45.535  31.535  28.177  1.00  0.00     0.049 A 
ATOM     36  H   UNL A   1      44.379  29.780  27.999  1.00  0.00     0.167 HD
ATOM     37  C   UNL A   1      43.409  32.139  29.341  1.00  0.00     0.074 A 
ATOM     38  C   UNL A   1      42.572  33.072  30.072  1.00  0.00     0.031 C 
ATOM     39  C   UNL A   1      44.662  32.423  28.903  1.00  0.00     0.037 A 
BRANCH  26  40
ATOM     40  C   UNL A   1      47.460  27.862  25.763  1.00  0.00     0.064 A 
ATOM     41  C   UNL A   1      47.441  27.832  24.360  1.00  0.00     0.173 A 
ATOM     42  C   UNL A   1      48.603  27.375  26.413  1.00  0.00     0.173 A 
ATOM     43  F   UNL A   1      46.357  28.249  23.690  1.00  0.00    -0.203 F 
ATOM     44  C   UNL A   1      48.515  27.312  23.640  1.00  0.00     0.198 A 
ATOM     45  C   UNL A   1      49.685  26.880  25.691  1.00  0.00     0.198 A 
ATOM     46  F   UNL A   1      48.664  27.363  27.753  1.00  0.00    -0.203 F 
ATOM     47  F   UNL A   1      48.450  27.236  22.303  1.00  0.00    -0.200 F 
ATOM     48  C   UNL A   1      49.638  26.842  24.306  1.00  0.00     0.200 A 
ATOM     49  F   UNL A   1      50.768  26.426  26.337  1.00  0.00    -0.200 F 
ATOM     50  F   UNL A   1      50.666  26.334  23.612  1.00  0.00    -0.200 F 
ENDBRANCH  26  40
BRANCH  27  51
ATOM     51  C   UNL A   1      39.148  30.668  30.770  1.00  0.00     0.064 A 
ATOM     52  C   UNL A   1      38.995  30.420  32.141  1.00  0.00     0.173 A 
ATOM     53  C   UNL A   1      38.073  31.282  30.102  1.00  0.00     0.173 A 
ATOM     54  F   UNL A   1      39.980  29.821  32.826  1.00  0.00    -0.203 F 
ATOM     55  C   UNL A   1      37.808  30.734  32.803  1.00  0.00     0.198 A 
ATOM     56  C   UNL A   1      36.904  31.630  30.773  1.00  0.00     0.198 A 
ATOM     57  F   UNL A   1      38.157  31.544  28.790  1.00  0.00    -0.203 F 
ATOM     58  F   UNL A   1      37.665  30.421  34.098  1.00  0.00    -0.200 F 
ATOM     59  C   UNL A   1      36.765  31.342  32.121  1.00  0.00     0.200 A 
ATOM     60  F   UNL A   1      35.907  32.233  30.110  1.00  0.00    -0.200 F 
ATOM     61  F   UNL A   1      35.623  31.635  32.757  1.00  0.00    -0.200 F 
ENDBRANCH  27  51
BRANCH  39  62
ATOM     62  C   UNL A   1      45.169  33.805  29.184  1.00  0.00     0.064 A 
ATOM     63  C   UNL A   1      45.884  34.104  30.353  1.00  0.00     0.173 A 
ATOM     64  C   UNL A   1      44.956  34.836  28.256  1.00  0.00     0.173 A 
ATOM     65  F   UNL A   1      46.097  33.153  31.275  1.00  0.00    -0.203 F 
ATOM     66  C   UNL A   1      46.333  35.396  30.602  1.00  0.00     0.198 A 
ATOM     67  C   UNL A   1      45.441  36.117  28.491  1.00  0.00     0.198 A 
ATOM     68  F   UNL A   1      44.286  34.596  27.119  1.00  0.00    -0.203 F 
ATOM     69  F   UNL A   1      46.956  35.675  31.755  1.00  0.00    -0.200 F 
ATOM     70  C   UNL A   1      46.119  36.399  29.668  1.00  0.00     0.200 A 
ATOM     71  F   UNL A   1      45.249  37.081  27.580  1.00  0.00    -0.200 F 
ATOM     72  F   UNL A   1      46.558  37.642  29.908  1.00  0.00    -0.200 F 
ENDBRANCH  39  62
ENDBRANCH  13  14
ENDBRANCH   6   8
ENDBRANCH   5   6
ENDBRANCH   4   5
ENDBRANCH   3   4
ENDBRANCH   2   3
ENDBRANCH   1   2
BRANCH   1  73
ATOM     73  C   UNL A   1      33.644  21.449  24.888  1.00  0.00     0.261 C 
BRANCH  73  74
ATOM     74  O   UNL A   1      33.613  22.798  24.407  1.00  0.00    -0.463 OA
BRANCH  74  75
ATOM     75  C   UNL A   1      33.114  23.711  25.265  1.00  0.00     0.311 C 
ATOM     76  O   UNL A   1      33.577  23.951  26.377  1.00  0.00    -0.252 OA
BRANCH  75  77
ATOM     77  C   UNL A   1      31.926  24.446  24.693  1.00  0.00     0.124 C 
ATOM     78  C   UNL A   1      31.638  23.990  23.245  1.00  0.00     0.042 C 
ATOM     79  C   UNL A   1      31.932  25.996  24.575  1.00  0.00     0.099 C 
ATOM     80  C   UNL A   1      31.640  25.325  22.484  1.00  0.00     0.086 C 
ATOM     81  C   UNL A   1      33.159  26.583  23.868  1.00  0.00     0.028 C 
ATOM     82  N   UNL A   1      31.000  26.157  23.475  1.00  0.00    -0.336 N 
ATOM     83  C   UNL A   1      33.078  25.897  22.488  1.00  0.00     0.027 C 
BRANCH  82  84
ATOM     84  C   UNL A   1      30.037  27.101  23.242  1.00  0.00     0.225 C 
ATOM     85  O   UNL A   1      28.864  26.921  23.567  1.00  0.00    -0.275 OA
BRANCH  84  86
ATOM     86  C   UNL A   1      30.490  28.398  22.591  1.00  0.00     0.132 C 
BRANCH  86  87
ATOM     87  C   UNL A   1      29.320  29.379  22.548  1.00  0.00     0.127 C 
ATOM     88  C   UNL A   1      29.399  30.471  23.616  1.00  0.00     0.033 C 
ATOM     89  O   UNL A   1      29.295  30.012  21.264  1.00  0.00    -0.378 OA
ATOM     90  C   UNL A   1      28.161  31.365  23.506  1.00  0.00     0.005 C 
ATOM     91  C   UNL A   1      28.091  30.744  21.056  1.00  0.00     0.160 C 
ATOM     92  C   UNL A   1      27.962  31.867  22.076  1.00  0.00     0.029 C 
ENDBRANCH  86  87
ENDBRANCH  84  86
ENDBRANCH  82  84
ENDBRANCH  75  77
ENDBRANCH  74  75
ENDBRANCH  73  74
ENDBRANCH   1  73
TORSDOF 17
ENDMDL
