MODEL 1
REMARK VINA RESULT:     -11.5      0.000      0.000
REMARK SMILES C[C@@](NC(=O)c1cc(Br)c[nH]1)(C(=O)OCCOCCOC(=O)c1ccc(-c2c3nc(c(-c4c(F)c(F)c(F)c(F)c4F)c4ccc([nH]4)c(-c4c(F)c(F)c(F)c(F)c4F)c4nc(c(-c5c(F)c(F)c(F)c(F)c5F)c5ccc2[nH]5)C=C4)C=C3)cc1)C(F)(F)F
REMARK SMILES IDX 17 1 16 2 15 3 14 4 12 5 13 6 2 7 1 8 3 9 4 10 5 12 6 13
REMARK SMILES IDX 7 14 11 15 8 16 10 17 9 19 86 20 87 21 88 22 89 23 18 24
REMARK SMILES IDX 19 25 20 26 21 27 22 28 23 29 24 30 85 31 25 32 84 33 26 34
REMARK SMILES IDX 27 35 28 36 78 37 29 38 83 39 77 40 79 41 30 42 82 43 76 44
REMARK SMILES IDX 75 45 31 47 63 48 43 49 62 50 44 51 47 52 61 53 80 54 45 55
REMARK SMILES IDX 46 56 60 58 81 59 48 60 32 61 33 62 41 63 34 64 35 65 39 66
REMARK SMILES IDX 42 67 36 68 37 69 40 70 38 71 64 72 65 73 73 74 66 75 67 76
REMARK SMILES IDX 71 77 74 78 68 79 69 80 72 81 70 82 49 83 50 84 58 85 51 86
REMARK SMILES IDX 52 87 56 88 59 89 53 90 54 91 57 92 55 93
REMARK H PARENT 3 11 11 18 79 46 47 57
REMARK Flexibility Score: inf
ROOT
ATOM      1  O   UNL A   1      31.742  29.786  27.153  1.00  0.00    -0.374 OA
ENDROOT
BRANCH   1   2
ATOM      2  C   UNL A   1      32.559  28.693  26.766  1.00  0.00     0.202 C 
BRANCH   2   3
ATOM      3  C   UNL A   1      31.864  27.367  26.440  1.00  0.00     0.261 C 
BRANCH   3   4
ATOM      4  O   UNL A   1      32.216  26.773  25.185  1.00  0.00    -0.461 OA
BRANCH   4   5
ATOM      5  C   UNL A   1      31.245  26.801  24.221  1.00  0.00     0.341 C 
ATOM      6  O   UNL A   1      30.157  26.246  24.322  1.00  0.00    -0.249 OA
BRANCH   5   7
ATOM      7  C   UNL A   1      31.746  27.467  22.939  1.00  0.00     0.231 C 
ATOM      8  C   UNL A   1      33.197  27.973  23.045  1.00  0.00     0.058 C 
BRANCH   7   9
ATOM      9  N   UNL A   1      31.621  26.576  21.733  1.00  0.00    -0.328 N 
ATOM     10  C   UNL A   1      32.552  25.643  21.349  1.00  0.00     0.268 C 
ATOM     11  H   UNL A   1      30.812  26.667  21.178  1.00  0.00     0.165 HD
ATOM     12  O   UNL A   1      33.070  25.756  20.242  1.00  0.00    -0.268 OA
BRANCH  10  13
ATOM     13  C   UNL A   1      32.816  24.545  22.247  1.00  0.00     0.105 A 
ATOM     14  C   UNL A   1      33.955  24.297  22.999  1.00  0.00     0.049 A 
ATOM     15  N   UNL A   1      31.977  23.463  22.436  1.00  0.00    -0.356 N 
ATOM     16  C   UNL A   1      33.742  23.098  23.706  1.00  0.00     0.036 A 
ATOM     17  C   UNL A   1      32.520  22.594  23.349  1.00  0.00     0.098 A 
ATOM     18  H   UNL A   1      31.115  23.333  21.981  1.00  0.00     0.166 HD
ATOM     19  Br  UNL A   1      34.941  22.363  24.939  1.00  0.00    -0.049 Br
ENDBRANCH  10  13
ENDBRANCH   7   9
BRANCH   7  20
ATOM     20  C   UNL A   1      30.824  28.695  22.807  1.00  0.00     0.422 C 
ATOM     21  F   UNL A   1      31.400  29.703  22.116  1.00  0.00    -0.168 F 
ATOM     22  F   UNL A   1      29.694  28.353  22.131  1.00  0.00    -0.168 F 
ATOM     23  F   UNL A   1      30.415  29.181  24.000  1.00  0.00    -0.168 F 
ENDBRANCH   7  20
ENDBRANCH   5   7
ENDBRANCH   4   5
ENDBRANCH   3   4
ENDBRANCH   2   3
ENDBRANCH   1   2
BRANCH   1  24
ATOM     24  C   UNL A   1      31.651  30.911  26.277  1.00  0.00     0.202 C 
BRANCH  24  25
ATOM     25  C   UNL A   1      32.035  32.276  26.849  1.00  0.00     0.261 C 
BRANCH  25  26
ATOM     26  O   UNL A   1      32.947  32.142  27.960  1.00  0.00    -0.460 OA
BRANCH  26  27
ATOM     27  C   UNL A   1      33.892  33.109  28.017  1.00  0.00     0.338 C 
ATOM     28  O   UNL A   1      33.709  34.310  28.148  1.00  0.00    -0.246 OA
BRANCH  27  29
ATOM     29  C   UNL A   1      35.248  32.540  28.033  1.00  0.00     0.060 A 
ATOM     30  C   UNL A   1      35.354  31.143  28.052  1.00  0.00     0.016 A 
ATOM     31  C   UNL A   1      36.368  33.343  28.260  1.00  0.00     0.016 A 
ATOM     32  C   UNL A   1      36.560  30.544  28.406  1.00  0.00     0.010 A 
ATOM     33  C   UNL A   1      37.578  32.740  28.621  1.00  0.00     0.010 A 
ATOM     34  C   UNL A   1      37.655  31.342  28.765  1.00  0.00    -0.014 A 
BRANCH  34  35
ATOM     35  C   UNL A   1      38.763  30.713  29.528  1.00  0.00     0.031 A 
ATOM     36  C   UNL A   1      38.927  31.070  30.984  1.00  0.00     0.074 A 
ATOM     37  C   UNL A   1      39.552  29.778  28.972  1.00  0.00     0.049 A 
ATOM     38  N   UNL A   1      39.760  30.591  31.872  1.00  0.00    -0.248 NA
ATOM     39  C   UNL A   1      38.022  32.107  31.510  1.00  0.00     0.031 C 
ATOM     40  C   UNL A   1      39.474  29.319  27.589  1.00  0.00     0.029 A 
ATOM     41  N   UNL A   1      40.571  29.039  29.520  1.00  0.00    -0.354 N 
ATOM     42  C   UNL A   1      39.478  31.262  33.056  1.00  0.00     0.074 A 
ATOM     43  C   UNL A   1      38.422  32.207  32.769  1.00  0.00     0.031 C 
ATOM     44  C   UNL A   1      40.406  28.370  27.394  1.00  0.00     0.029 A 
ATOM     45  C   UNL A   1      41.149  28.163  28.637  1.00  0.00     0.049 A 
ATOM     46  H   UNL A   1      40.859  29.129  30.457  1.00  0.00     0.167 HD
ATOM     47  C   UNL A   1      40.038  31.098  34.278  1.00  0.00     0.037 A 
ATOM     48  C   UNL A   1      42.161  27.292  28.817  1.00  0.00     0.037 A 
ATOM     49  C   UNL A   1      41.083  30.156  34.574  1.00  0.00     0.049 A 
ATOM     50  C   UNL A   1      42.794  27.155  30.177  1.00  0.00     0.074 A 
ATOM     51  C   UNL A   1      41.709  29.910  35.783  1.00  0.00     0.029 A 
ATOM     52  N   UNL A   1      41.658  29.304  33.644  1.00  0.00    -0.354 N 
ATOM     53  N   UNL A   1      42.496  27.768  31.296  1.00  0.00    -0.248 NA
ATOM     54  C   UNL A   1      43.896  26.188  30.300  1.00  0.00     0.031 C 
ATOM     55  C   UNL A   1      42.686  28.930  35.579  1.00  0.00     0.029 A 
ATOM     56  C   UNL A   1      42.642  28.540  34.249  1.00  0.00     0.049 A 
ATOM     57  H   UNL A   1      41.404  29.250  32.695  1.00  0.00     0.167 HD
ATOM     58  C   UNL A   1      43.346  27.241  32.259  1.00  0.00     0.074 A 
ATOM     59  C   UNL A   1      44.169  26.253  31.595  1.00  0.00     0.031 C 
ATOM     60  C   UNL A   1      43.437  27.546  33.578  1.00  0.00     0.037 A 
BRANCH  47  61
ATOM     61  C   UNL A   1      39.538  31.975  35.386  1.00  0.00     0.064 A 
ATOM     62  C   UNL A   1      38.548  31.538  36.278  1.00  0.00     0.173 A 
ATOM     63  C   UNL A   1      40.070  33.260  35.569  1.00  0.00     0.173 A 
ATOM     64  F   UNL A   1      37.996  30.324  36.131  1.00  0.00    -0.203 F 
ATOM     65  C   UNL A   1      38.091  32.365  37.301  1.00  0.00     0.198 A 
ATOM     66  C   UNL A   1      39.628  34.076  36.608  1.00  0.00     0.198 A 
ATOM     67  F   UNL A   1      41.019  33.723  34.744  1.00  0.00    -0.203 F 
ATOM     68  F   UNL A   1      37.116  31.943  38.116  1.00  0.00    -0.200 F 
ATOM     69  C   UNL A   1      38.636  33.630  37.468  1.00  0.00     0.200 A 
ATOM     70  F   UNL A   1      40.158  35.295  36.772  1.00  0.00    -0.200 F 
ATOM     71  F   UNL A   1      38.197  34.424  38.455  1.00  0.00    -0.200 F 
ENDBRANCH  47  61
BRANCH  48  72
ATOM     72  C   UNL A   1      42.629  26.459  27.681  1.00  0.00     0.064 A 
ATOM     73  C   UNL A   1      43.630  26.916  26.813  1.00  0.00     0.173 A 
ATOM     74  C   UNL A   1      42.069  25.198  27.428  1.00  0.00     0.173 A 
ATOM     75  F   UNL A   1      44.176  28.127  27.000  1.00  0.00    -0.203 F 
ATOM     76  C   UNL A   1      44.041  26.152  25.724  1.00  0.00     0.198 A 
ATOM     77  C   UNL A   1      42.497  24.425  26.351  1.00  0.00     0.198 A 
ATOM     78  F   UNL A   1      41.105  24.720  28.227  1.00  0.00    -0.203 F 
ATOM     79  F   UNL A   1      44.969  26.630  24.884  1.00  0.00    -0.200 F 
ATOM     80  C   UNL A   1      43.478  24.904  25.497  1.00  0.00     0.200 A 
ATOM     81  F   UNL A   1      41.954  23.219  26.137  1.00  0.00    -0.200 F 
ATOM     82  F   UNL A   1      43.873  24.171  24.447  1.00  0.00    -0.200 F 
ENDBRANCH  48  72
BRANCH  60  83
ATOM     83  C   UNL A   1      44.424  26.772  34.399  1.00  0.00     0.064 A 
ATOM     84  C   UNL A   1      44.085  25.550  34.996  1.00  0.00     0.173 A 
ATOM     85  C   UNL A   1      45.737  27.242  34.555  1.00  0.00     0.173 A 
ATOM     86  F   UNL A   1      42.839  25.067  34.886  1.00  0.00    -0.203 F 
ATOM     87  C   UNL A   1      45.021  24.838  35.743  1.00  0.00     0.198 A 
ATOM     88  C   UNL A   1      46.676  26.515  35.281  1.00  0.00     0.198 A 
ATOM     89  F   UNL A   1      46.112  28.402  33.995  1.00  0.00    -0.203 F 
ATOM     90  F   UNL A   1      44.664  23.692  36.341  1.00  0.00    -0.200 F 
ATOM     91  C   UNL A   1      46.315  25.316  35.880  1.00  0.00     0.200 A 
ATOM     92  F   UNL A   1      47.928  26.974  35.404  1.00  0.00    -0.200 F 
ATOM     93  F   UNL A   1      47.214  24.627  36.595  1.00  0.00    -0.200 F 
ENDBRANCH  60  83
ENDBRANCH  34  35
ENDBRANCH  27  29
ENDBRANCH  26  27
ENDBRANCH  25  26
ENDBRANCH  24  25
ENDBRANCH   1  24
TORSDOF 17
ENDMDL
MODEL 2
REMARK VINA RESULT:     -11.2      0.596      1.726
REMARK SMILES C[C@@](NC(=O)c1cc(Br)c[nH]1)(C(=O)OCCOCCOC(=O)c1ccc(-c2c3nc(c(-c4c(F)c(F)c(F)c(F)c4F)c4ccc([nH]4)c(-c4c(F)c(F)c(F)c(F)c4F)c4nc(c(-c5c(F)c(F)c(F)c(F)c5F)c5ccc2[nH]5)C=C4)C=C3)cc1)C(F)(F)F
REMARK SMILES IDX 17 1 16 2 15 3 14 4 12 5 13 6 2 7 1 8 3 9 4 10 5 12 6 13
REMARK SMILES IDX 7 14 11 15 8 16 10 17 9 19 86 20 87 21 88 22 89 23 18 24
REMARK SMILES IDX 19 25 20 26 21 27 22 28 23 29 24 30 85 31 25 32 84 33 26 34
REMARK SMILES IDX 27 35 28 36 78 37 29 38 83 39 77 40 79 41 30 42 82 43 76 44
REMARK SMILES IDX 75 45 31 47 63 48 43 49 62 50 44 51 47 52 61 53 80 54 45 55
REMARK SMILES IDX 46 56 60 58 81 59 48 60 32 61 33 62 41 63 34 64 35 65 39 66
REMARK SMILES IDX 42 67 36 68 37 69 40 70 38 71 64 72 65 73 73 74 66 75 67 76
REMARK SMILES IDX 71 77 74 78 68 79 69 80 72 81 70 82 49 83 50 84 58 85 51 86
REMARK SMILES IDX 52 87 56 88 59 89 53 90 54 91 57 92 55 93
REMARK H PARENT 3 11 11 18 79 46 47 57
REMARK Flexibility Score: inf
ROOT
ATOM      1  O   UNL A   1      31.778  29.981  27.267  1.00  0.00    -0.374 OA
ENDROOT
BRANCH   1   2
ATOM      2  C   UNL A   1      32.653  28.901  26.987  1.00  0.00     0.202 C 
BRANCH   2   3
ATOM      3  C   UNL A   1      33.277  28.838  25.589  1.00  0.00     0.261 C 
BRANCH   3   4
ATOM      4  O   UNL A   1      33.182  27.573  24.923  1.00  0.00    -0.461 OA
BRANCH   4   5
ATOM      5  C   UNL A   1      32.004  27.331  24.273  1.00  0.00     0.341 C 
ATOM      6  O   UNL A   1      31.072  26.693  24.749  1.00  0.00    -0.249 OA
BRANCH   5   7
ATOM      7  C   UNL A   1      32.054  27.807  22.821  1.00  0.00     0.231 C 
ATOM      8  C   UNL A   1      33.380  28.501  22.456  1.00  0.00     0.058 C 
BRANCH   7   9
ATOM      9  N   UNL A   1      31.787  26.702  21.835  1.00  0.00    -0.328 N 
ATOM     10  C   UNL A   1      32.697  25.740  21.473  1.00  0.00     0.268 C 
ATOM     11  H   UNL A   1      30.895  26.666  21.418  1.00  0.00     0.165 HD
ATOM     12  O   UNL A   1      33.022  25.656  20.293  1.00  0.00    -0.268 OA
BRANCH  10  13
ATOM     13  C   UNL A   1      33.166  24.838  22.497  1.00  0.00     0.105 A 
ATOM     14  C   UNL A   1      32.585  23.661  22.946  1.00  0.00     0.049 A 
ATOM     15  N   UNL A   1      34.268  25.062  23.301  1.00  0.00    -0.356 N 
ATOM     16  C   UNL A   1      33.407  23.145  23.965  1.00  0.00     0.036 A 
ATOM     17  C   UNL A   1      34.440  24.018  24.175  1.00  0.00     0.098 A 
ATOM     18  H   UNL A   1      34.847  25.856  23.254  1.00  0.00     0.166 HD
ATOM     19  Br  UNL A   1      33.118  21.519  24.844  1.00  0.00    -0.049 Br
ENDBRANCH  10  13
ENDBRANCH   7   9
BRANCH   7  20
ATOM     20  C   UNL A   1      30.935  28.866  22.768  1.00  0.00     0.422 C 
ATOM     21  F   UNL A   1      31.179  29.832  21.855  1.00  0.00    -0.168 F 
ATOM     22  F   UNL A   1      29.761  28.279  22.413  1.00  0.00    -0.168 F 
ATOM     23  F   UNL A   1      30.712  29.461  23.960  1.00  0.00    -0.168 F 
ENDBRANCH   7  20
ENDBRANCH   5   7
ENDBRANCH   4   5
ENDBRANCH   3   4
ENDBRANCH   2   3
ENDBRANCH   1   2
BRANCH   1  24
ATOM     24  C   UNL A   1      31.899  31.174  26.490  1.00  0.00     0.202 C 
BRANCH  24  25
ATOM     25  C   UNL A   1      31.795  32.507  27.231  1.00  0.00     0.261 C 
BRANCH  25  26
ATOM     26  O   UNL A   1      33.026  33.256  27.137  1.00  0.00    -0.460 OA
BRANCH  26  27
ATOM     27  C   UNL A   1      33.689  33.373  28.311  1.00  0.00     0.338 C 
ATOM     28  O   UNL A   1      33.273  33.872  29.346  1.00  0.00    -0.246 OA
BRANCH  27  29
ATOM     29  C   UNL A   1      34.992  32.691  28.265  1.00  0.00     0.060 A 
ATOM     30  C   UNL A   1      34.995  31.307  28.475  1.00  0.00     0.016 A 
ATOM     31  C   UNL A   1      36.187  33.414  28.252  1.00  0.00     0.016 A 
ATOM     32  C   UNL A   1      36.187  30.654  28.782  1.00  0.00     0.010 A 
ATOM     33  C   UNL A   1      37.384  32.758  28.566  1.00  0.00     0.010 A 
ATOM     34  C   UNL A   1      37.373  31.392  28.903  1.00  0.00    -0.014 A 
BRANCH  34  35
ATOM     35  C   UNL A   1      38.513  30.775  29.627  1.00  0.00     0.031 A 
ATOM     36  C   UNL A   1      38.718  31.127  31.079  1.00  0.00     0.074 A 
ATOM     37  C   UNL A   1      39.298  29.855  29.042  1.00  0.00     0.049 A 
ATOM     38  N   UNL A   1      39.585  30.655  31.938  1.00  0.00    -0.248 NA
ATOM     39  C   UNL A   1      37.815  32.147  31.639  1.00  0.00     0.031 C 
ATOM     40  C   UNL A   1      39.183  29.402  27.659  1.00  0.00     0.029 A 
ATOM     41  N   UNL A   1      40.344  29.127  29.553  1.00  0.00    -0.354 N 
ATOM     42  C   UNL A   1      39.332  31.316  33.134  1.00  0.00     0.074 A 
ATOM     43  C   UNL A   1      38.253  32.247  32.885  1.00  0.00     0.031 C 
ATOM     44  C   UNL A   1      40.121  28.467  27.430  1.00  0.00     0.029 A 
ATOM     45  C   UNL A   1      40.906  28.264  28.647  1.00  0.00     0.049 A 
ATOM     46  H   UNL A   1      40.661  29.216  30.481  1.00  0.00     0.167 HD
ATOM     47  C   UNL A   1      39.932  31.154  34.337  1.00  0.00     0.037 A 
ATOM     48  C   UNL A   1      41.936  27.407  28.790  1.00  0.00     0.037 A 
ATOM     49  C   UNL A   1      41.000  30.226  34.595  1.00  0.00     0.049 A 
ATOM     50  C   UNL A   1      42.613  27.272  30.129  1.00  0.00     0.074 A 
ATOM     51  C   UNL A   1      41.667  29.982  35.782  1.00  0.00     0.029 A 
ATOM     52  N   UNL A   1      41.557  29.387  33.642  1.00  0.00    -0.354 N 
ATOM     53  N   UNL A   1      42.342  27.875  31.260  1.00  0.00    -0.248 NA
ATOM     54  C   UNL A   1      43.732  26.321  30.211  1.00  0.00     0.031 C 
ATOM     55  C   UNL A   1      42.650  29.017  35.542  1.00  0.00     0.029 A 
ATOM     56  C   UNL A   1      42.570  28.634  34.211  1.00  0.00     0.049 A 
ATOM     57  H   UNL A   1      41.274  29.334  32.701  1.00  0.00     0.167 HD
ATOM     58  C   UNL A   1      43.230  27.355  32.193  1.00  0.00     0.074 A 
ATOM     59  C   UNL A   1      44.045  26.383  31.497  1.00  0.00     0.031 C 
ATOM     60  C   UNL A   1      43.357  27.655  33.510  1.00  0.00     0.037 A 
BRANCH  47  61
ATOM     61  C   UNL A   1      39.454  32.018  35.465  1.00  0.00     0.064 A 
ATOM     62  C   UNL A   1      38.511  31.556  36.393  1.00  0.00     0.173 A 
ATOM     63  C   UNL A   1      39.962  33.315  35.630  1.00  0.00     0.173 A 
ATOM     64  F   UNL A   1      37.983  30.329  36.266  1.00  0.00    -0.203 F 
ATOM     65  C   UNL A   1      38.074  32.371  37.435  1.00  0.00     0.198 A 
ATOM     66  C   UNL A   1      39.542  34.119  36.686  1.00  0.00     0.198 A 
ATOM     67  F   UNL A   1      40.868  33.801  34.769  1.00  0.00    -0.203 F 
ATOM     68  F   UNL A   1      37.142  31.926  38.287  1.00  0.00    -0.200 F 
ATOM     69  C   UNL A   1      38.595  33.649  37.583  1.00  0.00     0.200 A 
ATOM     70  F   UNL A   1      40.049  35.350  36.832  1.00  0.00    -0.200 F 
ATOM     71  F   UNL A   1      38.176  34.431  38.587  1.00  0.00    -0.200 F 
ENDBRANCH  47  61
BRANCH  48  72
ATOM     72  C   UNL A   1      42.380  26.587  27.635  1.00  0.00     0.064 A 
ATOM     73  C   UNL A   1      41.825  25.323  27.390  1.00  0.00     0.173 A 
ATOM     74  C   UNL A   1      43.383  27.041  26.767  1.00  0.00     0.173 A 
ATOM     75  F   UNL A   1      40.882  24.836  28.210  1.00  0.00    -0.203 F 
ATOM     76  C   UNL A   1      42.269  24.537  26.330  1.00  0.00     0.198 A 
ATOM     77  C   UNL A   1      43.811  26.264  25.693  1.00  0.00     0.198 A 
ATOM     78  F   UNL A   1      43.947  28.241  26.963  1.00  0.00    -0.203 F 
ATOM     79  F   UNL A   1      41.753  23.315  26.142  1.00  0.00    -0.200 F 
ATOM     80  C   UNL A   1      43.258  25.010  25.479  1.00  0.00     0.200 A 
ATOM     81  F   UNL A   1      44.762  26.725  24.871  1.00  0.00    -0.200 F 
ATOM     82  F   UNL A   1      43.686  24.251  24.461  1.00  0.00    -0.200 F 
ENDBRANCH  48  72
BRANCH  60  83
ATOM     83  C   UNL A   1      44.381  26.891  34.295  1.00  0.00     0.064 A 
ATOM     84  C   UNL A   1      45.691  27.367  34.454  1.00  0.00     0.173 A 
ATOM     85  C   UNL A   1      44.035  25.688  34.928  1.00  0.00     0.173 A 
ATOM     86  F   UNL A   1      46.073  28.505  33.857  1.00  0.00    -0.203 F 
ATOM     87  C   UNL A   1      46.623  26.651  35.199  1.00  0.00     0.198 A 
ATOM     88  C   UNL A   1      44.963  24.988  35.692  1.00  0.00     0.198 A 
ATOM     89  F   UNL A   1      42.792  25.196  34.812  1.00  0.00    -0.203 F 
ATOM     90  F   UNL A   1      47.882  27.101  35.304  1.00  0.00    -0.200 F 
ATOM     91  C   UNL A   1      46.259  25.467  35.823  1.00  0.00     0.200 A 
ATOM     92  F   UNL A   1      44.607  23.849  36.302  1.00  0.00    -0.200 F 
ATOM     93  F   UNL A   1      47.158  24.781  36.542  1.00  0.00    -0.200 F 
ENDBRANCH  60  83
ENDBRANCH  34  35
ENDBRANCH  27  29
ENDBRANCH  26  27
ENDBRANCH  25  26
ENDBRANCH  24  25
ENDBRANCH   1  24
TORSDOF 17
ENDMDL
MODEL 3
REMARK VINA RESULT:     -11.2      1.396      2.466
REMARK SMILES C[C@@](NC(=O)c1cc(Br)c[nH]1)(C(=O)OCCOCCOC(=O)c1ccc(-c2c3nc(c(-c4c(F)c(F)c(F)c(F)c4F)c4ccc([nH]4)c(-c4c(F)c(F)c(F)c(F)c4F)c4nc(c(-c5c(F)c(F)c(F)c(F)c5F)c5ccc2[nH]5)C=C4)C=C3)cc1)C(F)(F)F
REMARK SMILES IDX 17 1 16 2 15 3 14 4 12 5 13 6 2 7 1 8 3 9 4 10 5 12 6 13
REMARK SMILES IDX 7 14 11 15 8 16 10 17 9 19 86 20 87 21 88 22 89 23 18 24
REMARK SMILES IDX 19 25 20 26 21 27 22 28 23 29 24 30 85 31 25 32 84 33 26 34
REMARK SMILES IDX 27 35 28 36 78 37 29 38 83 39 77 40 79 41 30 42 82 43 76 44
REMARK SMILES IDX 75 45 31 47 63 48 43 49 62 50 44 51 47 52 61 53 80 54 45 55
REMARK SMILES IDX 46 56 60 58 81 59 48 60 32 61 33 62 41 63 34 64 35 65 39 66
REMARK SMILES IDX 42 67 36 68 37 69 40 70 38 71 64 72 65 73 73 74 66 75 67 76
REMARK SMILES IDX 71 77 74 78 68 79 69 80 72 81 70 82 49 83 50 84 58 85 51 86
REMARK SMILES IDX 52 87 56 88 59 89 53 90 54 91 57 92 55 93
REMARK H PARENT 3 11 11 18 79 46 47 57
REMARK Flexibility Score: inf
ROOT
ATOM      1  O   UNL A   1      31.824  29.979  27.191  1.00  0.00    -0.374 OA
ENDROOT
BRANCH   1   2
ATOM      2  C   UNL A   1      32.702  28.945  26.776  1.00  0.00     0.202 C 
BRANCH   2   3
ATOM      3  C   UNL A   1      32.077  27.617  26.337  1.00  0.00     0.261 C 
BRANCH   3   4
ATOM      4  O   UNL A   1      32.476  27.138  25.047  1.00  0.00    -0.461 OA
BRANCH   4   5
ATOM      5  C   UNL A   1      31.467  26.952  24.144  1.00  0.00     0.341 C 
ATOM      6  O   UNL A   1      30.497  26.227  24.332  1.00  0.00    -0.249 OA
BRANCH   5   7
ATOM      7  C   UNL A   1      31.778  27.626  22.806  1.00  0.00     0.231 C 
ATOM      8  C   UNL A   1      33.175  28.273  22.765  1.00  0.00     0.058 C 
BRANCH   7   9
ATOM      9  N   UNL A   1      31.630  26.694  21.635  1.00  0.00    -0.328 N 
ATOM     10  C   UNL A   1      32.512  25.690  21.318  1.00  0.00     0.268 C 
ATOM     11  H   UNL A   1      30.844  26.810  21.053  1.00  0.00     0.165 HD
ATOM     12  O   UNL A   1      33.066  25.723  20.223  1.00  0.00    -0.268 OA
BRANCH  10  13
ATOM     13  C   UNL A   1      32.682  24.618  22.268  1.00  0.00     0.105 A 
ATOM     14  C   UNL A   1      33.856  24.147  22.840  1.00  0.00     0.049 A 
ATOM     15  N   UNL A   1      31.670  23.785  22.706  1.00  0.00    -0.356 N 
ATOM     16  C   UNL A   1      33.511  23.081  23.693  1.00  0.00     0.036 A 
ATOM     17  C   UNL A   1      32.163  22.867  23.600  1.00  0.00     0.098 A 
ATOM     18  H   UNL A   1      30.731  23.841  22.418  1.00  0.00     0.166 HD
ATOM     19  Br  UNL A   1      34.721  22.153  24.777  1.00  0.00    -0.049 Br
ENDBRANCH  10  13
ENDBRANCH   7   9
BRANCH   7  20
ATOM     20  C   UNL A   1      30.731  28.756  22.740  1.00  0.00     0.422 C 
ATOM     21  F   UNL A   1      31.083  29.738  21.880  1.00  0.00    -0.168 F 
ATOM     22  F   UNL A   1      29.544  28.258  22.300  1.00  0.00    -0.168 F 
ATOM     23  F   UNL A   1      30.481  29.318  23.942  1.00  0.00    -0.168 F 
ENDBRANCH   7  20
ENDBRANCH   5   7
ENDBRANCH   4   5
ENDBRANCH   3   4
ENDBRANCH   2   3
ENDBRANCH   1   2
BRANCH   1  24
ATOM     24  C   UNL A   1      31.687  31.130  26.357  1.00  0.00     0.202 C 
BRANCH  24  25
ATOM     25  C   UNL A   1      31.759  32.499  27.035  1.00  0.00     0.261 C 
BRANCH  25  26
ATOM     26  O   UNL A   1      33.098  32.790  27.489  1.00  0.00    -0.460 OA
BRANCH  26  27
ATOM     27  C   UNL A   1      33.198  33.922  28.222  1.00  0.00     0.338 C 
ATOM     28  O   UNL A   1      32.434  34.877  28.210  1.00  0.00    -0.246 OA
BRANCH  27  29
ATOM     29  C   UNL A   1      34.305  33.846  29.188  1.00  0.00     0.060 A 
ATOM     30  C   UNL A   1      35.568  34.254  28.743  1.00  0.00     0.016 A 
ATOM     31  C   UNL A   1      34.159  33.180  30.407  1.00  0.00     0.016 A 
ATOM     32  C   UNL A   1      36.706  33.900  29.464  1.00  0.00     0.010 A 
ATOM     33  C   UNL A   1      35.303  32.821  31.129  1.00  0.00     0.010 A 
ATOM     34  C   UNL A   1      36.581  33.117  30.621  1.00  0.00    -0.014 A 
BRANCH  34  35
ATOM     35  C   UNL A   1      37.786  32.409  31.123  1.00  0.00     0.031 A 
ATOM     36  C   UNL A   1      38.285  32.734  32.508  1.00  0.00     0.074 A 
ATOM     37  C   UNL A   1      38.374  31.437  30.407  1.00  0.00     0.049 A 
ATOM     38  N   UNL A   1      39.260  32.192  33.193  1.00  0.00    -0.248 NA
ATOM     39  C   UNL A   1      37.584  33.816  33.220  1.00  0.00     0.031 C 
ATOM     40  C   UNL A   1      37.968  31.004  29.074  1.00  0.00     0.029 A 
ATOM     41  N   UNL A   1      39.440  30.628  30.718  1.00  0.00    -0.354 N 
ATOM     42  C   UNL A   1      39.286  32.861  34.410  1.00  0.00     0.074 A 
ATOM     43  C   UNL A   1      38.254  33.873  34.361  1.00  0.00     0.031 C 
ATOM     44  C   UNL A   1      38.773  30.002  28.679  1.00  0.00     0.029 A 
ATOM     45  C   UNL A   1      39.754  29.731  29.729  1.00  0.00     0.049 A 
ATOM     46  H   UNL A   1      39.930  30.685  31.570  1.00  0.00     0.167 HD
ATOM     47  C   UNL A   1      40.087  32.644  35.480  1.00  0.00     0.037 A 
ATOM     48  C   UNL A   1      40.724  28.797  29.683  1.00  0.00     0.037 A 
ATOM     49  C   UNL A   1      41.110  31.636  35.540  1.00  0.00     0.049 A 
ATOM     50  C   UNL A   1      41.628  28.601  30.872  1.00  0.00     0.074 A 
ATOM     51  C   UNL A   1      41.967  31.333  36.583  1.00  0.00     0.029 A 
ATOM     52  N   UNL A   1      41.413  30.764  34.506  1.00  0.00    -0.354 N 
ATOM     53  N   UNL A   1      41.621  29.215  32.030  1.00  0.00    -0.248 NA
ATOM     54  C   UNL A   1      42.667  27.567  30.750  1.00  0.00     0.031 C 
ATOM     55  C   UNL A   1      42.812  30.298  36.169  1.00  0.00     0.029 A 
ATOM     56  C   UNL A   1      42.455  29.932  34.880  1.00  0.00     0.049 A 
ATOM     57  H   UNL A   1      40.955  30.740  33.635  1.00  0.00     0.167 HD
ATOM     58  C   UNL A   1      42.625  28.622  32.783  1.00  0.00     0.074 A 
ATOM     59  C   UNL A   1      43.219  27.595  31.954  1.00  0.00     0.031 C 
ATOM     60  C   UNL A   1      43.020  28.901  34.050  1.00  0.00     0.037 A 
BRANCH  47  61
ATOM     61  C   UNL A   1      39.897  33.534  36.671  1.00  0.00     0.064 A 
ATOM     62  C   UNL A   1      40.639  34.712  36.833  1.00  0.00     0.173 A 
ATOM     63  C   UNL A   1      38.945  33.214  37.651  1.00  0.00     0.173 A 
ATOM     64  F   UNL A   1      41.574  35.051  35.932  1.00  0.00    -0.203 F 
ATOM     65  C   UNL A   1      40.452  35.528  37.947  1.00  0.00     0.198 A 
ATOM     66  C   UNL A   1      38.744  34.044  38.751  1.00  0.00     0.198 A 
ATOM     67  F   UNL A   1      38.208  32.099  37.540  1.00  0.00    -0.203 F 
ATOM     68  F   UNL A   1      41.201  36.628  38.103  1.00  0.00    -0.200 F 
ATOM     69  C   UNL A   1      39.501  35.196  38.901  1.00  0.00     0.200 A 
ATOM     70  F   UNL A   1      37.821  33.726  39.669  1.00  0.00    -0.200 F 
ATOM     71  F   UNL A   1      39.320  35.983  39.970  1.00  0.00    -0.200 F 
ENDBRANCH  47  61
BRANCH  48  72
ATOM     72  C   UNL A   1      40.879  27.954  28.471  1.00  0.00     0.064 A 
ATOM     73  C   UNL A   1      41.663  28.379  27.390  1.00  0.00     0.173 A 
ATOM     74  C   UNL A   1      40.230  26.716  28.362  1.00  0.00     0.173 A 
ATOM     75  F   UNL A   1      42.281  29.569  27.439  1.00  0.00    -0.203 F 
ATOM     76  C   UNL A   1      41.777  27.606  26.237  1.00  0.00     0.198 A 
ATOM     77  C   UNL A   1      40.363  25.933  27.217  1.00  0.00     0.198 A 
ATOM     78  F   UNL A   1      39.465  26.268  29.368  1.00  0.00    -0.203 F 
ATOM     79  F   UNL A   1      42.497  28.056  25.200  1.00  0.00    -0.200 F 
ATOM     80  C   UNL A   1      41.131  26.382  26.153  1.00  0.00     0.200 A 
ATOM     81  F   UNL A   1      39.741  24.749  27.141  1.00  0.00    -0.200 F 
ATOM     82  F   UNL A   1      41.240  25.640  25.042  1.00  0.00    -0.200 F 
ENDBRANCH  48  72
BRANCH  60  83
ATOM     83  C   UNL A   1      44.111  28.055  34.635  1.00  0.00     0.064 A 
ATOM     84  C   UNL A   1      45.457  28.440  34.562  1.00  0.00     0.173 A 
ATOM     85  C   UNL A   1      43.800  26.865  35.311  1.00  0.00     0.173 A 
ATOM     86  F   UNL A   1      45.805  29.562  33.915  1.00  0.00    -0.203 F 
ATOM     87  C   UNL A   1      46.456  27.649  35.124  1.00  0.00     0.198 A 
ATOM     88  C   UNL A   1      44.799  26.091  35.892  1.00  0.00     0.198 A 
ATOM     89  F   UNL A   1      42.526  26.460  35.414  1.00  0.00    -0.203 F 
ATOM     90  F   UNL A   1      47.741  28.013  35.007  1.00  0.00    -0.200 F 
ATOM     91  C   UNL A   1      46.127  26.480  35.794  1.00  0.00     0.200 A 
ATOM     92  F   UNL A   1      44.478  24.967  36.547  1.00  0.00    -0.200 F 
ATOM     93  F   UNL A   1      47.090  25.722  36.337  1.00  0.00    -0.200 F 
ENDBRANCH  60  83
ENDBRANCH  34  35
ENDBRANCH  27  29
ENDBRANCH  26  27
ENDBRANCH  25  26
ENDBRANCH  24  25
ENDBRANCH   1  24
TORSDOF 17
ENDMDL
