MODEL 1
REMARK VINA RESULT:     -12.1      0.000      0.000
REMARK SMILES C[C@H]1N=N[C@H](S/C(=C/c2ccc(-c3cccc(Cl)c3)o2)C(=O)OCCOCCOC(=O)c2ccc(-c3c4nc(c(-c5c(F)c(F)c(F)c(F)c5F)c5ccc([nH]5)c(-c5c(F)c(F)c(F)c(F)c5F)c5nc(c(-c6c(F)c(F)c(F)c(F)c6F)c6ccc3[nH]6)C=C5)C=C4)cc2)[NH2+]1
REMARK SMILES IDX 26 1 25 2 24 3 23 4 21 5 22 6 7 7 8 8 6 9 5 10 1 11 2 12
REMARK SMILES IDX 3 13 95 14 4 15 9 18 10 19 20 20 11 21 12 22 13 23 14 24
REMARK SMILES IDX 19 25 15 26 17 27 16 28 18 29 27 30 28 31 29 32 30 33 31 34
REMARK SMILES IDX 32 35 33 36 94 37 34 38 93 39 35 40 36 41 37 42 87 43 38 44
REMARK SMILES IDX 92 45 86 46 88 47 39 48 91 49 85 50 84 51 40 53 72 54 52 55
REMARK SMILES IDX 71 56 53 57 56 58 70 59 89 60 54 61 55 62 69 64 90 65 57 66
REMARK SMILES IDX 41 67 42 68 50 69 43 70 44 71 48 72 51 73 45 74 46 75 49 76
REMARK SMILES IDX 47 77 73 78 74 79 82 80 75 81 76 82 80 83 83 84 77 85 78 86
REMARK SMILES IDX 81 87 79 88 58 89 59 90 67 91 60 92 61 93 65 94 68 95 62 96
REMARK SMILES IDX 63 97 66 98 64 99
REMARK H PARENT 95 16 95 17 88 52 56 63
REMARK Flexibility Score: inf
ROOT
ATOM      1  O   UNL A   1      32.142  30.651  26.923  1.00  0.00    -0.374 OA
ENDROOT
BRANCH   1   2
ATOM      2  C   UNL A   1      32.975  30.025  25.940  1.00  0.00     0.202 C 
BRANCH   2   3
ATOM      3  C   UNL A   1      32.653  28.559  25.636  1.00  0.00     0.261 C 
BRANCH   3   4
ATOM      4  O   UNL A   1      31.441  28.516  24.868  1.00  0.00    -0.459 OA
BRANCH   4   5
ATOM      5  C   UNL A   1      30.759  27.344  24.885  1.00  0.00     0.345 C 
ATOM      6  O   UNL A   1      30.544  26.643  25.861  1.00  0.00    -0.246 OA
BRANCH   5   7
ATOM      7  C   UNL A   1      30.182  27.123  23.525  1.00  0.00     0.104 C 
ATOM      8  C   UNL A   1      30.790  26.373  22.587  1.00  0.00     0.070 C 
BRANCH   7   9
ATOM      9  S   UNL A   1      28.811  28.154  23.217  1.00  0.00    -0.028 SA
BRANCH   9  10
ATOM     10  C   UNL A   1      29.481  29.543  22.242  1.00  0.00     0.393 C 
ATOM     11  C   UNL A   1      28.782  32.927  23.130  1.00  0.00     0.106 C 
ATOM     12  C   UNL A   1      28.549  31.431  22.980  1.00  0.00     0.324 C 
ATOM     13  N   UNL A   1      28.039  31.145  21.630  1.00  0.00    -0.126 NA
ATOM     14  N   UNL A   1      29.783  30.655  23.151  1.00  0.00    -0.293 N 
ATOM     15  N   UNL A   1      28.558  30.078  21.215  1.00  0.00    -0.115 NA
ATOM     16  H   UNL A   1      29.906  30.339  24.113  1.00  0.00     0.350 HD
ATOM     17  H   UNL A   1      30.649  31.157  22.957  1.00  0.00     0.350 HD
ENDBRANCH   9  10
ENDBRANCH   7   9
BRANCH   8  18
ATOM     18  C   UNL A   1      31.961  25.587  22.810  1.00  0.00     0.128 A 
ATOM     19  C   UNL A   1      33.308  25.873  22.608  1.00  0.00     0.051 A 
ATOM     20  O   UNL A   1      31.896  24.309  23.331  1.00  0.00    -0.457 OA
ATOM     21  C   UNL A   1      34.061  24.732  22.962  1.00  0.00     0.051 A 
ATOM     22  C   UNL A   1      33.159  23.800  23.417  1.00  0.00     0.134 A 
BRANCH  22  23
ATOM     23  C   UNL A   1      33.303  22.454  23.959  1.00  0.00     0.019 A 
ATOM     24  C   UNL A   1      34.103  22.242  25.095  1.00  0.00     0.012 A 
ATOM     25  C   UNL A   1      32.684  21.350  23.362  1.00  0.00     0.032 A 
ATOM     26  C   UNL A   1      34.296  20.960  25.611  1.00  0.00     0.002 A 
ATOM     27  C   UNL A   1      32.885  20.067  23.877  1.00  0.00     0.041 A 
ATOM     28  C   UNL A   1      33.693  19.867  24.995  1.00  0.00     0.020 A 
ATOM     29  Cl  UNL A   1      32.153  18.712  23.106  1.00  0.00    -0.084 Cl
ENDBRANCH  22  23
ENDBRANCH   8  18
ENDBRANCH   5   7
ENDBRANCH   4   5
ENDBRANCH   3   4
ENDBRANCH   2   3
ENDBRANCH   1   2
BRANCH   1  30
ATOM     30  C   UNL A   1      31.402  31.804  26.526  1.00  0.00     0.202 C 
BRANCH  30  31
ATOM     31  C   UNL A   1      32.027  33.168  26.840  1.00  0.00     0.261 C 
BRANCH  31  32
ATOM     32  O   UNL A   1      32.710  33.213  28.103  1.00  0.00    -0.460 OA
BRANCH  32  33
ATOM     33  C   UNL A   1      33.823  33.981  28.108  1.00  0.00     0.338 C 
ATOM     34  O   UNL A   1      33.893  35.195  27.959  1.00  0.00    -0.246 OA
BRANCH  33  35
ATOM     35  C   UNL A   1      35.006  33.169  28.435  1.00  0.00     0.060 A 
ATOM     36  C   UNL A   1      34.802  31.844  28.842  1.00  0.00     0.016 A 
ATOM     37  C   UNL A   1      36.281  33.733  28.469  1.00  0.00     0.016 A 
ATOM     38  C   UNL A   1      35.871  31.090  29.325  1.00  0.00     0.010 A 
ATOM     39  C   UNL A   1      37.348  32.975  28.962  1.00  0.00     0.010 A 
ATOM     40  C   UNL A   1      37.145  31.663  29.422  1.00  0.00    -0.014 A 
BRANCH  40  41
ATOM     41  C   UNL A   1      38.233  30.948  30.135  1.00  0.00     0.031 A 
ATOM     42  C   UNL A   1      38.473  31.242  31.591  1.00  0.00     0.074 A 
ATOM     43  C   UNL A   1      38.998  30.043  29.499  1.00  0.00     0.049 A 
ATOM     44  N   UNL A   1      39.378  30.755  32.402  1.00  0.00    -0.248 NA
ATOM     45  C   UNL A   1      37.575  32.227  32.217  1.00  0.00     0.031 C 
ATOM     46  C   UNL A   1      38.867  29.664  28.094  1.00  0.00     0.029 A 
ATOM     47  N   UNL A   1      40.041  29.278  29.960  1.00  0.00    -0.354 N 
ATOM     48  C   UNL A   1      39.168  31.383  33.624  1.00  0.00     0.074 A 
ATOM     49  C   UNL A   1      38.073  32.310  33.441  1.00  0.00     0.031 C 
ATOM     50  C   UNL A   1      39.793  28.733  27.807  1.00  0.00     0.029 A 
ATOM     51  C   UNL A   1      40.596  28.470  28.999  1.00  0.00     0.049 A 
ATOM     52  H   UNL A   1      40.360  29.305  30.891  1.00  0.00     0.167 HD
ATOM     53  C   UNL A   1      39.818  31.194  34.796  1.00  0.00     0.037 A 
ATOM     54  C   UNL A   1      41.639  27.620  29.076  1.00  0.00     0.037 A 
ATOM     55  C   UNL A   1      40.897  30.261  34.988  1.00  0.00     0.049 A 
ATOM     56  C   UNL A   1      42.361  27.442  30.388  1.00  0.00     0.074 A 
ATOM     57  C   UNL A   1      41.598  29.977  36.147  1.00  0.00     0.029 A 
ATOM     58  N   UNL A   1      41.429  29.458  33.991  1.00  0.00    -0.354 N 
ATOM     59  N   UNL A   1      42.129  28.011  31.545  1.00  0.00    -0.248 NA
ATOM     60  C   UNL A   1      43.486  26.495  30.402  1.00  0.00     0.031 C 
ATOM     61  C   UNL A   1      42.582  29.030  35.842  1.00  0.00     0.029 A 
ATOM     62  C   UNL A   1      42.462  28.690  34.504  1.00  0.00     0.049 A 
ATOM     63  H   UNL A   1      41.120  29.437  33.056  1.00  0.00     0.167 HD
ATOM     64  C   UNL A   1      43.055  27.471  32.429  1.00  0.00     0.074 A 
ATOM     65  C   UNL A   1      43.846  26.521  31.678  1.00  0.00     0.031 C 
ATOM     66  C   UNL A   1      43.231  27.737  33.746  1.00  0.00     0.037 A 
BRANCH  53  67
ATOM     67  C   UNL A   1      39.386  32.029  35.966  1.00  0.00     0.064 A 
ATOM     68  C   UNL A   1      39.959  33.283  36.226  1.00  0.00     0.173 A 
ATOM     69  C   UNL A   1      38.367  31.582  36.820  1.00  0.00     0.173 A 
ATOM     70  F   UNL A   1      40.945  33.750  35.445  1.00  0.00    -0.203 F 
ATOM     71  C   UNL A   1      39.547  34.045  37.315  1.00  0.00     0.198 A 
ATOM     72  C   UNL A   1      37.940  32.360  37.893  1.00  0.00     0.198 A 
ATOM     73  F   UNL A   1      37.782  30.393  36.611  1.00  0.00    -0.203 F 
ATOM     74  F   UNL A   1      40.141  35.220  37.571  1.00  0.00    -0.200 F 
ATOM     75  C   UNL A   1      38.534  33.587  38.144  1.00  0.00     0.200 A 
ATOM     76  F   UNL A   1      36.951  31.921  38.685  1.00  0.00    -0.200 F 
ATOM     77  F   UNL A   1      38.135  34.325  39.189  1.00  0.00    -0.200 F 
ENDBRANCH  53  67
BRANCH  54  78
ATOM     78  C   UNL A   1      42.063  26.858  27.873  1.00  0.00     0.064 A 
ATOM     79  C   UNL A   1      41.550  25.580  27.612  1.00  0.00     0.173 A 
ATOM     80  C   UNL A   1      43.001  27.383  26.973  1.00  0.00     0.173 A 
ATOM     81  F   UNL A   1      40.669  25.027  28.458  1.00  0.00    -0.203 F 
ATOM     82  C   UNL A   1      41.974  24.847  26.506  1.00  0.00     0.198 A 
ATOM     83  C   UNL A   1      43.405  26.659  25.853  1.00  0.00     0.198 A 
ATOM     84  F   UNL A   1      43.521  28.603  27.177  1.00  0.00    -0.203 F 
ATOM     85  F   UNL A   1      41.503  23.609  26.304  1.00  0.00    -0.200 F 
ATOM     86  C   UNL A   1      42.899  25.389  25.625  1.00  0.00     0.200 A 
ATOM     87  F   UNL A   1      44.288  27.192  24.998  1.00  0.00    -0.200 F 
ATOM     88  F   UNL A   1      43.304  24.685  24.560  1.00  0.00    -0.200 F 
ENDBRANCH  54  78
BRANCH  66  89
ATOM     89  C   UNL A   1      44.292  26.963  34.474  1.00  0.00     0.064 A 
ATOM     90  C   UNL A   1      45.598  27.452  34.611  1.00  0.00     0.173 A 
ATOM     91  C   UNL A   1      43.983  25.735  35.079  1.00  0.00     0.173 A 
ATOM     92  F   UNL A   1      45.948  28.614  34.037  1.00  0.00    -0.203 F 
ATOM     93  C   UNL A   1      46.563  26.730  35.308  1.00  0.00     0.198 A 
ATOM     94  C   UNL A   1      44.943  25.029  35.799  1.00  0.00     0.198 A 
ATOM     95  F   UNL A   1      42.745  25.226  34.984  1.00  0.00    -0.203 F 
ATOM     96  F   UNL A   1      47.818  27.195  35.390  1.00  0.00    -0.200 F 
ATOM     97  C   UNL A   1      46.233  25.523  35.907  1.00  0.00     0.200 A 
ATOM     98  F   UNL A   1      44.618  23.868  36.386  1.00  0.00    -0.200 F 
ATOM     99  F   UNL A   1      47.162  24.833  36.583  1.00  0.00    -0.200 F 
ENDBRANCH  66  89
ENDBRANCH  40  41
ENDBRANCH  33  35
ENDBRANCH  32  33
ENDBRANCH  31  32
ENDBRANCH  30  31
ENDBRANCH   1  30
TORSDOF 18
ENDMDL
MODEL 2
REMARK VINA RESULT:     -12.0      4.499      9.608
REMARK SMILES C[C@H]1N=N[C@H](S/C(=C/c2ccc(-c3cccc(Cl)c3)o2)C(=O)OCCOCCOC(=O)c2ccc(-c3c4nc(c(-c5c(F)c(F)c(F)c(F)c5F)c5ccc([nH]5)c(-c5c(F)c(F)c(F)c(F)c5F)c5nc(c(-c6c(F)c(F)c(F)c(F)c6F)c6ccc3[nH]6)C=C5)C=C4)cc2)[NH2+]1
REMARK SMILES IDX 26 1 25 2 24 3 23 4 21 5 22 6 7 7 8 8 6 9 5 10 1 11 2 12
REMARK SMILES IDX 3 13 95 14 4 15 9 18 10 19 20 20 11 21 12 22 13 23 14 24
REMARK SMILES IDX 19 25 15 26 17 27 16 28 18 29 27 30 28 31 29 32 30 33 31 34
REMARK SMILES IDX 32 35 33 36 94 37 34 38 93 39 35 40 36 41 37 42 87 43 38 44
REMARK SMILES IDX 92 45 86 46 88 47 39 48 91 49 85 50 84 51 40 53 72 54 52 55
REMARK SMILES IDX 71 56 53 57 56 58 70 59 89 60 54 61 55 62 69 64 90 65 57 66
REMARK SMILES IDX 41 67 42 68 50 69 43 70 44 71 48 72 51 73 45 74 46 75 49 76
REMARK SMILES IDX 47 77 73 78 74 79 82 80 75 81 76 82 80 83 83 84 77 85 78 86
REMARK SMILES IDX 81 87 79 88 58 89 59 90 67 91 60 92 61 93 65 94 68 95 62 96
REMARK SMILES IDX 63 97 66 98 64 99
REMARK H PARENT 95 16 95 17 88 52 56 63
REMARK Flexibility Score: inf
ROOT
ATOM      1  O   UNL A   1      35.872  22.588  25.838  1.00  0.00    -0.374 OA
ENDROOT
BRANCH   1   2
ATOM      2  C   UNL A   1      35.276  23.740  25.233  1.00  0.00     0.202 C 
BRANCH   2   3
ATOM      3  C   UNL A   1      35.136  23.691  23.709  1.00  0.00     0.261 C 
BRANCH   3   4
ATOM      4  O   UNL A   1      34.247  24.743  23.305  1.00  0.00    -0.459 OA
BRANCH   4   5
ATOM      5  C   UNL A   1      33.287  24.410  22.408  1.00  0.00     0.345 C 
ATOM      6  O   UNL A   1      33.428  23.706  21.421  1.00  0.00    -0.246 OA
BRANCH   5   7
ATOM      7  C   UNL A   1      31.980  24.931  22.911  1.00  0.00     0.104 C 
ATOM      8  C   UNL A   1      31.220  24.262  23.799  1.00  0.00     0.070 C 
BRANCH   7   9
ATOM      9  S   UNL A   1      31.444  26.329  22.021  1.00  0.00    -0.028 SA
BRANCH   9  10
ATOM     10  C   UNL A   1      32.250  27.745  22.844  1.00  0.00     0.393 C 
ATOM     11  C   UNL A   1      31.779  28.367  26.325  1.00  0.00     0.106 C 
ATOM     12  C   UNL A   1      31.439  27.905  24.916  1.00  0.00     0.324 C 
ATOM     13  N   UNL A   1      30.955  29.048  24.127  1.00  0.00    -0.126 NA
ATOM     14  N   UNL A   1      32.604  27.354  24.214  1.00  0.00    -0.293 N 
ATOM     15  N   UNL A   1      31.406  28.956  22.957  1.00  0.00    -0.115 NA
ATOM     16  H   UNL A   1      32.670  26.342  24.318  1.00  0.00     0.350 HD
ATOM     17  H   UNL A   1      33.512  27.682  24.543  1.00  0.00     0.350 HD
ENDBRANCH   9  10
ENDBRANCH   7   9
BRANCH   8  18
ATOM     18  C   UNL A   1      31.621  23.069  24.474  1.00  0.00     0.128 A 
ATOM     19  C   UNL A   1      31.750  22.784  25.830  1.00  0.00     0.051 A 
ATOM     20  O   UNL A   1      31.947  21.915  23.788  1.00  0.00    -0.457 OA
ATOM     21  C   UNL A   1      32.212  21.456  25.961  1.00  0.00     0.051 A 
ATOM     22  C   UNL A   1      32.305  20.951  24.686  1.00  0.00     0.134 A 
BRANCH  22  23
ATOM     23  C   UNL A   1      32.676  19.646  24.154  1.00  0.00     0.019 A 
ATOM     24  C   UNL A   1      32.230  19.261  22.878  1.00  0.00     0.012 A 
ATOM     25  C   UNL A   1      33.448  18.742  24.893  1.00  0.00     0.032 A 
ATOM     26  C   UNL A   1      32.531  18.000  22.360  1.00  0.00     0.002 A 
ATOM     27  C   UNL A   1      33.741  17.479  24.375  1.00  0.00     0.041 A 
ATOM     28  C   UNL A   1      33.281  17.102  23.113  1.00  0.00     0.020 A 
ATOM     29  Cl  UNL A   1      34.655  16.361  25.313  1.00  0.00    -0.084 Cl
ENDBRANCH  22  23
ENDBRANCH   8  18
ENDBRANCH   5   7
ENDBRANCH   4   5
ENDBRANCH   3   4
ENDBRANCH   2   3
ENDBRANCH   1   2
BRANCH   1  30
ATOM     30  C   UNL A   1      35.932  21.390  25.066  1.00  0.00     0.202 C 
BRANCH  30  31
ATOM     31  C   UNL A   1      37.234  20.585  25.140  1.00  0.00     0.261 C 
BRANCH  31  32
ATOM     32  O   UNL A   1      38.418  21.397  25.087  1.00  0.00    -0.460 OA
BRANCH  32  33
ATOM     33  C   UNL A   1      39.287  21.183  26.101  1.00  0.00     0.338 C 
ATOM     34  O   UNL A   1      39.787  20.118  26.443  1.00  0.00    -0.246 OA
BRANCH  33  35
ATOM     35  C   UNL A   1      39.675  22.458  26.724  1.00  0.00     0.060 A 
ATOM     36  C   UNL A   1      39.022  23.622  26.298  1.00  0.00     0.016 A 
ATOM     37  C   UNL A   1      40.746  22.530  27.614  1.00  0.00     0.016 A 
ATOM     38  C   UNL A   1      39.470  24.871  26.731  1.00  0.00     0.010 A 
ATOM     39  C   UNL A   1      41.195  23.785  28.038  1.00  0.00     0.010 A 
ATOM     40  C   UNL A   1      40.582  24.962  27.576  1.00  0.00    -0.014 A 
BRANCH  40  41
ATOM     41  C   UNL A   1      41.197  26.282  27.863  1.00  0.00     0.031 A 
ATOM     42  C   UNL A   1      42.602  26.553  27.396  1.00  0.00     0.074 A 
ATOM     43  C   UNL A   1      40.515  27.233  28.524  1.00  0.00     0.049 A 
ATOM     44  N   UNL A   1      43.341  27.623  27.555  1.00  0.00    -0.248 NA
ATOM     45  C   UNL A   1      43.268  25.469  26.656  1.00  0.00     0.031 C 
ATOM     46  C   UNL A   1      39.149  27.098  29.027  1.00  0.00     0.029 A 
ATOM     47  N   UNL A   1      40.886  28.504  28.889  1.00  0.00    -0.354 N 
ATOM     48  C   UNL A   1      44.559  27.333  26.951  1.00  0.00     0.074 A 
ATOM     49  C   UNL A   1      44.472  25.979  26.451  1.00  0.00     0.031 C 
ATOM     50  C   UNL A   1      38.794  28.245  29.630  1.00  0.00     0.029 A 
ATOM     51  C   UNL A   1      39.914  29.183  29.580  1.00  0.00     0.049 A 
ATOM     52  H   UNL A   1      41.764  28.892  28.674  1.00  0.00     0.167 HD
ATOM     53  C   UNL A   1      45.645  28.129  26.811  1.00  0.00     0.037 A 
ATOM     54  C   UNL A   1      39.931  30.419  30.116  1.00  0.00     0.037 A 
ATOM     55  C   UNL A   1      45.729  29.483  27.291  1.00  0.00     0.049 A 
ATOM     56  C   UNL A   1      41.161  31.279  29.965  1.00  0.00     0.074 A 
ATOM     57  C   UNL A   1      46.778  30.379  27.169  1.00  0.00     0.029 A 
ATOM     58  N   UNL A   1      44.723  30.137  27.983  1.00  0.00    -0.354 N 
ATOM     59  N   UNL A   1      42.291  31.011  29.359  1.00  0.00    -0.248 NA
ATOM     60  C   UNL A   1      41.110  32.619  30.569  1.00  0.00     0.031 C 
ATOM     61  C   UNL A   1      46.420  31.563  27.824  1.00  0.00     0.029 A 
ATOM     62  C   UNL A   1      45.131  31.420  28.312  1.00  0.00     0.049 A 
ATOM     63  H   UNL A   1      43.847  29.747  28.210  1.00  0.00     0.167 HD
ATOM     64  C   UNL A   1      43.072  32.153  29.480  1.00  0.00     0.074 A 
ATOM     65  C   UNL A   1      42.283  33.123  30.210  1.00  0.00     0.031 C 
ATOM     66  C   UNL A   1      44.328  32.379  29.026  1.00  0.00     0.037 A 
BRANCH  53  67
ATOM     67  C   UNL A   1      46.842  27.546  26.119  1.00  0.00     0.064 A 
ATOM     68  C   UNL A   1      46.998  27.628  24.727  1.00  0.00     0.173 A 
ATOM     69  C   UNL A   1      47.858  26.924  26.859  1.00  0.00     0.173 A 
ATOM     70  F   UNL A   1      46.049  28.203  23.974  1.00  0.00    -0.203 F 
ATOM     71  C   UNL A   1      48.114  27.082  24.099  1.00  0.00     0.198 A 
ATOM     72  C   UNL A   1      48.986  26.403  26.230  1.00  0.00     0.198 A 
ATOM     73  F   UNL A   1      47.761  26.826  28.193  1.00  0.00    -0.203 F 
ATOM     74  F   UNL A   1      48.220  27.131  22.763  1.00  0.00    -0.200 F 
ATOM     75  C   UNL A   1      49.110  26.476  24.851  1.00  0.00     0.200 A 
ATOM     76  F   UNL A   1      49.954  25.829  26.959  1.00  0.00    -0.200 F 
ATOM     77  F   UNL A   1      50.186  25.956  24.245  1.00  0.00    -0.200 F 
ENDBRANCH  53  67
BRANCH  54  78
ATOM     78  C   UNL A   1      38.740  30.930  30.841  1.00  0.00     0.064 A 
ATOM     79  C   UNL A   1      38.634  30.807  32.233  1.00  0.00     0.173 A 
ATOM     80  C   UNL A   1      37.676  31.535  30.155  1.00  0.00     0.173 A 
ATOM     81  F   UNL A   1      39.615  30.213  32.928  1.00  0.00    -0.203 F 
ATOM     82  C   UNL A   1      37.501  31.250  32.911  1.00  0.00     0.198 A 
ATOM     83  C   UNL A   1      36.555  32.001  30.837  1.00  0.00     0.198 A 
ATOM     84  F   UNL A   1      37.729  31.679  28.823  1.00  0.00    -0.203 F 
ATOM     85  F   UNL A   1      37.405  31.078  34.236  1.00  0.00    -0.200 F 
ATOM     86  C   UNL A   1      36.464  31.851  32.213  1.00  0.00     0.200 A 
ATOM     87  F   UNL A   1      35.561  32.593  30.160  1.00  0.00    -0.200 F 
ATOM     88  F   UNL A   1      35.375  32.280  32.865  1.00  0.00    -0.200 F 
ENDBRANCH  54  78
BRANCH  66  89
ATOM     89  C   UNL A   1      44.918  33.739  29.264  1.00  0.00     0.064 A 
ATOM     90  C   UNL A   1      45.688  34.020  30.401  1.00  0.00     0.173 A 
ATOM     91  C   UNL A   1      44.743  34.762  28.319  1.00  0.00     0.173 A 
ATOM     92  F   UNL A   1      45.871  33.080  31.341  1.00  0.00    -0.203 F 
ATOM     93  C   UNL A   1      46.245  35.281  30.595  1.00  0.00     0.198 A 
ATOM     94  C   UNL A   1      45.324  36.014  28.503  1.00  0.00     0.198 A 
ATOM     95  F   UNL A   1      44.020  34.543  27.210  1.00  0.00    -0.203 F 
ATOM     96  F   UNL A   1      46.943  35.541  31.709  1.00  0.00    -0.200 F 
ATOM     97  C   UNL A   1      46.069  36.274  29.642  1.00  0.00     0.200 A 
ATOM     98  F   UNL A   1      45.162  36.968  27.576  1.00  0.00    -0.200 F 
ATOM     99  F   UNL A   1      46.611  37.486  29.828  1.00  0.00    -0.200 F 
ENDBRANCH  66  89
ENDBRANCH  40  41
ENDBRANCH  33  35
ENDBRANCH  32  33
ENDBRANCH  31  32
ENDBRANCH  30  31
ENDBRANCH   1  30
TORSDOF 18
ENDMDL
MODEL 3
REMARK VINA RESULT:     -11.9      5.225     10.821
REMARK SMILES C[C@H]1N=N[C@H](S/C(=C/c2ccc(-c3cccc(Cl)c3)o2)C(=O)OCCOCCOC(=O)c2ccc(-c3c4nc(c(-c5c(F)c(F)c(F)c(F)c5F)c5ccc([nH]5)c(-c5c(F)c(F)c(F)c(F)c5F)c5nc(c(-c6c(F)c(F)c(F)c(F)c6F)c6ccc3[nH]6)C=C5)C=C4)cc2)[NH2+]1
REMARK SMILES IDX 26 1 25 2 24 3 23 4 21 5 22 6 7 7 8 8 6 9 5 10 1 11 2 12
REMARK SMILES IDX 3 13 95 14 4 15 9 18 10 19 20 20 11 21 12 22 13 23 14 24
REMARK SMILES IDX 19 25 15 26 17 27 16 28 18 29 27 30 28 31 29 32 30 33 31 34
REMARK SMILES IDX 32 35 33 36 94 37 34 38 93 39 35 40 36 41 37 42 87 43 38 44
REMARK SMILES IDX 92 45 86 46 88 47 39 48 91 49 85 50 84 51 40 53 72 54 52 55
REMARK SMILES IDX 71 56 53 57 56 58 70 59 89 60 54 61 55 62 69 64 90 65 57 66
REMARK SMILES IDX 41 67 42 68 50 69 43 70 44 71 48 72 51 73 45 74 46 75 49 76
REMARK SMILES IDX 47 77 73 78 74 79 82 80 75 81 76 82 80 83 83 84 77 85 78 86
REMARK SMILES IDX 81 87 79 88 58 89 59 90 67 91 60 92 61 93 65 94 68 95 62 96
REMARK SMILES IDX 63 97 66 98 64 99
REMARK H PARENT 95 16 95 17 88 52 56 63
REMARK Flexibility Score: inf
ROOT
ATOM      1  O   UNL A   1      37.490  21.467  25.606  1.00  0.00    -0.374 OA
ENDROOT
BRANCH   1   2
ATOM      2  C   UNL A   1      37.702  22.754  25.014  1.00  0.00     0.202 C 
BRANCH   2   3
ATOM      3  C   UNL A   1      36.486  23.373  24.320  1.00  0.00     0.261 C 
BRANCH   3   4
ATOM      4  O   UNL A   1      35.655  22.308  23.836  1.00  0.00    -0.459 OA
BRANCH   4   5
ATOM      5  C   UNL A   1      34.318  22.532  23.853  1.00  0.00     0.345 C 
ATOM      6  O   UNL A   1      33.616  22.807  22.893  1.00  0.00    -0.246 OA
BRANCH   5   7
ATOM      7  C   UNL A   1      33.815  22.242  25.229  1.00  0.00     0.104 C 
ATOM      8  C   UNL A   1      33.312  23.192  26.038  1.00  0.00     0.070 C 
BRANCH   7   9
ATOM      9  S   UNL A   1      34.212  20.626  25.746  1.00  0.00    -0.028 SA
BRANCH   9  10
ATOM     10  C   UNL A   1      32.633  19.714  25.681  1.00  0.00     0.393 C 
ATOM     11  C   UNL A   1      32.565  16.151  25.506  1.00  0.00     0.106 C 
ATOM     12  C   UNL A   1      33.080  17.565  25.282  1.00  0.00     0.324 C 
ATOM     13  N   UNL A   1      32.429  18.143  24.096  1.00  0.00    -0.126 NA
ATOM     14  N   UNL A   1      32.787  18.451  26.414  1.00  0.00    -0.293 N 
ATOM     15  N   UNL A   1      32.182  19.356  24.317  1.00  0.00    -0.115 NA
ATOM     16  H   UNL A   1      33.558  18.488  27.081  1.00  0.00     0.350 HD
ATOM     17  H   UNL A   1      31.992  18.179  26.991  1.00  0.00     0.350 HD
ENDBRANCH   9  10
ENDBRANCH   7   9
BRANCH   8  18
ATOM     18  C   UNL A   1      33.058  24.542  25.645  1.00  0.00     0.128 A 
ATOM     19  C   UNL A   1      33.877  25.667  25.653  1.00  0.00     0.051 A 
ATOM     20  O   UNL A   1      31.837  24.937  25.132  1.00  0.00    -0.457 OA
ATOM     21  C   UNL A   1      33.122  26.766  25.188  1.00  0.00     0.051 A 
ATOM     22  C   UNL A   1      31.880  26.274  24.864  1.00  0.00     0.134 A 
BRANCH  22  23
ATOM     23  C   UNL A   1      30.681  26.882  24.300  1.00  0.00     0.019 A 
ATOM     24  C   UNL A   1      29.442  26.234  24.434  1.00  0.00     0.012 A 
ATOM     25  C   UNL A   1      30.730  28.093  23.599  1.00  0.00     0.032 A 
ATOM     26  C   UNL A   1      28.283  26.769  23.867  1.00  0.00     0.002 A 
ATOM     27  C   UNL A   1      29.571  28.622  23.028  1.00  0.00     0.041 A 
ATOM     28  C   UNL A   1      28.349  27.962  23.154  1.00  0.00     0.020 A 
ATOM     29  Cl  UNL A   1      29.653  30.089  22.130  1.00  0.00    -0.084 Cl
ENDBRANCH  22  23
ENDBRANCH   8  18
ENDBRANCH   5   7
ENDBRANCH   4   5
ENDBRANCH   3   4
ENDBRANCH   2   3
ENDBRANCH   1   2
BRANCH   1  30
ATOM     30  C   UNL A   1      38.111  20.343  24.987  1.00  0.00     0.202 C 
BRANCH  30  31
ATOM     31  C   UNL A   1      39.222  19.645  25.780  1.00  0.00     0.261 C 
BRANCH  31  32
ATOM     32  O   UNL A   1      40.467  20.361  25.780  1.00  0.00    -0.460 OA
BRANCH  32  33
ATOM     33  C   UNL A   1      41.060  20.450  26.993  1.00  0.00     0.338 C 
ATOM     34  O   UNL A   1      41.530  19.538  27.662  1.00  0.00    -0.246 OA
BRANCH  33  35
ATOM     35  C   UNL A   1      41.180  21.858  27.404  1.00  0.00     0.060 A 
ATOM     36  C   UNL A   1      40.635  22.837  26.564  1.00  0.00     0.016 A 
ATOM     37  C   UNL A   1      41.927  22.220  28.526  1.00  0.00     0.016 A 
ATOM     38  C   UNL A   1      40.872  24.188  26.820  1.00  0.00     0.010 A 
ATOM     39  C   UNL A   1      42.167  23.575  28.774  1.00  0.00     0.010 A 
ATOM     40  C   UNL A   1      41.670  24.564  27.908  1.00  0.00    -0.014 A 
BRANCH  40  41
ATOM     41  C   UNL A   1      42.107  25.974  28.060  1.00  0.00     0.031 A 
ATOM     42  C   UNL A   1      43.426  26.401  27.473  1.00  0.00     0.074 A 
ATOM     43  C   UNL A   1      41.340  26.870  28.707  1.00  0.00     0.049 A 
ATOM     44  N   UNL A   1      44.013  27.571  27.507  1.00  0.00    -0.248 NA
ATOM     45  C   UNL A   1      44.190  25.366  26.759  1.00  0.00     0.031 C 
ATOM     46  C   UNL A   1      40.043  26.586  29.318  1.00  0.00     0.029 A 
ATOM     47  N   UNL A   1      41.548  28.203  28.959  1.00  0.00    -0.354 N 
ATOM     48  C   UNL A   1      45.218  27.407  26.834  1.00  0.00     0.074 A 
ATOM     49  C   UNL A   1      45.294  26.020  26.432  1.00  0.00     0.031 C 
ATOM     50  C   UNL A   1      39.567  27.715  29.869  1.00  0.00     0.029 A 
ATOM     51  C   UNL A   1      40.536  28.792  29.675  1.00  0.00     0.049 A 
ATOM     52  H   UNL A   1      42.347  28.691  28.654  1.00  0.00     0.167 HD
ATOM     53  C   UNL A   1      46.169  28.332  26.562  1.00  0.00     0.037 A 
ATOM     54  C   UNL A   1      40.412  30.056  30.126  1.00  0.00     0.037 A 
ATOM     55  C   UNL A   1      46.089  29.718  26.944  1.00  0.00     0.049 A 
ATOM     56  C   UNL A   1      41.493  31.063  29.828  1.00  0.00     0.074 A 
ATOM     57  C   UNL A   1      46.990  30.737  26.687  1.00  0.00     0.029 A 
ATOM     58  N   UNL A   1      45.047  30.276  27.666  1.00  0.00    -0.354 N 
ATOM     59  N   UNL A   1      42.609  30.908  29.158  1.00  0.00    -0.248 NA
ATOM     60  C   UNL A   1      41.291  32.425  30.344  1.00  0.00     0.031 C 
ATOM     61  C   UNL A   1      46.509  31.906  27.287  1.00  0.00     0.029 A 
ATOM     62  C   UNL A   1      45.288  31.625  27.878  1.00  0.00     0.049 A 
ATOM     63  H   UNL A   1      44.252  29.788  27.982  1.00  0.00     0.167 HD
ATOM     64  C   UNL A   1      43.225  32.153  29.146  1.00  0.00     0.074 A 
ATOM     65  C   UNL A   1      42.355  33.057  29.867  1.00  0.00     0.031 C 
ATOM     66  C   UNL A   1      44.404  32.515  28.585  1.00  0.00     0.037 A 
BRANCH  53  67
ATOM     67  C   UNL A   1      47.389  27.869  25.822  1.00  0.00     0.064 A 
ATOM     68  C   UNL A   1      48.564  27.505  26.498  1.00  0.00     0.173 A 
ATOM     69  C   UNL A   1      47.375  27.760  24.424  1.00  0.00     0.173 A 
ATOM     70  F   UNL A   1      48.632  27.602  27.834  1.00  0.00    -0.203 F 
ATOM     71  C   UNL A   1      49.688  27.077  25.798  1.00  0.00     0.198 A 
ATOM     72  C   UNL A   1      48.493  27.306  23.730  1.00  0.00     0.198 A 
ATOM     73  F   UNL A   1      46.274  28.089  23.732  1.00  0.00    -0.203 F 
ATOM     74  F   UNL A   1      50.815  26.778  26.461  1.00  0.00    -0.200 F 
ATOM     75  C   UNL A   1      49.650  26.972  24.416  1.00  0.00     0.200 A 
ATOM     76  F   UNL A   1      48.450  27.192  22.394  1.00  0.00    -0.200 F 
ATOM     77  F   UNL A   1      50.732  26.554  23.744  1.00  0.00    -0.200 F 
ENDBRANCH  53  67
BRANCH  54  78
ATOM     78  C   UNL A   1      39.208  30.451  30.902  1.00  0.00     0.064 A 
ATOM     79  C   UNL A   1      38.090  31.006  30.265  1.00  0.00     0.173 A 
ATOM     80  C   UNL A   1      39.159  30.297  32.294  1.00  0.00     0.173 A 
ATOM     81  F   UNL A   1      38.101  31.195  28.937  1.00  0.00    -0.203 F 
ATOM     82  C   UNL A   1      36.975  31.412  30.994  1.00  0.00     0.198 A 
ATOM     83  C   UNL A   1      38.032  30.680  33.020  1.00  0.00     0.198 A 
ATOM     84  F   UNL A   1      40.202  29.768  32.951  1.00  0.00    -0.203 F 
ATOM     85  F   UNL A   1      35.938  31.983  30.366  1.00  0.00    -0.200 F 
ATOM     86  C   UNL A   1      36.945  31.245  32.371  1.00  0.00     0.200 A 
ATOM     87  F   UNL A   1      38.003  30.504  34.348  1.00  0.00    -0.200 F 
ATOM     88  F   UNL A   1      35.872  31.634  33.072  1.00  0.00    -0.200 F 
ENDBRANCH  54  78
BRANCH  66  89
ATOM     89  C   UNL A   1      44.808  33.958  28.689  1.00  0.00     0.064 A 
ATOM     90  C   UNL A   1      44.408  34.905  27.736  1.00  0.00     0.173 A 
ATOM     91  C   UNL A   1      45.569  34.403  29.780  1.00  0.00     0.173 A 
ATOM     92  F   UNL A   1      43.691  34.526  26.666  1.00  0.00    -0.203 F 
ATOM     93  C   UNL A   1      44.773  36.243  27.861  1.00  0.00     0.198 A 
ATOM     94  C   UNL A   1      45.910  35.746  29.915  1.00  0.00     0.198 A 
ATOM     95  F   UNL A   1      45.971  33.537  30.723  1.00  0.00    -0.203 F 
ATOM     96  F   UNL A   1      44.416  37.125  26.916  1.00  0.00    -0.200 F 
ATOM     97  C   UNL A   1      45.518  36.663  28.954  1.00  0.00     0.200 A 
ATOM     98  F   UNL A   1      46.619  36.152  30.978  1.00  0.00    -0.200 F 
ATOM     99  F   UNL A   1      45.863  37.953  29.074  1.00  0.00    -0.200 F 
ENDBRANCH  66  89
ENDBRANCH  40  41
ENDBRANCH  33  35
ENDBRANCH  32  33
ENDBRANCH  31  32
ENDBRANCH  30  31
ENDBRANCH   1  30
TORSDOF 18
ENDMDL
