MODEL 1
REMARK VINA RESULT:     -12.0      0.000      0.000
REMARK SMILES Cc1cc(OC(F)(F)F)cc2c1O[C@@H](C(F)(F)F)C(C(=O)OCCOCCOC(=O)c1ccc(-c3c4nc(c(-c5c(F)c(F)c(F)c(F)c5F)c5ccc([nH]5)c(-c5c(F)c(F)c(F)c(F)c5F)c5nc(c(-c6c(F)c(F)c(F)c(F)c6F)c6ccc3[nH]6)C=C5)C=C4)cc1)=C2
REMARK SMILES IDX 25 1 24 2 23 3 22 4 20 5 21 6 19 7 1 8 2 9 3 10 12 11 4 12
REMARK SMILES IDX 11 13 13 14 10 15 94 16 14 17 5 18 6 19 7 20 8 21 9 22 15 23
REMARK SMILES IDX 16 24 17 25 18 26 26 27 27 28 28 29 29 30 30 31 31 32 32 33
REMARK SMILES IDX 93 34 33 35 92 36 34 37 35 38 36 39 86 40 37 41 91 42 85 43
REMARK SMILES IDX 87 44 38 45 90 46 84 47 83 48 39 50 71 51 51 52 70 53 52 54
REMARK SMILES IDX 55 55 69 56 88 57 53 58 54 59 68 61 89 62 56 63 40 64 41 65
REMARK SMILES IDX 49 66 42 67 43 68 47 69 50 70 44 71 45 72 48 73 46 74 72 75
REMARK SMILES IDX 73 76 81 77 74 78 75 79 79 80 82 81 76 82 77 83 80 84 78 85
REMARK SMILES IDX 57 86 58 87 66 88 59 89 60 90 64 91 67 92 61 93 62 94 65 95
REMARK SMILES IDX 63 96
REMARK H PARENT 87 49 55 60
REMARK Flexibility Score: inf
ROOT
ATOM      1  O   UNL A   1      35.545  21.879  26.109  1.00  0.00    -0.374 OA
ENDROOT
BRANCH   1   2
ATOM      2  C   UNL A   1      34.442  22.755  25.881  1.00  0.00     0.202 C 
BRANCH   2   3
ATOM      3  C   UNL A   1      33.057  22.113  25.953  1.00  0.00     0.261 C 
BRANCH   3   4
ATOM      4  O   UNL A   1      32.244  22.797  26.923  1.00  0.00    -0.460 OA
BRANCH   4   5
ATOM      5  C   UNL A   1      31.060  23.230  26.447  1.00  0.00     0.338 C 
ATOM      6  O   UNL A   1      29.986  22.661  26.573  1.00  0.00    -0.246 OA
BRANCH   5   7
ATOM      7  C   UNL A   1      31.204  24.561  25.820  1.00  0.00     0.087 C 
ATOM      8  C   UNL A   1      30.285  29.023  23.439  1.00  0.00     0.048 C 
ATOM      9  C   UNL A   1      31.085  28.564  24.626  1.00  0.00    -0.005 A 
ATOM     10  C   UNL A   1      31.762  29.522  25.410  1.00  0.00     0.054 A 
ATOM     11  C   UNL A   1      31.116  27.217  25.010  1.00  0.00     0.131 A 
ATOM     12  C   UNL A   1      32.490  29.141  26.537  1.00  0.00     0.130 A 
ATOM     13  C   UNL A   1      31.867  26.835  26.124  1.00  0.00     0.021 A 
ATOM     14  O   UNL A   1      30.330  26.328  24.317  1.00  0.00    -0.475 OA
ATOM     15  C   UNL A   1      32.562  27.789  26.871  1.00  0.00     0.058 A 
ATOM     16  C   UNL A   1      31.831  25.463  26.585  1.00  0.00     0.027 C 
ATOM     17  C   UNL A   1      30.610  24.901  24.479  1.00  0.00     0.316 C 
BRANCH  12  18
ATOM     18  O   UNL A   1      33.160  29.961  27.397  1.00  0.00    -0.406 OA
BRANCH  18  19
ATOM     19  C   UNL A   1      34.573  29.999  27.306  1.00  0.00     0.573 C 
ATOM     20  F   UNL A   1      35.138  29.428  28.390  1.00  0.00    -0.132 F 
ATOM     21  F   UNL A   1      35.011  29.380  26.189  1.00  0.00    -0.132 F 
ATOM     22  F   UNL A   1      34.968  31.290  27.254  1.00  0.00    -0.132 F 
ENDBRANCH  18  19
ENDBRANCH  12  18
BRANCH  17  23
ATOM     23  C   UNL A   1      31.411  24.429  23.248  1.00  0.00     0.430 C 
ATOM     24  F   UNL A   1      32.747  24.419  23.449  1.00  0.00    -0.167 F 
ATOM     25  F   UNL A   1      31.072  23.155  22.918  1.00  0.00    -0.167 F 
ATOM     26  F   UNL A   1      31.182  25.199  22.158  1.00  0.00    -0.167 F 
ENDBRANCH  17  23
ENDBRANCH   5   7
ENDBRANCH   4   5
ENDBRANCH   3   4
ENDBRANCH   2   3
ENDBRANCH   1   2
BRANCH   1  27
ATOM     27  C   UNL A   1      35.725  20.813  25.171  1.00  0.00     0.202 C 
BRANCH  27  28
ATOM     28  C   UNL A   1      37.157  20.280  25.004  1.00  0.00     0.261 C 
BRANCH  28  29
ATOM     29  O   UNL A   1      38.133  21.329  25.148  1.00  0.00    -0.460 OA
BRANCH  29  30
ATOM     30  C   UNL A   1      39.145  21.067  26.007  1.00  0.00     0.338 C 
ATOM     31  O   UNL A   1      39.727  20.003  26.166  1.00  0.00    -0.246 OA
BRANCH  30  32
ATOM     32  C   UNL A   1      39.629  22.331  26.595  1.00  0.00     0.060 A 
ATOM     33  C   UNL A   1      39.058  23.523  26.126  1.00  0.00     0.016 A 
ATOM     34  C   UNL A   1      40.651  22.360  27.544  1.00  0.00     0.016 A 
ATOM     35  C   UNL A   1      39.538  24.751  26.570  1.00  0.00     0.010 A 
ATOM     36  C   UNL A   1      41.152  23.596  27.970  1.00  0.00     0.010 A 
ATOM     37  C   UNL A   1      40.624  24.794  27.454  1.00  0.00    -0.014 A 
BRANCH  37  38
ATOM     38  C   UNL A   1      41.338  26.078  27.651  1.00  0.00     0.031 A 
ATOM     39  C   UNL A   1      40.626  27.180  28.387  1.00  0.00     0.074 A 
ATOM     40  C   UNL A   1      42.608  26.247  27.242  1.00  0.00     0.049 A 
ATOM     41  N   UNL A   1      41.041  28.386  28.680  1.00  0.00    -0.248 NA
ATOM     42  C   UNL A   1      39.264  26.880  28.858  1.00  0.00     0.031 C 
ATOM     43  C   UNL A   1      43.421  25.236  26.572  1.00  0.00     0.029 A 
ATOM     44  N   UNL A   1      43.434  27.339  27.337  1.00  0.00    -0.354 N 
ATOM     45  C   UNL A   1      39.997  28.980  29.379  1.00  0.00     0.074 A 
ATOM     46  C   UNL A   1      38.915  28.023  29.429  1.00  0.00     0.031 C 
ATOM     47  C   UNL A   1      44.633  25.758  26.311  1.00  0.00     0.029 A 
ATOM     48  C   UNL A   1      44.670  27.146  26.769  1.00  0.00     0.049 A 
ATOM     49  H   UNL A   1      43.167  28.181  27.771  1.00  0.00     0.167 HD
ATOM     50  C   UNL A   1      39.954  30.207  29.945  1.00  0.00     0.037 A 
ATOM     51  C   UNL A   1      45.702  28.001  26.626  1.00  0.00     0.037 A 
ATOM     52  C   UNL A   1      41.028  31.162  29.893  1.00  0.00     0.049 A 
ATOM     53  C   UNL A   1      45.584  29.405  27.167  1.00  0.00     0.074 A 
ATOM     54  C   UNL A   1      41.079  32.431  30.442  1.00  0.00     0.029 A 
ATOM     55  N   UNL A   1      42.238  30.955  29.248  1.00  0.00    -0.354 N 
ATOM     56  N   UNL A   1      44.606  29.952  27.850  1.00  0.00    -0.248 NA
ATOM     57  C   UNL A   1      46.714  30.314  26.915  1.00  0.00     0.031 C 
ATOM     58  C   UNL A   1      42.297  33.013  30.083  1.00  0.00     0.029 A 
ATOM     59  C   UNL A   1      43.028  32.087  29.357  1.00  0.00     0.049 A 
ATOM     60  H   UNL A   1      42.496  30.127  28.781  1.00  0.00     0.167 HD
ATOM     61  C   UNL A   1      45.011  31.252  28.127  1.00  0.00     0.074 A 
ATOM     62  C   UNL A   1      46.332  31.410  27.558  1.00  0.00     0.031 C 
ATOM     63  C   UNL A   1      44.345  32.229  28.791  1.00  0.00     0.037 A 
BRANCH  50  64
ATOM     64  C   UNL A   1      38.704  30.599  30.673  1.00  0.00     0.064 A 
ATOM     65  C   UNL A   1      38.618  30.521  32.070  1.00  0.00     0.173 A 
ATOM     66  C   UNL A   1      37.611  31.134  29.974  1.00  0.00     0.173 A 
ATOM     67  F   UNL A   1      39.631  30.004  32.782  1.00  0.00    -0.203 F 
ATOM     68  C   UNL A   1      37.480  30.960  32.741  1.00  0.00     0.198 A 
ATOM     69  C   UNL A   1      36.487  31.596  30.651  1.00  0.00     0.198 A 
ATOM     70  F   UNL A   1      37.645  31.231  28.636  1.00  0.00    -0.203 F 
ATOM     71  F   UNL A   1      37.408  30.852  34.076  1.00  0.00    -0.200 F 
ATOM     72  C   UNL A   1      36.420  31.507  32.033  1.00  0.00     0.200 A 
ATOM     73  F   UNL A   1      35.470  32.139  29.966  1.00  0.00    -0.200 F 
ATOM     74  F   UNL A   1      35.336  31.950  32.683  1.00  0.00    -0.200 F 
ENDBRANCH  50  64
BRANCH  51  75
ATOM     75  C   UNL A   1      46.945  27.561  25.937  1.00  0.00     0.064 A 
ATOM     76  C   UNL A   1      48.020  27.026  26.661  1.00  0.00     0.173 A 
ATOM     77  C   UNL A   1      47.094  27.689  24.548  1.00  0.00     0.173 A 
ATOM     78  F   UNL A   1      47.938  26.911  27.994  1.00  0.00    -0.203 F 
ATOM     79  C   UNL A   1      49.200  26.647  26.024  1.00  0.00     0.198 A 
ATOM     80  C   UNL A   1      48.264  27.282  23.909  1.00  0.00     0.198 A 
ATOM     81  F   UNL A   1      46.100  28.202  23.808  1.00  0.00    -0.203 F 
ATOM     82  F   UNL A   1      50.228  26.182  26.746  1.00  0.00    -0.200 F 
ATOM     83  C   UNL A   1      49.318  26.769  24.648  1.00  0.00     0.200 A 
ATOM     84  F   UNL A   1      48.370  27.392  22.578  1.00  0.00    -0.200 F 
ATOM     85  F   UNL A   1      50.452  26.400  24.035  1.00  0.00    -0.200 F 
ENDBRANCH  51  75
BRANCH  63  86
ATOM     86  C   UNL A   1      45.024  33.560  28.953  1.00  0.00     0.064 A 
ATOM     87  C   UNL A   1      45.911  33.804  30.011  1.00  0.00     0.173 A 
ATOM     88  C   UNL A   1      44.862  34.565  27.986  1.00  0.00     0.173 A 
ATOM     89  F   UNL A   1      46.093  32.880  30.966  1.00  0.00    -0.203 F 
ATOM     90  C   UNL A   1      46.602  35.009  30.101  1.00  0.00     0.198 A 
ATOM     91  C   UNL A   1      45.578  35.756  28.063  1.00  0.00     0.198 A 
ATOM     92  F   UNL A   1      44.033  34.378  26.947  1.00  0.00    -0.203 F 
ATOM     93  F   UNL A   1      47.421  35.233  31.138  1.00  0.00    -0.200 F 
ATOM     94  C   UNL A   1      46.445  35.978  29.122  1.00  0.00     0.200 A 
ATOM     95  F   UNL A   1      45.441  36.683  27.104  1.00  0.00    -0.200 F 
ATOM     96  F   UNL A   1      47.130  37.129  29.199  1.00  0.00    -0.200 F 
ENDBRANCH  63  86
ENDBRANCH  37  38
ENDBRANCH  30  32
ENDBRANCH  29  30
ENDBRANCH  28  29
ENDBRANCH  27  28
ENDBRANCH   1  27
TORSDOF 17
ENDMDL
MODEL 2
REMARK VINA RESULT:     -11.8      0.641      7.223
REMARK SMILES Cc1cc(OC(F)(F)F)cc2c1O[C@@H](C(F)(F)F)C(C(=O)OCCOCCOC(=O)c1ccc(-c3c4nc(c(-c5c(F)c(F)c(F)c(F)c5F)c5ccc([nH]5)c(-c5c(F)c(F)c(F)c(F)c5F)c5nc(c(-c6c(F)c(F)c(F)c(F)c6F)c6ccc3[nH]6)C=C5)C=C4)cc1)=C2
REMARK SMILES IDX 25 1 24 2 23 3 22 4 20 5 21 6 19 7 1 8 2 9 3 10 12 11 4 12
REMARK SMILES IDX 11 13 13 14 10 15 94 16 14 17 5 18 6 19 7 20 8 21 9 22 15 23
REMARK SMILES IDX 16 24 17 25 18 26 26 27 27 28 28 29 29 30 30 31 31 32 32 33
REMARK SMILES IDX 93 34 33 35 92 36 34 37 35 38 36 39 86 40 37 41 91 42 85 43
REMARK SMILES IDX 87 44 38 45 90 46 84 47 83 48 39 50 71 51 51 52 70 53 52 54
REMARK SMILES IDX 55 55 69 56 88 57 53 58 54 59 68 61 89 62 56 63 40 64 41 65
REMARK SMILES IDX 49 66 42 67 43 68 47 69 50 70 44 71 45 72 48 73 46 74 72 75
REMARK SMILES IDX 73 76 81 77 74 78 75 79 79 80 82 81 76 82 77 83 80 84 78 85
REMARK SMILES IDX 57 86 58 87 66 88 59 89 60 90 64 91 67 92 61 93 62 94 65 95
REMARK SMILES IDX 63 96
REMARK H PARENT 87 49 55 60
REMARK Flexibility Score: inf
ROOT
ATOM      1  O   UNL A   1      35.139  21.292  26.434  1.00  0.00    -0.374 OA
ENDROOT
BRANCH   1   2
ATOM      2  C   UNL A   1      33.777  21.699  26.560  1.00  0.00     0.202 C 
BRANCH   2   3
ATOM      3  C   UNL A   1      33.354  22.887  25.697  1.00  0.00     0.261 C 
BRANCH   3   4
ATOM      4  O   UNL A   1      31.930  22.872  25.497  1.00  0.00    -0.460 OA
BRANCH   4   5
ATOM      5  C   UNL A   1      31.251  23.733  26.280  1.00  0.00     0.338 C 
ATOM      6  O   UNL A   1      30.676  23.453  27.321  1.00  0.00    -0.246 OA
BRANCH   5   7
ATOM      7  C   UNL A   1      31.371  25.113  25.766  1.00  0.00     0.087 C 
ATOM      8  C   UNL A   1      30.358  29.770  23.839  1.00  0.00     0.048 C 
ATOM      9  C   UNL A   1      31.218  29.206  24.935  1.00  0.00    -0.005 A 
ATOM     10  C   UNL A   1      31.944  30.089  25.761  1.00  0.00     0.054 A 
ATOM     11  C   UNL A   1      31.260  27.830  25.198  1.00  0.00     0.131 A 
ATOM     12  C   UNL A   1      32.730  29.608  26.809  1.00  0.00     0.130 A 
ATOM     13  C   UNL A   1      32.067  27.350  26.231  1.00  0.00     0.021 A 
ATOM     14  O   UNL A   1      30.430  27.008  24.474  1.00  0.00    -0.475 OA
ATOM     15  C   UNL A   1      32.810  28.232  27.018  1.00  0.00     0.058 A 
ATOM     16  C   UNL A   1      32.046  25.943  26.571  1.00  0.00     0.027 C 
ATOM     17  C   UNL A   1      30.707  25.572  24.494  1.00  0.00     0.316 C 
BRANCH  12  18
ATOM     18  O   UNL A   1      33.452  30.348  27.699  1.00  0.00    -0.406 OA
BRANCH  18  19
ATOM     19  C   UNL A   1      34.863  30.341  27.571  1.00  0.00     0.573 C 
ATOM     20  F   UNL A   1      35.244  29.592  26.515  1.00  0.00    -0.132 F 
ATOM     21  F   UNL A   1      35.351  31.593  27.436  1.00  0.00    -0.132 F 
ATOM     22  F   UNL A   1      35.396  29.800  28.688  1.00  0.00    -0.132 F 
ENDBRANCH  18  19
ENDBRANCH  12  18
BRANCH  17  23
ATOM     23  C   UNL A   1      31.436  25.207  23.184  1.00  0.00     0.430 C 
ATOM     24  F   UNL A   1      32.781  25.197  23.304  1.00  0.00    -0.167 F 
ATOM     25  F   UNL A   1      31.086  23.960  22.775  1.00  0.00    -0.167 F 
ATOM     26  F   UNL A   1      31.137  26.058  22.174  1.00  0.00    -0.167 F 
ENDBRANCH  17  23
ENDBRANCH   5   7
ENDBRANCH   4   5
ENDBRANCH   3   4
ENDBRANCH   2   3
ENDBRANCH   1   2
BRANCH   1  27
ATOM     27  C   UNL A   1      35.592  20.962  25.117  1.00  0.00     0.202 C 
BRANCH  27  28
ATOM     28  C   UNL A   1      37.043  20.472  24.993  1.00  0.00     0.261 C 
BRANCH  28  29
ATOM     29  O   UNL A   1      37.983  21.550  25.161  1.00  0.00    -0.460 OA
BRANCH  29  30
ATOM     30  C   UNL A   1      39.070  21.262  25.914  1.00  0.00     0.338 C 
ATOM     31  O   UNL A   1      39.731  20.234  25.899  1.00  0.00    -0.246 OA
BRANCH  30  32
ATOM     32  C   UNL A   1      39.510  22.477  26.626  1.00  0.00     0.060 A 
ATOM     33  C   UNL A   1      38.835  23.674  26.341  1.00  0.00     0.016 A 
ATOM     34  C   UNL A   1      40.588  22.465  27.512  1.00  0.00     0.016 A 
ATOM     35  C   UNL A   1      39.265  24.871  26.906  1.00  0.00     0.010 A 
ATOM     36  C   UNL A   1      41.037  23.673  28.058  1.00  0.00     0.010 A 
ATOM     37  C   UNL A   1      40.401  24.884  27.725  1.00  0.00    -0.014 A 
BRANCH  37  38
ATOM     38  C   UNL A   1      41.045  26.182  28.039  1.00  0.00     0.031 A 
ATOM     39  C   UNL A   1      42.470  26.391  27.603  1.00  0.00     0.074 A 
ATOM     40  C   UNL A   1      40.369  27.175  28.641  1.00  0.00     0.049 A 
ATOM     41  N   UNL A   1      43.243  27.435  27.762  1.00  0.00    -0.248 NA
ATOM     42  C   UNL A   1      43.107  25.273  26.889  1.00  0.00     0.031 C 
ATOM     43  C   UNL A   1      38.970  27.115  29.057  1.00  0.00     0.029 A 
ATOM     44  N   UNL A   1      40.776  28.436  29.004  1.00  0.00    -0.354 N 
ATOM     45  C   UNL A   1      44.448  27.102  27.157  1.00  0.00     0.074 A 
ATOM     46  C   UNL A   1      44.323  25.748  26.667  1.00  0.00     0.031 C 
ATOM     47  C   UNL A   1      38.635  28.288  29.625  1.00  0.00     0.029 A 
ATOM     48  C   UNL A   1      39.802  29.169  29.637  1.00  0.00     0.049 A 
ATOM     49  H   UNL A   1      41.681  28.781  28.828  1.00  0.00     0.167 HD
ATOM     50  C   UNL A   1      45.554  27.866  27.007  1.00  0.00     0.037 A 
ATOM     51  C   UNL A   1      39.858  30.403  30.176  1.00  0.00     0.037 A 
ATOM     52  C   UNL A   1      45.682  29.212  27.497  1.00  0.00     0.049 A 
ATOM     53  C   UNL A   1      41.143  31.191  30.096  1.00  0.00     0.074 A 
ATOM     54  C   UNL A   1      46.763  30.068  27.388  1.00  0.00     0.029 A 
ATOM     55  N   UNL A   1      44.697  29.894  28.195  1.00  0.00    -0.354 N 
ATOM     56  N   UNL A   1      42.270  30.882  29.500  1.00  0.00    -0.248 NA
ATOM     57  C   UNL A   1      41.164  32.501  30.767  1.00  0.00     0.031 C 
ATOM     58  C   UNL A   1      46.454  31.249  28.068  1.00  0.00     0.029 A 
ATOM     59  C   UNL A   1      45.160  31.150  28.553  1.00  0.00     0.049 A 
ATOM     60  H   UNL A   1      43.803  29.539  28.406  1.00  0.00     0.167 HD
ATOM     61  C   UNL A   1      43.120  31.962  29.702  1.00  0.00     0.074 A 
ATOM     62  C   UNL A   1      42.375  32.946  30.459  1.00  0.00     0.031 C 
ATOM     63  C   UNL A   1      44.405  32.123  29.300  1.00  0.00     0.037 A 
BRANCH  50  64
ATOM     64  C   UNL A   1      46.724  27.271  26.285  1.00  0.00     0.064 A 
ATOM     65  C   UNL A   1      46.915  27.475  24.911  1.00  0.00     0.173 A 
ATOM     66  C   UNL A   1      47.706  26.555  26.988  1.00  0.00     0.173 A 
ATOM     67  F   UNL A   1      45.997  28.140  24.193  1.00  0.00    -0.203 F 
ATOM     68  C   UNL A   1      48.045  26.982  24.265  1.00  0.00     0.198 A 
ATOM     69  C   UNL A   1      48.848  26.088  26.343  1.00  0.00     0.198 A 
ATOM     70  F   UNL A   1      47.570  26.335  28.304  1.00  0.00    -0.203 F 
ATOM     71  F   UNL A   1      48.195  27.167  22.946  1.00  0.00    -0.200 F 
ATOM     72  C   UNL A   1      49.016  26.299  24.984  1.00  0.00     0.200 A 
ATOM     73  F   UNL A   1      49.792  25.441  27.042  1.00  0.00    -0.200 F 
ATOM     74  F   UNL A   1      50.114  25.845  24.364  1.00  0.00    -0.200 F 
ENDBRANCH  50  64
BRANCH  51  75
ATOM     75  C   UNL A   1      38.661  30.979  30.846  1.00  0.00     0.064 A 
ATOM     76  C   UNL A   1      37.703  31.698  30.118  1.00  0.00     0.173 A 
ATOM     77  C   UNL A   1      38.463  30.845  32.228  1.00  0.00     0.173 A 
ATOM     78  F   UNL A   1      37.863  31.880  28.799  1.00  0.00    -0.203 F 
ATOM     79  C   UNL A   1      36.600  32.272  30.747  1.00  0.00     0.198 A 
ATOM     80  C   UNL A   1      37.343  31.393  32.852  1.00  0.00     0.198 A 
ATOM     81  F   UNL A   1      39.352  30.173  32.974  1.00  0.00    -0.203 F 
ATOM     82  F   UNL A   1      35.725  32.993  30.034  1.00  0.00    -0.200 F 
ATOM     83  C   UNL A   1      36.418  32.112  32.113  1.00  0.00     0.200 A 
ATOM     84  F   UNL A   1      37.165  31.228  34.169  1.00  0.00    -0.200 F 
ATOM     85  F   UNL A   1      35.354  32.660  32.717  1.00  0.00    -0.200 F 
ENDBRANCH  51  75
BRANCH  63  86
ATOM     86  C   UNL A   1      45.100  33.406  29.657  1.00  0.00     0.064 A 
ATOM     87  C   UNL A   1      45.866  33.522  30.826  1.00  0.00     0.173 A 
ATOM     88  C   UNL A   1      45.081  34.498  28.774  1.00  0.00     0.173 A 
ATOM     89  F   UNL A   1      45.910  32.511  31.707  1.00  0.00    -0.203 F 
ATOM     90  C   UNL A   1      46.578  34.686  31.103  1.00  0.00     0.198 A 
ATOM     91  C   UNL A   1      45.819  35.648  29.039  1.00  0.00     0.198 A 
ATOM     92  F   UNL A   1      44.372  34.436  27.637  1.00  0.00    -0.203 F 
ATOM     93  F   UNL A   1      47.279  34.786  32.241  1.00  0.00    -0.200 F 
ATOM     94  C   UNL A   1      46.564  35.742  30.204  1.00  0.00     0.200 A 
ATOM     95  F   UNL A   1      45.820  36.660  28.160  1.00  0.00    -0.200 F 
ATOM     96  F   UNL A   1      47.269  36.853  30.462  1.00  0.00    -0.200 F 
ENDBRANCH  63  86
ENDBRANCH  37  38
ENDBRANCH  30  32
ENDBRANCH  29  30
ENDBRANCH  28  29
ENDBRANCH  27  28
ENDBRANCH   1  27
TORSDOF 17
ENDMDL
MODEL 3
REMARK VINA RESULT:     -11.8      4.135     10.014
REMARK SMILES Cc1cc(OC(F)(F)F)cc2c1O[C@@H](C(F)(F)F)C(C(=O)OCCOCCOC(=O)c1ccc(-c3c4nc(c(-c5c(F)c(F)c(F)c(F)c5F)c5ccc([nH]5)c(-c5c(F)c(F)c(F)c(F)c5F)c5nc(c(-c6c(F)c(F)c(F)c(F)c6F)c6ccc3[nH]6)C=C5)C=C4)cc1)=C2
REMARK SMILES IDX 25 1 24 2 23 3 22 4 20 5 21 6 19 7 1 8 2 9 3 10 12 11 4 12
REMARK SMILES IDX 11 13 13 14 10 15 94 16 14 17 5 18 6 19 7 20 8 21 9 22 15 23
REMARK SMILES IDX 16 24 17 25 18 26 26 27 27 28 28 29 29 30 30 31 31 32 32 33
REMARK SMILES IDX 93 34 33 35 92 36 34 37 35 38 36 39 86 40 37 41 91 42 85 43
REMARK SMILES IDX 87 44 38 45 90 46 84 47 83 48 39 50 71 51 51 52 70 53 52 54
REMARK SMILES IDX 55 55 69 56 88 57 53 58 54 59 68 61 89 62 56 63 40 64 41 65
REMARK SMILES IDX 49 66 42 67 43 68 47 69 50 70 44 71 45 72 48 73 46 74 72 75
REMARK SMILES IDX 73 76 81 77 74 78 75 79 79 80 82 81 76 82 77 83 80 84 78 85
REMARK SMILES IDX 57 86 58 87 66 88 59 89 60 90 64 91 67 92 61 93 62 94 65 95
REMARK SMILES IDX 63 96
REMARK H PARENT 87 49 55 60
REMARK Flexibility Score: inf
ROOT
ATOM      1  O   UNL A   1      30.772  28.088  24.312  1.00  0.00    -0.374 OA
ENDROOT
BRANCH   1   2
ATOM      2  C   UNL A   1      30.643  26.689  24.065  1.00  0.00     0.202 C 
BRANCH   2   3
ATOM      3  C   UNL A   1      30.282  25.829  25.276  1.00  0.00     0.261 C 
BRANCH   3   4
ATOM      4  O   UNL A   1      30.662  24.461  25.042  1.00  0.00    -0.460 OA
BRANCH   4   5
ATOM      5  C   UNL A   1      31.320  23.886  26.068  1.00  0.00     0.338 C 
ATOM      6  O   UNL A   1      31.052  24.016  27.253  1.00  0.00    -0.246 OA
BRANCH   5   7
ATOM      7  C   UNL A   1      32.374  22.978  25.570  1.00  0.00     0.087 C 
ATOM      8  C   UNL A   1      36.733  20.311  25.003  1.00  0.00     0.048 C 
ATOM      9  C   UNL A   1      35.260  20.035  24.881  1.00  0.00    -0.005 A 
ATOM     10  C   UNL A   1      34.830  18.722  24.595  1.00  0.00     0.054 A 
ATOM     11  C   UNL A   1      34.306  21.035  25.112  1.00  0.00     0.131 A 
ATOM     12  C   UNL A   1      33.471  18.417  24.503  1.00  0.00     0.130 A 
ATOM     13  C   UNL A   1      32.948  20.732  24.994  1.00  0.00     0.021 A 
ATOM     14  O   UNL A   1      34.748  22.266  25.533  1.00  0.00    -0.475 OA
ATOM     15  C   UNL A   1      32.536  19.437  24.675  1.00  0.00     0.058 A 
ATOM     16  C   UNL A   1      31.953  21.731  25.322  1.00  0.00     0.027 C 
ATOM     17  C   UNL A   1      33.817  23.391  25.446  1.00  0.00     0.316 C 
BRANCH  12  18
ATOM     18  O   UNL A   1      32.920  17.192  24.267  1.00  0.00    -0.406 OA
BRANCH  18  19
ATOM     19  C   UNL A   1      33.103  16.186  25.248  1.00  0.00     0.573 C 
ATOM     20  F   UNL A   1      34.312  15.603  25.116  1.00  0.00    -0.132 F 
ATOM     21  F   UNL A   1      32.976  16.687  26.495  1.00  0.00    -0.132 F 
ATOM     22  F   UNL A   1      32.155  15.238  25.077  1.00  0.00    -0.132 F 
ENDBRANCH  18  19
ENDBRANCH  12  18
BRANCH  17  23
ATOM     23  C   UNL A   1      34.177  24.212  24.191  1.00  0.00     0.430 C 
ATOM     24  F   UNL A   1      35.469  24.085  23.819  1.00  0.00    -0.167 F 
ATOM     25  F   UNL A   1      33.439  23.805  23.126  1.00  0.00    -0.167 F 
ATOM     26  F   UNL A   1      33.944  25.536  24.357  1.00  0.00    -0.167 F 
ENDBRANCH  17  23
ENDBRANCH   5   7
ENDBRANCH   4   5
ENDBRANCH   3   4
ENDBRANCH   2   3
ENDBRANCH   1   2
BRANCH   1  27
ATOM     27  C   UNL A   1      31.736  28.482  25.294  1.00  0.00     0.202 C 
BRANCH  27  28
ATOM     28  C   UNL A   1      31.729  29.961  25.708  1.00  0.00     0.261 C 
BRANCH  28  29
ATOM     29  O   UNL A   1      32.326  30.153  27.004  1.00  0.00    -0.460 OA
BRANCH  29  30
ATOM     30  C   UNL A   1      33.009  31.310  27.165  1.00  0.00     0.338 C 
ATOM     31  O   UNL A   1      32.564  32.447  27.107  1.00  0.00    -0.246 OA
BRANCH  30  32
ATOM     32  C   UNL A   1      34.367  31.014  27.659  1.00  0.00     0.060 A 
ATOM     33  C   UNL A   1      34.715  29.665  27.825  1.00  0.00     0.016 A 
ATOM     34  C   UNL A   1      35.265  32.025  28.003  1.00  0.00     0.016 A 
ATOM     35  C   UNL A   1      35.946  29.323  28.378  1.00  0.00     0.010 A 
ATOM     36  C   UNL A   1      36.491  31.681  28.585  1.00  0.00     0.010 A 
ATOM     37  C   UNL A   1      36.817  30.331  28.810  1.00  0.00    -0.014 A 
BRANCH  37  38
ATOM     38  C   UNL A   1      37.951  29.969  29.694  1.00  0.00     0.031 A 
ATOM     39  C   UNL A   1      38.988  29.017  29.163  1.00  0.00     0.074 A 
ATOM     40  C   UNL A   1      38.093  30.513  30.915  1.00  0.00     0.049 A 
ATOM     41  N   UNL A   1      40.064  28.552  29.744  1.00  0.00    -0.248 NA
ATOM     42  C   UNL A   1      38.786  28.526  27.790  1.00  0.00     0.031 C 
ATOM     43  C   UNL A   1      37.189  31.489  31.516  1.00  0.00     0.029 A 
ATOM     44  N   UNL A   1      39.063  30.318  31.868  1.00  0.00    -0.354 N 
ATOM     45  C   UNL A   1      40.670  27.728  28.804  1.00  0.00     0.074 A 
ATOM     46  C   UNL A   1      39.824  27.719  27.633  1.00  0.00     0.031 C 
ATOM     47  C   UNL A   1      37.644  31.805  32.742  1.00  0.00     0.029 A 
ATOM     48  C   UNL A   1      38.855  31.034  33.021  1.00  0.00     0.049 A 
ATOM     49  H   UNL A   1      39.834  29.720  31.737  1.00  0.00     0.167 HD
ATOM     50  C   UNL A   1      41.839  27.054  28.904  1.00  0.00     0.037 A 
ATOM     51  C   UNL A   1      39.555  31.048  34.172  1.00  0.00     0.037 A 
ATOM     52  C   UNL A   1      42.680  27.059  30.070  1.00  0.00     0.049 A 
ATOM     53  C   UNL A   1      40.795  30.196  34.297  1.00  0.00     0.074 A 
ATOM     54  C   UNL A   1      43.887  26.410  30.262  1.00  0.00     0.029 A 
ATOM     55  N   UNL A   1      42.399  27.741  31.243  1.00  0.00    -0.354 N 
ATOM     56  N   UNL A   1      41.377  29.441  33.397  1.00  0.00    -0.248 NA
ATOM     57  C   UNL A   1      41.475  30.197  35.602  1.00  0.00     0.031 C 
ATOM     58  C   UNL A   1      44.308  26.654  31.571  1.00  0.00     0.029 A 
ATOM     59  C   UNL A   1      43.393  27.500  32.177  1.00  0.00     0.049 A 
ATOM     60  H   UNL A   1      41.609  28.310  31.392  1.00  0.00     0.167 HD
ATOM     61  C   UNL A   1      42.497  28.899  34.015  1.00  0.00     0.074 A 
ATOM     62  C   UNL A   1      42.528  29.427  35.362  1.00  0.00     0.031 C 
ATOM     63  C   UNL A   1      43.416  28.038  33.512  1.00  0.00     0.037 A 
BRANCH  50  64
ATOM     64  C   UNL A   1      42.285  26.248  27.722  1.00  0.00     0.064 A 
ATOM     65  C   UNL A   1      43.242  26.739  26.822  1.00  0.00     0.173 A 
ATOM     66  C   UNL A   1      41.810  24.941  27.531  1.00  0.00     0.173 A 
ATOM     67  F   UNL A   1      43.715  27.988  26.954  1.00  0.00    -0.203 F 
ATOM     68  C   UNL A   1      43.706  25.952  25.772  1.00  0.00     0.198 A 
ATOM     69  C   UNL A   1      42.297  24.149  26.496  1.00  0.00     0.198 A 
ATOM     70  F   UNL A   1      40.896  24.425  28.365  1.00  0.00    -0.203 F 
ATOM     71  F   UNL A   1      44.602  26.451  24.909  1.00  0.00    -0.200 F 
ATOM     72  C   UNL A   1      43.242  24.654  25.616  1.00  0.00     0.200 A 
ATOM     73  F   UNL A   1      41.859  22.889  26.356  1.00  0.00    -0.200 F 
ATOM     74  F   UNL A   1      43.707  23.891  24.618  1.00  0.00    -0.200 F 
ENDBRANCH  50  64
BRANCH  51  75
ATOM     75  C   UNL A   1      39.106  31.896  35.308  1.00  0.00     0.064 A 
ATOM     76  C   UNL A   1      38.313  31.366  36.336  1.00  0.00     0.173 A 
ATOM     77  C   UNL A   1      39.438  33.258  35.380  1.00  0.00     0.173 A 
ATOM     78  F   UNL A   1      37.943  30.077  36.297  1.00  0.00    -0.203 F 
ATOM     79  C   UNL A   1      37.858  32.165  37.382  1.00  0.00     0.198 A 
ATOM     80  C   UNL A   1      39.008  34.049  36.443  1.00  0.00     0.198 A 
ATOM     81  F   UNL A   1      40.188  33.819  34.420  1.00  0.00    -0.203 F 
ATOM     82  F   UNL A   1      37.063  31.642  38.325  1.00  0.00    -0.200 F 
ATOM     83  C   UNL A   1      38.212  33.505  37.438  1.00  0.00     0.200 A 
ATOM     84  F   UNL A   1      39.360  35.341  36.499  1.00  0.00    -0.200 F 
ATOM     85  F   UNL A   1      37.779  34.273  38.448  1.00  0.00    -0.200 F 
ENDBRANCH  51  75
BRANCH  63  86
ATOM     86  C   UNL A   1      44.543  27.608  34.408  1.00  0.00     0.064 A 
ATOM     87  C   UNL A   1      45.722  28.360  34.511  1.00  0.00     0.173 A 
ATOM     88  C   UNL A   1      44.403  26.489  35.245  1.00  0.00     0.173 A 
ATOM     89  F   UNL A   1      45.910  29.432  33.727  1.00  0.00    -0.203 F 
ATOM     90  C   UNL A   1      46.723  28.001  35.410  1.00  0.00     0.198 A 
ATOM     91  C   UNL A   1      45.392  26.152  36.164  1.00  0.00     0.198 A 
ATOM     92  F   UNL A   1      43.289  25.742  35.194  1.00  0.00    -0.203 F 
ATOM     93  F   UNL A   1      47.855  28.717  35.469  1.00  0.00    -0.200 F 
ATOM     94  C   UNL A   1      46.552  26.906  36.243  1.00  0.00     0.200 A 
ATOM     95  F   UNL A   1      45.216  25.105  36.983  1.00  0.00    -0.200 F 
ATOM     96  F   UNL A   1      47.508  26.577  37.125  1.00  0.00    -0.200 F 
ENDBRANCH  63  86
ENDBRANCH  37  38
ENDBRANCH  30  32
ENDBRANCH  29  30
ENDBRANCH  28  29
ENDBRANCH  27  28
ENDBRANCH   1  27
TORSDOF 17
ENDMDL
