MODEL 1
REMARK VINA RESULT:     -12.2      0.000      0.000
REMARK SMILES O=C(OCCOCCOC(=O)c1cccn2c(=O)c3ccc(Cl)cc3nc12)c1ccc(-c2c3nc(c(-c4c(F)c(F)c(F)c(F)c4F)c4ccc([nH]4)c(-c4c(F)c(F)c(F)c(F)c4F)c4nc(c(-c5c(F)c(F)c(F)c(F)c5F)c5ccc2[nH]5)C=C4)C=C3)cc1
REMARK SMILES IDX 5 1 4 2 3 3 2 4 1 5 28 6 29 7 90 8 30 9 89 10 31 11 32 12
REMARK SMILES IDX 33 13 83 14 34 15 88 16 82 17 84 18 35 19 87 20 81 21 80 22
REMARK SMILES IDX 36 24 68 25 48 26 67 27 49 28 52 29 66 30 85 31 50 32 51 33
REMARK SMILES IDX 65 35 86 36 53 37 37 38 38 39 46 40 39 41 40 42 44 43 47 44
REMARK SMILES IDX 41 45 42 46 45 47 43 48 69 49 70 50 78 51 71 52 72 53 76 54
REMARK SMILES IDX 79 55 73 56 74 57 77 58 75 59 54 60 55 61 63 62 56 63 57 64
REMARK SMILES IDX 61 65 64 66 58 67 59 68 62 69 60 70 6 71 7 72 8 73 9 74
REMARK SMILES IDX 10 75 11 76 12 77 13 78 27 79 14 80 16 81 26 82 15 83 17 84
REMARK SMILES IDX 25 85 18 86 19 87 24 88 20 89 22 90 21 91 23 92
REMARK H PARENT 84 23 52 34
REMARK Flexibility Score: inf
ROOT
ATOM      1  C   UNL A   1      31.281  32.552  26.500  1.00  0.00     0.202 C 
ENDROOT
BRANCH   1   2
ATOM      2  C   UNL A   1      32.495  33.052  27.284  1.00  0.00     0.261 C 
BRANCH   2   3
ATOM      3  O   UNL A   1      32.257  34.338  27.869  1.00  0.00    -0.460 OA
BRANCH   3   4
ATOM      4  C   UNL A   1      32.990  34.988  28.801  1.00  0.00     0.338 C 
ATOM      5  O   UNL A   1      32.697  36.164  29.027  1.00  0.00    -0.246 OA
BRANCH   4   6
ATOM      6  C   UNL A   1      34.141  34.405  29.578  1.00  0.00     0.060 A 
ATOM      7  C   UNL A   1      35.420  34.590  29.014  1.00  0.00     0.016 A 
ATOM      8  C   UNL A   1      34.066  33.643  30.748  1.00  0.00     0.016 A 
ATOM      9  C   UNL A   1      36.556  33.986  29.560  1.00  0.00     0.010 A 
ATOM     10  C   UNL A   1      35.183  33.017  31.286  1.00  0.00     0.010 A 
ATOM     11  C   UNL A   1      36.428  33.174  30.686  1.00  0.00    -0.014 A 
BRANCH  11  12
ATOM     12  C   UNL A   1      37.581  32.546  31.341  1.00  0.00     0.031 A 
ATOM     13  C   UNL A   1      38.255  31.362  30.730  1.00  0.00     0.074 A 
ATOM     14  C   UNL A   1      37.890  32.980  32.573  1.00  0.00     0.049 A 
ATOM     15  N   UNL A   1      39.268  30.670  31.180  1.00  0.00    -0.248 NA
ATOM     16  C   UNL A   1      37.705  30.877  29.456  1.00  0.00     0.031 C 
ATOM     17  C   UNL A   1      37.203  34.071  33.268  1.00  0.00     0.029 A 
ATOM     18  N   UNL A   1      38.821  32.538  33.468  1.00  0.00    -0.354 N 
ATOM     19  C   UNL A   1      39.505  29.690  30.228  1.00  0.00     0.074 A 
ATOM     20  C   UNL A   1      38.485  29.833  29.209  1.00  0.00     0.031 C 
ATOM     21  C   UNL A   1      37.737  34.212  34.488  1.00  0.00     0.029 A 
ATOM     22  C   UNL A   1      38.797  33.224  34.653  1.00  0.00     0.049 A 
ATOM     23  H   UNL A   1      39.447  31.801  33.281  1.00  0.00     0.167 HD
ATOM     24  C   UNL A   1      40.503  28.774  30.208  1.00  0.00     0.037 A 
ATOM     25  C   UNL A   1      39.566  33.077  35.744  1.00  0.00     0.037 A 
ATOM     26  C   UNL A   1      41.460  28.624  31.277  1.00  0.00     0.049 A 
ATOM     27  C   UNL A   1      40.654  32.048  35.712  1.00  0.00     0.074 A 
ATOM     28  C   UNL A   1      42.539  27.762  31.365  1.00  0.00     0.029 A 
ATOM     29  N   UNL A   1      41.431  29.346  32.466  1.00  0.00    -0.354 N 
ATOM     30  N   UNL A   1      40.951  31.192  34.762  1.00  0.00    -0.248 NA
ATOM     31  C   UNL A   1      41.527  31.979  36.886  1.00  0.00     0.031 C 
ATOM     32  C   UNL A   1      43.130  27.931  32.625  1.00  0.00     0.029 A 
ATOM     33  C   UNL A   1      42.456  28.935  33.303  1.00  0.00     0.049 A 
ATOM     34  H   UNL A   1      40.775  30.049  32.681  1.00  0.00     0.167 HD
ATOM     35  C   UNL A   1      42.056  30.488  35.214  1.00  0.00     0.074 A 
ATOM     36  C   UNL A   1      42.387  31.040  36.516  1.00  0.00     0.031 C 
ATOM     37  C   UNL A   1      42.734  29.480  34.611  1.00  0.00     0.037 A 
BRANCH  24  38
ATOM     38  C   UNL A   1      40.612  27.891  28.995  1.00  0.00     0.064 A 
ATOM     39  C   UNL A   1      39.852  26.714  28.882  1.00  0.00     0.173 A 
ATOM     40  C   UNL A   1      41.453  28.225  27.924  1.00  0.00     0.173 A 
ATOM     41  F   UNL A   1      39.033  26.340  29.877  1.00  0.00    -0.203 F 
ATOM     42  C   UNL A   1      39.954  25.894  27.761  1.00  0.00     0.198 A 
ATOM     43  C   UNL A   1      41.531  27.417  26.790  1.00  0.00     0.198 A 
ATOM     44  F   UNL A   1      42.200  29.338  27.970  1.00  0.00    -0.203 F 
ATOM     45  F   UNL A   1      39.254  24.751  27.703  1.00  0.00    -0.200 F 
ATOM     46  C   UNL A   1      40.788  26.248  26.713  1.00  0.00     0.200 A 
ATOM     47  F   UNL A   1      42.326  27.768  25.771  1.00  0.00    -0.200 F 
ATOM     48  F   UNL A   1      40.880  25.462  25.632  1.00  0.00    -0.200 F 
ENDBRANCH  24  38
BRANCH  25  49
ATOM     49  C   UNL A   1      39.383  34.022  36.870  1.00  0.00     0.064 A 
ATOM     50  C   UNL A   1      38.653  33.632  38.000  1.00  0.00     0.173 A 
ATOM     51  C   UNL A   1      40.042  35.259  36.907  1.00  0.00     0.173 A 
ATOM     52  F   UNL A   1      38.008  32.456  38.005  1.00  0.00    -0.203 F 
ATOM     53  C   UNL A   1      38.596  34.440  39.132  1.00  0.00     0.198 A 
ATOM     54  C   UNL A   1      39.999  36.058  38.048  1.00  0.00     0.198 A 
ATOM     55  F   UNL A   1      40.773  35.663  35.858  1.00  0.00    -0.203 F 
ATOM     56  F   UNL A   1      37.895  34.041  40.201  1.00  0.00    -0.200 F 
ATOM     57  C   UNL A   1      39.279  35.646  39.160  1.00  0.00     0.200 A 
ATOM     58  F   UNL A   1      40.681  37.212  38.082  1.00  0.00    -0.200 F 
ATOM     59  F   UNL A   1      39.254  36.406  40.263  1.00  0.00    -0.200 F 
ENDBRANCH  25  49
BRANCH  37  60
ATOM     60  C   UNL A   1      43.892  28.907  35.375  1.00  0.00     0.064 A 
ATOM     61  C   UNL A   1      43.715  27.852  36.285  1.00  0.00     0.173 A 
ATOM     62  C   UNL A   1      45.187  29.410  35.193  1.00  0.00     0.173 A 
ATOM     63  F   UNL A   1      42.492  27.350  36.506  1.00  0.00    -0.203 F 
ATOM     64  C   UNL A   1      44.789  27.350  37.012  1.00  0.00     0.198 A 
ATOM     65  C   UNL A   1      46.265  28.881  35.897  1.00  0.00     0.198 A 
ATOM     66  F   UNL A   1      45.410  30.413  34.330  1.00  0.00    -0.203 F 
ATOM     67  F   UNL A   1      44.587  26.385  37.920  1.00  0.00    -0.200 F 
ATOM     68  C   UNL A   1      46.064  27.859  36.814  1.00  0.00     0.200 A 
ATOM     69  F   UNL A   1      47.498  29.366  35.696  1.00  0.00    -0.200 F 
ATOM     70  F   UNL A   1      47.097  27.374  37.516  1.00  0.00    -0.200 F 
ENDBRANCH  37  60
ENDBRANCH  11  12
ENDBRANCH   4   6
ENDBRANCH   3   4
ENDBRANCH   2   3
ENDBRANCH   1   2
BRANCH   1  71
ATOM     71  O   UNL A   1      31.418  31.221  26.006  1.00  0.00    -0.374 OA
BRANCH  71  72
ATOM     72  C   UNL A   1      32.190  30.344  26.822  1.00  0.00     0.202 C 
BRANCH  72  73
ATOM     73  C   UNL A   1      33.128  29.483  25.975  1.00  0.00     0.261 C 
BRANCH  73  74
ATOM     74  O   UNL A   1      33.307  28.199  26.597  1.00  0.00    -0.460 OA
BRANCH  74  75
ATOM     75  C   UNL A   1      32.203  27.404  26.681  1.00  0.00     0.342 C 
ATOM     76  O   UNL A   1      31.481  27.269  27.655  1.00  0.00    -0.246 OA
BRANCH  75  77
ATOM     77  C   UNL A   1      31.962  26.789  25.355  1.00  0.00     0.103 A 
ATOM     78  C   UNL A   1      30.802  27.047  24.728  1.00  0.00     0.021 A 
ATOM     79  C   UNL A   1      32.948  25.850  24.720  1.00  0.00     0.154 A 
ATOM     80  C   UNL A   1      30.509  26.466  23.448  1.00  0.00     0.019 A 
ATOM     81  N   UNL A   1      32.621  25.356  23.452  1.00  0.00    -0.267 N 
ATOM     82  N   UNL A   1      34.018  25.487  25.356  1.00  0.00    -0.229 NA
ATOM     83  C   UNL A   1      31.409  25.677  22.853  1.00  0.00     0.096 A 
ATOM     84  C   UNL A   1      33.495  24.507  22.762  1.00  0.00     0.265 A 
ATOM     85  C   UNL A   1      34.880  24.548  24.786  1.00  0.00     0.080 A 
ATOM     86  O   UNL A   1      33.320  24.101  21.615  1.00  0.00    -0.268 OA
ATOM     87  C   UNL A   1      34.689  24.055  23.500  1.00  0.00     0.066 A 
ATOM     88  C   UNL A   1      35.947  24.061  25.549  1.00  0.00     0.049 A 
ATOM     89  C   UNL A   1      35.567  23.111  22.952  1.00  0.00     0.017 A 
ATOM     90  C   UNL A   1      36.809  23.100  25.019  1.00  0.00     0.043 A 
ATOM     91  C   UNL A   1      36.631  22.631  23.718  1.00  0.00     0.021 A 
ATOM     92  Cl  UNL A   1      38.085  22.472  25.985  1.00  0.00    -0.084 Cl
ENDBRANCH  75  77
ENDBRANCH  74  75
ENDBRANCH  73  74
ENDBRANCH  72  73
ENDBRANCH  71  72
ENDBRANCH   1  71
TORSDOF 14
ENDMDL
MODEL 2
REMARK VINA RESULT:     -12.1      0.393      7.309
REMARK SMILES O=C(OCCOCCOC(=O)c1cccn2c(=O)c3ccc(Cl)cc3nc12)c1ccc(-c2c3nc(c(-c4c(F)c(F)c(F)c(F)c4F)c4ccc([nH]4)c(-c4c(F)c(F)c(F)c(F)c4F)c4nc(c(-c5c(F)c(F)c(F)c(F)c5F)c5ccc2[nH]5)C=C4)C=C3)cc1
REMARK SMILES IDX 5 1 4 2 3 3 2 4 1 5 28 6 29 7 90 8 30 9 89 10 31 11 32 12
REMARK SMILES IDX 33 13 83 14 34 15 88 16 82 17 84 18 35 19 87 20 81 21 80 22
REMARK SMILES IDX 36 24 68 25 48 26 67 27 49 28 52 29 66 30 85 31 50 32 51 33
REMARK SMILES IDX 65 35 86 36 53 37 37 38 38 39 46 40 39 41 40 42 44 43 47 44
REMARK SMILES IDX 41 45 42 46 45 47 43 48 69 49 70 50 78 51 71 52 72 53 76 54
REMARK SMILES IDX 79 55 73 56 74 57 77 58 75 59 54 60 55 61 63 62 56 63 57 64
REMARK SMILES IDX 61 65 64 66 58 67 59 68 62 69 60 70 6 71 7 72 8 73 9 74
REMARK SMILES IDX 10 75 11 76 12 77 13 78 27 79 14 80 16 81 26 82 15 83 17 84
REMARK SMILES IDX 25 85 18 86 19 87 24 88 20 89 22 90 21 91 23 92
REMARK H PARENT 84 23 52 34
REMARK Flexibility Score: inf
ROOT
ATOM      1  C   UNL A   1      31.350  32.701  26.488  1.00  0.00     0.202 C 
ENDROOT
BRANCH   1   2
ATOM      2  C   UNL A   1      32.527  33.049  27.398  1.00  0.00     0.261 C 
BRANCH   2   3
ATOM      3  O   UNL A   1      32.440  34.391  27.890  1.00  0.00    -0.460 OA
BRANCH   3   4
ATOM      4  C   UNL A   1      33.087  34.948  28.939  1.00  0.00     0.338 C 
ATOM      5  O   UNL A   1      32.747  36.087  29.268  1.00  0.00    -0.246 OA
BRANCH   4   6
ATOM      6  C   UNL A   1      34.194  34.305  29.731  1.00  0.00     0.060 A 
ATOM      7  C   UNL A   1      35.499  34.494  29.230  1.00  0.00     0.016 A 
ATOM      8  C   UNL A   1      34.058  33.485  30.856  1.00  0.00     0.016 A 
ATOM      9  C   UNL A   1      36.601  33.843  29.790  1.00  0.00     0.010 A 
ATOM     10  C   UNL A   1      35.141  32.811  31.405  1.00  0.00     0.010 A 
ATOM     11  C   UNL A   1      36.412  32.976  30.865  1.00  0.00    -0.014 A 
BRANCH  11  12
ATOM     12  C   UNL A   1      37.526  32.293  31.534  1.00  0.00     0.031 A 
ATOM     13  C   UNL A   1      38.029  32.770  32.857  1.00  0.00     0.074 A 
ATOM     14  C   UNL A   1      38.162  31.341  30.835  1.00  0.00     0.049 A 
ATOM     15  N   UNL A   1      39.015  32.302  33.578  1.00  0.00    -0.248 NA
ATOM     16  C   UNL A   1      37.352  33.938  33.437  1.00  0.00     0.031 C 
ATOM     17  C   UNL A   1      37.778  30.897  29.493  1.00  0.00     0.029 A 
ATOM     18  N   UNL A   1      39.276  30.609  31.131  1.00  0.00    -0.354 N 
ATOM     19  C   UNL A   1      39.054  33.093  34.716  1.00  0.00     0.074 A 
ATOM     20  C   UNL A   1      38.039  34.115  34.559  1.00  0.00     0.031 C 
ATOM     21  C   UNL A   1      38.648  29.967  29.078  1.00  0.00     0.029 A 
ATOM     22  C   UNL A   1      39.642  29.755  30.124  1.00  0.00     0.049 A 
ATOM     23  H   UNL A   1      39.765  30.686  31.982  1.00  0.00     0.167 HD
ATOM     24  C   UNL A   1      39.855  32.952  35.799  1.00  0.00     0.037 A 
ATOM     25  C   UNL A   1      40.662  28.884  30.069  1.00  0.00     0.037 A 
ATOM     26  C   UNL A   1      40.899  31.961  35.887  1.00  0.00     0.049 A 
ATOM     27  C   UNL A   1      41.550  28.754  31.268  1.00  0.00     0.074 A 
ATOM     28  C   UNL A   1      41.756  31.689  36.939  1.00  0.00     0.029 A 
ATOM     29  N   UNL A   1      41.243  31.087  34.859  1.00  0.00    -0.354 N 
ATOM     30  N   UNL A   1      41.518  29.427  32.394  1.00  0.00    -0.248 NA
ATOM     31  C   UNL A   1      42.596  27.730  31.202  1.00  0.00     0.031 C 
ATOM     32  C   UNL A   1      42.646  30.687  36.528  1.00  0.00     0.029 A 
ATOM     33  C   UNL A   1      42.313  30.294  35.241  1.00  0.00     0.049 A 
ATOM     34  H   UNL A   1      40.790  31.041  33.986  1.00  0.00     0.167 HD
ATOM     35  C   UNL A   1      42.530  28.902  33.182  1.00  0.00     0.074 A 
ATOM     36  C   UNL A   1      43.140  27.836  32.407  1.00  0.00     0.031 C 
ATOM     37  C   UNL A   1      42.921  29.266  34.429  1.00  0.00     0.037 A 
BRANCH  24  38
ATOM     38  C   UNL A   1      39.620  33.876  36.963  1.00  0.00     0.064 A 
ATOM     39  C   UNL A   1      38.823  33.485  38.052  1.00  0.00     0.173 A 
ATOM     40  C   UNL A   1      40.211  35.147  37.015  1.00  0.00     0.173 A 
ATOM     41  F   UNL A   1      38.227  32.283  38.057  1.00  0.00    -0.203 F 
ATOM     42  C   UNL A   1      38.602  34.342  39.129  1.00  0.00     0.198 A 
ATOM     43  C   UNL A   1      40.012  35.990  38.108  1.00  0.00     0.198 A 
ATOM     44  F   UNL A   1      40.987  35.576  36.008  1.00  0.00    -0.203 F 
ATOM     45  F   UNL A   1      37.796  33.961  40.131  1.00  0.00    -0.200 F 
ATOM     46  C   UNL A   1      39.202  35.590  39.160  1.00  0.00     0.200 A 
ATOM     47  F   UNL A   1      40.604  37.191  38.143  1.00  0.00    -0.200 F 
ATOM     48  F   UNL A   1      38.993  36.410  40.199  1.00  0.00    -0.200 F 
ENDBRANCH  24  38
BRANCH  25  49
ATOM     49  C   UNL A   1      40.781  28.009  28.879  1.00  0.00     0.064 A 
ATOM     50  C   UNL A   1      39.989  26.858  28.775  1.00  0.00     0.173 A 
ATOM     51  C   UNL A   1      41.564  28.372  27.774  1.00  0.00     0.173 A 
ATOM     52  F   UNL A   1      39.225  26.476  29.810  1.00  0.00    -0.203 F 
ATOM     53  C   UNL A   1      39.968  26.105  27.604  1.00  0.00     0.198 A 
ATOM     54  C   UNL A   1      41.527  27.628  26.597  1.00  0.00     0.198 A 
ATOM     55  F   UNL A   1      42.318  29.479  27.819  1.00  0.00    -0.203 F 
ATOM     56  F   UNL A   1      39.199  25.012  27.529  1.00  0.00    -0.200 F 
ATOM     57  C   UNL A   1      40.727  26.498  26.512  1.00  0.00     0.200 A 
ATOM     58  F   UNL A   1      42.241  28.022  25.534  1.00  0.00    -0.200 F 
ATOM     59  F   UNL A   1      40.678  25.794  25.373  1.00  0.00    -0.200 F 
ENDBRANCH  25  49
BRANCH  37  60
ATOM     60  C   UNL A   1      44.075  28.505  35.014  1.00  0.00     0.064 A 
ATOM     61  C   UNL A   1      45.392  28.979  34.903  1.00  0.00     0.173 A 
ATOM     62  C   UNL A   1      43.864  27.299  35.694  1.00  0.00     0.173 A 
ATOM     63  F   UNL A   1      45.646  30.120  34.246  1.00  0.00    -0.203 F 
ATOM     64  C   UNL A   1      46.458  28.250  35.420  1.00  0.00     0.198 A 
ATOM     65  C   UNL A   1      44.930  26.589  36.240  1.00  0.00     0.198 A 
ATOM     66  F   UNL A   1      42.623  26.806  35.832  1.00  0.00    -0.203 F 
ATOM     67  F   UNL A   1      47.712  28.690  35.249  1.00  0.00    -0.200 F 
ATOM     68  C   UNL A   1      46.226  27.060  36.093  1.00  0.00     0.200 A 
ATOM     69  F   UNL A   1      44.704  25.446  36.900  1.00  0.00    -0.200 F 
ATOM     70  F   UNL A   1      47.255  26.359  36.589  1.00  0.00    -0.200 F 
ENDBRANCH  37  60
ENDBRANCH  11  12
ENDBRANCH   4   6
ENDBRANCH   3   4
ENDBRANCH   2   3
ENDBRANCH   1   2
BRANCH   1  71
ATOM     71  O   UNL A   1      31.393  31.374  25.965  1.00  0.00    -0.374 OA
BRANCH  71  72
ATOM     72  C   UNL A   1      32.090  30.424  26.768  1.00  0.00     0.202 C 
BRANCH  72  73
ATOM     73  C   UNL A   1      33.085  29.618  25.932  1.00  0.00     0.261 C 
BRANCH  73  74
ATOM     74  O   UNL A   1      33.304  28.334  26.540  1.00  0.00    -0.460 OA
BRANCH  74  75
ATOM     75  C   UNL A   1      32.219  27.515  26.643  1.00  0.00     0.342 C 
ATOM     76  O   UNL A   1      31.510  27.375  27.626  1.00  0.00    -0.246 OA
BRANCH  75  77
ATOM     77  C   UNL A   1      31.978  26.881  25.326  1.00  0.00     0.103 A 
ATOM     78  C   UNL A   1      30.834  27.161  24.678  1.00  0.00     0.021 A 
ATOM     79  C   UNL A   1      32.945  25.903  24.723  1.00  0.00     0.154 A 
ATOM     80  C   UNL A   1      30.543  26.563  23.406  1.00  0.00     0.019 A 
ATOM     81  N   UNL A   1      32.622  25.394  23.461  1.00  0.00    -0.267 N 
ATOM     82  N   UNL A   1      33.996  25.523  25.381  1.00  0.00    -0.229 NA
ATOM     83  C   UNL A   1      31.427  25.737  22.838  1.00  0.00     0.096 A 
ATOM     84  C   UNL A   1      33.481  24.507  22.800  1.00  0.00     0.265 A 
ATOM     85  C   UNL A   1      34.839  24.549  24.841  1.00  0.00     0.080 A 
ATOM     86  O   UNL A   1      33.309  24.084  21.658  1.00  0.00    -0.268 OA
ATOM     87  C   UNL A   1      34.651  24.036  23.562  1.00  0.00     0.066 A 
ATOM     88  C   UNL A   1      35.880  24.047  25.628  1.00  0.00     0.049 A 
ATOM     89  C   UNL A   1      35.509  23.057  23.045  1.00  0.00     0.017 A 
ATOM     90  C   UNL A   1      36.722  23.051  25.129  1.00  0.00     0.043 A 
ATOM     91  C   UNL A   1      36.548  22.562  23.835  1.00  0.00     0.021 A 
ATOM     92  Cl  UNL A   1      37.967  22.406  26.125  1.00  0.00    -0.084 Cl
ENDBRANCH  75  77
ENDBRANCH  74  75
ENDBRANCH  73  74
ENDBRANCH  72  73
ENDBRANCH  71  72
ENDBRANCH   1  71
TORSDOF 14
ENDMDL
MODEL 3
REMARK VINA RESULT:     -12.0      1.305      7.515
REMARK SMILES O=C(OCCOCCOC(=O)c1cccn2c(=O)c3ccc(Cl)cc3nc12)c1ccc(-c2c3nc(c(-c4c(F)c(F)c(F)c(F)c4F)c4ccc([nH]4)c(-c4c(F)c(F)c(F)c(F)c4F)c4nc(c(-c5c(F)c(F)c(F)c(F)c5F)c5ccc2[nH]5)C=C4)C=C3)cc1
REMARK SMILES IDX 5 1 4 2 3 3 2 4 1 5 28 6 29 7 90 8 30 9 89 10 31 11 32 12
REMARK SMILES IDX 33 13 83 14 34 15 88 16 82 17 84 18 35 19 87 20 81 21 80 22
REMARK SMILES IDX 36 24 68 25 48 26 67 27 49 28 52 29 66 30 85 31 50 32 51 33
REMARK SMILES IDX 65 35 86 36 53 37 37 38 38 39 46 40 39 41 40 42 44 43 47 44
REMARK SMILES IDX 41 45 42 46 45 47 43 48 69 49 70 50 78 51 71 52 72 53 76 54
REMARK SMILES IDX 79 55 73 56 74 57 77 58 75 59 54 60 55 61 63 62 56 63 57 64
REMARK SMILES IDX 61 65 64 66 58 67 59 68 62 69 60 70 6 71 7 72 8 73 9 74
REMARK SMILES IDX 10 75 11 76 12 77 13 78 27 79 14 80 16 81 26 82 15 83 17 84
REMARK SMILES IDX 25 85 18 86 19 87 24 88 20 89 22 90 21 91 23 92
REMARK H PARENT 84 23 52 34
REMARK Flexibility Score: inf
ROOT
ATOM      1  C   UNL A   1      31.671  31.819  27.230  1.00  0.00     0.202 C 
ENDROOT
BRANCH   1   2
ATOM      2  C   UNL A   1      32.444  33.086  26.864  1.00  0.00     0.261 C 
BRANCH   2   3
ATOM      3  O   UNL A   1      32.173  34.157  27.776  1.00  0.00    -0.460 OA
BRANCH   3   4
ATOM      4  C   UNL A   1      33.020  34.770  28.634  1.00  0.00     0.338 C 
ATOM      5  O   UNL A   1      32.861  35.979  28.814  1.00  0.00    -0.246 OA
BRANCH   4   6
ATOM      6  C   UNL A   1      34.149  34.106  29.377  1.00  0.00     0.060 A 
ATOM      7  C   UNL A   1      35.450  34.436  28.944  1.00  0.00     0.016 A 
ATOM      8  C   UNL A   1      34.041  33.149  30.392  1.00  0.00     0.016 A 
ATOM      9  C   UNL A   1      36.579  33.792  29.456  1.00  0.00     0.010 A 
ATOM     10  C   UNL A   1      35.153  32.483  30.890  1.00  0.00     0.010 A 
ATOM     11  C   UNL A   1      36.423  32.792  30.414  1.00  0.00    -0.014 A 
BRANCH  11  12
ATOM     12  C   UNL A   1      37.564  32.105  31.031  1.00  0.00     0.031 A 
ATOM     13  C   UNL A   1      38.105  32.556  32.348  1.00  0.00     0.074 A 
ATOM     14  C   UNL A   1      38.185  31.175  30.291  1.00  0.00     0.049 A 
ATOM     15  N   UNL A   1      39.117  32.082  33.026  1.00  0.00    -0.248 NA
ATOM     16  C   UNL A   1      37.437  33.705  32.976  1.00  0.00     0.031 C 
ATOM     17  C   UNL A   1      37.762  30.758  28.952  1.00  0.00     0.029 A 
ATOM     18  N   UNL A   1      39.314  30.447  30.535  1.00  0.00    -0.354 N 
ATOM     19  C   UNL A   1      39.186  32.848  34.181  1.00  0.00     0.074 A 
ATOM     20  C   UNL A   1      38.157  33.863  34.079  1.00  0.00     0.031 C 
ATOM     21  C   UNL A   1      38.627  29.845  28.489  1.00  0.00     0.029 A 
ATOM     22  C   UNL A   1      39.655  29.619  29.497  1.00  0.00     0.049 A 
ATOM     23  H   UNL A   1      39.830  30.509  31.371  1.00  0.00     0.167 HD
ATOM     24  C   UNL A   1      40.023  32.690  35.234  1.00  0.00     0.037 A 
ATOM     25  C   UNL A   1      40.681  28.759  29.390  1.00  0.00     0.037 A 
ATOM     26  C   UNL A   1      41.077  31.706  35.266  1.00  0.00     0.049 A 
ATOM     27  C   UNL A   1      41.608  28.611  30.557  1.00  0.00     0.074 A 
ATOM     28  C   UNL A   1      41.970  31.419  36.283  1.00  0.00     0.029 A 
ATOM     29  N   UNL A   1      41.395  30.860  34.208  1.00  0.00    -0.354 N 
ATOM     30  N   UNL A   1      41.606  29.257  31.699  1.00  0.00    -0.248 NA
ATOM     31  C   UNL A   1      42.660  27.599  30.434  1.00  0.00     0.031 C 
ATOM     32  C   UNL A   1      42.855  30.436  35.822  1.00  0.00     0.029 A 
ATOM     33  C   UNL A   1      42.484  30.068  34.538  1.00  0.00     0.049 A 
ATOM     34  H   UNL A   1      40.915  30.829  33.349  1.00  0.00     0.167 HD
ATOM     35  C   UNL A   1      42.648  28.725  32.441  1.00  0.00     0.074 A 
ATOM     36  C   UNL A   1      43.241  27.682  31.623  1.00  0.00     0.031 C 
ATOM     37  C   UNL A   1      43.075  29.065  33.683  1.00  0.00     0.037 A 
BRANCH  24  38
ATOM     38  C   UNL A   1      39.817  33.585  36.426  1.00  0.00     0.064 A 
ATOM     39  C   UNL A   1      40.462  34.830  36.521  1.00  0.00     0.173 A 
ATOM     40  C   UNL A   1      38.953  33.221  37.469  1.00  0.00     0.173 A 
ATOM     41  F   UNL A   1      41.304  35.230  35.556  1.00  0.00    -0.203 F 
ATOM     42  C   UNL A   1      40.274  35.658  37.626  1.00  0.00     0.198 A 
ATOM     43  C   UNL A   1      38.743  34.065  38.559  1.00  0.00     0.198 A 
ATOM     44  F   UNL A   1      38.304  32.048  37.434  1.00  0.00    -0.203 F 
ATOM     45  F   UNL A   1      40.941  36.818  37.712  1.00  0.00    -0.200 F 
ATOM     46  C   UNL A   1      39.410  35.279  38.640  1.00  0.00     0.200 A 
ATOM     47  F   UNL A   1      37.897  33.704  39.532  1.00  0.00    -0.200 F 
ATOM     48  F   UNL A   1      39.226  36.079  39.699  1.00  0.00    -0.200 F 
ENDBRANCH  24  38
BRANCH  25  49
ATOM     49  C   UNL A   1      40.769  27.913  28.177  1.00  0.00     0.064 A 
ATOM     50  C   UNL A   1      41.531  28.337  27.081  1.00  0.00     0.173 A 
ATOM     51  C   UNL A   1      40.225  26.621  28.141  1.00  0.00     0.173 A 
ATOM     52  F   UNL A   1      42.068  29.565  27.076  1.00  0.00    -0.203 F 
ATOM     53  C   UNL A   1      41.754  27.496  25.995  1.00  0.00     0.198 A 
ATOM     54  C   UNL A   1      40.466  25.774  27.061  1.00  0.00     0.198 A 
ATOM     55  F   UNL A   1      39.509  26.163  29.179  1.00  0.00    -0.203 F 
ATOM     56  F   UNL A   1      42.491  27.924  24.961  1.00  0.00    -0.200 F 
ATOM     57  C   UNL A   1      41.233  26.211  25.992  1.00  0.00     0.200 A 
ATOM     58  F   UNL A   1      39.982  24.524  27.071  1.00  0.00    -0.200 F 
ATOM     59  F   UNL A   1      41.480  25.389  24.962  1.00  0.00    -0.200 F 
ENDBRANCH  25  49
BRANCH  37  60
ATOM     60  C   UNL A   1      44.254  28.302  34.214  1.00  0.00     0.064 A 
ATOM     61  C   UNL A   1      44.087  27.091  34.905  1.00  0.00     0.173 A 
ATOM     62  C   UNL A   1      45.557  28.779  34.025  1.00  0.00     0.173 A 
ATOM     63  F   UNL A   1      42.857  26.603  35.125  1.00  0.00    -0.203 F 
ATOM     64  C   UNL A   1      45.183  26.407  35.421  1.00  0.00     0.198 A 
ATOM     65  C   UNL A   1      46.654  28.074  34.513  1.00  0.00     0.198 A 
ATOM     66  F   UNL A   1      45.771  29.928  33.366  1.00  0.00    -0.203 F 
ATOM     67  F   UNL A   1      44.996  25.286  36.131  1.00  0.00    -0.200 F 
ATOM     68  C   UNL A   1      46.466  26.895  35.220  1.00  0.00     0.200 A 
ATOM     69  F   UNL A   1      47.893  28.540  34.308  1.00  0.00    -0.200 F 
ATOM     70  F   UNL A   1      47.520  26.235  35.718  1.00  0.00    -0.200 F 
ENDBRANCH  37  60
ENDBRANCH  11  12
ENDBRANCH   4   6
ENDBRANCH   3   4
ENDBRANCH   2   3
ENDBRANCH   1   2
BRANCH   1  71
ATOM     71  O   UNL A   1      32.441  30.622  27.137  1.00  0.00    -0.374 OA
BRANCH  71  72
ATOM     72  C   UNL A   1      33.850  30.791  27.271  1.00  0.00     0.202 C 
BRANCH  72  73
ATOM     73  C   UNL A   1      34.560  29.441  27.385  1.00  0.00     0.261 C 
BRANCH  73  74
ATOM     74  O   UNL A   1      33.623  28.377  27.149  1.00  0.00    -0.460 OA
BRANCH  74  75
ATOM     75  C   UNL A   1      33.532  27.918  25.869  1.00  0.00     0.342 C 
ATOM     76  O   UNL A   1      34.143  28.345  24.902  1.00  0.00    -0.246 OA
BRANCH  75  77
ATOM     77  C   UNL A   1      32.629  26.743  25.850  1.00  0.00     0.103 A 
ATOM     78  C   UNL A   1      31.313  26.942  26.030  1.00  0.00     0.021 A 
ATOM     79  C   UNL A   1      33.146  25.342  25.689  1.00  0.00     0.154 A 
ATOM     80  C   UNL A   1      30.394  25.839  26.037  1.00  0.00     0.019 A 
ATOM     81  N   UNL A   1      32.194  24.318  25.657  1.00  0.00    -0.267 N 
ATOM     82  N   UNL A   1      34.421  25.111  25.635  1.00  0.00    -0.229 NA
ATOM     83  C   UNL A   1      30.843  24.596  25.834  1.00  0.00     0.096 A 
ATOM     84  C   UNL A   1      32.575  22.984  25.469  1.00  0.00     0.265 A 
ATOM     85  C   UNL A   1      34.887  23.796  25.571  1.00  0.00     0.080 A 
ATOM     86  O   UNL A   1      31.795  22.042  25.346  1.00  0.00    -0.268 OA
ATOM     87  C   UNL A   1      34.024  22.712  25.456  1.00  0.00     0.066 A 
ATOM     88  C   UNL A   1      36.263  23.562  25.664  1.00  0.00     0.049 A 
ATOM     89  C   UNL A   1      34.516  21.402  25.396  1.00  0.00     0.017 A 
ATOM     90  C   UNL A   1      36.758  22.258  25.633  1.00  0.00     0.043 A 
ATOM     91  C   UNL A   1      35.891  21.176  25.487  1.00  0.00     0.021 A 
ATOM     92  Cl  UNL A   1      38.447  21.981  25.799  1.00  0.00    -0.084 Cl
ENDBRANCH  75  77
ENDBRANCH  74  75
ENDBRANCH  73  74
ENDBRANCH  72  73
ENDBRANCH  71  72
ENDBRANCH   1  71
TORSDOF 14
ENDMDL
