MODEL 1
REMARK VINA RESULT:     -11.1      0.000      0.000
REMARK SMILES O=C(OCCOCCOC(=O)[C@H]1C[C@H](O)CN1C(=O)CS[C@H]1CCS(=O)(=O)C1)c1ccc(-c2c3nc(c(-c4c(F)c(F)c(F)c(F)c4F)c4ccc([nH]4)c(-c4c(F)c(F)c(F)c(F)c4F)c4nc(c(-c5c(F)c(F)c(F)c(F)c5F)c5ccc2[nH]5)C=C4)C=C3)cc1
REMARK SMILES IDX 7 1 6 2 5 3 4 4 3 5 2 6 1 7 29 8 30 9 91 10 31 11 90 12
REMARK SMILES IDX 32 13 33 14 34 15 84 16 35 17 89 18 83 19 85 20 36 21 88 22
REMARK SMILES IDX 82 23 81 24 37 26 69 27 49 28 68 29 50 30 53 31 67 32 86 33
REMARK SMILES IDX 51 34 52 35 66 37 87 38 54 39 38 40 39 41 47 42 40 43 41 44
REMARK SMILES IDX 45 45 48 46 42 47 43 48 46 49 44 50 70 51 71 52 79 53 72 54
REMARK SMILES IDX 73 55 77 56 80 57 74 58 75 59 78 60 76 61 55 62 56 63 64 64
REMARK SMILES IDX 57 65 58 66 62 67 65 68 59 69 60 70 63 71 61 72 8 73 9 74
REMARK SMILES IDX 10 75 11 76 12 77 13 78 17 79 14 80 16 81 18 82 19 83 20 84
REMARK SMILES IDX 21 85 22 86 23 87 28 88 24 89 25 90 26 91 27 92 15 93
REMARK H PARENT 85 25 53 36 15 94
REMARK Flexibility Score: inf
ROOT
ATOM      1  C   UNL A   1      31.156  27.049  26.475  1.00  0.00     0.202 C 
ENDROOT
BRANCH   1   2
ATOM      2  O   UNL A   1      31.893  27.804  25.516  1.00  0.00    -0.374 OA
BRANCH   2   3
ATOM      3  C   UNL A   1      31.495  29.081  25.032  1.00  0.00     0.202 C 
BRANCH   3   4
ATOM      4  C   UNL A   1      31.909  30.381  25.741  1.00  0.00     0.261 C 
BRANCH   4   5
ATOM      5  O   UNL A   1      33.245  30.410  26.291  1.00  0.00    -0.460 OA
BRANCH   5   6
ATOM      6  C   UNL A   1      33.690  31.258  27.260  1.00  0.00     0.338 C 
ATOM      7  O   UNL A   1      33.039  32.235  27.606  1.00  0.00    -0.246 OA
BRANCH   6   8
ATOM      8  C   UNL A   1      35.008  30.992  27.872  1.00  0.00     0.060 A 
ATOM      9  C   UNL A   1      35.297  29.720  28.322  1.00  0.00     0.016 A 
ATOM     10  C   UNL A   1      35.994  31.967  27.982  1.00  0.00     0.016 A 
ATOM     11  C   UNL A   1      36.324  29.469  29.181  1.00  0.00     0.010 A 
ATOM     12  C   UNL A   1      37.193  31.647  28.633  1.00  0.00     0.010 A 
ATOM     13  C   UNL A   1      37.331  30.404  29.277  1.00  0.00    -0.014 A 
BRANCH  13  14
ATOM     14  C   UNL A   1      38.468  30.021  30.123  1.00  0.00     0.031 A 
ATOM     15  C   UNL A   1      39.548  29.203  29.505  1.00  0.00     0.074 A 
ATOM     16  C   UNL A   1      38.596  30.579  31.345  1.00  0.00     0.049 A 
ATOM     17  N   UNL A   1      40.582  28.645  30.065  1.00  0.00    -0.248 NA
ATOM     18  C   UNL A   1      39.454  28.986  28.050  1.00  0.00     0.031 C 
ATOM     19  C   UNL A   1      37.671  31.560  31.937  1.00  0.00     0.029 A 
ATOM     20  N   UNL A   1      39.578  30.459  32.287  1.00  0.00    -0.354 N 
ATOM     21  C   UNL A   1      41.219  27.950  29.048  1.00  0.00     0.074 A 
ATOM     22  C   UNL A   1      40.469  28.167  27.834  1.00  0.00     0.031 C 
ATOM     23  C   UNL A   1      38.166  31.994  33.102  1.00  0.00     0.029 A 
ATOM     24  C   UNL A   1      39.353  31.218  33.410  1.00  0.00     0.049 A 
ATOM     25  H   UNL A   1      40.370  29.886  32.171  1.00  0.00     0.167 HD
ATOM     26  C   UNL A   1      42.323  27.178  29.155  1.00  0.00     0.037 A 
ATOM     27  C   UNL A   1      40.003  31.220  34.586  1.00  0.00     0.037 A 
ATOM     28  C   UNL A   1      43.029  27.020  30.396  1.00  0.00     0.049 A 
ATOM     29  C   UNL A   1      41.152  30.262  34.717  1.00  0.00     0.074 A 
ATOM     30  C   UNL A   1      44.106  26.207  30.688  1.00  0.00     0.029 A 
ATOM     31  N   UNL A   1      42.715  27.713  31.563  1.00  0.00    -0.354 N 
ATOM     32  N   UNL A   1      41.681  29.481  33.803  1.00  0.00    -0.248 NA
ATOM     33  C   UNL A   1      41.769  30.151  36.040  1.00  0.00     0.031 C 
ATOM     34  C   UNL A   1      44.407  26.369  32.046  1.00  0.00     0.029 A 
ATOM     35  C   UNL A   1      43.562  27.331  32.586  1.00  0.00     0.049 A 
ATOM     36  H   UNL A   1      41.994  28.378  31.646  1.00  0.00     0.167 HD
ATOM     37  C   UNL A   1      42.705  28.794  34.432  1.00  0.00     0.074 A 
ATOM     38  C   UNL A   1      42.732  29.271  35.804  1.00  0.00     0.031 C 
ATOM     39  C   UNL A   1      43.544  27.853  33.932  1.00  0.00     0.037 A 
BRANCH  26  40
ATOM     40  C   UNL A   1      42.710  26.387  27.942  1.00  0.00     0.064 A 
ATOM     41  C   UNL A   1      43.618  26.869  26.986  1.00  0.00     0.173 A 
ATOM     42  C   UNL A   1      42.079  25.161  27.683  1.00  0.00     0.173 A 
ATOM     43  F   UNL A   1      44.217  28.056  27.162  1.00  0.00    -0.203 F 
ATOM     44  C   UNL A   1      43.841  26.176  25.797  1.00  0.00     0.198 A 
ATOM     45  C   UNL A   1      42.329  24.456  26.510  1.00  0.00     0.198 A 
ATOM     46  F   UNL A   1      41.188  24.663  28.554  1.00  0.00    -0.203 F 
ATOM     47  F   UNL A   1      44.643  26.700  24.859  1.00  0.00    -0.200 F 
ATOM     48  C   UNL A   1      43.198  24.970  25.562  1.00  0.00     0.200 A 
ATOM     49  F   UNL A   1      41.704  23.292  26.283  1.00  0.00    -0.200 F 
ATOM     50  F   UNL A   1      43.397  24.317  24.408  1.00  0.00    -0.200 F 
ENDBRANCH  26  40
BRANCH  27  51
ATOM     51  C   UNL A   1      39.530  32.064  35.716  1.00  0.00     0.064 A 
ATOM     52  C   UNL A   1      38.537  31.612  36.596  1.00  0.00     0.173 A 
ATOM     53  C   UNL A   1      40.062  33.344  35.949  1.00  0.00     0.173 A 
ATOM     54  F   UNL A   1      37.980  30.406  36.412  1.00  0.00    -0.203 F 
ATOM     55  C   UNL A   1      38.087  32.408  37.649  1.00  0.00     0.198 A 
ATOM     56  C   UNL A   1      39.636  34.126  37.022  1.00  0.00     0.198 A 
ATOM     57  F   UNL A   1      41.015  33.834  35.142  1.00  0.00    -0.203 F 
ATOM     58  F   UNL A   1      37.103  31.968  38.446  1.00  0.00    -0.200 F 
ATOM     59  C   UNL A   1      38.642  33.661  37.866  1.00  0.00     0.200 A 
ATOM     60  F   UNL A   1      40.191  35.327  37.234  1.00  0.00    -0.200 F 
ATOM     61  F   UNL A   1      38.211  34.423  38.880  1.00  0.00    -0.200 F 
ENDBRANCH  27  51
BRANCH  39  62
ATOM     62  C   UNL A   1      44.581  27.323  34.871  1.00  0.00     0.064 A 
ATOM     63  C   UNL A   1      45.820  27.958  35.034  1.00  0.00     0.173 A 
ATOM     64  C   UNL A   1      44.302  26.194  35.656  1.00  0.00     0.173 A 
ATOM     65  F   UNL A   1      46.135  29.028  34.289  1.00  0.00    -0.203 F 
ATOM     66  C   UNL A   1      46.755  27.465  35.937  1.00  0.00     0.198 A 
ATOM     67  C   UNL A   1      45.225  25.728  36.583  1.00  0.00     0.198 A 
ATOM     68  F   UNL A   1      43.126  25.561  35.535  1.00  0.00    -0.203 F 
ATOM     69  F   UNL A   1      47.954  28.055  36.045  1.00  0.00    -0.200 F 
ATOM     70  C   UNL A   1      46.452  26.359  36.718  1.00  0.00     0.200 A 
ATOM     71  F   UNL A   1      44.924  24.671  37.349  1.00  0.00    -0.200 F 
ATOM     72  F   UNL A   1      47.349  25.896  37.600  1.00  0.00    -0.200 F 
ENDBRANCH  39  62
ENDBRANCH  13  14
ENDBRANCH   6   8
ENDBRANCH   5   6
ENDBRANCH   4   5
ENDBRANCH   3   4
ENDBRANCH   2   3
ENDBRANCH   1   2
BRANCH   1  73
ATOM     73  C   UNL A   1      31.510  25.571  26.278  1.00  0.00     0.261 C 
BRANCH  73  74
ATOM     74  O   UNL A   1      31.094  25.196  24.957  1.00  0.00    -0.462 OA
BRANCH  74  75
ATOM     75  C   UNL A   1      31.481  23.931  24.589  1.00  0.00     0.329 C 
ATOM     76  O   UNL A   1      31.034  22.887  25.047  1.00  0.00    -0.250 OA
BRANCH  75  77
ATOM     77  C   UNL A   1      32.376  24.012  23.348  1.00  0.00     0.197 C 
ATOM     78  C   UNL A   1      31.845  25.022  22.325  1.00  0.00     0.070 C 
ATOM     79  N   UNL A   1      33.689  24.498  23.730  1.00  0.00    -0.325 N 
ATOM     80  C   UNL A   1      32.836  26.162  22.225  1.00  0.00     0.136 C 
ATOM     81  C   UNL A   1      33.999  25.772  23.116  1.00  0.00     0.152 C 
BRANCH  79  82
ATOM     82  C   UNL A   1      34.449  23.706  24.570  1.00  0.00     0.233 C 
ATOM     83  O   UNL A   1      34.937  24.177  25.600  1.00  0.00    -0.274 OA
BRANCH  82  84
ATOM     84  C   UNL A   1      34.697  22.255  24.202  1.00  0.00     0.169 C 
BRANCH  84  85
ATOM     85  S   UNL A   1      34.648  21.176  25.687  1.00  0.00    -0.148 SA
BRANCH  85  86
ATOM     86  C   UNL A   1      33.720  19.780  25.004  1.00  0.00     0.063 C 
ATOM     87  C   UNL A   1      32.910  20.202  23.766  1.00  0.00     0.031 C 
ATOM     88  C   UNL A   1      34.539  18.590  24.534  1.00  0.00     0.151 C 
ATOM     89  C   UNL A   1      32.214  18.943  23.258  1.00  0.00     0.138 C 
ATOM     90  S   UNL A   1      33.278  17.590  23.737  1.00  0.00     0.151 S 
ATOM     91  O   UNL A   1      32.586  16.834  24.761  1.00  0.00    -0.229 OA
ATOM     92  O   UNL A   1      33.826  16.976  22.546  1.00  0.00    -0.229 OA
ENDBRANCH  85  86
ENDBRANCH  84  85
ENDBRANCH  82  84
ENDBRANCH  79  82
BRANCH  80  93
ATOM     93  O   UNL A   1      33.239  26.351  20.871  1.00  0.00    -0.391 OA
ATOM     94  H   UNL A   1      34.034  25.825  20.694  1.00  0.00     0.211 HD
ENDBRANCH  80  93
ENDBRANCH  75  77
ENDBRANCH  74  75
ENDBRANCH  73  74
ENDBRANCH   1  73
TORSDOF 19
ENDMDL
MODEL 2
REMARK VINA RESULT:     -11.0      1.036      2.481
REMARK SMILES O=C(OCCOCCOC(=O)[C@H]1C[C@H](O)CN1C(=O)CS[C@H]1CCS(=O)(=O)C1)c1ccc(-c2c3nc(c(-c4c(F)c(F)c(F)c(F)c4F)c4ccc([nH]4)c(-c4c(F)c(F)c(F)c(F)c4F)c4nc(c(-c5c(F)c(F)c(F)c(F)c5F)c5ccc2[nH]5)C=C4)C=C3)cc1
REMARK SMILES IDX 7 1 6 2 5 3 4 4 3 5 2 6 1 7 29 8 30 9 91 10 31 11 90 12
REMARK SMILES IDX 32 13 33 14 34 15 84 16 35 17 89 18 83 19 85 20 36 21 88 22
REMARK SMILES IDX 82 23 81 24 37 26 69 27 49 28 68 29 50 30 53 31 67 32 86 33
REMARK SMILES IDX 51 34 52 35 66 37 87 38 54 39 38 40 39 41 47 42 40 43 41 44
REMARK SMILES IDX 45 45 48 46 42 47 43 48 46 49 44 50 70 51 71 52 79 53 72 54
REMARK SMILES IDX 73 55 77 56 80 57 74 58 75 59 78 60 76 61 55 62 56 63 64 64
REMARK SMILES IDX 57 65 58 66 62 67 65 68 59 69 60 70 63 71 61 72 8 73 9 74
REMARK SMILES IDX 10 75 11 76 12 77 13 78 17 79 14 80 16 81 18 82 19 83 20 84
REMARK SMILES IDX 21 85 22 86 23 87 28 88 24 89 25 90 26 91 27 92 15 93
REMARK H PARENT 85 25 53 36 15 94
REMARK Flexibility Score: inf
ROOT
ATOM      1  C   UNL A   1      31.047  26.466  25.800  1.00  0.00     0.202 C 
ENDROOT
BRANCH   1   2
ATOM      2  O   UNL A   1      31.302  27.862  25.659  1.00  0.00    -0.374 OA
BRANCH   2   3
ATOM      3  C   UNL A   1      31.727  28.705  26.723  1.00  0.00     0.202 C 
BRANCH   3   4
ATOM      4  C   UNL A   1      31.758  30.235  26.580  1.00  0.00     0.261 C 
BRANCH   4   5
ATOM      5  O   UNL A   1      33.066  30.839  26.468  1.00  0.00    -0.460 OA
BRANCH   5   6
ATOM      6  C   UNL A   1      33.619  31.714  27.353  1.00  0.00     0.338 C 
ATOM      7  O   UNL A   1      33.064  32.764  27.649  1.00  0.00    -0.246 OA
BRANCH   6   8
ATOM      8  C   UNL A   1      34.937  31.385  27.933  1.00  0.00     0.060 A 
ATOM      9  C   UNL A   1      35.207  30.080  28.294  1.00  0.00     0.016 A 
ATOM     10  C   UNL A   1      35.941  32.332  28.099  1.00  0.00     0.016 A 
ATOM     11  C   UNL A   1      36.236  29.754  29.124  1.00  0.00     0.010 A 
ATOM     12  C   UNL A   1      37.139  31.949  28.716  1.00  0.00     0.010 A 
ATOM     13  C   UNL A   1      37.261  30.663  29.273  1.00  0.00    -0.014 A 
BRANCH  13  14
ATOM     14  C   UNL A   1      38.397  30.204  30.081  1.00  0.00     0.031 A 
ATOM     15  C   UNL A   1      39.437  29.376  29.408  1.00  0.00     0.074 A 
ATOM     16  C   UNL A   1      38.566  30.704  31.323  1.00  0.00     0.049 A 
ATOM     17  N   UNL A   1      40.460  28.759  29.924  1.00  0.00    -0.248 NA
ATOM     18  C   UNL A   1      39.310  29.226  27.948  1.00  0.00     0.031 C 
ATOM     19  C   UNL A   1      37.687  31.690  31.973  1.00  0.00     0.029 A 
ATOM     20  N   UNL A   1      39.559  30.509  32.240  1.00  0.00    -0.354 N 
ATOM     21  C   UNL A   1      41.054  28.087  28.867  1.00  0.00     0.074 A 
ATOM     22  C   UNL A   1      40.292  28.383  27.678  1.00  0.00     0.031 C 
ATOM     23  C   UNL A   1      38.217  32.056  33.147  1.00  0.00     0.029 A 
ATOM     24  C   UNL A   1      39.382  31.226  33.399  1.00  0.00     0.049 A 
ATOM     25  H   UNL A   1      40.328  29.915  32.085  1.00  0.00     0.167 HD
ATOM     26  C   UNL A   1      42.131  27.273  28.920  1.00  0.00     0.037 A 
ATOM     27  C   UNL A   1      40.051  31.154  34.561  1.00  0.00     0.037 A 
ATOM     28  C   UNL A   1      42.853  27.036  30.139  1.00  0.00     0.049 A 
ATOM     29  C   UNL A   1      41.167  30.152  34.630  1.00  0.00     0.074 A 
ATOM     30  C   UNL A   1      43.904  26.175  30.377  1.00  0.00     0.029 A 
ATOM     31  N   UNL A   1      42.583  27.689  31.341  1.00  0.00    -0.354 N 
ATOM     32  N   UNL A   1      41.652  29.393  33.674  1.00  0.00    -0.248 NA
ATOM     33  C   UNL A   1      41.803  29.963  35.935  1.00  0.00     0.031 C 
ATOM     34  C   UNL A   1      44.234  26.267  31.734  1.00  0.00     0.029 A 
ATOM     35  C   UNL A   1      43.434  27.233  32.331  1.00  0.00     0.049 A 
ATOM     36  H   UNL A   1      41.889  28.375  31.466  1.00  0.00     0.167 HD
ATOM     37  C   UNL A   1      42.662  28.644  34.253  1.00  0.00     0.074 A 
ATOM     38  C   UNL A   1      42.729  29.060  35.644  1.00  0.00     0.031 C 
ATOM     39  C   UNL A   1      43.458  27.697  33.698  1.00  0.00     0.037 A 
BRANCH  26  40
ATOM     40  C   UNL A   1      42.469  26.523  27.667  1.00  0.00     0.064 A 
ATOM     41  C   UNL A   1      41.900  25.278  27.357  1.00  0.00     0.173 A 
ATOM     42  C   UNL A   1      43.464  27.018  26.810  1.00  0.00     0.173 A 
ATOM     43  F   UNL A   1      40.976  24.738  28.166  1.00  0.00    -0.203 F 
ATOM     44  C   UNL A   1      42.347  24.539  26.263  1.00  0.00     0.198 A 
ATOM     45  C   UNL A   1      43.884  26.292  25.700  1.00  0.00     0.198 A 
ATOM     46  F   UNL A   1      44.056  28.194  27.069  1.00  0.00    -0.203 F 
ATOM     47  F   UNL A   1      41.852  23.313  26.038  1.00  0.00    -0.200 F 
ATOM     48  C   UNL A   1      43.337  25.047  25.435  1.00  0.00     0.200 A 
ATOM     49  F   UNL A   1      44.844  26.784  24.903  1.00  0.00    -0.200 F 
ATOM     50  F   UNL A   1      43.781  24.325  24.397  1.00  0.00    -0.200 F 
ENDBRANCH  26  40
BRANCH  27  51
ATOM     51  C   UNL A   1      39.627  31.964  35.736  1.00  0.00     0.064 A 
ATOM     52  C   UNL A   1      40.282  33.157  36.071  1.00  0.00     0.173 A 
ATOM     53  C   UNL A   1      38.553  31.568  36.551  1.00  0.00     0.173 A 
ATOM     54  F   UNL A   1      41.326  33.575  35.340  1.00  0.00    -0.203 F 
ATOM     55  C   UNL A   1      39.891  33.910  37.179  1.00  0.00     0.198 A 
ATOM     56  C   UNL A   1      38.140  32.338  37.637  1.00  0.00     0.198 A 
ATOM     57  F   UNL A   1      37.886  30.435  36.283  1.00  0.00    -0.203 F 
ATOM     58  F   UNL A   1      40.566  35.021  37.502  1.00  0.00    -0.200 F 
ATOM     59  C   UNL A   1      38.816  33.503  37.956  1.00  0.00     0.200 A 
ATOM     60  F   UNL A   1      37.090  31.947  38.372  1.00  0.00    -0.200 F 
ATOM     61  F   UNL A   1      38.439  34.229  39.017  1.00  0.00    -0.200 F 
ENDBRANCH  27  51
BRANCH  39  62
ATOM     62  C   UNL A   1      44.491  27.091  34.594  1.00  0.00     0.064 A 
ATOM     63  C   UNL A   1      44.247  25.908  35.305  1.00  0.00     0.173 A 
ATOM     64  C   UNL A   1      45.759  27.681  34.697  1.00  0.00     0.173 A 
ATOM     65  F   UNL A   1      43.041  25.322  35.251  1.00  0.00    -0.203 F 
ATOM     66  C   UNL A   1      45.235  25.346  36.106  1.00  0.00     0.198 A 
ATOM     67  C   UNL A   1      46.755  27.096  35.469  1.00  0.00     0.198 A 
ATOM     68  F   UNL A   1      46.036  28.811  34.029  1.00  0.00    -0.203 F 
ATOM     69  F   UNL A   1      44.970  24.241  36.816  1.00  0.00    -0.200 F 
ATOM     70  C   UNL A   1      46.490  25.934  36.178  1.00  0.00     0.200 A 
ATOM     71  F   UNL A   1      47.971  27.655  35.523  1.00  0.00    -0.200 F 
ATOM     72  F   UNL A   1      47.446  25.381  36.938  1.00  0.00    -0.200 F 
ENDBRANCH  39  62
ENDBRANCH  13  14
ENDBRANCH   6   8
ENDBRANCH   5   6
ENDBRANCH   4   5
ENDBRANCH   3   4
ENDBRANCH   2   3
ENDBRANCH   1   2
BRANCH   1  73
ATOM     73  C   UNL A   1      32.379  25.777  26.116  1.00  0.00     0.261 C 
BRANCH  73  74
ATOM     74  O   UNL A   1      32.094  24.410  26.449  1.00  0.00    -0.462 OA
BRANCH  74  75
ATOM     75  C   UNL A   1      33.195  23.590  26.425  1.00  0.00     0.329 C 
ATOM     76  O   UNL A   1      33.334  22.563  27.077  1.00  0.00    -0.250 OA
BRANCH  75  77
ATOM     77  C   UNL A   1      34.122  24.014  25.281  1.00  0.00     0.197 C 
ATOM     78  C   UNL A   1      35.593  24.025  25.713  1.00  0.00     0.070 C 
ATOM     79  N   UNL A   1      34.040  23.043  24.206  1.00  0.00    -0.325 N 
ATOM     80  C   UNL A   1      36.322  22.947  24.940  1.00  0.00     0.136 C 
ATOM     81  C   UNL A   1      35.300  22.369  23.980  1.00  0.00     0.152 C 
BRANCH  79  82
ATOM     82  C   UNL A   1      32.831  22.913  23.549  1.00  0.00     0.233 C 
ATOM     83  O   UNL A   1      32.177  23.912  23.239  1.00  0.00    -0.274 OA
BRANCH  82  84
ATOM     84  C   UNL A   1      32.304  21.527  23.228  1.00  0.00     0.169 C 
BRANCH  84  85
ATOM     85  S   UNL A   1      32.205  20.488  24.739  1.00  0.00    -0.148 SA
BRANCH  85  86
ATOM     86  C   UNL A   1      33.198  19.078  24.190  1.00  0.00     0.063 C 
ATOM     87  C   UNL A   1      34.568  19.055  24.888  1.00  0.00     0.031 C 
ATOM     88  C   UNL A   1      32.615  17.699  24.452  1.00  0.00     0.151 C 
ATOM     89  C   UNL A   1      35.288  17.808  24.382  1.00  0.00     0.138 C 
ATOM     90  S   UNL A   1      33.992  16.643  23.988  1.00  0.00     0.151 S 
ATOM     91  O   UNL A   1      33.974  16.484  22.548  1.00  0.00    -0.229 OA
ATOM     92  O   UNL A   1      34.073  15.521  24.900  1.00  0.00    -0.229 OA
ENDBRANCH  85  86
ENDBRANCH  84  85
ENDBRANCH  82  84
ENDBRANCH  79  82
BRANCH  80  93
ATOM     93  O   UNL A   1      37.445  23.500  24.258  1.00  0.00    -0.391 OA
ATOM     94  H   UNL A   1      38.168  23.644  24.888  1.00  0.00     0.211 HD
ENDBRANCH  80  93
ENDBRANCH  75  77
ENDBRANCH  74  75
ENDBRANCH  73  74
ENDBRANCH   1  73
TORSDOF 19
ENDMDL
MODEL 3
REMARK VINA RESULT:     -10.9      2.121      4.445
REMARK SMILES O=C(OCCOCCOC(=O)[C@H]1C[C@H](O)CN1C(=O)CS[C@H]1CCS(=O)(=O)C1)c1ccc(-c2c3nc(c(-c4c(F)c(F)c(F)c(F)c4F)c4ccc([nH]4)c(-c4c(F)c(F)c(F)c(F)c4F)c4nc(c(-c5c(F)c(F)c(F)c(F)c5F)c5ccc2[nH]5)C=C4)C=C3)cc1
REMARK SMILES IDX 7 1 6 2 5 3 4 4 3 5 2 6 1 7 29 8 30 9 91 10 31 11 90 12
REMARK SMILES IDX 32 13 33 14 34 15 84 16 35 17 89 18 83 19 85 20 36 21 88 22
REMARK SMILES IDX 82 23 81 24 37 26 69 27 49 28 68 29 50 30 53 31 67 32 86 33
REMARK SMILES IDX 51 34 52 35 66 37 87 38 54 39 38 40 39 41 47 42 40 43 41 44
REMARK SMILES IDX 45 45 48 46 42 47 43 48 46 49 44 50 70 51 71 52 79 53 72 54
REMARK SMILES IDX 73 55 77 56 80 57 74 58 75 59 78 60 76 61 55 62 56 63 64 64
REMARK SMILES IDX 57 65 58 66 62 67 65 68 59 69 60 70 63 71 61 72 8 73 9 74
REMARK SMILES IDX 10 75 11 76 12 77 13 78 17 79 14 80 16 81 18 82 19 83 20 84
REMARK SMILES IDX 21 85 22 86 23 87 28 88 24 89 25 90 26 91 27 92 15 93
REMARK H PARENT 85 25 53 36 15 94
REMARK Flexibility Score: inf
ROOT
ATOM      1  C   UNL A   1      34.324  28.158  25.288  1.00  0.00     0.202 C 
ENDROOT
BRANCH   1   2
ATOM      2  O   UNL A   1      33.312  28.910  24.621  1.00  0.00    -0.374 OA
BRANCH   2   3
ATOM      3  C   UNL A   1      32.037  29.200  25.181  1.00  0.00     0.202 C 
BRANCH   3   4
ATOM      4  C   UNL A   1      31.788  30.467  26.015  1.00  0.00     0.261 C 
BRANCH   4   5
ATOM      5  O   UNL A   1      32.594  30.615  27.205  1.00  0.00    -0.460 OA
BRANCH   5   6
ATOM      6  C   UNL A   1      33.440  31.650  27.472  1.00  0.00     0.338 C 
ATOM      7  O   UNL A   1      33.128  32.809  27.235  1.00  0.00    -0.246 OA
BRANCH   6   8
ATOM      8  C   UNL A   1      34.773  31.339  28.027  1.00  0.00     0.060 A 
ATOM      9  C   UNL A   1      35.052  30.048  28.426  1.00  0.00     0.016 A 
ATOM     10  C   UNL A   1      35.782  32.291  28.132  1.00  0.00     0.016 A 
ATOM     11  C   UNL A   1      36.103  29.750  29.239  1.00  0.00     0.010 A 
ATOM     12  C   UNL A   1      36.996  31.928  28.730  1.00  0.00     0.010 A 
ATOM     13  C   UNL A   1      37.132  30.662  29.329  1.00  0.00    -0.014 A 
BRANCH  13  14
ATOM     14  C   UNL A   1      38.289  30.230  30.122  1.00  0.00     0.031 A 
ATOM     15  C   UNL A   1      39.334  29.419  29.437  1.00  0.00     0.074 A 
ATOM     16  C   UNL A   1      38.467  30.740  31.359  1.00  0.00     0.049 A 
ATOM     17  N   UNL A   1      40.378  28.826  29.941  1.00  0.00    -0.248 NA
ATOM     18  C   UNL A   1      39.189  29.259  27.980  1.00  0.00     0.031 C 
ATOM     19  C   UNL A   1      37.579  31.712  32.016  1.00  0.00     0.029 A 
ATOM     20  N   UNL A   1      39.478  30.571  32.261  1.00  0.00    -0.354 N 
ATOM     21  C   UNL A   1      40.969  28.159  28.879  1.00  0.00     0.074 A 
ATOM     22  C   UNL A   1      40.183  28.433  27.699  1.00  0.00     0.031 C 
ATOM     23  C   UNL A   1      38.119  32.095  33.180  1.00  0.00     0.029 A 
ATOM     24  C   UNL A   1      39.303  31.290  33.419  1.00  0.00     0.049 A 
ATOM     25  H   UNL A   1      40.256  29.990  32.098  1.00  0.00     0.167 HD
ATOM     26  C   UNL A   1      42.063  27.368  28.920  1.00  0.00     0.037 A 
ATOM     27  C   UNL A   1      39.991  31.238  34.571  1.00  0.00     0.037 A 
ATOM     28  C   UNL A   1      42.807  27.152  30.129  1.00  0.00     0.049 A 
ATOM     29  C   UNL A   1      41.128  30.258  34.628  1.00  0.00     0.074 A 
ATOM     30  C   UNL A   1      43.879  26.313  30.355  1.00  0.00     0.029 A 
ATOM     31  N   UNL A   1      42.543  27.806  31.331  1.00  0.00    -0.354 N 
ATOM     32  N   UNL A   1      41.614  29.504  33.668  1.00  0.00    -0.248 NA
ATOM     33  C   UNL A   1      41.787  30.089  35.924  1.00  0.00     0.031 C 
ATOM     34  C   UNL A   1      44.228  26.419  31.706  1.00  0.00     0.029 A 
ATOM     35  C   UNL A   1      43.417  27.373  32.310  1.00  0.00     0.049 A 
ATOM     36  H   UNL A   1      41.837  28.478  31.463  1.00  0.00     0.167 HD
ATOM     37  C   UNL A   1      42.647  28.779  34.236  1.00  0.00     0.074 A 
ATOM     38  C   UNL A   1      42.727  29.204  35.624  1.00  0.00     0.031 C 
ATOM     39  C   UNL A   1      43.453  27.844  33.674  1.00  0.00     0.037 A 
BRANCH  26  40
ATOM     40  C   UNL A   1      42.397  26.617  27.666  1.00  0.00     0.064 A 
ATOM     41  C   UNL A   1      41.838  25.366  27.364  1.00  0.00     0.173 A 
ATOM     42  C   UNL A   1      43.377  27.121  26.797  1.00  0.00     0.173 A 
ATOM     43  F   UNL A   1      40.928  24.817  28.184  1.00  0.00    -0.203 F 
ATOM     44  C   UNL A   1      42.282  24.628  26.268  1.00  0.00     0.198 A 
ATOM     45  C   UNL A   1      43.795  26.395  25.685  1.00  0.00     0.198 A 
ATOM     46  F   UNL A   1      43.959  28.303  27.047  1.00  0.00    -0.203 F 
ATOM     47  F   UNL A   1      41.798  23.396  26.051  1.00  0.00    -0.200 F 
ATOM     48  C   UNL A   1      43.258  25.144  25.429  1.00  0.00     0.200 A 
ATOM     49  F   UNL A   1      44.741  26.896  24.878  1.00  0.00    -0.200 F 
ATOM     50  F   UNL A   1      43.700  24.423  24.389  1.00  0.00    -0.200 F 
ENDBRANCH  26  40
BRANCH  27  51
ATOM     51  C   UNL A   1      39.570  32.046  35.747  1.00  0.00     0.064 A 
ATOM     52  C   UNL A   1      40.147  33.293  36.018  1.00  0.00     0.173 A 
ATOM     53  C   UNL A   1      38.574  31.592  36.629  1.00  0.00     0.173 A 
ATOM     54  F   UNL A   1      41.116  33.769  35.221  1.00  0.00    -0.203 F 
ATOM     55  C   UNL A   1      39.759  34.045  37.128  1.00  0.00     0.198 A 
ATOM     56  C   UNL A   1      38.161  32.359  37.718  1.00  0.00     0.198 A 
ATOM     57  F   UNL A   1      37.982  30.406  36.425  1.00  0.00    -0.203 F 
ATOM     58  F   UNL A   1      40.362  35.213  37.387  1.00  0.00    -0.200 F 
ATOM     59  C   UNL A   1      38.761  33.580  37.972  1.00  0.00     0.200 A 
ATOM     60  F   UNL A   1      37.184  31.911  38.519  1.00  0.00    -0.200 F 
ATOM     61  F   UNL A   1      38.386  34.305  39.035  1.00  0.00    -0.200 F 
ENDBRANCH  27  51
BRANCH  39  62
ATOM     62  C   UNL A   1      44.512  27.264  34.558  1.00  0.00     0.064 A 
ATOM     63  C   UNL A   1      44.301  26.082  35.281  1.00  0.00     0.173 A 
ATOM     64  C   UNL A   1      45.771  27.877  34.634  1.00  0.00     0.173 A 
ATOM     65  F   UNL A   1      43.105  25.475  35.252  1.00  0.00    -0.203 F 
ATOM     66  C   UNL A   1      45.312  25.545  36.070  1.00  0.00     0.198 A 
ATOM     67  C   UNL A   1      46.789  27.316  35.395  1.00  0.00     0.198 A 
ATOM     68  F   UNL A   1      46.016  29.007  33.953  1.00  0.00    -0.203 F 
ATOM     69  F   UNL A   1      45.078  24.441  36.793  1.00  0.00    -0.200 F 
ATOM     70  C   UNL A   1      46.557  26.156  36.116  1.00  0.00     0.200 A 
ATOM     71  F   UNL A   1      47.996  27.897  35.424  1.00  0.00    -0.200 F 
ATOM     72  F   UNL A   1      47.535  25.626  36.865  1.00  0.00    -0.200 F 
ENDBRANCH  39  62
ENDBRANCH  13  14
ENDBRANCH   6   8
ENDBRANCH   5   6
ENDBRANCH   4   5
ENDBRANCH   3   4
ENDBRANCH   2   3
ENDBRANCH   1   2
BRANCH   1  73
ATOM     73  C   UNL A   1      33.642  26.985  26.000  1.00  0.00     0.261 C 
BRANCH  73  74
ATOM     74  O   UNL A   1      34.239  25.774  25.515  1.00  0.00    -0.462 OA
BRANCH  74  75
ATOM     75  C   UNL A   1      33.621  25.254  24.405  1.00  0.00     0.329 C 
ATOM     76  O   UNL A   1      33.749  25.665  23.259  1.00  0.00    -0.250 OA
BRANCH  75  77
ATOM     77  C   UNL A   1      32.940  23.931  24.773  1.00  0.00     0.197 C 
ATOM     78  C   UNL A   1      33.700  23.184  25.875  1.00  0.00     0.070 C 
ATOM     79  N   UNL A   1      31.624  24.201  25.321  1.00  0.00    -0.325 N 
ATOM     80  C   UNL A   1      32.825  23.144  27.110  1.00  0.00     0.136 C 
ATOM     81  C   UNL A   1      31.511  23.780  26.702  1.00  0.00     0.152 C 
BRANCH  79  82
ATOM     82  C   UNL A   1      30.684  24.775  24.487  1.00  0.00     0.233 C 
ATOM     83  O   UNL A   1      30.371  24.225  23.428  1.00  0.00    -0.274 OA
BRANCH  82  84
ATOM     84  C   UNL A   1      30.053  26.099  24.874  1.00  0.00     0.169 C 
BRANCH  84  85
ATOM     85  S   UNL A   1      28.548  26.435  23.877  1.00  0.00    -0.148 SA
BRANCH  85  86
ATOM     86  C   UNL A   1      28.882  28.152  23.412  1.00  0.00     0.063 C 
ATOM     87  C   UNL A   1      30.003  28.237  22.362  1.00  0.00     0.031 C 
ATOM     88  C   UNL A   1      27.726  28.922  22.796  1.00  0.00     0.151 C 
ATOM     89  C   UNL A   1      30.160  29.716  22.020  1.00  0.00     0.138 C 
ATOM     90  S   UNL A   1      28.546  30.435  22.284  1.00  0.00     0.151 S 
ATOM     91  O   UNL A   1      28.643  31.309  23.435  1.00  0.00    -0.229 OA
ATOM     92  O   UNL A   1      28.010  30.872  21.011  1.00  0.00    -0.229 OA
ENDBRANCH  85  86
ENDBRANCH  84  85
ENDBRANCH  82  84
ENDBRANCH  79  82
BRANCH  80  93
ATOM     93  O   UNL A   1      32.655  21.800  27.553  1.00  0.00    -0.391 OA
ATOM     94  H   UNL A   1      33.010  21.193  26.885  1.00  0.00     0.211 HD
ENDBRANCH  80  93
ENDBRANCH  75  77
ENDBRANCH  74  75
ENDBRANCH  73  74
ENDBRANCH   1  73
TORSDOF 19
ENDMDL
