MODEL 1
REMARK VINA RESULT:     -11.0      0.000      0.000
REMARK SMILES O=C(OCCOCCOC(=O)[C@@H]1CSCN1C(=O)c1cccc(Cl)c1)c1ccc(-c2c3nc(c(-c4c(F)c(F)c(F)c(F)c4F)c4ccc([nH]4)c(-c4c(F)c(F)c(F)c(F)c4F)c4nc(c(-c5c(F)c(F)c(F)c(F)c5F)c5ccc2[nH]5)C=C4)C=C3)cc1
REMARK SMILES IDX 6 1 5 2 4 3 3 4 2 5 1 6 26 7 27 8 88 9 28 10 87 11 29 12
REMARK SMILES IDX 30 13 31 14 81 15 32 16 86 17 80 18 82 19 33 20 85 21 79 22
REMARK SMILES IDX 78 23 34 25 66 26 46 27 65 28 47 29 50 30 64 31 83 32 48 33
REMARK SMILES IDX 49 34 63 36 84 37 51 38 35 39 36 40 44 41 37 42 38 43 42 44
REMARK SMILES IDX 45 45 39 46 40 47 43 48 41 49 67 50 68 51 76 52 69 53 70 54
REMARK SMILES IDX 74 55 77 56 71 57 72 58 75 59 73 60 52 61 53 62 61 63 54 64
REMARK SMILES IDX 55 65 59 66 62 67 56 68 57 69 60 70 58 71 7 72 8 73 9 74
REMARK SMILES IDX 10 75 11 76 12 77 13 78 16 79 14 80 15 81 17 82 18 83 19 84
REMARK SMILES IDX 20 85 25 86 21 87 23 88 22 89 24 90
REMARK H PARENT 82 24 50 35
REMARK Flexibility Score: inf
ROOT
ATOM      1  O   UNL A   1      32.996  30.638  26.409  1.00  0.00    -0.374 OA
ENDROOT
BRANCH   1   2
ATOM      2  C   UNL A   1      31.686  31.033  26.822  1.00  0.00     0.202 C 
BRANCH   2   3
ATOM      3  C   UNL A   1      31.440  32.541  26.781  1.00  0.00     0.261 C 
BRANCH   3   4
ATOM      4  O   UNL A   1      32.684  33.253  26.901  1.00  0.00    -0.460 OA
BRANCH   4   5
ATOM      5  C   UNL A   1      33.282  33.733  28.014  1.00  0.00     0.338 C 
ATOM      6  O   UNL A   1      32.809  34.730  28.557  1.00  0.00    -0.246 OA
BRANCH   5   7
ATOM      7  C   UNL A   1      34.485  33.108  28.643  1.00  0.00     0.060 A 
ATOM      8  C   UNL A   1      34.462  31.975  29.454  1.00  0.00     0.016 A 
ATOM      9  C   UNL A   1      35.738  33.659  28.317  1.00  0.00     0.016 A 
ATOM     10  C   UNL A   1      35.624  31.455  30.004  1.00  0.00     0.010 A 
ATOM     11  C   UNL A   1      36.922  33.103  28.814  1.00  0.00     0.010 A 
ATOM     12  C   UNL A   1      36.861  32.009  29.681  1.00  0.00    -0.014 A 
BRANCH  12  13
ATOM     13  C   UNL A   1      38.049  31.433  30.336  1.00  0.00     0.031 A 
ATOM     14  C   UNL A   1      38.298  31.740  31.779  1.00  0.00     0.074 A 
ATOM     15  C   UNL A   1      38.767  30.505  29.675  1.00  0.00     0.049 A 
ATOM     16  N   UNL A   1      39.229  31.281  32.572  1.00  0.00    -0.248 NA
ATOM     17  C   UNL A   1      37.359  32.671  32.425  1.00  0.00     0.031 C 
ATOM     18  C   UNL A   1      38.517  30.077  28.297  1.00  0.00     0.029 A 
ATOM     19  N   UNL A   1      39.809  29.718  30.086  1.00  0.00    -0.354 N 
ATOM     20  C   UNL A   1      38.989  31.868  33.807  1.00  0.00     0.074 A 
ATOM     21  C   UNL A   1      37.839  32.729  33.657  1.00  0.00     0.031 C 
ATOM     22  C   UNL A   1      39.352  29.072  27.991  1.00  0.00     0.029 A 
ATOM     23  C   UNL A   1      40.235  28.831  29.125  1.00  0.00     0.049 A 
ATOM     24  H   UNL A   1      40.215  29.781  30.980  1.00  0.00     0.167 HD
ATOM     25  C   UNL A   1      39.676  31.694  34.959  1.00  0.00     0.037 A 
ATOM     26  C   UNL A   1      41.242  27.939  29.164  1.00  0.00     0.037 A 
ATOM     27  C   UNL A   1      40.829  30.845  35.074  1.00  0.00     0.049 A 
ATOM     28  C   UNL A   1      42.039  27.832  30.435  1.00  0.00     0.074 A 
ATOM     29  C   UNL A   1      41.678  30.670  36.151  1.00  0.00     0.029 A 
ATOM     30  N   UNL A   1      41.292  30.016  34.058  1.00  0.00    -0.354 N 
ATOM     31  N   UNL A   1      41.859  28.452  31.578  1.00  0.00    -0.248 NA
ATOM     32  C   UNL A   1      43.184  26.914  30.422  1.00  0.00     0.031 C 
ATOM     33  C   UNL A   1      42.673  29.759  35.775  1.00  0.00     0.029 A 
ATOM     34  C   UNL A   1      42.419  29.333  34.479  1.00  0.00     0.049 A 
ATOM     35  H   UNL A   1      40.879  29.929  33.168  1.00  0.00     0.167 HD
ATOM     36  C   UNL A   1      42.865  28.003  32.419  1.00  0.00     0.074 A 
ATOM     37  C   UNL A   1      43.629  27.027  31.665  1.00  0.00     0.031 C 
ATOM     38  C   UNL A   1      43.150  28.372  33.692  1.00  0.00     0.037 A 
BRANCH  25  39
ATOM     39  C   UNL A   1      39.220  32.484  36.148  1.00  0.00     0.064 A 
ATOM     40  C   UNL A   1      39.731  33.762  36.424  1.00  0.00     0.173 A 
ATOM     41  C   UNL A   1      38.287  31.943  37.043  1.00  0.00     0.173 A 
ATOM     42  F   UNL A   1      40.649  34.311  35.615  1.00  0.00    -0.203 F 
ATOM     43  C   UNL A   1      39.341  34.457  37.567  1.00  0.00     0.198 A 
ATOM     44  C   UNL A   1      37.883  32.649  38.173  1.00  0.00     0.198 A 
ATOM     45  F   UNL A   1      37.776  30.720  36.831  1.00  0.00    -0.203 F 
ATOM     46  F   UNL A   1      39.882  35.652  37.839  1.00  0.00    -0.200 F 
ATOM     47  C   UNL A   1      38.417  33.901  38.439  1.00  0.00     0.200 A 
ATOM     48  F   UNL A   1      36.989  32.111  39.015  1.00  0.00    -0.200 F 
ATOM     49  F   UNL A   1      38.049  34.567  39.543  1.00  0.00    -0.200 F 
ENDBRANCH  25  39
BRANCH  26  50
ATOM     50  C   UNL A   1      41.577  27.131  27.959  1.00  0.00     0.064 A 
ATOM     51  C   UNL A   1      41.055  25.845  27.768  1.00  0.00     0.173 A 
ATOM     52  C   UNL A   1      42.452  27.627  26.979  1.00  0.00     0.173 A 
ATOM     53  F   UNL A   1      40.233  25.311  28.683  1.00  0.00    -0.203 F 
ATOM     54  C   UNL A   1      41.409  25.082  26.655  1.00  0.00     0.198 A 
ATOM     55  C   UNL A   1      42.778  26.878  25.852  1.00  0.00     0.198 A 
ATOM     56  F   UNL A   1      42.986  28.851  27.112  1.00  0.00    -0.203 F 
ATOM     57  F   UNL A   1      40.936  23.834  26.524  1.00  0.00    -0.200 F 
ATOM     58  C   UNL A   1      42.264  25.601  25.695  1.00  0.00     0.200 A 
ATOM     59  F   UNL A   1      43.595  27.391  24.921  1.00  0.00    -0.200 F 
ATOM     60  F   UNL A   1      42.604  24.866  24.627  1.00  0.00    -0.200 F 
ENDBRANCH  26  50
BRANCH  38  61
ATOM     61  C   UNL A   1      44.330  27.710  34.333  1.00  0.00     0.064 A 
ATOM     62  C   UNL A   1      44.219  26.448  34.935  1.00  0.00     0.173 A 
ATOM     63  C   UNL A   1      45.587  28.331  34.322  1.00  0.00     0.173 A 
ATOM     64  F   UNL A   1      43.032  25.825  34.983  1.00  0.00    -0.203 F 
ATOM     65  C   UNL A   1      45.321  25.843  35.529  1.00  0.00     0.198 A 
ATOM     66  C   UNL A   1      46.692  27.709  34.893  1.00  0.00     0.198 A 
ATOM     67  F   UNL A   1      45.741  29.535  33.753  1.00  0.00    -0.203 F 
ATOM     68  F   UNL A   1      45.183  24.659  36.142  1.00  0.00    -0.200 F 
ATOM     69  C   UNL A   1      46.557  26.471  35.502  1.00  0.00     0.200 A 
ATOM     70  F   UNL A   1      47.889  28.312  34.858  1.00  0.00    -0.200 F 
ATOM     71  F   UNL A   1      47.619  25.886  36.073  1.00  0.00    -0.200 F 
ENDBRANCH  38  61
ENDBRANCH  12  13
ENDBRANCH   5   7
ENDBRANCH   4   5
ENDBRANCH   3   4
ENDBRANCH   2   3
ENDBRANCH   1   2
BRANCH   1  72
ATOM     72  C   UNL A   1      33.614  29.620  27.209  1.00  0.00     0.202 C 
BRANCH  72  73
ATOM     73  C   UNL A   1      34.397  28.658  26.302  1.00  0.00     0.261 C 
BRANCH  73  74
ATOM     74  O   UNL A   1      33.616  27.473  26.079  1.00  0.00    -0.462 OA
BRANCH  74  75
ATOM     75  C   UNL A   1      32.996  27.429  24.859  1.00  0.00     0.329 C 
ATOM     76  O   UNL A   1      33.585  27.298  23.790  1.00  0.00    -0.250 OA
BRANCH  75  77
ATOM     77  C   UNL A   1      31.470  27.314  25.027  1.00  0.00     0.206 C 
ATOM     78  C   UNL A   1      31.105  26.484  26.243  1.00  0.00     0.108 C 
ATOM     79  N   UNL A   1      30.798  26.737  23.860  1.00  0.00    -0.315 N 
ATOM     80  S   UNL A   1      30.943  24.789  25.617  1.00  0.00    -0.138 SA
ATOM     81  C   UNL A   1      30.776  25.291  23.886  1.00  0.00     0.191 C 
BRANCH  79  82
ATOM     82  C   UNL A   1      30.480  27.543  22.779  1.00  0.00     0.255 C 
ATOM     83  O   UNL A   1      31.023  27.454  21.682  1.00  0.00    -0.269 OA
BRANCH  82  84
ATOM     84  C   UNL A   1      29.376  28.509  22.925  1.00  0.00     0.041 A 
ATOM     85  C   UNL A   1      28.062  28.076  23.125  1.00  0.00     0.014 A 
ATOM     86  C   UNL A   1      29.681  29.872  22.872  1.00  0.00     0.034 A 
ATOM     87  C   UNL A   1      27.035  29.014  23.204  1.00  0.00     0.002 A 
ATOM     88  C   UNL A   1      28.648  30.800  22.964  1.00  0.00     0.041 A 
ATOM     89  C   UNL A   1      27.327  30.377  23.116  1.00  0.00     0.020 A 
ATOM     90  Cl  UNL A   1      29.002  32.482  22.876  1.00  0.00    -0.084 Cl
ENDBRANCH  82  84
ENDBRANCH  79  82
ENDBRANCH  75  77
ENDBRANCH  74  75
ENDBRANCH  73  74
ENDBRANCH  72  73
ENDBRANCH   1  72
TORSDOF 16
ENDMDL
MODEL 2
REMARK VINA RESULT:     -11.0      2.808      4.490
REMARK SMILES O=C(OCCOCCOC(=O)[C@@H]1CSCN1C(=O)c1cccc(Cl)c1)c1ccc(-c2c3nc(c(-c4c(F)c(F)c(F)c(F)c4F)c4ccc([nH]4)c(-c4c(F)c(F)c(F)c(F)c4F)c4nc(c(-c5c(F)c(F)c(F)c(F)c5F)c5ccc2[nH]5)C=C4)C=C3)cc1
REMARK SMILES IDX 6 1 5 2 4 3 3 4 2 5 1 6 26 7 27 8 88 9 28 10 87 11 29 12
REMARK SMILES IDX 30 13 31 14 81 15 32 16 86 17 80 18 82 19 33 20 85 21 79 22
REMARK SMILES IDX 78 23 34 25 66 26 46 27 65 28 47 29 50 30 64 31 83 32 48 33
REMARK SMILES IDX 49 34 63 36 84 37 51 38 35 39 36 40 44 41 37 42 38 43 42 44
REMARK SMILES IDX 45 45 39 46 40 47 43 48 41 49 67 50 68 51 76 52 69 53 70 54
REMARK SMILES IDX 74 55 77 56 71 57 72 58 75 59 73 60 52 61 53 62 61 63 54 64
REMARK SMILES IDX 55 65 59 66 62 67 56 68 57 69 60 70 58 71 7 72 8 73 9 74
REMARK SMILES IDX 10 75 11 76 12 77 13 78 16 79 14 80 15 81 17 82 18 83 19 84
REMARK SMILES IDX 20 85 25 86 21 87 23 88 22 89 24 90
REMARK H PARENT 82 24 50 35
REMARK Flexibility Score: inf
ROOT
ATOM      1  O   UNL A   1      32.477  28.532  24.442  1.00  0.00    -0.374 OA
ENDROOT
BRANCH   1   2
ATOM      2  C   UNL A   1      31.320  29.288  24.807  1.00  0.00     0.202 C 
BRANCH   2   3
ATOM      3  C   UNL A   1      31.600  30.447  25.763  1.00  0.00     0.261 C 
BRANCH   3   4
ATOM      4  O   UNL A   1      32.948  30.372  26.257  1.00  0.00    -0.460 OA
BRANCH   4   5
ATOM      5  C   UNL A   1      33.574  31.182  27.140  1.00  0.00     0.338 C 
ATOM      6  O   UNL A   1      33.049  32.254  27.434  1.00  0.00    -0.246 OA
BRANCH   5   7
ATOM      7  C   UNL A   1      34.870  30.842  27.801  1.00  0.00     0.060 A 
ATOM      8  C   UNL A   1      35.256  29.559  28.185  1.00  0.00     0.016 A 
ATOM      9  C   UNL A   1      35.799  31.886  27.967  1.00  0.00     0.016 A 
ATOM     10  C   UNL A   1      36.477  29.324  28.798  1.00  0.00     0.010 A 
ATOM     11  C   UNL A   1      37.059  31.648  28.525  1.00  0.00     0.010 A 
ATOM     12  C   UNL A   1      37.390  30.363  28.964  1.00  0.00    -0.014 A 
BRANCH  12  13
ATOM     13  C   UNL A   1      38.650  30.050  29.661  1.00  0.00     0.031 A 
ATOM     14  C   UNL A   1      38.858  30.573  31.048  1.00  0.00     0.074 A 
ATOM     15  C   UNL A   1      39.490  29.153  29.111  1.00  0.00     0.049 A 
ATOM     16  N   UNL A   1      39.846  30.357  31.873  1.00  0.00    -0.248 NA
ATOM     17  C   UNL A   1      37.797  31.439  31.589  1.00  0.00     0.031 C 
ATOM     18  C   UNL A   1      39.298  28.519  27.804  1.00  0.00     0.029 A 
ATOM     19  N   UNL A   1      40.634  28.580  29.596  1.00  0.00    -0.354 N 
ATOM     20  C   UNL A   1      39.529  31.060  33.027  1.00  0.00     0.074 A 
ATOM     21  C   UNL A   1      38.268  31.725  32.793  1.00  0.00     0.031 C 
ATOM     22  C   UNL A   1      40.267  27.609  27.612  1.00  0.00     0.029 A 
ATOM     23  C   UNL A   1      41.178  27.644  28.749  1.00  0.00     0.049 A 
ATOM     24  H   UNL A   1      41.029  28.815  30.466  1.00  0.00     0.167 HD
ATOM     25  C   UNL A   1      40.237  31.135  34.177  1.00  0.00     0.037 A 
ATOM     26  C   UNL A   1      42.302  26.915  28.880  1.00  0.00     0.037 A 
ATOM     27  C   UNL A   1      41.500  30.478  34.375  1.00  0.00     0.049 A 
ATOM     28  C   UNL A   1      43.110  27.087  30.136  1.00  0.00     0.074 A 
ATOM     29  C   UNL A   1      42.368  30.565  35.447  1.00  0.00     0.029 A 
ATOM     30  N   UNL A   1      42.072  29.597  33.464  1.00  0.00    -0.354 N 
ATOM     31  N   UNL A   1      42.848  27.818  31.194  1.00  0.00    -0.248 NA
ATOM     32  C   UNL A   1      44.373  26.344  30.217  1.00  0.00     0.031 C 
ATOM     33  C   UNL A   1      43.481  29.762  35.171  1.00  0.00     0.029 A 
ATOM     34  C   UNL A   1      43.286  29.140  33.946  1.00  0.00     0.049 A 
ATOM     35  H   UNL A   1      41.673  29.338  32.603  1.00  0.00     0.167 HD
ATOM     36  C   UNL A   1      43.910  27.629  32.064  1.00  0.00     0.074 A 
ATOM     37  C   UNL A   1      44.802  26.679  31.425  1.00  0.00     0.031 C 
ATOM     38  C   UNL A   1      44.143  28.197  33.273  1.00  0.00     0.037 A 
BRANCH  25  39
ATOM     39  C   UNL A   1      39.678  32.002  35.264  1.00  0.00     0.064 A 
ATOM     40  C   UNL A   1      38.808  31.492  36.240  1.00  0.00     0.173 A 
ATOM     41  C   UNL A   1      39.986  33.369  35.309  1.00  0.00     0.173 A 
ATOM     42  F   UNL A   1      38.457  30.197  36.221  1.00  0.00    -0.203 F 
ATOM     43  C   UNL A   1      38.249  32.325  37.207  1.00  0.00     0.198 A 
ATOM     44  C   UNL A   1      39.443  34.195  36.290  1.00  0.00     0.198 A 
ATOM     45  F   UNL A   1      40.804  33.909  34.393  1.00  0.00    -0.203 F 
ATOM     46  F   UNL A   1      37.379  31.827  38.096  1.00  0.00    -0.200 F 
ATOM     47  C   UNL A   1      38.569  33.674  37.232  1.00  0.00     0.200 A 
ATOM     48  F   UNL A   1      39.753  35.499  36.314  1.00  0.00    -0.200 F 
ATOM     49  F   UNL A   1      38.023  34.477  38.157  1.00  0.00    -0.200 F 
ENDBRANCH  25  39
BRANCH  26  50
ATOM     50  C   UNL A   1      42.744  26.012  27.782  1.00  0.00     0.064 A 
ATOM     51  C   UNL A   1      42.349  24.669  27.730  1.00  0.00     0.173 A 
ATOM     52  C   UNL A   1      43.597  26.475  26.767  1.00  0.00     0.173 A 
ATOM     53  F   UNL A   1      41.553  24.166  28.685  1.00  0.00    -0.203 F 
ATOM     54  C   UNL A   1      42.803  23.822  26.718  1.00  0.00     0.198 A 
ATOM     55  C   UNL A   1      44.024  25.638  25.739  1.00  0.00     0.198 A 
ATOM     56  F   UNL A   1      44.013  27.751  26.769  1.00  0.00    -0.203 F 
ATOM     57  F   UNL A   1      42.451  22.528  26.722  1.00  0.00    -0.200 F 
ATOM     58  C   UNL A   1      43.634  24.308  25.721  1.00  0.00     0.200 A 
ATOM     59  F   UNL A   1      44.816  26.118  24.771  1.00  0.00    -0.200 F 
ATOM     60  F   UNL A   1      44.071  23.494  24.750  1.00  0.00    -0.200 F 
ENDBRANCH  26  50
BRANCH  38  61
ATOM     61  C   UNL A   1      45.407  27.795  33.969  1.00  0.00     0.064 A 
ATOM     62  C   UNL A   1      45.440  26.702  34.846  1.00  0.00     0.173 A 
ATOM     63  C   UNL A   1      46.600  28.493  33.734  1.00  0.00     0.173 A 
ATOM     64  F   UNL A   1      44.318  26.015  35.112  1.00  0.00    -0.203 F 
ATOM     65  C   UNL A   1      46.619  26.339  35.487  1.00  0.00     0.198 A 
ATOM     66  C   UNL A   1      47.783  28.110  34.357  1.00  0.00     0.198 A 
ATOM     67  F   UNL A   1      46.617  29.542  32.898  1.00  0.00    -0.203 F 
ATOM     68  F   UNL A   1      46.618  25.321  36.361  1.00  0.00    -0.200 F 
ATOM     69  C   UNL A   1      47.790  27.039  35.238  1.00  0.00     0.200 A 
ATOM     70  F   UNL A   1      48.917  28.780  34.108  1.00  0.00    -0.200 F 
ATOM     71  F   UNL A   1      48.926  26.687  35.856  1.00  0.00    -0.200 F 
ENDBRANCH  38  61
ENDBRANCH  12  13
ENDBRANCH   5   7
ENDBRANCH   4   5
ENDBRANCH   3   4
ENDBRANCH   2   3
ENDBRANCH   1   2
BRANCH   1  72
ATOM     72  C   UNL A   1      32.386  27.118  24.663  1.00  0.00     0.202 C 
BRANCH  72  73
ATOM     73  C   UNL A   1      33.587  26.416  24.010  1.00  0.00     0.261 C 
BRANCH  73  74
ATOM     74  O   UNL A   1      34.313  25.687  25.013  1.00  0.00    -0.462 OA
BRANCH  74  75
ATOM     75  C   UNL A   1      33.749  24.487  25.355  1.00  0.00     0.329 C 
ATOM     76  O   UNL A   1      33.160  24.277  26.411  1.00  0.00    -0.250 OA
BRANCH  75  77
ATOM     77  C   UNL A   1      33.735  23.528  24.150  1.00  0.00     0.206 C 
ATOM     78  C   UNL A   1      32.383  22.859  23.989  1.00  0.00     0.108 C 
ATOM     79  N   UNL A   1      34.758  22.483  24.226  1.00  0.00    -0.315 N 
ATOM     80  S   UNL A   1      32.514  21.316  24.934  1.00  0.00    -0.138 SA
ATOM     81  C   UNL A   1      34.323  21.328  24.980  1.00  0.00     0.191 C 
BRANCH  79  82
ATOM     82  C   UNL A   1      36.053  22.756  23.817  1.00  0.00     0.255 C 
ATOM     83  O   UNL A   1      36.359  23.023  22.659  1.00  0.00    -0.269 OA
BRANCH  82  84
ATOM     84  C   UNL A   1      37.116  22.807  24.839  1.00  0.00     0.041 A 
ATOM     85  C   UNL A   1      37.291  23.940  25.639  1.00  0.00     0.014 A 
ATOM     86  C   UNL A   1      37.934  21.684  24.996  1.00  0.00     0.034 A 
ATOM     87  C   UNL A   1      38.339  23.976  26.557  1.00  0.00     0.002 A 
ATOM     88  C   UNL A   1      38.970  21.728  25.924  1.00  0.00     0.041 A 
ATOM     89  C   UNL A   1      39.184  22.872  26.694  1.00  0.00     0.020 A 
ATOM     90  Cl  UNL A   1      40.003  20.365  26.113  1.00  0.00    -0.084 Cl
ENDBRANCH  82  84
ENDBRANCH  79  82
ENDBRANCH  75  77
ENDBRANCH  74  75
ENDBRANCH  73  74
ENDBRANCH  72  73
ENDBRANCH   1  72
TORSDOF 16
ENDMDL
MODEL 3
REMARK VINA RESULT:     -10.9      0.197      1.613
REMARK SMILES O=C(OCCOCCOC(=O)[C@@H]1CSCN1C(=O)c1cccc(Cl)c1)c1ccc(-c2c3nc(c(-c4c(F)c(F)c(F)c(F)c4F)c4ccc([nH]4)c(-c4c(F)c(F)c(F)c(F)c4F)c4nc(c(-c5c(F)c(F)c(F)c(F)c5F)c5ccc2[nH]5)C=C4)C=C3)cc1
REMARK SMILES IDX 6 1 5 2 4 3 3 4 2 5 1 6 26 7 27 8 88 9 28 10 87 11 29 12
REMARK SMILES IDX 30 13 31 14 81 15 32 16 86 17 80 18 82 19 33 20 85 21 79 22
REMARK SMILES IDX 78 23 34 25 66 26 46 27 65 28 47 29 50 30 64 31 83 32 48 33
REMARK SMILES IDX 49 34 63 36 84 37 51 38 35 39 36 40 44 41 37 42 38 43 42 44
REMARK SMILES IDX 45 45 39 46 40 47 43 48 41 49 67 50 68 51 76 52 69 53 70 54
REMARK SMILES IDX 74 55 77 56 71 57 72 58 75 59 73 60 52 61 53 62 61 63 54 64
REMARK SMILES IDX 55 65 59 66 62 67 56 68 57 69 60 70 58 71 7 72 8 73 9 74
REMARK SMILES IDX 10 75 11 76 12 77 13 78 16 79 14 80 15 81 17 82 18 83 19 84
REMARK SMILES IDX 20 85 25 86 21 87 23 88 22 89 24 90
REMARK H PARENT 82 24 50 35
REMARK Flexibility Score: inf
ROOT
ATOM      1  O   UNL A   1      32.946  30.501  26.289  1.00  0.00    -0.374 OA
ENDROOT
BRANCH   1   2
ATOM      2  C   UNL A   1      31.732  30.992  26.865  1.00  0.00     0.202 C 
BRANCH   2   3
ATOM      3  C   UNL A   1      31.516  32.496  26.694  1.00  0.00     0.261 C 
BRANCH   3   4
ATOM      4  O   UNL A   1      32.753  33.203  26.893  1.00  0.00    -0.460 OA
BRANCH   4   5
ATOM      5  C   UNL A   1      33.309  33.630  28.049  1.00  0.00     0.338 C 
ATOM      6  O   UNL A   1      32.783  34.567  28.648  1.00  0.00    -0.246 OA
BRANCH   5   7
ATOM      7  C   UNL A   1      34.525  33.013  28.660  1.00  0.00     0.060 A 
ATOM      8  C   UNL A   1      34.551  31.783  29.315  1.00  0.00     0.016 A 
ATOM      9  C   UNL A   1      35.746  33.690  28.481  1.00  0.00     0.016 A 
ATOM     10  C   UNL A   1      35.722  31.279  29.860  1.00  0.00     0.010 A 
ATOM     11  C   UNL A   1      36.944  33.158  28.970  1.00  0.00     0.010 A 
ATOM     12  C   UNL A   1      36.926  31.957  29.684  1.00  0.00    -0.014 A 
BRANCH  12  13
ATOM     13  C   UNL A   1      38.123  31.385  30.326  1.00  0.00     0.031 A 
ATOM     14  C   UNL A   1      38.375  31.674  31.772  1.00  0.00     0.074 A 
ATOM     15  C   UNL A   1      38.848  30.473  29.651  1.00  0.00     0.049 A 
ATOM     16  N   UNL A   1      39.313  31.215  32.556  1.00  0.00    -0.248 NA
ATOM     17  C   UNL A   1      37.428  32.587  32.434  1.00  0.00     0.031 C 
ATOM     18  C   UNL A   1      38.596  30.061  28.268  1.00  0.00     0.029 A 
ATOM     19  N   UNL A   1      39.899  29.691  30.046  1.00  0.00    -0.354 N 
ATOM     20  C   UNL A   1      39.072  31.783  33.799  1.00  0.00     0.074 A 
ATOM     21  C   UNL A   1      37.913  32.635  33.665  1.00  0.00     0.031 C 
ATOM     22  C   UNL A   1      39.440  29.068  27.945  1.00  0.00     0.029 A 
ATOM     23  C   UNL A   1      40.330  28.821  29.073  1.00  0.00     0.049 A 
ATOM     24  H   UNL A   1      40.308  29.746  30.940  1.00  0.00     0.167 HD
ATOM     25  C   UNL A   1      39.765  31.601  34.946  1.00  0.00     0.037 A 
ATOM     26  C   UNL A   1      41.346  27.939  29.095  1.00  0.00     0.037 A 
ATOM     27  C   UNL A   1      40.928  30.762  35.045  1.00  0.00     0.049 A 
ATOM     28  C   UNL A   1      42.150  27.823  30.362  1.00  0.00     0.074 A 
ATOM     29  C   UNL A   1      41.782  30.581  36.116  1.00  0.00     0.029 A 
ATOM     30  N   UNL A   1      41.395  29.951  34.017  1.00  0.00    -0.354 N 
ATOM     31  N   UNL A   1      41.968  28.426  31.514  1.00  0.00    -0.248 NA
ATOM     32  C   UNL A   1      43.304  26.917  30.333  1.00  0.00     0.031 C 
ATOM     33  C   UNL A   1      42.785  29.685  35.725  1.00  0.00     0.029 A 
ATOM     34  C   UNL A   1      42.531  29.274  34.424  1.00  0.00     0.049 A 
ATOM     35  H   UNL A   1      40.979  29.872  33.128  1.00  0.00     0.167 HD
ATOM     36  C   UNL A   1      42.982  27.976  32.345  1.00  0.00     0.074 A 
ATOM     37  C   UNL A   1      43.753  27.018  31.575  1.00  0.00     0.031 C 
ATOM     38  C   UNL A   1      43.268  28.332  33.622  1.00  0.00     0.037 A 
BRANCH  25  39
ATOM     39  C   UNL A   1      39.307  32.371  36.147  1.00  0.00     0.064 A 
ATOM     40  C   UNL A   1      38.342  31.858  37.027  1.00  0.00     0.173 A 
ATOM     41  C   UNL A   1      39.811  33.654  36.401  1.00  0.00     0.173 A 
ATOM     42  F   UNL A   1      37.805  30.648  36.810  1.00  0.00    -0.203 F 
ATOM     43  C   UNL A   1      37.882  32.613  38.105  1.00  0.00     0.198 A 
ATOM     44  C   UNL A   1      39.366  34.397  37.491  1.00  0.00     0.198 A 
ATOM     45  F   UNL A   1      40.728  34.195  35.584  1.00  0.00    -0.203 F 
ATOM     46  F   UNL A   1      36.921  32.125  38.901  1.00  0.00    -0.200 F 
ATOM     47  C   UNL A   1      38.396  33.880  38.337  1.00  0.00     0.200 A 
ATOM     48  F   UNL A   1      39.863  35.622  37.714  1.00  0.00    -0.200 F 
ATOM     49  F   UNL A   1      37.946  34.609  39.368  1.00  0.00    -0.200 F 
ENDBRANCH  25  39
BRANCH  26  50
ATOM     50  C   UNL A   1      41.685  27.150  27.879  1.00  0.00     0.064 A 
ATOM     51  C   UNL A   1      41.096  25.905  27.622  1.00  0.00     0.173 A 
ATOM     52  C   UNL A   1      42.629  27.623  26.953  1.00  0.00     0.173 A 
ATOM     53  F   UNL A   1      40.205  25.394  28.484  1.00  0.00    -0.203 F 
ATOM     54  C   UNL A   1      41.452  25.157  26.500  1.00  0.00     0.198 A 
ATOM     55  C   UNL A   1      42.959  26.891  25.816  1.00  0.00     0.198 A 
ATOM     56  F   UNL A   1      43.229  28.807  27.150  1.00  0.00    -0.203 F 
ATOM     57  F   UNL A   1      40.912  23.945  26.307  1.00  0.00    -0.200 F 
ATOM     58  C   UNL A   1      42.378  25.653  25.594  1.00  0.00     0.200 A 
ATOM     59  F   UNL A   1      43.844  27.383  24.938  1.00  0.00    -0.200 F 
ATOM     60  F   UNL A   1      42.719  24.933  24.517  1.00  0.00    -0.200 F 
ENDBRANCH  26  50
BRANCH  38  61
ATOM     61  C   UNL A   1      44.457  27.673  34.250  1.00  0.00     0.064 A 
ATOM     62  C   UNL A   1      45.730  28.257  34.190  1.00  0.00     0.173 A 
ATOM     63  C   UNL A   1      44.316  26.460  34.939  1.00  0.00     0.173 A 
ATOM     64  F   UNL A   1      45.913  29.409  33.526  1.00  0.00    -0.203 F 
ATOM     65  C   UNL A   1      46.828  27.636  34.775  1.00  0.00     0.198 A 
ATOM     66  C   UNL A   1      45.412  25.856  35.547  1.00  0.00     0.198 A 
ATOM     67  F   UNL A   1      43.117  25.867  35.028  1.00  0.00    -0.203 F 
ATOM     68  F   UNL A   1      48.045  28.186  34.663  1.00  0.00    -0.200 F 
ATOM     69  C   UNL A   1      46.667  26.439  35.457  1.00  0.00     0.200 A 
ATOM     70  F   UNL A   1      45.254  24.705  36.216  1.00  0.00    -0.200 F 
ATOM     71  F   UNL A   1      47.725  25.842  36.023  1.00  0.00    -0.200 F 
ENDBRANCH  38  61
ENDBRANCH  12  13
ENDBRANCH   5   7
ENDBRANCH   4   5
ENDBRANCH   3   4
ENDBRANCH   2   3
ENDBRANCH   1   2
BRANCH   1  72
ATOM     72  C   UNL A   1      33.602  29.461  27.027  1.00  0.00     0.202 C 
BRANCH  72  73
ATOM     73  C   UNL A   1      34.413  28.580  26.064  1.00  0.00     0.261 C 
BRANCH  73  74
ATOM     74  O   UNL A   1      33.799  27.284  25.975  1.00  0.00    -0.462 OA
BRANCH  74  75
ATOM     75  C   UNL A   1      33.084  27.078  24.825  1.00  0.00     0.329 C 
ATOM     76  O   UNL A   1      33.572  26.685  23.770  1.00  0.00    -0.250 OA
BRANCH  75  77
ATOM     77  C   UNL A   1      31.571  27.163  25.101  1.00  0.00     0.206 C 
ATOM     78  C   UNL A   1      31.188  26.378  26.342  1.00  0.00     0.108 C 
ATOM     79  N   UNL A   1      30.749  26.687  23.986  1.00  0.00    -0.315 N 
ATOM     80  S   UNL A   1      30.761  24.724  25.732  1.00  0.00    -0.138 SA
ATOM     81  C   UNL A   1      30.540  25.256  24.016  1.00  0.00     0.191 C 
BRANCH  79  82
ATOM     82  C   UNL A   1      30.464  27.536  22.929  1.00  0.00     0.255 C 
ATOM     83  O   UNL A   1      31.021  27.474  21.838  1.00  0.00    -0.269 OA
BRANCH  82  84
ATOM     84  C   UNL A   1      29.376  28.520  23.092  1.00  0.00     0.041 A 
ATOM     85  C   UNL A   1      28.038  28.116  23.112  1.00  0.00     0.014 A 
ATOM     86  C   UNL A   1      29.723  29.865  23.242  1.00  0.00     0.034 A 
ATOM     87  C   UNL A   1      27.034  29.076  23.213  1.00  0.00     0.002 A 
ATOM     88  C   UNL A   1      28.711  30.814  23.353  1.00  0.00     0.041 A 
ATOM     89  C   UNL A   1      27.370  30.427  23.326  1.00  0.00     0.020 A 
ATOM     90  Cl  UNL A   1      29.116  32.479  23.512  1.00  0.00    -0.084 Cl
ENDBRANCH  82  84
ENDBRANCH  79  82
ENDBRANCH  75  77
ENDBRANCH  74  75
ENDBRANCH  73  74
ENDBRANCH  72  73
ENDBRANCH   1  72
TORSDOF 16
ENDMDL
