MODEL 1
REMARK VINA RESULT:     -10.9      0.000      0.000
REMARK SMILES C[C@H](O)[C@@H](NS(=O)(=O)c1ccc(F)cc1)C(=O)OCCOCCOC(=O)c1ccc(-c2c3nc(c(-c4c(F)c(F)c(F)c(F)c4F)c4ccc([nH]4)c(-c4c(F)c(F)c(F)c(F)c4F)c4nc(c(-c5c(F)c(F)c(F)c(F)c5F)c5ccc2[nH]5)C=C4)C=C3)cc1
REMARK SMILES IDX 20 1 19 2 18 3 16 4 17 5 4 6 2 7 1 8 3 9 5 11 6 13 7 14 8 15
REMARK SMILES IDX 9 16 10 17 15 18 11 19 14 20 12 21 13 22 21 23 22 24 23 25
REMARK SMILES IDX 24 26 25 27 26 28 27 29 28 30 89 31 29 32 88 33 30 34 31 35
REMARK SMILES IDX 32 36 82 37 33 38 87 39 81 40 83 41 34 42 86 43 80 44 79 45
REMARK SMILES IDX 35 47 67 48 47 49 66 50 48 51 51 52 65 53 84 54 49 55 50 56
REMARK SMILES IDX 64 58 85 59 52 60 36 61 37 62 45 63 38 64 39 65 43 66 46 67
REMARK SMILES IDX 40 68 41 69 44 70 42 71 68 72 69 73 77 74 70 75 71 76 75 77
REMARK SMILES IDX 78 78 72 79 73 80 76 81 74 82 53 83 54 84 62 85 55 86 56 87
REMARK SMILES IDX 60 88 63 89 57 90 58 91 61 92 59 93
REMARK H PARENT 3 10 5 12 83 46 51 57
REMARK Flexibility Score: inf
ROOT
ATOM      1  C   UNL A   1      34.759  23.711  23.508  1.00  0.00     0.202 C 
ENDROOT
BRANCH   1   2
ATOM      2  C   UNL A   1      33.583  23.681  22.525  1.00  0.00     0.261 C 
BRANCH   2   3
ATOM      3  O   UNL A   1      32.573  24.687  22.601  1.00  0.00    -0.462 OA
BRANCH   3   4
ATOM      4  C   UNL A   1      32.992  25.965  22.365  1.00  0.00     0.326 C 
ATOM      5  O   UNL A   1      33.652  26.321  21.399  1.00  0.00    -0.250 OA
BRANCH   4   6
ATOM      6  C   UNL A   1      32.646  26.893  23.506  1.00  0.00     0.208 C 
BRANCH   6   7
ATOM      7  C   UNL A   1      31.952  28.179  23.000  1.00  0.00     0.140 C 
ATOM      8  C   UNL A   1      30.581  27.913  22.375  1.00  0.00     0.040 C 
BRANCH   7   9
ATOM      9  O   UNL A   1      32.786  28.822  22.021  1.00  0.00    -0.391 OA
ATOM     10  H   UNL A   1      33.718  28.701  22.261  1.00  0.00     0.211 HD
ENDBRANCH   7   9
ENDBRANCH   6   7
BRANCH   6  11
ATOM     11  N   UNL A   1      31.758  26.153  24.460  1.00  0.00    -0.194 NA
ATOM     12  H   UNL A   1      31.703  25.189  24.134  1.00  0.00     0.142 HD
BRANCH  11  13
ATOM     13  S   UNL A   1      32.199  26.107  26.093  1.00  0.00     0.241 S 
ATOM     14  O   UNL A   1      31.024  25.789  26.870  1.00  0.00    -0.207 OA
ATOM     15  O   UNL A   1      33.380  25.270  26.142  1.00  0.00    -0.207 OA
BRANCH  13  16
ATOM     16  C   UNL A   1      32.727  27.765  26.498  1.00  0.00     0.082 A 
ATOM     17  C   UNL A   1      34.091  28.061  26.606  1.00  0.00     0.025 A 
ATOM     18  C   UNL A   1      31.779  28.749  26.807  1.00  0.00     0.025 A 
ATOM     19  C   UNL A   1      34.495  29.362  26.932  1.00  0.00     0.040 A 
ATOM     20  C   UNL A   1      32.185  30.059  27.078  1.00  0.00     0.040 A 
ATOM     21  C   UNL A   1      33.540  30.353  27.133  1.00  0.00     0.123 A 
ATOM     22  F   UNL A   1      33.932  31.610  27.384  1.00  0.00    -0.207 F 
ENDBRANCH  13  16
ENDBRANCH  11  13
ENDBRANCH   6  11
ENDBRANCH   4   6
ENDBRANCH   3   4
ENDBRANCH   2   3
ENDBRANCH   1   2
BRANCH   1  23
ATOM     23  O   UNL A   1      35.348  22.503  23.959  1.00  0.00    -0.374 OA
BRANCH  23  24
ATOM     24  C   UNL A   1      36.762  22.360  23.866  1.00  0.00     0.202 C 
BRANCH  24  25
ATOM     25  C   UNL A   1      37.383  21.144  24.547  1.00  0.00     0.261 C 
BRANCH  25  26
ATOM     26  O   UNL A   1      37.758  21.466  25.899  1.00  0.00    -0.460 OA
BRANCH  26  27
ATOM     27  C   UNL A   1      39.090  21.419  26.126  1.00  0.00     0.338 C 
ATOM     28  O   UNL A   1      39.885  20.602  25.691  1.00  0.00    -0.246 OA
BRANCH  27  29
ATOM     29  C   UNL A   1      39.532  22.629  26.840  1.00  0.00     0.060 A 
ATOM     30  C   UNL A   1      38.859  23.817  26.530  1.00  0.00     0.016 A 
ATOM     31  C   UNL A   1      40.641  22.635  27.689  1.00  0.00     0.016 A 
ATOM     32  C   UNL A   1      39.364  25.033  26.966  1.00  0.00     0.010 A 
ATOM     33  C   UNL A   1      41.152  23.862  28.126  1.00  0.00     0.010 A 
ATOM     34  C   UNL A   1      40.556  25.063  27.701  1.00  0.00    -0.014 A 
BRANCH  34  35
ATOM     35  C   UNL A   1      41.278  26.352  27.790  1.00  0.00     0.031 A 
ATOM     36  C   UNL A   1      40.617  27.494  28.516  1.00  0.00     0.074 A 
ATOM     37  C   UNL A   1      42.541  26.463  27.347  1.00  0.00     0.049 A 
ATOM     38  N   UNL A   1      41.078  28.689  28.781  1.00  0.00    -0.248 NA
ATOM     39  C   UNL A   1      39.253  27.255  29.020  1.00  0.00     0.031 C 
ATOM     40  C   UNL A   1      43.297  25.402  26.688  1.00  0.00     0.029 A 
ATOM     41  N   UNL A   1      43.417  27.517  27.408  1.00  0.00    -0.354 N 
ATOM     42  C   UNL A   1      40.065  29.339  29.475  1.00  0.00     0.074 A 
ATOM     43  C   UNL A   1      38.951  28.423  29.565  1.00  0.00     0.031 C 
ATOM     44  C   UNL A   1      44.531  25.856  26.408  1.00  0.00     0.029 A 
ATOM     45  C   UNL A   1      44.639  27.248  26.846  1.00  0.00     0.049 A 
ATOM     46  H   UNL A   1      43.190  28.383  27.816  1.00  0.00     0.167 HD
ATOM     47  C   UNL A   1      40.073  30.584  30.002  1.00  0.00     0.037 A 
ATOM     48  C   UNL A   1      45.718  28.039  26.697  1.00  0.00     0.037 A 
ATOM     49  C   UNL A   1      41.193  31.483  29.927  1.00  0.00     0.049 A 
ATOM     50  C   UNL A   1      45.684  29.439  27.252  1.00  0.00     0.074 A 
ATOM     51  C   UNL A   1      41.303  32.766  30.434  1.00  0.00     0.029 A 
ATOM     52  N   UNL A   1      42.399  31.189  29.309  1.00  0.00    -0.354 N 
ATOM     53  N   UNL A   1      44.721  30.046  27.905  1.00  0.00    -0.248 NA
ATOM     54  C   UNL A   1      46.887  30.260  27.060  1.00  0.00     0.031 C 
ATOM     55  C   UNL A   1      42.557  33.267  30.078  1.00  0.00     0.029 A 
ATOM     56  C   UNL A   1      43.253  32.275  29.404  1.00  0.00     0.049 A 
ATOM     57  H   UNL A   1      42.616  30.335  28.869  1.00  0.00     0.167 HD
ATOM     58  C   UNL A   1      45.210  31.306  28.225  1.00  0.00     0.074 A 
ATOM     59  C   UNL A   1      46.561  31.373  27.705  1.00  0.00     0.031 C 
ATOM     60  C   UNL A   1      44.598  32.317  28.889  1.00  0.00     0.037 A 
BRANCH  47  61
ATOM     61  C   UNL A   1      38.832  31.065  30.694  1.00  0.00     0.064 A 
ATOM     62  C   UNL A   1      38.705  30.937  32.086  1.00  0.00     0.173 A 
ATOM     63  C   UNL A   1      37.741  31.579  29.980  1.00  0.00     0.173 A 
ATOM     64  F   UNL A   1      39.721  30.452  32.815  1.00  0.00    -0.203 F 
ATOM     65  C   UNL A   1      37.523  31.284  32.734  1.00  0.00     0.198 A 
ATOM     66  C   UNL A   1      36.568  31.951  30.634  1.00  0.00     0.198 A 
ATOM     67  F   UNL A   1      37.819  31.739  28.650  1.00  0.00    -0.203 F 
ATOM     68  F   UNL A   1      37.412  31.118  34.059  1.00  0.00    -0.200 F 
ATOM     69  C   UNL A   1      36.456  31.791  32.007  1.00  0.00     0.200 A 
ATOM     70  F   UNL A   1      35.546  32.464  29.936  1.00  0.00    -0.200 F 
ATOM     71  F   UNL A   1      35.319  32.128  32.632  1.00  0.00    -0.200 F 
ENDBRANCH  47  61
BRANCH  48  72
ATOM     72  C   UNL A   1      46.919  27.519  25.994  1.00  0.00     0.064 A 
ATOM     73  C   UNL A   1      47.960  26.901  26.705  1.00  0.00     0.173 A 
ATOM     74  C   UNL A   1      47.063  27.641  24.605  1.00  0.00     0.173 A 
ATOM     75  F   UNL A   1      47.873  26.761  28.036  1.00  0.00    -0.203 F 
ATOM     76  C   UNL A   1      49.105  26.445  26.057  1.00  0.00     0.198 A 
ATOM     77  C   UNL A   1      48.195  27.158  23.954  1.00  0.00     0.198 A 
ATOM     78  F   UNL A   1      46.086  28.204  23.879  1.00  0.00    -0.203 F 
ATOM     79  F   UNL A   1      50.097  25.890  26.765  1.00  0.00    -0.200 F 
ATOM     80  C   UNL A   1      49.220  26.568  24.680  1.00  0.00     0.200 A 
ATOM     81  F   UNL A   1      48.292  27.255  22.621  1.00  0.00    -0.200 F 
ATOM     82  F   UNL A   1      50.314  26.116  24.055  1.00  0.00    -0.200 F 
ENDBRANCH  48  72
BRANCH  60  83
ATOM     83  C   UNL A   1      45.385  33.573  29.126  1.00  0.00     0.064 A 
ATOM     84  C   UNL A   1      46.127  33.730  30.306  1.00  0.00     0.173 A 
ATOM     85  C   UNL A   1      45.344  34.647  28.226  1.00  0.00     0.173 A 
ATOM     86  F   UNL A   1      46.187  32.737  31.206  1.00  0.00    -0.203 F 
ATOM     87  C   UNL A   1      46.794  34.921  30.580  1.00  0.00     0.198 A 
ATOM     88  C   UNL A   1      46.038  35.825  28.489  1.00  0.00     0.198 A 
ATOM     89  F   UNL A   1      44.653  34.542  27.081  1.00  0.00    -0.203 F 
ATOM     90  F   UNL A   1      47.468  35.061  31.730  1.00  0.00    -0.200 F 
ATOM     91  C   UNL A   1      46.753  35.965  29.669  1.00  0.00     0.200 A 
ATOM     92  F   UNL A   1      46.018  36.825  27.596  1.00  0.00    -0.200 F 
ATOM     93  F   UNL A   1      47.408  37.106  29.926  1.00  0.00    -0.200 F 
ENDBRANCH  60  83
ENDBRANCH  34  35
ENDBRANCH  27  29
ENDBRANCH  26  27
ENDBRANCH  25  26
ENDBRANCH  24  25
ENDBRANCH  23  24
ENDBRANCH   1  23
TORSDOF 19
ENDMDL
MODEL 2
REMARK VINA RESULT:     -10.8      4.345      9.599
REMARK SMILES C[C@H](O)[C@@H](NS(=O)(=O)c1ccc(F)cc1)C(=O)OCCOCCOC(=O)c1ccc(-c2c3nc(c(-c4c(F)c(F)c(F)c(F)c4F)c4ccc([nH]4)c(-c4c(F)c(F)c(F)c(F)c4F)c4nc(c(-c5c(F)c(F)c(F)c(F)c5F)c5ccc2[nH]5)C=C4)C=C3)cc1
REMARK SMILES IDX 20 1 19 2 18 3 16 4 17 5 4 6 2 7 1 8 3 9 5 11 6 13 7 14 8 15
REMARK SMILES IDX 9 16 10 17 15 18 11 19 14 20 12 21 13 22 21 23 22 24 23 25
REMARK SMILES IDX 24 26 25 27 26 28 27 29 28 30 89 31 29 32 88 33 30 34 31 35
REMARK SMILES IDX 32 36 82 37 33 38 87 39 81 40 83 41 34 42 86 43 80 44 79 45
REMARK SMILES IDX 35 47 67 48 47 49 66 50 48 51 51 52 65 53 84 54 49 55 50 56
REMARK SMILES IDX 64 58 85 59 52 60 36 61 37 62 45 63 38 64 39 65 43 66 46 67
REMARK SMILES IDX 40 68 41 69 44 70 42 71 68 72 69 73 77 74 70 75 71 76 75 77
REMARK SMILES IDX 78 78 72 79 73 80 76 81 74 82 53 83 54 84 62 85 55 86 56 87
REMARK SMILES IDX 60 88 63 89 57 90 58 91 61 92 59 93
REMARK H PARENT 3 10 5 12 83 46 51 57
REMARK Flexibility Score: inf
ROOT
ATOM      1  C   UNL A   1      33.546  28.053  25.344  1.00  0.00     0.202 C 
ENDROOT
BRANCH   1   2
ATOM      2  C   UNL A   1      33.504  27.057  24.179  1.00  0.00     0.261 C 
BRANCH   2   3
ATOM      3  O   UNL A   1      33.061  25.719  24.411  1.00  0.00    -0.462 OA
BRANCH   3   4
ATOM      4  C   UNL A   1      31.974  25.322  23.687  1.00  0.00     0.326 C 
ATOM      5  O   UNL A   1      31.966  25.128  22.479  1.00  0.00    -0.250 OA
BRANCH   4   6
ATOM      6  C   UNL A   1      30.724  25.258  24.535  1.00  0.00     0.208 C 
BRANCH   6   7
ATOM      7  C   UNL A   1      29.552  26.020  23.873  1.00  0.00     0.140 C 
ATOM      8  C   UNL A   1      29.867  27.495  23.615  1.00  0.00     0.040 C 
BRANCH   7   9
ATOM      9  O   UNL A   1      28.390  25.940  24.716  1.00  0.00    -0.391 OA
ATOM     10  H   UNL A   1      28.533  25.268  25.401  1.00  0.00     0.211 HD
ENDBRANCH   7   9
ENDBRANCH   6   7
BRANCH   6  11
ATOM     11  N   UNL A   1      30.370  23.817  24.739  1.00  0.00    -0.194 NA
ATOM     12  H   UNL A   1      30.803  23.289  23.982  1.00  0.00     0.142 HD
BRANCH  11  13
ATOM     13  S   UNL A   1      30.829  23.078  26.192  1.00  0.00     0.241 S 
ATOM     14  O   UNL A   1      31.162  24.114  27.141  1.00  0.00    -0.207 OA
ATOM     15  O   UNL A   1      29.787  22.112  26.470  1.00  0.00    -0.207 OA
BRANCH  13  16
ATOM     16  C   UNL A   1      32.306  22.147  25.814  1.00  0.00     0.082 A 
ATOM     17  C   UNL A   1      33.551  22.581  26.286  1.00  0.00     0.025 A 
ATOM     18  C   UNL A   1      32.238  21.037  24.961  1.00  0.00     0.025 A 
ATOM     19  C   UNL A   1      34.703  21.849  25.977  1.00  0.00     0.040 A 
ATOM     20  C   UNL A   1      33.382  20.278  24.699  1.00  0.00     0.040 A 
ATOM     21  C   UNL A   1      34.603  20.688  25.215  1.00  0.00     0.123 A 
ATOM     22  F   UNL A   1      35.701  19.958  24.974  1.00  0.00    -0.207 F 
ENDBRANCH  13  16
ENDBRANCH  11  13
ENDBRANCH   6  11
ENDBRANCH   4   6
ENDBRANCH   3   4
ENDBRANCH   2   3
ENDBRANCH   1   2
BRANCH   1  23
ATOM     23  O   UNL A   1      32.346  28.593  25.871  1.00  0.00    -0.374 OA
BRANCH  23  24
ATOM     24  C   UNL A   1      31.870  29.830  25.347  1.00  0.00     0.202 C 
BRANCH  24  25
ATOM     25  C   UNL A   1      31.741  30.994  26.325  1.00  0.00     0.261 C 
BRANCH  25  26
ATOM     26  O   UNL A   1      32.684  30.847  27.403  1.00  0.00    -0.460 OA
BRANCH  26  27
ATOM     27  C   UNL A   1      33.491  31.917  27.577  1.00  0.00     0.338 C 
ATOM     28  O   UNL A   1      33.160  33.089  27.651  1.00  0.00    -0.246 OA
BRANCH  27  29
ATOM     29  C   UNL A   1      34.867  31.479  27.870  1.00  0.00     0.060 A 
ATOM     30  C   UNL A   1      35.057  30.103  28.055  1.00  0.00     0.016 A 
ATOM     31  C   UNL A   1      35.912  32.381  28.079  1.00  0.00     0.016 A 
ATOM     32  C   UNL A   1      36.256  29.635  28.570  1.00  0.00     0.010 A 
ATOM     33  C   UNL A   1      37.120  31.907  28.602  1.00  0.00     0.010 A 
ATOM     34  C   UNL A   1      37.263  30.544  28.917  1.00  0.00    -0.014 A 
BRANCH  34  35
ATOM     35  C   UNL A   1      38.333  30.074  29.827  1.00  0.00     0.031 A 
ATOM     36  C   UNL A   1      39.364  29.121  29.285  1.00  0.00     0.074 A 
ATOM     37  C   UNL A   1      38.454  30.584  31.063  1.00  0.00     0.049 A 
ATOM     38  N   UNL A   1      40.427  28.627  29.868  1.00  0.00    -0.248 NA
ATOM     39  C   UNL A   1      39.180  28.666  27.896  1.00  0.00     0.031 C 
ATOM     40  C   UNL A   1      37.548  31.560  31.663  1.00  0.00     0.029 A 
ATOM     41  N   UNL A   1      39.405  30.365  32.028  1.00  0.00    -0.354 N 
ATOM     42  C   UNL A   1      41.030  27.808  28.921  1.00  0.00     0.074 A 
ATOM     43  C   UNL A   1      40.204  27.841  27.737  1.00  0.00     0.031 C 
ATOM     44  C   UNL A   1      37.990  31.863  32.896  1.00  0.00     0.029 A 
ATOM     45  C   UNL A   1      39.194  31.081  33.178  1.00  0.00     0.049 A 
ATOM     46  H   UNL A   1      40.165  29.753  31.906  1.00  0.00     0.167 HD
ATOM     47  C   UNL A   1      42.180  27.105  29.029  1.00  0.00     0.037 A 
ATOM     48  C   UNL A   1      39.891  31.096  34.330  1.00  0.00     0.037 A 
ATOM     49  C   UNL A   1      43.010  27.093  30.204  1.00  0.00     0.049 A 
ATOM     50  C   UNL A   1      41.143  30.266  34.441  1.00  0.00     0.074 A 
ATOM     51  C   UNL A   1      44.197  26.416  30.413  1.00  0.00     0.029 A 
ATOM     52  N   UNL A   1      42.737  27.797  31.368  1.00  0.00    -0.354 N 
ATOM     53  N   UNL A   1      41.705  29.493  33.542  1.00  0.00    -0.248 NA
ATOM     54  C   UNL A   1      41.864  30.318  35.720  1.00  0.00     0.031 C 
ATOM     55  C   UNL A   1      44.618  26.670  31.720  1.00  0.00     0.029 A 
ATOM     56  C   UNL A   1      43.727  27.554  32.306  1.00  0.00     0.049 A 
ATOM     57  H   UNL A   1      41.958  28.383  31.505  1.00  0.00     0.167 HD
ATOM     58  C   UNL A   1      42.855  28.989  34.134  1.00  0.00     0.074 A 
ATOM     59  C   UNL A   1      42.919  29.555  35.467  1.00  0.00     0.031 C 
ATOM     60  C   UNL A   1      43.777  28.137  33.623  1.00  0.00     0.037 A 
BRANCH  47  61
ATOM     61  C   UNL A   1      42.610  26.271  27.859  1.00  0.00     0.064 A 
ATOM     62  C   UNL A   1      42.190  24.936  27.752  1.00  0.00     0.173 A 
ATOM     63  C   UNL A   1      43.493  26.762  26.887  1.00  0.00     0.173 A 
ATOM     64  F   UNL A   1      41.344  24.419  28.655  1.00  0.00    -0.203 F 
ATOM     65  C   UNL A   1      42.659  24.117  26.728  1.00  0.00     0.198 A 
ATOM     66  C   UNL A   1      43.939  25.948  25.848  1.00  0.00     0.198 A 
ATOM     67  F   UNL A   1      43.908  28.037  26.935  1.00  0.00    -0.203 F 
ATOM     68  F   UNL A   1      42.274  22.835  26.667  1.00  0.00    -0.200 F 
ATOM     69  C   UNL A   1      43.531  24.624  25.777  1.00  0.00     0.200 A 
ATOM     70  F   UNL A   1      44.763  26.445  24.916  1.00  0.00    -0.200 F 
ATOM     71  F   UNL A   1      43.979  23.836  24.790  1.00  0.00    -0.200 F 
ENDBRANCH  47  61
BRANCH  48  72
ATOM     72  C   UNL A   1      39.417  31.930  35.465  1.00  0.00     0.064 A 
ATOM     73  C   UNL A   1      39.865  33.251  35.626  1.00  0.00     0.173 A 
ATOM     74  C   UNL A   1      38.525  31.425  36.420  1.00  0.00     0.173 A 
ATOM     75  F   UNL A   1      40.721  33.782  34.740  1.00  0.00    -0.203 F 
ATOM     76  C   UNL A   1      39.453  34.026  36.707  1.00  0.00     0.198 A 
ATOM     77  C   UNL A   1      38.091  32.211  37.485  1.00  0.00     0.198 A 
ATOM     78  F   UNL A   1      38.052  30.176  36.298  1.00  0.00    -0.203 F 
ATOM     79  F   UNL A   1      39.923  35.272  36.854  1.00  0.00    -0.200 F 
ATOM     80  C   UNL A   1      38.561  33.507  37.634  1.00  0.00     0.200 A 
ATOM     81  F   UNL A   1      37.209  31.715  38.365  1.00  0.00    -0.200 F 
ATOM     82  F   UNL A   1      38.154  34.257  38.666  1.00  0.00    -0.200 F 
ENDBRANCH  48  72
BRANCH  60  83
ATOM     83  C   UNL A   1      44.954  27.782  34.485  1.00  0.00     0.064 A 
ATOM     84  C   UNL A   1      46.132  28.541  34.420  1.00  0.00     0.173 A 
ATOM     85  C   UNL A   1      44.943  26.653  35.315  1.00  0.00     0.173 A 
ATOM     86  F   UNL A   1      46.197  29.624  33.630  1.00  0.00    -0.203 F 
ATOM     87  C   UNL A   1      47.260  28.177  35.149  1.00  0.00     0.198 A 
ATOM     88  C   UNL A   1      46.064  26.310  36.067  1.00  0.00     0.198 A 
ATOM     89  F   UNL A   1      43.838  25.899  35.417  1.00  0.00    -0.203 F 
ATOM     90  F   UNL A   1      48.385  28.898  35.044  1.00  0.00    -0.200 F 
ATOM     91  C   UNL A   1      47.223  27.066  35.976  1.00  0.00     0.200 A 
ATOM     92  F   UNL A   1      46.019  25.249  36.886  1.00  0.00    -0.200 F 
ATOM     93  F   UNL A   1      48.305  26.724  36.690  1.00  0.00    -0.200 F 
ENDBRANCH  60  83
ENDBRANCH  34  35
ENDBRANCH  27  29
ENDBRANCH  26  27
ENDBRANCH  25  26
ENDBRANCH  24  25
ENDBRANCH  23  24
ENDBRANCH   1  23
TORSDOF 19
ENDMDL
MODEL 3
REMARK VINA RESULT:     -10.8      4.370      9.750
REMARK SMILES C[C@H](O)[C@@H](NS(=O)(=O)c1ccc(F)cc1)C(=O)OCCOCCOC(=O)c1ccc(-c2c3nc(c(-c4c(F)c(F)c(F)c(F)c4F)c4ccc([nH]4)c(-c4c(F)c(F)c(F)c(F)c4F)c4nc(c(-c5c(F)c(F)c(F)c(F)c5F)c5ccc2[nH]5)C=C4)C=C3)cc1
REMARK SMILES IDX 20 1 19 2 18 3 16 4 17 5 4 6 2 7 1 8 3 9 5 11 6 13 7 14 8 15
REMARK SMILES IDX 9 16 10 17 15 18 11 19 14 20 12 21 13 22 21 23 22 24 23 25
REMARK SMILES IDX 24 26 25 27 26 28 27 29 28 30 89 31 29 32 88 33 30 34 31 35
REMARK SMILES IDX 32 36 82 37 33 38 87 39 81 40 83 41 34 42 86 43 80 44 79 45
REMARK SMILES IDX 35 47 67 48 47 49 66 50 48 51 51 52 65 53 84 54 49 55 50 56
REMARK SMILES IDX 64 58 85 59 52 60 36 61 37 62 45 63 38 64 39 65 43 66 46 67
REMARK SMILES IDX 40 68 41 69 44 70 42 71 68 72 69 73 77 74 70 75 71 76 75 77
REMARK SMILES IDX 78 78 72 79 73 80 76 81 74 82 53 83 54 84 62 85 55 86 56 87
REMARK SMILES IDX 60 88 63 89 57 90 58 91 61 92 59 93
REMARK H PARENT 3 10 5 12 83 46 51 57
REMARK Flexibility Score: inf
ROOT
ATOM      1  C   UNL A   1      33.534  29.133  24.970  1.00  0.00     0.202 C 
ENDROOT
BRANCH   1   2
ATOM      2  C   UNL A   1      33.537  28.231  23.730  1.00  0.00     0.261 C 
BRANCH   2   3
ATOM      3  O   UNL A   1      32.534  28.404  22.728  1.00  0.00    -0.462 OA
BRANCH   3   4
ATOM      4  C   UNL A   1      31.652  27.372  22.590  1.00  0.00     0.326 C 
ATOM      5  O   UNL A   1      30.579  27.437  22.005  1.00  0.00    -0.250 OA
BRANCH   4   6
ATOM      6  C   UNL A   1      32.095  26.144  23.352  1.00  0.00     0.208 C 
BRANCH   6   7
ATOM      7  C   UNL A   1      31.286  25.966  24.658  1.00  0.00     0.140 C 
ATOM      8  C   UNL A   1      30.452  24.683  24.676  1.00  0.00     0.040 C 
BRANCH   7   9
ATOM      9  O   UNL A   1      30.406  27.088  24.836  1.00  0.00    -0.391 OA
ATOM     10  H   UNL A   1      30.884  27.909  24.638  1.00  0.00     0.211 HD
ENDBRANCH   7   9
ENDBRANCH   6   7
BRANCH   6  11
ATOM     11  N   UNL A   1      31.928  24.953  22.459  1.00  0.00    -0.194 NA
ATOM     12  H   UNL A   1      31.595  25.295  21.558  1.00  0.00     0.142 HD
BRANCH  11  13
ATOM     13  S   UNL A   1      33.282  23.982  22.158  1.00  0.00     0.241 S 
ATOM     14  O   UNL A   1      33.279  23.624  20.760  1.00  0.00    -0.207 OA
ATOM     15  O   UNL A   1      34.396  24.694  22.748  1.00  0.00    -0.207 OA
BRANCH  13  16
ATOM     16  C   UNL A   1      33.042  22.504  23.132  1.00  0.00     0.082 A 
ATOM     17  C   UNL A   1      32.343  21.415  22.597  1.00  0.00     0.025 A 
ATOM     18  C   UNL A   1      33.463  22.467  24.468  1.00  0.00     0.025 A 
ATOM     19  C   UNL A   1      32.153  20.264  23.371  1.00  0.00     0.040 A 
ATOM     20  C   UNL A   1      33.320  21.297  25.220  1.00  0.00     0.040 A 
ATOM     21  C   UNL A   1      32.670  20.205  24.662  1.00  0.00     0.123 A 
ATOM     22  F   UNL A   1      32.539  19.079  25.376  1.00  0.00    -0.207 F 
ENDBRANCH  13  16
ENDBRANCH  11  13
ENDBRANCH   6  11
ENDBRANCH   4   6
ENDBRANCH   3   4
ENDBRANCH   2   3
ENDBRANCH   1   2
BRANCH   1  23
ATOM     23  O   UNL A   1      32.364  29.264  25.759  1.00  0.00    -0.374 OA
BRANCH  23  24
ATOM     24  C   UNL A   1      31.465  30.331  25.471  1.00  0.00     0.202 C 
BRANCH  24  25
ATOM     25  C   UNL A   1      31.495  31.536  26.407  1.00  0.00     0.261 C 
BRANCH  25  26
ATOM     26  O   UNL A   1      32.464  31.333  27.451  1.00  0.00    -0.460 OA
BRANCH  26  27
ATOM     27  C   UNL A   1      33.340  32.353  27.595  1.00  0.00     0.338 C 
ATOM     28  O   UNL A   1      33.084  33.544  27.649  1.00  0.00    -0.246 OA
BRANCH  27  29
ATOM     29  C   UNL A   1      34.689  31.835  27.879  1.00  0.00     0.060 A 
ATOM     30  C   UNL A   1      34.799  30.451  28.067  1.00  0.00     0.016 A 
ATOM     31  C   UNL A   1      35.787  32.674  28.078  1.00  0.00     0.016 A 
ATOM     32  C   UNL A   1      35.972  29.914  28.576  1.00  0.00     0.010 A 
ATOM     33  C   UNL A   1      36.969  32.131  28.594  1.00  0.00     0.010 A 
ATOM     34  C   UNL A   1      37.033  30.763  28.912  1.00  0.00    -0.014 A 
BRANCH  34  35
ATOM     35  C   UNL A   1      38.079  30.233  29.816  1.00  0.00     0.031 A 
ATOM     36  C   UNL A   1      39.083  29.261  29.256  1.00  0.00     0.074 A 
ATOM     37  C   UNL A   1      38.207  30.704  31.067  1.00  0.00     0.049 A 
ATOM     38  N   UNL A   1      40.125  28.716  29.832  1.00  0.00    -0.248 NA
ATOM     39  C   UNL A   1      38.895  28.851  27.853  1.00  0.00     0.031 C 
ATOM     40  C   UNL A   1      37.330  31.693  31.688  1.00  0.00     0.029 A 
ATOM     41  N   UNL A   1      39.143  30.427  32.032  1.00  0.00    -0.354 N 
ATOM     42  C   UNL A   1      40.708  27.904  28.867  1.00  0.00     0.074 A 
ATOM     43  C   UNL A   1      39.892  27.997  27.679  1.00  0.00     0.031 C 
ATOM     44  C   UNL A   1      37.771  31.947  32.932  1.00  0.00     0.029 A 
ATOM     45  C   UNL A   1      38.946  31.118  33.201  1.00  0.00     0.049 A 
ATOM     46  H   UNL A   1      39.884  29.793  31.898  1.00  0.00     0.167 HD
ATOM     47  C   UNL A   1      41.833  27.160  28.964  1.00  0.00     0.037 A 
ATOM     48  C   UNL A   1      39.635  31.078  34.357  1.00  0.00     0.037 A 
ATOM     49  C   UNL A   1      42.652  27.089  30.144  1.00  0.00     0.049 A 
ATOM     50  C   UNL A   1      40.858  30.204  34.454  1.00  0.00     0.074 A 
ATOM     51  C   UNL A   1      43.815  26.367  30.342  1.00  0.00     0.029 A 
ATOM     52  N   UNL A   1      42.394  27.770  31.325  1.00  0.00    -0.354 N 
ATOM     53  N   UNL A   1      41.401  29.438  33.538  1.00  0.00    -0.248 NA
ATOM     54  C   UNL A   1      41.570  30.197  35.739  1.00  0.00     0.031 C 
ATOM     55  C   UNL A   1      44.234  26.571  31.659  1.00  0.00     0.029 A 
ATOM     56  C   UNL A   1      43.367  27.468  32.262  1.00  0.00     0.049 A 
ATOM     57  H   UNL A   1      41.633  28.377  31.473  1.00  0.00     0.167 HD
ATOM     58  C   UNL A   1      42.529  28.880  34.124  1.00  0.00     0.074 A 
ATOM     59  C   UNL A   1      42.601  29.406  35.472  1.00  0.00     0.031 C 
ATOM     60  C   UNL A   1      43.426  28.012  33.596  1.00  0.00     0.037 A 
BRANCH  47  61
ATOM     61  C   UNL A   1      42.244  26.346  27.774  1.00  0.00     0.064 A 
ATOM     62  C   UNL A   1      41.705  25.065  27.575  1.00  0.00     0.173 A 
ATOM     63  C   UNL A   1      43.222  26.793  26.875  1.00  0.00     0.173 A 
ATOM     64  F   UNL A   1      40.765  24.591  28.406  1.00  0.00    -0.203 F 
ATOM     65  C   UNL A   1      42.148  24.254  26.534  1.00  0.00     0.198 A 
ATOM     66  C   UNL A   1      43.644  25.990  25.817  1.00  0.00     0.198 A 
ATOM     67  F   UNL A   1      43.755  28.017  27.011  1.00  0.00    -0.203 F 
ATOM     68  F   UNL A   1      41.646  23.020  26.386  1.00  0.00    -0.200 F 
ATOM     69  C   UNL A   1      43.116  24.717  25.656  1.00  0.00     0.200 A 
ATOM     70  F   UNL A   1      44.562  26.447  24.955  1.00  0.00    -0.200 F 
ATOM     71  F   UNL A   1      43.540  23.937  24.652  1.00  0.00    -0.200 F 
ENDBRANCH  47  61
BRANCH  48  72
ATOM     72  C   UNL A   1      39.179  31.896  35.512  1.00  0.00     0.064 A 
ATOM     73  C   UNL A   1      38.315  31.359  36.479  1.00  0.00     0.173 A 
ATOM     74  C   UNL A   1      39.581  33.230  35.665  1.00  0.00     0.173 A 
ATOM     75  F   UNL A   1      37.900  30.088  36.378  1.00  0.00    -0.203 F 
ATOM     76  C   UNL A   1      37.855  32.131  37.543  1.00  0.00     0.198 A 
ATOM     77  C   UNL A   1      39.143  33.992  36.746  1.00  0.00     0.198 A 
ATOM     78  F   UNL A   1      40.423  33.781  34.779  1.00  0.00    -0.203 F 
ATOM     79  F   UNL A   1      37.004  31.603  38.432  1.00  0.00    -0.200 F 
ATOM     80  C   UNL A   1      38.274  33.446  37.679  1.00  0.00     0.200 A 
ATOM     81  F   UNL A   1      39.570  35.254  36.889  1.00  0.00    -0.200 F 
ATOM     82  F   UNL A   1      37.844  34.185  38.711  1.00  0.00    -0.200 F 
ENDBRANCH  48  72
BRANCH  60  83
ATOM     83  C   UNL A   1      44.584  27.595  34.456  1.00  0.00     0.064 A 
ATOM     84  C   UNL A   1      44.475  26.475  35.293  1.00  0.00     0.173 A 
ATOM     85  C   UNL A   1      45.768  28.344  34.508  1.00  0.00     0.173 A 
ATOM     86  F   UNL A   1      43.357  25.733  35.291  1.00  0.00    -0.203 F 
ATOM     87  C   UNL A   1      45.508  26.125  36.159  1.00  0.00     0.198 A 
ATOM     88  C   UNL A   1      46.811  27.972  35.352  1.00  0.00     0.198 A 
ATOM     89  F   UNL A   1      45.922  29.419  33.721  1.00  0.00    -0.203 F 
ATOM     90  F   UNL A   1      45.367  25.071  36.975  1.00  0.00    -0.200 F 
ATOM     91  C   UNL A   1      46.676  26.870  36.183  1.00  0.00     0.200 A 
ATOM     92  F   UNL A   1      47.950  28.679  35.357  1.00  0.00    -0.200 F 
ATOM     93  F   UNL A   1      47.677  26.523  37.005  1.00  0.00    -0.200 F 
ENDBRANCH  60  83
ENDBRANCH  34  35
ENDBRANCH  27  29
ENDBRANCH  26  27
ENDBRANCH  25  26
ENDBRANCH  24  25
ENDBRANCH  23  24
ENDBRANCH   1  23
TORSDOF 19
ENDMDL
