MODEL 1
REMARK VINA RESULT:     -10.7      0.000      0.000
REMARK SMILES N#CCCNC(=O)COc1ccc(C(=O)OCCOCCOC(=O)c2ccc(-c3c4nc(c(-c5c(F)c(F)c(F)c(F)c5F)c5ccc([nH]5)c(-c5c(F)c(F)c(F)c(F)c5F)c5nc(c(-c6c(F)c(F)c(F)c(F)c6F)c6ccc3[nH]6)C=C5)C=C4)cc2)nc1
REMARK SMILES IDX 17 1 16 2 14 3 15 4 13 5 10 6 11 7 89 8 12 9 88 10 9 11 8 12
REMARK SMILES IDX 6 13 5 14 7 16 4 17 3 18 2 19 1 20 18 21 19 22 20 23 21 24
REMARK SMILES IDX 22 25 23 26 24 27 25 28 26 29 87 30 27 31 86 32 28 33 29 34
REMARK SMILES IDX 30 35 80 36 31 37 85 38 79 39 81 40 32 41 84 42 78 43 77 44
REMARK SMILES IDX 33 46 65 47 45 48 64 49 46 50 49 51 63 52 82 53 47 54 48 55
REMARK SMILES IDX 62 57 83 58 50 59 34 60 35 61 43 62 36 63 37 64 41 65 44 66
REMARK SMILES IDX 38 67 39 68 42 69 40 70 66 71 67 72 75 73 68 74 69 75 73 76
REMARK SMILES IDX 76 77 70 78 71 79 74 80 72 81 51 82 52 83 60 84 53 85 54 86
REMARK SMILES IDX 58 87 61 88 55 89 56 90 59 91 57 92
REMARK H PARENT 5 15 81 45 49 56
REMARK Flexibility Score: inf
ROOT
ATOM      1  C   UNL A   1      33.312  21.118  26.285  1.00  0.00     0.261 C 
ENDROOT
BRANCH   1   2
ATOM      2  O   UNL A   1      32.125  21.798  25.845  1.00  0.00    -0.459 OA
BRANCH   2   3
ATOM      3  C   UNL A   1      31.730  22.841  26.623  1.00  0.00     0.357 C 
ATOM      4  O   UNL A   1      31.906  22.944  27.828  1.00  0.00    -0.244 OA
BRANCH   3   5
ATOM      5  C   UNL A   1      31.150  23.914  25.760  1.00  0.00     0.148 A 
ATOM      6  C   UNL A   1      30.032  25.942  24.310  1.00  0.00     0.138 A 
ATOM      7  C   UNL A   1      30.652  24.896  23.635  1.00  0.00     0.050 A 
ATOM      8  C   UNL A   1      30.057  25.950  25.694  1.00  0.00     0.158 A 
ATOM      9  C   UNL A   1      31.219  23.856  24.369  1.00  0.00     0.040 A 
ATOM     10  N   UNL A   1      30.593  24.957  26.432  1.00  0.00    -0.245 NA
BRANCH   6  11
ATOM     11  O   UNL A   1      29.434  26.975  23.650  1.00  0.00    -0.482 OA
BRANCH  11  12
ATOM     12  C   UNL A   1      30.402  27.751  22.940  1.00  0.00     0.329 C 
BRANCH  12  13
ATOM     13  C   UNL A   1      30.641  29.126  23.559  1.00  0.00     0.257 C 
ATOM     14  N   UNL A   1      30.205  30.238  22.895  1.00  0.00    -0.352 N 
ATOM     15  H   UNL A   1      30.394  31.099  23.332  1.00  0.00     0.163 HD
ATOM     16  O   UNL A   1      31.217  29.260  24.637  1.00  0.00    -0.271 OA
BRANCH  14  17
ATOM     17  C   UNL A   1      29.494  30.315  21.624  1.00  0.00     0.131 C 
BRANCH  17  18
ATOM     18  C   UNL A   1      28.029  30.736  21.782  1.00  0.00     0.141 C 
BRANCH  18  19
ATOM     19  C   UNL A   1      27.341  29.759  22.721  1.00  0.00     0.064 C 
ATOM     20  N   UNL A   1      26.770  28.948  23.501  1.00  0.00    -0.198 NA
ENDBRANCH  18  19
ENDBRANCH  17  18
ENDBRANCH  14  17
ENDBRANCH  12  13
ENDBRANCH  11  12
ENDBRANCH   6  11
ENDBRANCH   3   5
ENDBRANCH   2   3
ENDBRANCH   1   2
BRANCH   1  21
ATOM     21  C   UNL A   1      33.779  20.123  25.220  1.00  0.00     0.202 C 
BRANCH  21  22
ATOM     22  O   UNL A   1      34.990  20.466  24.548  1.00  0.00    -0.374 OA
BRANCH  22  23
ATOM     23  C   UNL A   1      36.025  21.055  25.339  1.00  0.00     0.202 C 
BRANCH  23  24
ATOM     24  C   UNL A   1      37.419  20.441  25.161  1.00  0.00     0.261 C 
BRANCH  24  25
ATOM     25  O   UNL A   1      38.450  21.446  25.214  1.00  0.00    -0.460 OA
BRANCH  25  26
ATOM     26  C   UNL A   1      39.421  21.219  26.128  1.00  0.00     0.338 C 
ATOM     27  O   UNL A   1      39.998  20.164  26.355  1.00  0.00    -0.246 OA
BRANCH  26  28
ATOM     28  C   UNL A   1      39.844  22.494  26.736  1.00  0.00     0.060 A 
ATOM     29  C   UNL A   1      39.113  23.642  26.405  1.00  0.00     0.016 A 
ATOM     30  C   UNL A   1      40.970  22.582  27.558  1.00  0.00     0.016 A 
ATOM     31  C   UNL A   1      39.533  24.891  26.857  1.00  0.00     0.010 A 
ATOM     32  C   UNL A   1      41.395  23.837  28.004  1.00  0.00     0.010 A 
ATOM     33  C   UNL A   1      40.698  25.001  27.626  1.00  0.00    -0.014 A 
BRANCH  33  34
ATOM     34  C   UNL A   1      41.266  26.340  27.910  1.00  0.00     0.031 A 
ATOM     35  C   UNL A   1      42.673  26.643  27.476  1.00  0.00     0.074 A 
ATOM     36  C   UNL A   1      40.529  27.286  28.518  1.00  0.00     0.049 A 
ATOM     37  N   UNL A   1      43.375  27.737  27.632  1.00  0.00    -0.248 NA
ATOM     38  C   UNL A   1      43.382  25.566  26.769  1.00  0.00     0.031 C 
ATOM     39  C   UNL A   1      39.140  27.131  28.942  1.00  0.00     0.029 A 
ATOM     40  N   UNL A   1      40.852  28.570  28.881  1.00  0.00    -0.354 N 
ATOM     41  C   UNL A   1      44.609  27.478  27.048  1.00  0.00     0.074 A 
ATOM     42  C   UNL A   1      44.570  26.114  26.565  1.00  0.00     0.031 C 
ATOM     43  C   UNL A   1      38.728  28.278  29.508  1.00  0.00     0.029 A 
ATOM     44  C   UNL A   1      39.833  29.234  29.514  1.00  0.00     0.049 A 
ATOM     45  H   UNL A   1      41.731  28.975  28.704  1.00  0.00     0.167 HD
ATOM     46  C   UNL A   1      45.672  28.306  26.915  1.00  0.00     0.037 A 
ATOM     47  C   UNL A   1      39.803  30.469  30.050  1.00  0.00     0.037 A 
ATOM     48  C   UNL A   1      45.711  29.661  27.401  1.00  0.00     0.049 A 
ATOM     49  C   UNL A   1      41.033  31.338  29.975  1.00  0.00     0.074 A 
ATOM     50  C   UNL A   1      46.734  30.587  27.300  1.00  0.00     0.029 A 
ATOM     51  N   UNL A   1      44.679  30.280  28.092  1.00  0.00    -0.354 N 
ATOM     52  N   UNL A   1      42.185  31.099  29.399  1.00  0.00    -0.248 NA
ATOM     53  C   UNL A   1      40.953  32.651  30.632  1.00  0.00     0.031 C 
ATOM     54  C   UNL A   1      46.341  31.749  27.975  1.00  0.00     0.029 A 
ATOM     55  C   UNL A   1      45.052  31.565  28.451  1.00  0.00     0.049 A 
ATOM     56  H   UNL A   1      43.809  29.866  28.296  1.00  0.00     0.167 HD
ATOM     57  C   UNL A   1      42.954  32.238  29.590  1.00  0.00     0.074 A 
ATOM     58  C   UNL A   1      42.136  33.173  30.334  1.00  0.00     0.031 C 
ATOM     59  C   UNL A   1      44.224  32.489  29.184  1.00  0.00     0.037 A 
BRANCH  46  60
ATOM     60  C   UNL A   1      46.895  27.751  26.243  1.00  0.00     0.064 A 
ATOM     61  C   UNL A   1      47.025  27.732  24.846  1.00  0.00     0.173 A 
ATOM     62  C   UNL A   1      47.953  27.236  27.008  1.00  0.00     0.173 A 
ATOM     63  F   UNL A   1      46.036  28.201  24.070  1.00  0.00    -0.203 F 
ATOM     64  C   UNL A   1      48.152  27.185  24.239  1.00  0.00     0.198 A 
ATOM     65  C   UNL A   1      49.091  26.716  26.396  1.00  0.00     0.198 A 
ATOM     66  F   UNL A   1      47.881  27.234  28.347  1.00  0.00    -0.203 F 
ATOM     67  F   UNL A   1      48.228  27.125  22.902  1.00  0.00    -0.200 F 
ATOM     68  C   UNL A   1      49.185  26.681  25.014  1.00  0.00     0.200 A 
ATOM     69  F   UNL A   1      50.094  26.240  27.148  1.00  0.00    -0.200 F 
ATOM     70  F   UNL A   1      50.269  26.153  24.428  1.00  0.00    -0.200 F 
ENDBRANCH  46  60
BRANCH  47  71
ATOM     71  C   UNL A   1      38.563  30.967  30.699  1.00  0.00     0.064 A 
ATOM     72  C   UNL A   1      37.546  31.562  29.940  1.00  0.00     0.173 A 
ATOM     73  C   UNL A   1      38.373  30.869  32.084  1.00  0.00     0.173 A 
ATOM     74  F   UNL A   1      37.694  31.702  28.615  1.00  0.00    -0.203 F 
ATOM     75  C   UNL A   1      36.389  32.049  30.545  1.00  0.00     0.198 A 
ATOM     76  C   UNL A   1      37.205  31.334  32.684  1.00  0.00     0.198 A 
ATOM     77  F   UNL A   1      39.319  30.312  32.854  1.00  0.00    -0.203 F 
ATOM     78  F   UNL A   1      35.449  32.648  29.801  1.00  0.00    -0.200 F 
ATOM     79  C   UNL A   1      36.216  31.929  31.916  1.00  0.00     0.200 A 
ATOM     80  F   UNL A   1      37.038  31.207  34.008  1.00  0.00    -0.200 F 
ATOM     81  F   UNL A   1      35.102  32.393  32.496  1.00  0.00    -0.200 F 
ENDBRANCH  47  71
BRANCH  59  82
ATOM     82  C   UNL A   1      44.793  33.843  29.497  1.00  0.00     0.064 A 
ATOM     83  C   UNL A   1      45.564  34.072  30.646  1.00  0.00     0.173 A 
ATOM     84  C   UNL A   1      44.596  34.916  28.613  1.00  0.00     0.173 A 
ATOM     85  F   UNL A   1      45.769  33.084  31.530  1.00  0.00    -0.203 F 
ATOM     86  C   UNL A   1      46.097  35.332  30.911  1.00  0.00     0.198 A 
ATOM     87  C   UNL A   1      45.155  36.166  28.867  1.00  0.00     0.198 A 
ATOM     88  F   UNL A   1      43.872  34.747  27.497  1.00  0.00    -0.203 F 
ATOM     89  F   UNL A   1      46.791  35.539  32.038  1.00  0.00    -0.200 F 
ATOM     90  C   UNL A   1      45.897  36.375  30.018  1.00  0.00     0.200 A 
ATOM     91  F   UNL A   1      44.972  37.169  27.996  1.00  0.00    -0.200 F 
ATOM     92  F   UNL A   1      46.416  37.584  30.272  1.00  0.00    -0.200 F 
ENDBRANCH  59  82
ENDBRANCH  33  34
ENDBRANCH  26  28
ENDBRANCH  25  26
ENDBRANCH  24  25
ENDBRANCH  23  24
ENDBRANCH  22  23
ENDBRANCH  21  22
ENDBRANCH   1  21
TORSDOF 20
ENDMDL
MODEL 2
REMARK VINA RESULT:     -10.7      1.138      2.295
REMARK SMILES N#CCCNC(=O)COc1ccc(C(=O)OCCOCCOC(=O)c2ccc(-c3c4nc(c(-c5c(F)c(F)c(F)c(F)c5F)c5ccc([nH]5)c(-c5c(F)c(F)c(F)c(F)c5F)c5nc(c(-c6c(F)c(F)c(F)c(F)c6F)c6ccc3[nH]6)C=C5)C=C4)cc2)nc1
REMARK SMILES IDX 17 1 16 2 14 3 15 4 13 5 10 6 11 7 89 8 12 9 88 10 9 11 8 12
REMARK SMILES IDX 6 13 5 14 7 16 4 17 3 18 2 19 1 20 18 21 19 22 20 23 21 24
REMARK SMILES IDX 22 25 23 26 24 27 25 28 26 29 87 30 27 31 86 32 28 33 29 34
REMARK SMILES IDX 30 35 80 36 31 37 85 38 79 39 81 40 32 41 84 42 78 43 77 44
REMARK SMILES IDX 33 46 65 47 45 48 64 49 46 50 49 51 63 52 82 53 47 54 48 55
REMARK SMILES IDX 62 57 83 58 50 59 34 60 35 61 43 62 36 63 37 64 41 65 44 66
REMARK SMILES IDX 38 67 39 68 42 69 40 70 66 71 67 72 75 73 68 74 69 75 73 76
REMARK SMILES IDX 76 77 70 78 71 79 74 80 72 81 51 82 52 83 60 84 53 85 54 86
REMARK SMILES IDX 58 87 61 88 55 89 56 90 59 91 57 92
REMARK H PARENT 5 15 81 45 49 56
REMARK Flexibility Score: inf
ROOT
ATOM      1  C   UNL A   1      33.137  20.860  26.067  1.00  0.00     0.261 C 
ENDROOT
BRANCH   1   2
ATOM      2  O   UNL A   1      32.296  22.021  25.957  1.00  0.00    -0.459 OA
BRANCH   2   3
ATOM      3  C   UNL A   1      32.350  22.880  27.010  1.00  0.00     0.357 C 
ATOM      4  O   UNL A   1      32.609  22.582  28.166  1.00  0.00    -0.244 OA
BRANCH   3   5
ATOM      5  C   UNL A   1      32.165  24.280  26.519  1.00  0.00     0.148 A 
ATOM      6  C   UNL A   1      31.673  26.817  25.633  1.00  0.00     0.138 A 
ATOM      7  C   UNL A   1      32.987  26.361  25.669  1.00  0.00     0.050 A 
ATOM      8  C   UNL A   1      30.667  25.991  26.105  1.00  0.00     0.158 A 
ATOM      9  C   UNL A   1      33.243  25.065  26.115  1.00  0.00     0.040 A 
ATOM     10  N   UNL A   1      30.882  24.732  26.538  1.00  0.00    -0.245 NA
BRANCH   6  11
ATOM     11  O   UNL A   1      31.353  28.063  25.180  1.00  0.00    -0.482 OA
BRANCH  11  12
ATOM     12  C   UNL A   1      31.831  28.255  23.847  1.00  0.00     0.329 C 
BRANCH  12  13
ATOM     13  C   UNL A   1      30.906  27.663  22.786  1.00  0.00     0.257 C 
ATOM     14  N   UNL A   1      31.427  26.818  21.847  1.00  0.00    -0.352 N 
ATOM     15  H   UNL A   1      30.790  26.474  21.180  1.00  0.00     0.163 HD
ATOM     16  O   UNL A   1      29.705  27.928  22.752  1.00  0.00    -0.271 OA
BRANCH  14  17
ATOM     17  C   UNL A   1      32.804  26.358  21.705  1.00  0.00     0.131 C 
BRANCH  17  18
ATOM     18  C   UNL A   1      33.041  24.976  22.322  1.00  0.00     0.141 C 
BRANCH  18  19
ATOM     19  C   UNL A   1      31.705  24.412  22.779  1.00  0.00     0.064 C 
ATOM     20  N   UNL A   1      30.597  23.944  23.158  1.00  0.00    -0.198 NA
ENDBRANCH  18  19
ENDBRANCH  17  18
ENDBRANCH  14  17
ENDBRANCH  12  13
ENDBRANCH  11  12
ENDBRANCH   6  11
ENDBRANCH   3   5
ENDBRANCH   2   3
ENDBRANCH   1   2
BRANCH   1  21
ATOM     21  C   UNL A   1      33.683  20.469  24.691  1.00  0.00     0.202 C 
BRANCH  21  22
ATOM     22  O   UNL A   1      34.990  20.957  24.388  1.00  0.00    -0.374 OA
BRANCH  22  23
ATOM     23  C   UNL A   1      35.969  20.871  25.425  1.00  0.00     0.202 C 
BRANCH  23  24
ATOM     24  C   UNL A   1      37.399  20.576  24.956  1.00  0.00     0.261 C 
BRANCH  24  25
ATOM     25  O   UNL A   1      38.280  21.687  25.211  1.00  0.00    -0.460 OA
BRANCH  25  26
ATOM     26  C   UNL A   1      39.281  21.433  26.084  1.00  0.00     0.338 C 
ATOM     27  O   UNL A   1      39.865  20.372  26.260  1.00  0.00    -0.246 OA
BRANCH  26  28
ATOM     28  C   UNL A   1      39.724  22.689  26.717  1.00  0.00     0.060 A 
ATOM     29  C   UNL A   1      39.090  23.873  26.318  1.00  0.00     0.016 A 
ATOM     30  C   UNL A   1      40.781  22.723  27.629  1.00  0.00     0.016 A 
ATOM     31  C   UNL A   1      39.542  25.102  26.795  1.00  0.00     0.010 A 
ATOM     32  C   UNL A   1      41.239  23.958  28.101  1.00  0.00     0.010 A 
ATOM     33  C   UNL A   1      40.643  25.154  27.658  1.00  0.00    -0.014 A 
BRANCH  33  34
ATOM     34  C   UNL A   1      41.261  26.462  27.979  1.00  0.00     0.031 A 
ATOM     35  C   UNL A   1      42.680  26.723  27.558  1.00  0.00     0.074 A 
ATOM     36  C   UNL A   1      40.559  27.420  28.610  1.00  0.00     0.049 A 
ATOM     37  N   UNL A   1      43.424  27.784  27.744  1.00  0.00    -0.248 NA
ATOM     38  C   UNL A   1      43.350  25.638  26.824  1.00  0.00     0.031 C 
ATOM     39  C   UNL A   1      39.164  27.307  29.026  1.00  0.00     0.029 A 
ATOM     40  N   UNL A   1      40.930  28.680  29.008  1.00  0.00    -0.354 N 
ATOM     41  C   UNL A   1      44.649  27.493  27.157  1.00  0.00     0.074 A 
ATOM     42  C   UNL A   1      44.559  26.145  26.638  1.00  0.00     0.031 C 
ATOM     43  C   UNL A   1      38.793  28.453  29.622  1.00  0.00     0.029 A 
ATOM     44  C   UNL A   1      39.934  29.365  29.656  1.00  0.00     0.049 A 
ATOM     45  H   UNL A   1      41.825  29.055  28.845  1.00  0.00     0.167 HD
ATOM     46  C   UNL A   1      45.744  28.283  27.050  1.00  0.00     0.037 A 
ATOM     47  C   UNL A   1      39.951  30.587  30.225  1.00  0.00     0.037 A 
ATOM     48  C   UNL A   1      45.832  29.622  27.571  1.00  0.00     0.049 A 
ATOM     49  C   UNL A   1      41.213  31.408  30.177  1.00  0.00     0.074 A 
ATOM     50  C   UNL A   1      46.891  30.510  27.498  1.00  0.00     0.029 A 
ATOM     51  N   UNL A   1      44.822  30.261  28.276  1.00  0.00    -0.354 N 
ATOM     52  N   UNL A   1      42.357  31.141  29.597  1.00  0.00    -0.248 NA
ATOM     53  C   UNL A   1      41.182  32.706  30.868  1.00  0.00     0.031 C 
ATOM     54  C   UNL A   1      46.541  31.668  28.203  1.00  0.00     0.029 A 
ATOM     55  C   UNL A   1      45.244  31.521  28.670  1.00  0.00     0.049 A 
ATOM     56  H   UNL A   1      43.937  29.876  28.467  1.00  0.00     0.167 HD
ATOM     57  C   UNL A   1      43.169  32.244  29.821  1.00  0.00     0.074 A 
ATOM     58  C   UNL A   1      42.384  33.190  30.588  1.00  0.00     0.031 C 
ATOM     59  C   UNL A   1      44.449  32.457  29.426  1.00  0.00     0.037 A 
BRANCH  46  60
ATOM     60  C   UNL A   1      46.947  27.699  26.366  1.00  0.00     0.064 A 
ATOM     61  C   UNL A   1      47.952  27.032  27.082  1.00  0.00     0.173 A 
ATOM     62  C   UNL A   1      47.092  27.804  24.974  1.00  0.00     0.173 A 
ATOM     63  F   UNL A   1      47.866  26.916  28.416  1.00  0.00    -0.203 F 
ATOM     64  C   UNL A   1      49.076  26.524  26.436  1.00  0.00     0.198 A 
ATOM     65  C   UNL A   1      48.204  27.269  24.328  1.00  0.00     0.198 A 
ATOM     66  F   UNL A   1      46.159  28.429  24.241  1.00  0.00    -0.203 F 
ATOM     67  F   UNL A   1      50.050  25.942  27.148  1.00  0.00    -0.200 F 
ATOM     68  C   UNL A   1      49.199  26.639  25.060  1.00  0.00     0.200 A 
ATOM     69  F   UNL A   1      48.315  27.371  22.996  1.00  0.00    -0.200 F 
ATOM     70  F   UNL A   1      50.282  26.152  24.438  1.00  0.00    -0.200 F 
ENDBRANCH  46  60
BRANCH  47  71
ATOM     71  C   UNL A   1      38.728  31.115  30.883  1.00  0.00     0.064 A 
ATOM     72  C   UNL A   1      38.533  30.961  32.263  1.00  0.00     0.173 A 
ATOM     73  C   UNL A   1      37.730  31.773  30.152  1.00  0.00     0.173 A 
ATOM     74  F   UNL A   1      39.449  30.314  33.000  1.00  0.00    -0.203 F 
ATOM     75  C   UNL A   1      37.381  31.436  32.884  1.00  0.00     0.198 A 
ATOM     76  C   UNL A   1      36.589  32.270  30.778  1.00  0.00     0.198 A 
ATOM     77  F   UNL A   1      37.868  31.942  28.829  1.00  0.00    -0.203 F 
ATOM     78  F   UNL A   1      37.201  31.242  34.198  1.00  0.00    -0.200 F 
ATOM     79  C   UNL A   1      36.412  32.097  32.143  1.00  0.00     0.200 A 
ATOM     80  F   UNL A   1      35.660  32.915  30.060  1.00  0.00    -0.200 F 
ATOM     81  F   UNL A   1      35.306  32.557  32.741  1.00  0.00    -0.200 F 
ENDBRANCH  47  71
BRANCH  59  82
ATOM     82  C   UNL A   1      45.069  33.779  29.776  1.00  0.00     0.064 A 
ATOM     83  C   UNL A   1      45.807  33.959  30.955  1.00  0.00     0.173 A 
ATOM     84  C   UNL A   1      44.954  34.869  28.899  1.00  0.00     0.173 A 
ATOM     85  F   UNL A   1      45.933  32.952  31.833  1.00  0.00    -0.203 F 
ATOM     86  C   UNL A   1      46.387  35.189  31.255  1.00  0.00     0.198 A 
ATOM     87  C   UNL A   1      45.561  36.089  29.189  1.00  0.00     0.198 A 
ATOM     88  F   UNL A   1      44.264  34.747  27.756  1.00  0.00    -0.203 F 
ATOM     89  F   UNL A   1      47.049  35.351  32.409  1.00  0.00    -0.200 F 
ATOM     90  C   UNL A   1      46.270  36.250  30.369  1.00  0.00     0.200 A 
ATOM     91  F   UNL A   1      45.457  37.109  28.326  1.00  0.00    -0.200 F 
ATOM     92  F   UNL A   1      46.834  37.431  30.657  1.00  0.00    -0.200 F 
ENDBRANCH  59  82
ENDBRANCH  33  34
ENDBRANCH  26  28
ENDBRANCH  25  26
ENDBRANCH  24  25
ENDBRANCH  23  24
ENDBRANCH  22  23
ENDBRANCH  21  22
ENDBRANCH   1  21
TORSDOF 20
ENDMDL
MODEL 3
REMARK VINA RESULT:     -10.6      2.195      7.539
REMARK SMILES N#CCCNC(=O)COc1ccc(C(=O)OCCOCCOC(=O)c2ccc(-c3c4nc(c(-c5c(F)c(F)c(F)c(F)c5F)c5ccc([nH]5)c(-c5c(F)c(F)c(F)c(F)c5F)c5nc(c(-c6c(F)c(F)c(F)c(F)c6F)c6ccc3[nH]6)C=C5)C=C4)cc2)nc1
REMARK SMILES IDX 17 1 16 2 14 3 15 4 13 5 10 6 11 7 89 8 12 9 88 10 9 11 8 12
REMARK SMILES IDX 6 13 5 14 7 16 4 17 3 18 2 19 1 20 18 21 19 22 20 23 21 24
REMARK SMILES IDX 22 25 23 26 24 27 25 28 26 29 87 30 27 31 86 32 28 33 29 34
REMARK SMILES IDX 30 35 80 36 31 37 85 38 79 39 81 40 32 41 84 42 78 43 77 44
REMARK SMILES IDX 33 46 65 47 45 48 64 49 46 50 49 51 63 52 82 53 47 54 48 55
REMARK SMILES IDX 62 57 83 58 50 59 34 60 35 61 43 62 36 63 37 64 41 65 44 66
REMARK SMILES IDX 38 67 39 68 42 69 40 70 66 71 67 72 75 73 68 74 69 75 73 76
REMARK SMILES IDX 76 77 70 78 71 79 74 80 72 81 51 82 52 83 60 84 53 85 54 86
REMARK SMILES IDX 58 87 61 88 55 89 56 90 59 91 57 92
REMARK H PARENT 5 15 81 45 49 56
REMARK Flexibility Score: inf
ROOT
ATOM      1  C   UNL A   1      35.268  22.491  25.278  1.00  0.00     0.261 C 
ENDROOT
BRANCH   1   2
ATOM      2  O   UNL A   1      34.341  22.613  24.186  1.00  0.00    -0.459 OA
BRANCH   2   3
ATOM      3  C   UNL A   1      34.731  23.444  23.182  1.00  0.00     0.357 C 
ATOM      4  O   UNL A   1      35.737  23.321  22.500  1.00  0.00    -0.244 OA
BRANCH   3   5
ATOM      5  C   UNL A   1      33.675  24.475  22.951  1.00  0.00     0.148 A 
ATOM      6  C   UNL A   1      31.776  26.354  22.376  1.00  0.00     0.138 A 
ATOM      7  C   UNL A   1      32.037  26.048  23.707  1.00  0.00     0.050 A 
ATOM      8  C   UNL A   1      32.443  25.651  21.387  1.00  0.00     0.158 A 
ATOM      9  C   UNL A   1      33.009  25.095  24.007  1.00  0.00     0.040 A 
ATOM     10  N   UNL A   1      33.391  24.727  21.644  1.00  0.00    -0.245 NA
BRANCH   6  11
ATOM     11  O   UNL A   1      30.858  27.297  22.017  1.00  0.00    -0.482 OA
BRANCH  11  12
ATOM     12  C   UNL A   1      30.120  27.745  23.157  1.00  0.00     0.329 C 
BRANCH  12  13
ATOM     13  C   UNL A   1      30.389  29.206  23.510  1.00  0.00     0.257 C 
ATOM     14  N   UNL A   1      29.659  30.183  22.894  1.00  0.00    -0.352 N 
ATOM     15  H   UNL A   1      29.880  31.108  23.148  1.00  0.00     0.163 HD
ATOM     16  O   UNL A   1      31.248  29.528  24.329  1.00  0.00    -0.271 OA
BRANCH  14  17
ATOM     17  C   UNL A   1      28.592  30.034  21.910  1.00  0.00     0.131 C 
BRANCH  17  18
ATOM     18  C   UNL A   1      28.368  31.298  21.073  1.00  0.00     0.141 C 
BRANCH  18  19
ATOM     19  C   UNL A   1      28.443  32.508  21.990  1.00  0.00     0.064 C 
ATOM     20  N   UNL A   1      28.506  33.512  22.751  1.00  0.00    -0.198 NA
ENDBRANCH  18  19
ENDBRANCH  17  18
ENDBRANCH  14  17
ENDBRANCH  12  13
ENDBRANCH  11  12
ENDBRANCH   6  11
ENDBRANCH   3   5
ENDBRANCH   2   3
ENDBRANCH   1   2
BRANCH   1  21
ATOM     21  C   UNL A   1      36.128  21.237  25.105  1.00  0.00     0.202 C 
BRANCH  21  22
ATOM     22  O   UNL A   1      37.426  21.455  24.552  1.00  0.00    -0.374 OA
BRANCH  22  23
ATOM     23  C   UNL A   1      38.539  21.316  25.438  1.00  0.00     0.202 C 
BRANCH  23  24
ATOM     24  C   UNL A   1      39.015  19.877  25.675  1.00  0.00     0.261 C 
BRANCH  24  25
ATOM     25  O   UNL A   1      40.037  19.819  26.688  1.00  0.00    -0.460 OA
BRANCH  25  26
ATOM     26  C   UNL A   1      41.301  19.719  26.218  1.00  0.00     0.338 C 
ATOM     27  O   UNL A   1      41.761  18.844  25.496  1.00  0.00    -0.246 OA
BRANCH  26  28
ATOM     28  C   UNL A   1      42.060  20.937  26.557  1.00  0.00     0.060 A 
ATOM     29  C   UNL A   1      42.166  21.275  27.912  1.00  0.00     0.016 A 
ATOM     30  C   UNL A   1      42.599  21.768  25.573  1.00  0.00     0.016 A 
ATOM     31  C   UNL A   1      42.771  22.473  28.287  1.00  0.00     0.010 A 
ATOM     32  C   UNL A   1      43.199  22.974  25.951  1.00  0.00     0.010 A 
ATOM     33  C   UNL A   1      43.256  23.348  27.306  1.00  0.00    -0.014 A 
BRANCH  33  34
ATOM     34  C   UNL A   1      43.687  24.713  27.691  1.00  0.00     0.031 A 
ATOM     35  C   UNL A   1      42.643  25.743  28.020  1.00  0.00     0.074 A 
ATOM     36  C   UNL A   1      44.993  25.024  27.776  1.00  0.00     0.049 A 
ATOM     37  N   UNL A   1      42.790  26.997  28.364  1.00  0.00    -0.248 NA
ATOM     38  C   UNL A   1      41.244  25.295  27.953  1.00  0.00     0.031 C 
ATOM     39  C   UNL A   1      46.098  24.102  27.530  1.00  0.00     0.029 A 
ATOM     40  N   UNL A   1      45.605  26.210  28.098  1.00  0.00    -0.354 N 
ATOM     41  C   UNL A   1      41.504  27.490  28.550  1.00  0.00     0.074 A 
ATOM     42  C   UNL A   1      40.590  26.409  28.247  1.00  0.00     0.031 C 
ATOM     43  C   UNL A   1      47.258  24.756  27.711  1.00  0.00     0.029 A 
ATOM     44  C   UNL A   1      46.975  26.148  28.054  1.00  0.00     0.049 A 
ATOM     45  H   UNL A   1      45.110  27.025  28.338  1.00  0.00     0.167 HD
ATOM     46  C   UNL A   1      41.121  28.726  28.948  1.00  0.00     0.037 A 
ATOM     47  C   UNL A   1      47.893  27.113  28.255  1.00  0.00     0.037 A 
ATOM     48  C   UNL A   1      42.032  29.801  29.244  1.00  0.00     0.049 A 
ATOM     49  C   UNL A   1      47.438  28.507  28.602  1.00  0.00     0.074 A 
ATOM     50  C   UNL A   1      41.743  31.085  29.672  1.00  0.00     0.029 A 
ATOM     51  N   UNL A   1      43.412  29.719  29.129  1.00  0.00    -0.354 N 
ATOM     52  N   UNL A   1      46.225  28.959  28.803  1.00  0.00    -0.248 NA
ATOM     53  C   UNL A   1      48.488  29.526  28.748  1.00  0.00     0.031 C 
ATOM     54  C   UNL A   1      42.946  31.795  29.767  1.00  0.00     0.029 A 
ATOM     55  C   UNL A   1      43.988  30.938  29.449  1.00  0.00     0.049 A 
ATOM     56  H   UNL A   1      43.908  28.912  28.860  1.00  0.00     0.167 HD
ATOM     57  C   UNL A   1      46.364  30.300  29.132  1.00  0.00     0.074 A 
ATOM     58  C   UNL A   1      47.783  30.590  29.109  1.00  0.00     0.031 C 
ATOM     59  C   UNL A   1      45.403  31.210  29.430  1.00  0.00     0.037 A 
BRANCH  46  60
ATOM     60  C   UNL A   1      39.646  28.986  29.054  1.00  0.00     0.064 A 
ATOM     61  C   UNL A   1      38.879  29.355  27.939  1.00  0.00     0.173 A 
ATOM     62  C   UNL A   1      38.990  28.860  30.288  1.00  0.00     0.173 A 
ATOM     63  F   UNL A   1      39.461  29.503  26.738  1.00  0.00    -0.203 F 
ATOM     64  C   UNL A   1      37.518  29.623  28.062  1.00  0.00     0.198 A 
ATOM     65  C   UNL A   1      37.623  29.100  30.401  1.00  0.00     0.198 A 
ATOM     66  F   UNL A   1      39.675  28.505  31.385  1.00  0.00    -0.203 F 
ATOM     67  F   UNL A   1      36.818  30.031  26.994  1.00  0.00    -0.200 F 
ATOM     68  C   UNL A   1      36.891  29.492  29.291  1.00  0.00     0.200 A 
ATOM     69  F   UNL A   1      37.016  28.961  31.588  1.00  0.00    -0.200 F 
ATOM     70  F   UNL A   1      35.581  29.752  29.408  1.00  0.00    -0.200 F 
ENDBRANCH  46  60
BRANCH  47  71
ATOM     71  C   UNL A   1      49.340  26.796  28.141  1.00  0.00     0.064 A 
ATOM     72  C   UNL A   1      49.980  26.803  26.894  1.00  0.00     0.173 A 
ATOM     73  C   UNL A   1      50.108  26.471  29.267  1.00  0.00     0.173 A 
ATOM     74  F   UNL A   1      49.280  27.083  25.784  1.00  0.00    -0.203 F 
ATOM     75  C   UNL A   1      51.332  26.488  26.777  1.00  0.00     0.198 A 
ATOM     76  C   UNL A   1      51.466  26.179  29.153  1.00  0.00     0.198 A 
ATOM     77  F   UNL A   1      49.541  26.445  30.483  1.00  0.00    -0.203 F 
ATOM     78  F   UNL A   1      51.910  26.465  25.569  1.00  0.00    -0.200 F 
ATOM     79  C   UNL A   1      52.076  26.182  27.907  1.00  0.00     0.200 A 
ATOM     80  F   UNL A   1      52.182  25.894  30.248  1.00  0.00    -0.200 F 
ATOM     81  F   UNL A   1      53.376  25.883  27.795  1.00  0.00    -0.200 F 
ENDBRANCH  47  71
BRANCH  59  82
ATOM     82  C   UNL A   1      45.854  32.595  29.797  1.00  0.00     0.064 A 
ATOM     83  C   UNL A   1      46.137  32.951  31.124  1.00  0.00     0.173 A 
ATOM     84  C   UNL A   1      46.042  33.566  28.801  1.00  0.00     0.173 A 
ATOM     85  F   UNL A   1      45.959  32.064  32.114  1.00  0.00    -0.203 F 
ATOM     86  C   UNL A   1      46.569  34.236  31.443  1.00  0.00     0.198 A 
ATOM     87  C   UNL A   1      46.503  34.841  29.121  1.00  0.00     0.198 A 
ATOM     88  F   UNL A   1      45.792  33.274  27.516  1.00  0.00    -0.203 F 
ATOM     89  F   UNL A   1      46.789  34.568  32.722  1.00  0.00    -0.200 F 
ATOM     90  C   UNL A   1      46.758  35.177  30.441  1.00  0.00     0.200 A 
ATOM     91  F   UNL A   1      46.697  35.744  28.150  1.00  0.00    -0.200 F 
ATOM     92  F   UNL A   1      47.180  36.411  30.750  1.00  0.00    -0.200 F 
ENDBRANCH  59  82
ENDBRANCH  33  34
ENDBRANCH  26  28
ENDBRANCH  25  26
ENDBRANCH  24  25
ENDBRANCH  23  24
ENDBRANCH  22  23
ENDBRANCH  21  22
ENDBRANCH   1  21
TORSDOF 20
ENDMDL
