MODEL 1
REMARK VINA RESULT:     -13.9      0.000      0.000
REMARK SMILES CC1=C([C@H](NC(=O)[C@@H]2[C@H](C)c3cc(F)ccc3N2C)C(=O)OCCOCCOC(=O)c2ccc(-c3c4nc(c(-c5c(F)c(F)c(F)c(F)c5F)c5ccc([nH]5)c(-c5c(F)c(F)c(F)c(F)c5F)c5nc(c(-c6c(F)c(F)c(F)c(F)c6F)c6ccc3[nH]6)C=C5)C=C4)cc2)[C@@H](C)N=N1
REMARK SMILES IDX 25 1 24 2 23 3 22 4 20 5 21 6 4 7 3 8 1 9 2 10 97 11 94 12
REMARK SMILES IDX 96 13 95 14 5 15 6 16 7 18 8 19 9 20 18 21 11 22 10 23 17 24
REMARK SMILES IDX 19 25 12 26 16 27 13 28 15 29 14 30 26 31 27 32 28 33 29 34
REMARK SMILES IDX 30 35 31 36 32 37 93 38 33 39 92 40 34 41 35 42 36 43 86 44
REMARK SMILES IDX 37 45 91 46 85 47 87 48 38 49 90 50 84 51 83 52 39 54 71 55
REMARK SMILES IDX 51 56 70 57 52 58 55 59 69 60 88 61 53 62 54 63 68 65 89 66
REMARK SMILES IDX 56 67 40 68 41 69 49 70 42 71 43 72 47 73 50 74 44 75 45 76
REMARK SMILES IDX 48 77 46 78 72 79 73 80 81 81 74 82 75 83 79 84 82 85 76 86
REMARK SMILES IDX 77 87 80 88 78 89 57 90 58 91 66 92 59 93 60 94 64 95 67 96
REMARK SMILES IDX 61 97 62 98 65 99 63 100
REMARK H PARENT 5 17 87 53 55 64
REMARK Flexibility Score: inf
ROOT
ATOM      1  O   UNL A   1      39.674  21.563  26.898  1.00  0.00    -0.374 OA
ENDROOT
BRANCH   1   2
ATOM      2  C   UNL A   1      38.917  22.434  25.951  1.00  0.00     0.202 C 
BRANCH   2   3
ATOM      3  C   UNL A   1      37.004  23.525  26.114  1.00  0.00     0.261 C 
BRANCH   3   4
ATOM      4  O   UNL A   1      36.131  24.289  24.921  1.00  0.00    -0.461 OA
BRANCH   4   5
ATOM      5  C   UNL A   1      35.312  23.708  23.989  1.00  0.00     0.333 C 
ATOM      6  O   UNL A   1      35.763  23.185  22.973  1.00  0.00    -0.249 OA
BRANCH   5   7
ATOM      7  C   UNL A   1      33.670  23.523  24.452  1.00  0.00     0.223 C 
BRANCH   7   8
ATOM      8  C   UNL A   1      33.673  22.652  25.632  1.00  0.00     0.012 C 
ATOM      9  C   UNL A   1      34.278  20.438  24.581  1.00  0.00     0.069 C 
ATOM     10  C   UNL A   1      33.880  21.339  25.704  1.00  0.00     0.064 C 
ATOM     11  N   UNL A   1      33.625  20.871  26.966  1.00  0.00    -0.160 NA
ATOM     12  C   UNL A   1      33.383  23.117  27.005  1.00  0.00     0.156 C 
ATOM     13  N   UNL A   1      33.235  21.823  27.716  1.00  0.00    -0.181 NA
ATOM     14  C   UNL A   1      32.163  24.017  27.099  1.00  0.00     0.040 C 
ENDBRANCH   7   8
BRANCH   7  15
ATOM     15  N   UNL A   1      32.395  23.132  23.727  1.00  0.00    -0.337 N 
ATOM     16  C   UNL A   1      31.297  23.936  23.420  1.00  0.00     0.244 C 
ATOM     17  H   UNL A   1      32.335  22.193  23.437  1.00  0.00     0.164 HD
ATOM     18  O   UNL A   1      30.255  23.504  22.956  1.00  0.00    -0.273 OA
BRANCH  16  19
ATOM     19  C   UNL A   1      31.648  25.342  23.671  1.00  0.00     0.178 C 
ATOM     20  C   UNL A   1      30.667  25.952  24.743  1.00  0.00     0.050 C 
ATOM     21  N   UNL A   1      32.235  26.350  22.770  1.00  0.00    -0.362 N 
ATOM     22  C   UNL A   1      31.398  27.168  25.083  1.00  0.00    -0.016 A 
ATOM     23  C   UNL A   1      29.212  25.953  24.389  1.00  0.00     0.015 C 
ATOM     24  C   UNL A   1      32.603  27.290  23.767  1.00  0.00     0.041 A 
ATOM     25  C   UNL A   1      33.003  25.904  21.622  1.00  0.00     0.144 C 
ATOM     26  C   UNL A   1      31.472  28.188  26.552  1.00  0.00     0.045 A 
ATOM     27  C   UNL A   1      33.897  28.467  23.956  1.00  0.00     0.029 A 
ATOM     28  C   UNL A   1      32.777  29.400  26.707  1.00  0.00     0.123 A 
ATOM     29  C   UNL A   1      33.973  29.570  25.389  1.00  0.00     0.041 A 
ATOM     30  F   UNL A   1      32.868  30.185  27.783  1.00  0.00    -0.207 F 
ENDBRANCH  16  19
ENDBRANCH   7  15
ENDBRANCH   5   7
ENDBRANCH   4   5
ENDBRANCH   3   4
ENDBRANCH   2   3
ENDBRANCH   1   2
BRANCH   1  31
ATOM     31  C   UNL A   1      41.085  21.380  26.690  1.00  0.00     0.202 C 
BRANCH  31  32
ATOM     32  C   UNL A   1      42.355  22.220  27.187  1.00  0.00     0.261 C 
BRANCH  32  33
ATOM     33  O   UNL A   1      42.231  23.505  27.888  1.00  0.00    -0.460 OA
BRANCH  33  34
ATOM     34  C   UNL A   1      41.680  24.644  27.358  1.00  0.00     0.338 C 
ATOM     35  O   UNL A   1      41.549  24.860  26.166  1.00  0.00    -0.246 OA
BRANCH  34  36
ATOM     36  C   UNL A   1      40.960  25.468  28.454  1.00  0.00     0.060 A 
ATOM     37  C   UNL A   1      39.632  25.960  28.384  1.00  0.00     0.016 A 
ATOM     38  C   UNL A   1      41.836  26.165  29.299  1.00  0.00     0.016 A 
ATOM     39  C   UNL A   1      39.320  27.284  28.864  1.00  0.00     0.010 A 
ATOM     40  C   UNL A   1      41.533  27.479  29.751  1.00  0.00     0.010 A 
ATOM     41  C   UNL A   1      40.327  28.129  29.417  1.00  0.00    -0.014 A 
BRANCH  41  42
ATOM     42  C   UNL A   1      40.026  29.521  29.952  1.00  0.00     0.031 A 
ATOM     43  C   UNL A   1      41.273  30.292  29.754  1.00  0.00     0.074 A 
ATOM     44  C   UNL A   1      38.923  30.186  30.441  1.00  0.00     0.049 A 
ATOM     45  N   UNL A   1      42.046  30.748  30.685  1.00  0.00    -0.248 NA
ATOM     46  C   UNL A   1      41.874  30.281  28.408  1.00  0.00     0.031 C 
ATOM     47  C   UNL A   1      37.597  29.701  30.799  1.00  0.00     0.029 A 
ATOM     48  N   UNL A   1      38.714  31.552  30.667  1.00  0.00    -0.354 N 
ATOM     49  C   UNL A   1      43.124  31.281  29.999  1.00  0.00     0.074 A 
ATOM     50  C   UNL A   1      43.100  30.721  28.674  1.00  0.00     0.031 C 
ATOM     51  C   UNL A   1      36.652  30.664  30.807  1.00  0.00     0.029 A 
ATOM     52  C   UNL A   1      37.338  31.929  30.711  1.00  0.00     0.049 A 
ATOM     53  H   UNL A   1      39.450  32.195  30.785  1.00  0.00     0.167 HD
ATOM     54  C   UNL A   1      43.713  32.423  30.427  1.00  0.00     0.037 A 
ATOM     55  C   UNL A   1      36.749  33.154  30.863  1.00  0.00     0.037 A 
ATOM     56  C   UNL A   1      43.456  32.665  31.820  1.00  0.00     0.049 A 
ATOM     57  C   UNL A   1      37.767  34.051  31.430  1.00  0.00     0.074 A 
ATOM     58  C   UNL A   1      43.741  32.003  32.997  1.00  0.00     0.029 A 
ATOM     59  N   UNL A   1      42.460  33.554  32.114  1.00  0.00    -0.354 N 
ATOM     60  N   UNL A   1      38.187  33.972  32.657  1.00  0.00    -0.248 NA
ATOM     61  C   UNL A   1      38.656  34.679  30.475  1.00  0.00     0.031 C 
ATOM     62  C   UNL A   1      42.627  32.247  33.853  1.00  0.00     0.029 A 
ATOM     63  C   UNL A   1      41.751  33.108  33.197  1.00  0.00     0.049 A 
ATOM     64  H   UNL A   1      42.280  34.389  31.623  1.00  0.00     0.167 HD
ATOM     65  C   UNL A   1      39.561  34.074  32.533  1.00  0.00     0.074 A 
ATOM     66  C   UNL A   1      39.787  34.554  31.169  1.00  0.00     0.031 C 
ATOM     67  C   UNL A   1      40.378  33.473  33.444  1.00  0.00     0.037 A 
BRANCH  54  68
ATOM     68  C   UNL A   1      44.106  33.498  29.449  1.00  0.00     0.064 A 
ATOM     69  C   UNL A   1      43.113  34.218  28.774  1.00  0.00     0.173 A 
ATOM     70  C   UNL A   1      45.428  33.682  28.974  1.00  0.00     0.173 A 
ATOM     71  F   UNL A   1      41.822  34.051  29.092  1.00  0.00    -0.203 F 
ATOM     72  C   UNL A   1      43.426  35.067  27.708  1.00  0.00     0.198 A 
ATOM     73  C   UNL A   1      45.746  34.582  27.965  1.00  0.00     0.198 A 
ATOM     74  F   UNL A   1      46.448  32.917  29.382  1.00  0.00    -0.203 F 
ATOM     75  F   UNL A   1      42.440  35.661  27.024  1.00  0.00    -0.200 F 
ATOM     76  C   UNL A   1      44.741  35.261  27.316  1.00  0.00     0.200 A 
ATOM     77  F   UNL A   1      47.022  34.721  27.583  1.00  0.00    -0.200 F 
ATOM     78  F   UNL A   1      45.035  36.053  26.279  1.00  0.00    -0.200 F 
ENDBRANCH  54  68
BRANCH  55  79
ATOM     79  C   UNL A   1      35.512  33.723  30.236  1.00  0.00     0.064 A 
ATOM     80  C   UNL A   1      34.497  34.316  31.024  1.00  0.00     0.173 A 
ATOM     81  C   UNL A   1      35.459  34.010  28.860  1.00  0.00     0.173 A 
ATOM     82  F   UNL A   1      34.466  34.118  32.350  1.00  0.00    -0.203 F 
ATOM     83  C   UNL A   1      33.550  35.198  30.481  1.00  0.00     0.198 A 
ATOM     84  C   UNL A   1      34.512  34.889  28.321  1.00  0.00     0.198 A 
ATOM     85  F   UNL A   1      36.387  33.523  28.027  1.00  0.00    -0.203 F 
ATOM     86  F   UNL A   1      32.664  35.809  31.282  1.00  0.00    -0.200 F 
ATOM     87  C   UNL A   1      33.576  35.503  29.133  1.00  0.00     0.200 A 
ATOM     88  F   UNL A   1      34.564  35.199  27.018  1.00  0.00    -0.200 F 
ATOM     89  F   UNL A   1      32.733  36.414  28.626  1.00  0.00    -0.200 F 
ENDBRANCH  55  79
BRANCH  67  90
ATOM     90  C   UNL A   1      39.766  33.017  34.742  1.00  0.00     0.064 A 
ATOM     91  C   UNL A   1      39.617  33.817  35.890  1.00  0.00     0.173 A 
ATOM     92  C   UNL A   1      39.195  31.736  34.771  1.00  0.00     0.173 A 
ATOM     93  F   UNL A   1      40.070  35.080  35.914  1.00  0.00    -0.203 F 
ATOM     94  C   UNL A   1      38.948  33.337  37.020  1.00  0.00     0.198 A 
ATOM     95  C   UNL A   1      38.497  31.276  35.882  1.00  0.00     0.198 A 
ATOM     96  F   UNL A   1      39.276  30.945  33.690  1.00  0.00    -0.203 F 
ATOM     97  F   UNL A   1      38.823  34.110  38.109  1.00  0.00    -0.200 F 
ATOM     98  C   UNL A   1      38.381  32.072  37.009  1.00  0.00     0.200 A 
ATOM     99  F   UNL A   1      37.915  30.069  35.846  1.00  0.00    -0.200 F 
ATOM    100  F   UNL A   1      37.702  31.625  38.076  1.00  0.00    -0.200 F 
ENDBRANCH  67  90
ENDBRANCH  41  42
ENDBRANCH  34  36
ENDBRANCH  33  34
ENDBRANCH  32  33
ENDBRANCH  31  32
ENDBRANCH   1  31
TORSDOF 17
ENDMDL
MODEL 2
REMARK VINA RESULT:     -13.6      5.406     10.696
REMARK SMILES CC1=C([C@H](NC(=O)[C@@H]2[C@H](C)c3cc(F)ccc3N2C)C(=O)OCCOCCOC(=O)c2ccc(-c3c4nc(c(-c5c(F)c(F)c(F)c(F)c5F)c5ccc([nH]5)c(-c5c(F)c(F)c(F)c(F)c5F)c5nc(c(-c6c(F)c(F)c(F)c(F)c6F)c6ccc3[nH]6)C=C5)C=C4)cc2)[C@@H](C)N=N1
REMARK SMILES IDX 25 1 24 2 23 3 22 4 20 5 21 6 4 7 3 8 1 9 2 10 97 11 94 12
REMARK SMILES IDX 96 13 95 14 5 15 6 16 7 18 8 19 9 20 18 21 11 22 10 23 17 24
REMARK SMILES IDX 19 25 12 26 16 27 13 28 15 29 14 30 26 31 27 32 28 33 29 34
REMARK SMILES IDX 30 35 31 36 32 37 93 38 33 39 92 40 34 41 35 42 36 43 86 44
REMARK SMILES IDX 37 45 91 46 85 47 87 48 38 49 90 50 84 51 83 52 39 54 71 55
REMARK SMILES IDX 51 56 70 57 52 58 55 59 69 60 88 61 53 62 54 63 68 65 89 66
REMARK SMILES IDX 56 67 40 68 41 69 49 70 42 71 43 72 47 73 50 74 44 75 45 76
REMARK SMILES IDX 48 77 46 78 72 79 73 80 81 81 74 82 75 83 79 84 82 85 76 86
REMARK SMILES IDX 77 87 80 88 78 89 57 90 58 91 66 92 59 93 60 94 64 95 67 96
REMARK SMILES IDX 61 97 62 98 65 99 63 100
REMARK H PARENT 5 17 87 53 55 64
REMARK Flexibility Score: inf
ROOT
ATOM      1  O   UNL A   1      32.858  31.857  27.299  1.00  0.00    -0.374 OA
ENDROOT
BRANCH   1   2
ATOM      2  C   UNL A   1      32.698  30.540  26.615  1.00  0.00     0.202 C 
BRANCH   2   3
ATOM      3  C   UNL A   1      33.596  28.551  26.953  1.00  0.00     0.261 C 
BRANCH   3   4
ATOM      4  O   UNL A   1      33.003  27.052  26.541  1.00  0.00    -0.461 OA
BRANCH   4   5
ATOM      5  C   UNL A   1      31.714  26.732  26.202  1.00  0.00     0.333 C 
ATOM      6  O   UNL A   1      30.778  26.939  26.970  1.00  0.00    -0.249 OA
BRANCH   5   7
ATOM      7  C   UNL A   1      31.463  26.283  24.565  1.00  0.00     0.223 C 
BRANCH   7   8
ATOM      8  C   UNL A   1      31.376  27.536  23.806  1.00  0.00     0.012 C 
ATOM      9  C   UNL A   1      28.874  27.760  23.553  1.00  0.00     0.069 C 
ATOM     10  C   UNL A   1      30.298  28.152  23.327  1.00  0.00     0.064 C 
ATOM     11  N   UNL A   1      30.651  29.204  22.523  1.00  0.00    -0.160 NA
ATOM     12  C   UNL A   1      32.548  28.333  23.387  1.00  0.00     0.156 C 
ATOM     13  N   UNL A   1      31.918  29.283  22.437  1.00  0.00    -0.181 NA
ATOM     14  C   UNL A   1      33.666  27.503  22.782  1.00  0.00     0.040 C 
ENDBRANCH   7   8
BRANCH   7  15
ATOM     15  N   UNL A   1      30.489  25.366  23.848  1.00  0.00    -0.337 N 
ATOM     16  C   UNL A   1      30.671  24.033  23.482  1.00  0.00     0.244 C 
ATOM     17  H   UNL A   1      29.618  25.762  23.612  1.00  0.00     0.164 HD
ATOM     18  O   UNL A   1      29.886  23.412  22.785  1.00  0.00    -0.273 OA
BRANCH  16  19
ATOM     19  C   UNL A   1      31.887  23.519  24.131  1.00  0.00     0.178 C 
ATOM     20  C   UNL A   1      33.056  23.431  23.079  1.00  0.00     0.050 C 
ATOM     21  N   UNL A   1      32.038  22.582  25.258  1.00  0.00    -0.362 N 
ATOM     22  C   UNL A   1      34.189  23.260  23.982  1.00  0.00    -0.016 A 
ATOM     23  C   UNL A   1      32.822  22.542  21.896  1.00  0.00     0.015 C 
ATOM     24  C   UNL A   1      33.403  22.850  25.535  1.00  0.00     0.041 A 
ATOM     25  C   UNL A   1      30.940  22.426  26.195  1.00  0.00     0.144 C 
ATOM     26  C   UNL A   1      35.928  23.664  23.862  1.00  0.00     0.045 A 
ATOM     27  C   UNL A   1      34.405  22.855  26.981  1.00  0.00     0.029 A 
ATOM     28  C   UNL A   1      36.935  23.631  25.340  1.00  0.00     0.123 A 
ATOM     29  C   UNL A   1      36.183  23.186  26.899  1.00  0.00     0.041 A 
ATOM     30  F   UNL A   1      38.238  23.920  25.296  1.00  0.00    -0.207 F 
ENDBRANCH  16  19
ENDBRANCH   7  15
ENDBRANCH   5   7
ENDBRANCH   4   5
ENDBRANCH   3   4
ENDBRANCH   2   3
ENDBRANCH   1   2
BRANCH   1  31
ATOM     31  C   UNL A   1      33.992  32.055  28.160  1.00  0.00     0.202 C 
BRANCH  31  32
ATOM     32  C   UNL A   1      35.537  31.665  27.996  1.00  0.00     0.261 C 
BRANCH  32  33
ATOM     33  O   UNL A   1      36.568  32.090  28.952  1.00  0.00    -0.460 OA
BRANCH  33  34
ATOM     34  C   UNL A   1      37.359  31.244  29.688  1.00  0.00     0.338 C 
ATOM     35  O   UNL A   1      37.114  30.880  30.825  1.00  0.00    -0.246 OA
BRANCH  34  36
ATOM     36  C   UNL A   1      38.421  30.564  28.789  1.00  0.00     0.060 A 
ATOM     37  C   UNL A   1      38.231  29.380  28.031  1.00  0.00     0.016 A 
ATOM     38  C   UNL A   1      39.742  30.859  29.158  1.00  0.00     0.016 A 
ATOM     39  C   UNL A   1      39.270  28.383  27.966  1.00  0.00     0.010 A 
ATOM     40  C   UNL A   1      40.757  29.865  29.112  1.00  0.00     0.010 A 
ATOM     41  C   UNL A   1      40.508  28.555  28.654  1.00  0.00    -0.014 A 
BRANCH  41  42
ATOM     42  C   UNL A   1      41.633  27.533  28.587  1.00  0.00     0.031 A 
ATOM     43  C   UNL A   1      42.345  27.652  29.878  1.00  0.00     0.074 A 
ATOM     44  C   UNL A   1      42.034  26.546  27.714  1.00  0.00     0.049 A 
ATOM     45  N   UNL A   1      43.550  28.087  30.049  1.00  0.00    -0.248 NA
ATOM     46  C   UNL A   1      41.538  27.580  31.110  1.00  0.00     0.031 C 
ATOM     47  C   UNL A   1      41.584  26.223  26.367  1.00  0.00     0.029 A 
ATOM     48  N   UNL A   1      42.944  25.496  27.887  1.00  0.00    -0.354 N 
ATOM     49  C   UNL A   1      43.706  28.120  31.425  1.00  0.00     0.074 A 
ATOM     50  C   UNL A   1      42.390  28.081  32.000  1.00  0.00     0.031 C 
ATOM     51  C   UNL A   1      41.859  24.955  25.994  1.00  0.00     0.029 A 
ATOM     52  C   UNL A   1      42.759  24.410  26.980  1.00  0.00     0.049 A 
ATOM     53  H   UNL A   1      43.650  25.507  28.574  1.00  0.00     0.167 HD
ATOM     54  C   UNL A   1      44.890  27.778  31.988  1.00  0.00     0.037 A 
ATOM     55  C   UNL A   1      43.409  23.212  26.872  1.00  0.00     0.037 A 
ATOM     56  C   UNL A   1      45.979  27.903  31.059  1.00  0.00     0.049 A 
ATOM     57  C   UNL A   1      44.687  23.353  27.586  1.00  0.00     0.074 A 
ATOM     58  C   UNL A   1      46.545  28.942  30.350  1.00  0.00     0.029 A 
ATOM     59  N   UNL A   1      46.404  26.752  30.455  1.00  0.00    -0.354 N 
ATOM     60  N   UNL A   1      45.681  24.064  27.143  1.00  0.00    -0.248 NA
ATOM     61  C   UNL A   1      44.641  23.114  29.013  1.00  0.00     0.031 C 
ATOM     62  C   UNL A   1      46.964  28.376  29.110  1.00  0.00     0.029 A 
ATOM     63  C   UNL A   1      46.711  27.007  29.145  1.00  0.00     0.049 A 
ATOM     64  H   UNL A   1      46.479  25.874  30.894  1.00  0.00     0.167 HD
ATOM     65  C   UNL A   1      46.091  24.772  28.257  1.00  0.00     0.074 A 
ATOM     66  C   UNL A   1      45.441  24.111  29.390  1.00  0.00     0.031 C 
ATOM     67  C   UNL A   1      46.668  25.999  28.116  1.00  0.00     0.037 A 
BRANCH  54  68
ATOM     68  C   UNL A   1      44.933  26.909  33.216  1.00  0.00     0.064 A 
ATOM     69  C   UNL A   1      44.432  25.603  33.160  1.00  0.00     0.173 A 
ATOM     70  C   UNL A   1      45.232  27.396  34.513  1.00  0.00     0.173 A 
ATOM     71  F   UNL A   1      44.040  25.079  31.990  1.00  0.00    -0.203 F 
ATOM     72  C   UNL A   1      44.253  24.839  34.318  1.00  0.00     0.198 A 
ATOM     73  C   UNL A   1      45.124  26.611  35.654  1.00  0.00     0.198 A 
ATOM     74  F   UNL A   1      45.526  28.681  34.745  1.00  0.00    -0.203 F 
ATOM     75  F   UNL A   1      43.679  23.632  34.232  1.00  0.00    -0.200 F 
ATOM     76  C   UNL A   1      44.615  25.336  35.559  1.00  0.00     0.200 A 
ATOM     77  F   UNL A   1      45.447  27.131  36.846  1.00  0.00    -0.200 F 
ATOM     78  F   UNL A   1      44.418  24.614  36.668  1.00  0.00    -0.200 F 
ENDBRANCH  54  68
BRANCH  55  79
ATOM     79  C   UNL A   1      42.887  21.850  26.527  1.00  0.00     0.064 A 
ATOM     80  C   UNL A   1      43.520  21.049  25.547  1.00  0.00     0.173 A 
ATOM     81  C   UNL A   1      41.993  21.176  27.378  1.00  0.00     0.173 A 
ATOM     82  F   UNL A   1      44.402  21.591  24.695  1.00  0.00    -0.203 F 
ATOM     83  C   UNL A   1      43.330  19.660  25.481  1.00  0.00     0.198 A 
ATOM     84  C   UNL A   1      41.805  19.790  27.309  1.00  0.00     0.198 A 
ATOM     85  F   UNL A   1      41.361  21.832  28.359  1.00  0.00    -0.203 F 
ATOM     86  F   UNL A   1      44.021  18.928  24.594  1.00  0.00    -0.200 F 
ATOM     87  C   UNL A   1      42.491  19.030  26.381  1.00  0.00     0.200 A 
ATOM     88  F   UNL A   1      41.011  19.186  28.204  1.00  0.00    -0.200 F 
ATOM     89  F   UNL A   1      42.377  17.694  26.382  1.00  0.00    -0.200 F 
ENDBRANCH  55  79
BRANCH  67  90
ATOM     90  C   UNL A   1      47.159  26.389  26.747  1.00  0.00     0.064 A 
ATOM     91  C   UNL A   1      46.411  27.107  25.794  1.00  0.00     0.173 A 
ATOM     92  C   UNL A   1      48.502  26.122  26.443  1.00  0.00     0.173 A 
ATOM     93  F   UNL A   1      45.142  27.466  26.043  1.00  0.00    -0.203 F 
ATOM     94  C   UNL A   1      46.984  27.509  24.585  1.00  0.00     0.198 A 
ATOM     95  C   UNL A   1      49.079  26.557  25.255  1.00  0.00     0.198 A 
ATOM     96  F   UNL A   1      49.271  25.473  27.331  1.00  0.00    -0.203 F 
ATOM     97  F   UNL A   1      46.255  28.185  23.685  1.00  0.00    -0.200 F 
ATOM     98  C   UNL A   1      48.319  27.243  24.323  1.00  0.00     0.200 A 
ATOM     99  F   UNL A   1      50.381  26.333  25.030  1.00  0.00    -0.200 F 
ATOM    100  F   UNL A   1      48.883  27.665  23.181  1.00  0.00    -0.200 F 
ENDBRANCH  67  90
ENDBRANCH  41  42
ENDBRANCH  34  36
ENDBRANCH  33  34
ENDBRANCH  32  33
ENDBRANCH  31  32
ENDBRANCH   1  31
TORSDOF 17
ENDMDL
MODEL 3
REMARK VINA RESULT:     -13.2      4.239      9.201
REMARK SMILES CC1=C([C@H](NC(=O)[C@@H]2[C@H](C)c3cc(F)ccc3N2C)C(=O)OCCOCCOC(=O)c2ccc(-c3c4nc(c(-c5c(F)c(F)c(F)c(F)c5F)c5ccc([nH]5)c(-c5c(F)c(F)c(F)c(F)c5F)c5nc(c(-c6c(F)c(F)c(F)c(F)c6F)c6ccc3[nH]6)C=C5)C=C4)cc2)[C@@H](C)N=N1
REMARK SMILES IDX 25 1 24 2 23 3 22 4 20 5 21 6 4 7 3 8 1 9 2 10 97 11 94 12
REMARK SMILES IDX 96 13 95 14 5 15 6 16 7 18 8 19 9 20 18 21 11 22 10 23 17 24
REMARK SMILES IDX 19 25 12 26 16 27 13 28 15 29 14 30 26 31 27 32 28 33 29 34
REMARK SMILES IDX 30 35 31 36 32 37 93 38 33 39 92 40 34 41 35 42 36 43 86 44
REMARK SMILES IDX 37 45 91 46 85 47 87 48 38 49 90 50 84 51 83 52 39 54 71 55
REMARK SMILES IDX 51 56 70 57 52 58 55 59 69 60 88 61 53 62 54 63 68 65 89 66
REMARK SMILES IDX 56 67 40 68 41 69 49 70 42 71 43 72 47 73 50 74 44 75 45 76
REMARK SMILES IDX 48 77 46 78 72 79 73 80 81 81 74 82 75 83 79 84 82 85 76 86
REMARK SMILES IDX 77 87 80 88 78 89 57 90 58 91 66 92 59 93 60 94 64 95 67 96
REMARK SMILES IDX 61 97 62 98 65 99 63 100
REMARK H PARENT 5 17 87 53 55 64
REMARK Flexibility Score: inf
ROOT
ATOM      1  O   UNL A   1      36.689  30.888  27.825  1.00  0.00    -0.374 OA
ENDROOT
BRANCH   1   2
ATOM      2  C   UNL A   1      35.792  29.705  27.986  1.00  0.00     0.202 C 
BRANCH   2   3
ATOM      3  C   UNL A   1      34.102  28.926  26.796  1.00  0.00     0.261 C 
BRANCH   3   4
ATOM      4  O   UNL A   1      33.403  27.417  26.837  1.00  0.00    -0.461 OA
BRANCH   4   5
ATOM      5  C   UNL A   1      32.123  27.084  26.478  1.00  0.00     0.333 C 
ATOM      6  O   UNL A   1      31.157  27.421  27.159  1.00  0.00    -0.249 OA
BRANCH   5   7
ATOM      7  C   UNL A   1      31.938  26.413  24.910  1.00  0.00     0.223 C 
BRANCH   7   8
ATOM      8  C   UNL A   1      32.360  27.455  23.967  1.00  0.00     0.012 C 
ATOM      9  C   UNL A   1      30.357  28.991  24.036  1.00  0.00     0.069 C 
ATOM     10  C   UNL A   1      31.691  28.526  23.547  1.00  0.00     0.064 C 
ATOM     11  N   UNL A   1      32.361  29.157  22.532  1.00  0.00    -0.160 NA
ATOM     12  C   UNL A   1      33.656  27.454  23.256  1.00  0.00     0.156 C 
ATOM     13  N   UNL A   1      33.431  28.526  22.256  1.00  0.00    -0.181 NA
ATOM     14  C   UNL A   1      34.018  26.109  22.650  1.00  0.00     0.040 C 
ENDBRANCH   7   8
BRANCH   7  15
ATOM     15  N   UNL A   1      30.811  25.708  24.177  1.00  0.00    -0.337 N 
ATOM     16  C   UNL A   1      30.747  24.374  23.775  1.00  0.00     0.244 C 
ATOM     17  H   UNL A   1      30.027  26.262  23.958  1.00  0.00     0.164 HD
ATOM     18  O   UNL A   1      29.860  23.925  23.069  1.00  0.00    -0.273 OA
BRANCH  16  19
ATOM     19  C   UNL A   1      31.852  23.631  24.401  1.00  0.00     0.178 C 
ATOM     20  C   UNL A   1      32.742  22.962  23.287  1.00  0.00     0.050 C 
ATOM     21  N   UNL A   1      31.912  22.937  25.700  1.00  0.00    -0.362 N 
ATOM     22  C   UNL A   1      33.914  22.612  24.085  1.00  0.00    -0.016 A 
ATOM     23  C   UNL A   1      32.056  21.984  22.385  1.00  0.00     0.015 C 
ATOM     24  C   UNL A   1      33.323  22.795  25.763  1.00  0.00     0.041 A 
ATOM     25  C   UNL A   1      30.997  23.334  26.754  1.00  0.00     0.144 C 
ATOM     26  C   UNL A   1      35.647  22.397  23.694  1.00  0.00     0.045 A 
ATOM     27  C   UNL A   1      34.517  22.757  27.055  1.00  0.00     0.029 A 
ATOM     28  C   UNL A   1      36.839  22.329  25.025  1.00  0.00     0.123 A 
ATOM     29  C   UNL A   1      36.271  22.469  26.714  1.00  0.00     0.041 A 
ATOM     30  F   UNL A   1      38.141  22.164  24.780  1.00  0.00    -0.207 F 
ENDBRANCH  16  19
ENDBRANCH   7  15
ENDBRANCH   5   7
ENDBRANCH   4   5
ENDBRANCH   3   4
ENDBRANCH   2   3
ENDBRANCH   1   2
BRANCH   1  31
ATOM     31  C   UNL A   1      36.294  32.139  28.411  1.00  0.00     0.202 C 
BRANCH  31  32
ATOM     32  C   UNL A   1      34.920  32.617  29.082  1.00  0.00     0.261 C 
BRANCH  32  33
ATOM     33  O   UNL A   1      34.442  32.096  30.369  1.00  0.00    -0.460 OA
BRANCH  33  34
ATOM     34  C   UNL A   1      34.822  32.564  31.601  1.00  0.00     0.338 C 
ATOM     35  O   UNL A   1      34.118  33.236  32.335  1.00  0.00    -0.246 OA
BRANCH  34  36
ATOM     36  C   UNL A   1      36.123  31.870  32.076  1.00  0.00     0.060 A 
ATOM     37  C   UNL A   1      37.380  32.500  32.259  1.00  0.00     0.016 A 
ATOM     38  C   UNL A   1      36.151  30.492  31.817  1.00  0.00     0.016 A 
ATOM     39  C   UNL A   1      38.593  31.837  31.847  1.00  0.00     0.010 A 
ATOM     40  C   UNL A   1      37.345  29.849  31.390  1.00  0.00     0.010 A 
ATOM     41  C   UNL A   1      38.565  30.543  31.250  1.00  0.00    -0.014 A 
BRANCH  41  42
ATOM     42  C   UNL A   1      39.827  29.807  30.825  1.00  0.00     0.031 A 
ATOM     43  C   UNL A   1      40.601  29.610  32.070  1.00  0.00     0.074 A 
ATOM     44  C   UNL A   1      40.314  29.250  29.663  1.00  0.00     0.049 A 
ATOM     45  N   UNL A   1      41.733  30.161  32.362  1.00  0.00    -0.248 NA
ATOM     46  C   UNL A   1      39.903  28.997  33.215  1.00  0.00     0.031 C 
ATOM     47  C   UNL A   1      39.826  29.321  28.293  1.00  0.00     0.029 A 
ATOM     48  N   UNL A   1      41.386  28.373  29.458  1.00  0.00    -0.354 N 
ATOM     49  C   UNL A   1      41.979  29.761  33.665  1.00  0.00     0.074 A 
ATOM     50  C   UNL A   1      40.727  29.310  34.211  1.00  0.00     0.031 C 
ATOM     51  C   UNL A   1      40.268  28.315  27.508  1.00  0.00     0.029 A 
ATOM     52  C   UNL A   1      41.308  27.635  28.239  1.00  0.00     0.049 A 
ATOM     53  H   UNL A   1      42.128  28.274  30.099  1.00  0.00     0.167 HD
ATOM     54  C   UNL A   1      43.237  29.457  34.063  1.00  0.00     0.037 A 
ATOM     55  C   UNL A   1      42.127  26.669  27.722  1.00  0.00     0.037 A 
ATOM     56  C   UNL A   1      44.225  30.067  33.217  1.00  0.00     0.049 A 
ATOM     57  C   UNL A   1      43.415  26.780  28.424  1.00  0.00     0.074 A 
ATOM     58  C   UNL A   1      44.573  31.363  32.894  1.00  0.00     0.029 A 
ATOM     59  N   UNL A   1      44.780  29.272  32.252  1.00  0.00    -0.354 N 
ATOM     60  N   UNL A   1      44.253  27.755  28.235  1.00  0.00    -0.248 NA
ATOM     61  C   UNL A   1      43.506  26.076  29.686  1.00  0.00     0.031 C 
ATOM     62  C   UNL A   1      44.986  31.321  31.531  1.00  0.00     0.029 A 
ATOM     63  C   UNL A   1      44.951  29.996  31.103  1.00  0.00     0.049 A 
ATOM     64  H   UNL A   1      45.021  28.324  32.367  1.00  0.00     0.167 HD
ATOM     65  C   UNL A   1      44.625  28.111  29.518  1.00  0.00     0.074 A 
ATOM     66  C   UNL A   1      44.167  27.011  30.368  1.00  0.00     0.031 C 
ATOM     67  C   UNL A   1      44.994  29.395  29.793  1.00  0.00     0.037 A 
BRANCH  54  68
ATOM     68  C   UNL A   1      43.501  28.250  34.923  1.00  0.00     0.064 A 
ATOM     69  C   UNL A   1      43.149  26.978  34.458  1.00  0.00     0.173 A 
ATOM     70  C   UNL A   1      43.868  28.325  36.290  1.00  0.00     0.173 A 
ATOM     71  F   UNL A   1      42.707  26.814  33.203  1.00  0.00    -0.203 F 
ATOM     72  C   UNL A   1      43.175  25.861  35.299  1.00  0.00     0.198 A 
ATOM     73  C   UNL A   1      43.964  27.203  37.104  1.00  0.00     0.198 A 
ATOM     74  F   UNL A   1      44.034  29.491  36.924  1.00  0.00    -0.203 F 
ATOM     75  F   UNL A   1      42.737  24.680  34.844  1.00  0.00    -0.200 F 
ATOM     76  C   UNL A   1      43.597  25.971  36.614  1.00  0.00     0.200 A 
ATOM     77  F   UNL A   1      44.341  27.346  38.382  1.00  0.00    -0.200 F 
ATOM     78  F   UNL A   1      43.595  24.906  37.424  1.00  0.00    -0.200 F 
ENDBRANCH  54  68
BRANCH  55  79
ATOM     79  C   UNL A   1      41.800  25.431  26.943  1.00  0.00     0.064 A 
ATOM     80  C   UNL A   1      42.652  24.968  25.912  1.00  0.00     0.173 A 
ATOM     81  C   UNL A   1      40.856  24.503  27.414  1.00  0.00     0.173 A 
ATOM     82  F   UNL A   1      43.598  25.770  25.402  1.00  0.00    -0.203 F 
ATOM     83  C   UNL A   1      42.611  23.644  25.448  1.00  0.00     0.198 A 
ATOM     84  C   UNL A   1      40.816  23.183  26.949  1.00  0.00     0.198 A 
ATOM     85  F   UNL A   1      40.018  24.827  28.407  1.00  0.00    -0.203 F 
ATOM     86  F   UNL A   1      43.498  23.224  24.535  1.00  0.00    -0.200 F 
ATOM     87  C   UNL A   1      41.708  22.746  25.987  1.00  0.00     0.200 A 
ATOM     88  F   UNL A   1      39.956  22.314  27.498  1.00  0.00    -0.200 F 
ATOM     89  F   UNL A   1      41.726  21.458  25.615  1.00  0.00    -0.200 F 
ENDBRANCH  55  79
BRANCH  67  90
ATOM     90  C   UNL A   1      45.321  30.295  28.631  1.00  0.00     0.064 A 
ATOM     91  C   UNL A   1      44.374  30.999  27.863  1.00  0.00     0.173 A 
ATOM     92  C   UNL A   1      46.676  30.544  28.370  1.00  0.00     0.173 A 
ATOM     93  F   UNL A   1      43.061  30.872  28.102  1.00  0.00    -0.203 F 
ATOM     94  C   UNL A   1      44.778  31.889  26.863  1.00  0.00     0.198 A 
ATOM     95  C   UNL A   1      47.074  31.459  27.402  1.00  0.00     0.198 A 
ATOM     96  F   UNL A   1      47.621  29.928  29.098  1.00  0.00    -0.203 F 
ATOM     97  F   UNL A   1      43.863  32.544  26.135  1.00  0.00    -0.200 F 
ATOM     98  C   UNL A   1      46.126  32.124  26.642  1.00  0.00     0.200 A 
ATOM     99  F   UNL A   1      48.378  31.712  27.225  1.00  0.00    -0.200 F 
ATOM    100  F   UNL A   1      46.516  33.009  25.713  1.00  0.00    -0.200 F 
ENDBRANCH  67  90
ENDBRANCH  41  42
ENDBRANCH  34  36
ENDBRANCH  33  34
ENDBRANCH  32  33
ENDBRANCH  31  32
ENDBRANCH   1  31
TORSDOF 17
ENDMDL
