MODEL 1
REMARK VINA RESULT:      -9.3      0.000      0.000
REMARK SMILES O=C(OCCOCCOC(=O)c1cc(OCc2ccccc2C(F)(F)F)cs1)c1ccc(-c2c3nc(c(-c4c(F)c(F)c(F)c(F)c4F)c4ccc([nH]4)c(-c4c(F)c(F)c(F)c(F)c4F)c4nc(c(-c5c(F)c(F)c(F)c(F)c5F)c5ccc2[nH]5)C=C4)C=C3)cc1
REMARK SMILES IDX 7 1 6 2 5 3 4 4 3 5 2 6 1 7 29 8 30 9 91 10 31 11 90 12
REMARK SMILES IDX 32 13 33 14 34 15 84 16 35 17 89 18 83 19 85 20 36 21 88 22
REMARK SMILES IDX 82 23 81 24 37 26 69 27 49 28 68 29 50 30 53 31 67 32 86 33
REMARK SMILES IDX 51 34 52 35 66 37 87 38 54 39 38 40 39 41 47 42 40 43 41 44
REMARK SMILES IDX 45 45 48 46 42 47 43 48 46 49 44 50 70 51 71 52 79 53 72 54
REMARK SMILES IDX 73 55 77 56 80 57 74 58 75 59 78 60 76 61 55 62 56 63 64 64
REMARK SMILES IDX 57 65 58 66 62 67 65 68 59 69 60 70 63 71 61 72 8 73 9 74
REMARK SMILES IDX 10 75 11 76 12 77 13 78 28 79 14 80 27 81 15 82 16 83 17 84
REMARK SMILES IDX 18 85 22 86 19 87 21 88 20 89 23 90 24 91 25 92 26 93
REMARK H PARENT 85 25 53 36
REMARK Flexibility Score: inf
ROOT
ATOM      1  C   UNL A   1      43.318  18.900  25.838  1.00  0.00     0.202 C 
ENDROOT
BRANCH   1   2
ATOM      2  O   UNL A   1      42.386  19.964  25.614  1.00  0.00    -0.374 OA
BRANCH   2   3
ATOM      3  C   UNL A   1      41.190  19.918  26.390  1.00  0.00     0.202 C 
BRANCH   3   4
ATOM      4  C   UNL A   1      40.821  21.256  27.032  1.00  0.00     0.261 C 
BRANCH   4   5
ATOM      5  O   UNL A   1      40.062  22.047  26.100  1.00  0.00    -0.460 OA
BRANCH   5   6
ATOM      6  C   UNL A   1      39.184  23.043  26.355  1.00  0.00     0.338 C 
ATOM      7  O   UNL A   1      38.001  22.875  26.061  1.00  0.00    -0.246 OA
BRANCH   6   8
ATOM      8  C   UNL A   1      39.569  24.352  26.963  1.00  0.00     0.060 A 
ATOM      9  C   UNL A   1      39.490  24.654  28.324  1.00  0.00     0.016 A 
ATOM     10  C   UNL A   1      40.157  25.301  26.109  1.00  0.00     0.016 A 
ATOM     11  C   UNL A   1      39.910  25.885  28.818  1.00  0.00     0.010 A 
ATOM     12  C   UNL A   1      40.628  26.521  26.603  1.00  0.00     0.010 A 
ATOM     13  C   UNL A   1      40.487  26.823  27.962  1.00  0.00    -0.014 A 
BRANCH  13  14
ATOM     14  C   UNL A   1      40.885  28.136  28.507  1.00  0.00     0.031 A 
ATOM     15  C   UNL A   1      42.342  28.447  28.655  1.00  0.00     0.074 A 
ATOM     16  C   UNL A   1      39.945  29.059  28.772  1.00  0.00     0.049 A 
ATOM     17  N   UNL A   1      42.917  29.521  29.127  1.00  0.00    -0.248 NA
ATOM     18  C   UNL A   1      43.282  27.410  28.197  1.00  0.00     0.031 C 
ATOM     19  C   UNL A   1      38.506  28.873  28.575  1.00  0.00     0.029 A 
ATOM     20  N   UNL A   1      40.056  30.342  29.240  1.00  0.00    -0.354 N 
ATOM     21  C   UNL A   1      44.281  29.285  29.039  1.00  0.00     0.074 A 
ATOM     22  C   UNL A   1      44.451  27.963  28.476  1.00  0.00     0.031 C 
ATOM     23  C   UNL A   1      37.870  30.011  28.896  1.00  0.00     0.029 A 
ATOM     24  C   UNL A   1      38.849  30.983  29.372  1.00  0.00     0.049 A 
ATOM     25  H   UNL A   1      40.918  30.762  29.461  1.00  0.00     0.167 HD
ATOM     26  C   UNL A   1      45.296  30.102  29.403  1.00  0.00     0.037 A 
ATOM     27  C   UNL A   1      38.573  32.213  29.848  1.00  0.00     0.037 A 
ATOM     28  C   UNL A   1      45.104  31.408  29.971  1.00  0.00     0.049 A 
ATOM     29  C   UNL A   1      39.717  33.073  30.312  1.00  0.00     0.074 A 
ATOM     30  C   UNL A   1      46.051  32.299  30.441  1.00  0.00     0.029 A 
ATOM     31  N   UNL A   1      43.864  32.010  30.143  1.00  0.00    -0.354 N 
ATOM     32  N   UNL A   1      41.005  32.823  30.279  1.00  0.00    -0.248 NA
ATOM     33  C   UNL A   1      39.372  34.376  30.893  1.00  0.00     0.031 C 
ATOM     34  C   UNL A   1      45.381  33.427  30.928  1.00  0.00     0.029 A 
ATOM     35  C   UNL A   1      44.019  33.255  30.725  1.00  0.00     0.049 A 
ATOM     36  H   UNL A   1      43.001  31.609  29.887  1.00  0.00     0.167 HD
ATOM     37  C   UNL A   1      41.626  33.936  30.825  1.00  0.00     0.074 A 
ATOM     38  C   UNL A   1      40.573  34.875  31.159  1.00  0.00     0.031 C 
ATOM     39  C   UNL A   1      42.944  34.163  31.039  1.00  0.00     0.037 A 
BRANCH  26  40
ATOM     40  C   UNL A   1      46.686  29.564  29.250  1.00  0.00     0.064 A 
ATOM     41  C   UNL A   1      47.393  29.026  30.336  1.00  0.00     0.173 A 
ATOM     42  C   UNL A   1      47.335  29.624  28.008  1.00  0.00     0.173 A 
ATOM     43  F   UNL A   1      46.826  28.972  31.550  1.00  0.00    -0.203 F 
ATOM     44  C   UNL A   1      48.711  28.596  30.189  1.00  0.00     0.198 A 
ATOM     45  C   UNL A   1      48.644  29.174  27.860  1.00  0.00     0.198 A 
ATOM     46  F   UNL A   1      46.705  30.137  26.941  1.00  0.00    -0.203 F 
ATOM     47  F   UNL A   1      49.387  28.139  31.252  1.00  0.00    -0.200 F 
ATOM     48  C   UNL A   1      49.334  28.669  28.952  1.00  0.00     0.200 A 
ATOM     49  F   UNL A   1      49.244  29.244  26.664  1.00  0.00    -0.200 F 
ATOM     50  F   UNL A   1      50.605  28.268  28.816  1.00  0.00    -0.200 F 
ENDBRANCH  26  40
BRANCH  27  51
ATOM     51  C   UNL A   1      37.165  32.682  29.931  1.00  0.00     0.064 A 
ATOM     52  C   UNL A   1      36.389  32.453  31.074  1.00  0.00     0.173 A 
ATOM     53  C   UNL A   1      36.566  33.374  28.866  1.00  0.00     0.173 A 
ATOM     54  F   UNL A   1      36.905  31.774  32.109  1.00  0.00    -0.203 F 
ATOM     55  C   UNL A   1      35.067  32.889  31.147  1.00  0.00     0.198 A 
ATOM     56  C   UNL A   1      35.254  33.834  28.951  1.00  0.00     0.198 A 
ATOM     57  F   UNL A   1      37.263  33.618  27.747  1.00  0.00    -0.203 F 
ATOM     58  F   UNL A   1      34.334  32.624  32.238  1.00  0.00    -0.200 F 
ATOM     59  C   UNL A   1      34.502  33.587  30.090  1.00  0.00     0.200 A 
ATOM     60  F   UNL A   1      34.718  34.518  27.930  1.00  0.00    -0.200 F 
ATOM     61  F   UNL A   1      33.234  34.012  30.163  1.00  0.00    -0.200 F 
ENDBRANCH  27  51
BRANCH  39  62
ATOM     62  C   UNL A   1      43.315  35.479  31.650  1.00  0.00     0.064 A 
ATOM     63  C   UNL A   1      43.297  35.667  33.040  1.00  0.00     0.173 A 
ATOM     64  C   UNL A   1      43.740  36.543  30.842  1.00  0.00     0.173 A 
ATOM     65  F   UNL A   1      42.882  34.681  33.850  1.00  0.00    -0.203 F 
ATOM     66  C   UNL A   1      43.679  36.884  33.598  1.00  0.00     0.198 A 
ATOM     67  C   UNL A   1      44.143  37.749  31.405  1.00  0.00     0.198 A 
ATOM     68  F   UNL A   1      43.778  36.405  29.508  1.00  0.00    -0.203 F 
ATOM     69  F   UNL A   1      43.622  37.055  34.926  1.00  0.00    -0.200 F 
ATOM     70  C   UNL A   1      44.108  37.920  32.781  1.00  0.00     0.200 A 
ATOM     71  F   UNL A   1      44.566  38.747  30.617  1.00  0.00    -0.200 F 
ATOM     72  F   UNL A   1      44.482  39.087  33.323  1.00  0.00    -0.200 F 
ENDBRANCH  39  62
ENDBRANCH  13  14
ENDBRANCH   6   8
ENDBRANCH   5   6
ENDBRANCH   4   5
ENDBRANCH   3   4
ENDBRANCH   2   3
ENDBRANCH   1   2
BRANCH   1  73
ATOM     73  C   UNL A   1      44.197  18.748  24.587  1.00  0.00     0.261 C 
BRANCH  73  74
ATOM     74  O   UNL A   1      44.536  20.055  24.092  1.00  0.00    -0.459 OA
BRANCH  74  75
ATOM     75  C   UNL A   1      45.754  20.538  24.492  1.00  0.00     0.348 C 
ATOM     76  O   UNL A   1      46.794  19.890  24.509  1.00  0.00    -0.245 OA
BRANCH  75  77
ATOM     77  C   UNL A   1      45.597  21.957  24.721  1.00  0.00     0.116 A 
ATOM     78  C   UNL A   1      46.228  22.730  25.677  1.00  0.00     0.074 A 
ATOM     79  S   UNL A   1      44.420  22.861  23.877  1.00  0.00    -0.133 S 
ATOM     80  C   UNL A   1      45.522  23.936  25.940  1.00  0.00     0.131 A 
ATOM     81  C   UNL A   1      44.542  24.157  24.996  1.00  0.00     0.112 A 
BRANCH  80  82
ATOM     82  O   UNL A   1      45.687  24.820  26.958  1.00  0.00    -0.488 OA
BRANCH  82  83
ATOM     83  C   UNL A   1      46.328  24.315  28.136  1.00  0.00     0.266 C 
BRANCH  83  84
ATOM     84  C   UNL A   1      45.620  24.737  29.416  1.00  0.00     0.001 A 
ATOM     85  C   UNL A   1      46.321  25.565  30.323  1.00  0.00     0.008 A 
ATOM     86  C   UNL A   1      44.297  24.364  29.745  1.00  0.00     0.062 A 
ATOM     87  C   UNL A   1      45.747  26.018  31.509  1.00  0.00     0.000 A 
ATOM     88  C   UNL A   1      43.727  24.856  30.944  1.00  0.00     0.013 A 
ATOM     89  C   UNL A   1      44.444  25.669  31.818  1.00  0.00     0.001 A 
BRANCH  86  90
ATOM     90  C   UNL A   1      43.391  23.514  28.876  1.00  0.00     0.416 C 
ATOM     91  F   UNL A   1      44.041  22.435  28.351  1.00  0.00    -0.166 F 
ATOM     92  F   UNL A   1      42.350  23.000  29.589  1.00  0.00    -0.166 F 
ATOM     93  F   UNL A   1      42.835  24.147  27.811  1.00  0.00    -0.166 F 
ENDBRANCH  86  90
ENDBRANCH  83  84
ENDBRANCH  82  83
ENDBRANCH  80  82
ENDBRANCH  75  77
ENDBRANCH  74  75
ENDBRANCH  73  74
ENDBRANCH   1  73
TORSDOF 18
ENDMDL
MODEL 2
REMARK VINA RESULT:      -9.2      4.674      7.405
REMARK SMILES O=C(OCCOCCOC(=O)c1cc(OCc2ccccc2C(F)(F)F)cs1)c1ccc(-c2c3nc(c(-c4c(F)c(F)c(F)c(F)c4F)c4ccc([nH]4)c(-c4c(F)c(F)c(F)c(F)c4F)c4nc(c(-c5c(F)c(F)c(F)c(F)c5F)c5ccc2[nH]5)C=C4)C=C3)cc1
REMARK SMILES IDX 7 1 6 2 5 3 4 4 3 5 2 6 1 7 29 8 30 9 91 10 31 11 90 12
REMARK SMILES IDX 32 13 33 14 34 15 84 16 35 17 89 18 83 19 85 20 36 21 88 22
REMARK SMILES IDX 82 23 81 24 37 26 69 27 49 28 68 29 50 30 53 31 67 32 86 33
REMARK SMILES IDX 51 34 52 35 66 37 87 38 54 39 38 40 39 41 47 42 40 43 41 44
REMARK SMILES IDX 45 45 48 46 42 47 43 48 46 49 44 50 70 51 71 52 79 53 72 54
REMARK SMILES IDX 73 55 77 56 80 57 74 58 75 59 78 60 76 61 55 62 56 63 64 64
REMARK SMILES IDX 57 65 58 66 62 67 65 68 59 69 60 70 63 71 61 72 8 73 9 74
REMARK SMILES IDX 10 75 11 76 12 77 13 78 28 79 14 80 27 81 15 82 16 83 17 84
REMARK SMILES IDX 18 85 22 86 19 87 21 88 20 89 23 90 24 91 25 92 26 93
REMARK H PARENT 85 25 53 36
REMARK Flexibility Score: inf
ROOT
ATOM      1  C   UNL A   1      40.788  21.301  27.506  1.00  0.00     0.202 C 
ENDROOT
BRANCH   1   2
ATOM      2  O   UNL A   1      42.192  21.093  27.321  1.00  0.00    -0.374 OA
BRANCH   2   3
ATOM      3  C   UNL A   1      42.606  20.779  25.992  1.00  0.00     0.202 C 
BRANCH   3   4
ATOM      4  C   UNL A   1      43.736  21.670  25.473  1.00  0.00     0.261 C 
BRANCH   4   5
ATOM      5  O   UNL A   1      43.197  22.934  25.043  1.00  0.00    -0.460 OA
BRANCH   5   6
ATOM      6  C   UNL A   1      43.691  24.176  25.247  1.00  0.00     0.338 C 
ATOM      7  O   UNL A   1      44.560  24.597  24.486  1.00  0.00    -0.246 OA
BRANCH   6   8
ATOM      8  C   UNL A   1      43.251  25.070  26.361  1.00  0.00     0.060 A 
ATOM      9  C   UNL A   1      43.599  26.417  26.488  1.00  0.00     0.016 A 
ATOM     10  C   UNL A   1      42.331  24.535  27.279  1.00  0.00     0.016 A 
ATOM     11  C   UNL A   1      43.111  27.194  27.534  1.00  0.00     0.010 A 
ATOM     12  C   UNL A   1      41.797  25.322  28.304  1.00  0.00     0.010 A 
ATOM     13  C   UNL A   1      42.203  26.654  28.444  1.00  0.00    -0.014 A 
BRANCH  13  14
ATOM     14  C   UNL A   1      41.735  27.490  29.567  1.00  0.00     0.031 A 
ATOM     15  C   UNL A   1      42.522  27.499  30.840  1.00  0.00     0.074 A 
ATOM     16  C   UNL A   1      40.671  28.294  29.399  1.00  0.00     0.049 A 
ATOM     17  N   UNL A   1      42.287  28.137  31.956  1.00  0.00    -0.248 NA
ATOM     18  C   UNL A   1      43.749  26.686  30.856  1.00  0.00     0.031 C 
ATOM     19  C   UNL A   1      39.897  28.415  28.162  1.00  0.00     0.029 A 
ATOM     20  N   UNL A   1      40.072  29.178  30.257  1.00  0.00    -0.354 N 
ATOM     21  C   UNL A   1      43.324  27.792  32.810  1.00  0.00     0.074 A 
ATOM     22  C   UNL A   1      44.187  26.882  32.090  1.00  0.00     0.031 C 
ATOM     23  C   UNL A   1      38.939  29.341  28.335  1.00  0.00     0.029 A 
ATOM     24  C   UNL A   1      39.000  29.835  29.707  1.00  0.00     0.049 A 
ATOM     25  H   UNL A   1      40.381  29.327  31.180  1.00  0.00     0.167 HD
ATOM     26  C   UNL A   1      43.528  28.199  34.083  1.00  0.00     0.037 A 
ATOM     27  C   UNL A   1      38.151  30.720  30.264  1.00  0.00     0.037 A 
ATOM     28  C   UNL A   1      42.651  29.096  34.784  1.00  0.00     0.049 A 
ATOM     29  C   UNL A   1      38.361  31.101  31.705  1.00  0.00     0.074 A 
ATOM     30  C   UNL A   1      42.716  29.527  36.097  1.00  0.00     0.029 A 
ATOM     31  N   UNL A   1      41.539  29.705  34.215  1.00  0.00    -0.354 N 
ATOM     32  N   UNL A   1      39.313  30.728  32.529  1.00  0.00    -0.248 NA
ATOM     33  C   UNL A   1      37.374  32.010  32.300  1.00  0.00     0.031 C 
ATOM     34  C   UNL A   1      41.624  30.371  36.332  1.00  0.00     0.029 A 
ATOM     35  C   UNL A   1      40.901  30.497  35.154  1.00  0.00     0.049 A 
ATOM     36  H   UNL A   1      41.249  29.590  33.282  1.00  0.00     0.167 HD
ATOM     37  C   UNL A   1      39.047  31.360  33.733  1.00  0.00     0.074 A 
ATOM     38  C   UNL A   1      37.856  32.161  33.527  1.00  0.00     0.031 C 
ATOM     39  C   UNL A   1      39.718  31.283  34.908  1.00  0.00     0.037 A 
BRANCH  26  40
ATOM     40  C   UNL A   1      44.710  27.618  34.799  1.00  0.00     0.064 A 
ATOM     41  C   UNL A   1      44.586  26.507  35.647  1.00  0.00     0.173 A 
ATOM     42  C   UNL A   1      45.976  28.206  34.666  1.00  0.00     0.173 A 
ATOM     43  F   UNL A   1      43.391  25.927  35.829  1.00  0.00    -0.203 F 
ATOM     44  C   UNL A   1      45.684  26.025  36.358  1.00  0.00     0.198 A 
ATOM     45  C   UNL A   1      47.075  27.709  35.361  1.00  0.00     0.198 A 
ATOM     46  F   UNL A   1      46.145  29.275  33.873  1.00  0.00    -0.203 F 
ATOM     47  F   UNL A   1      45.532  24.999  37.207  1.00  0.00    -0.200 F 
ATOM     48  C   UNL A   1      46.926  26.625  36.214  1.00  0.00     0.200 A 
ATOM     49  F   UNL A   1      48.275  28.289  35.220  1.00  0.00    -0.200 F 
ATOM     50  F   UNL A   1      47.976  26.169  36.910  1.00  0.00    -0.200 F 
ENDBRANCH  26  40
BRANCH  27  51
ATOM     51  C   UNL A   1      37.025  31.276  29.470  1.00  0.00     0.064 A 
ATOM     52  C   UNL A   1      35.927  30.484  29.112  1.00  0.00     0.173 A 
ATOM     53  C   UNL A   1      37.022  32.618  29.054  1.00  0.00     0.173 A 
ATOM     54  F   UNL A   1      35.892  29.190  29.463  1.00  0.00    -0.203 F 
ATOM     55  C   UNL A   1      34.874  31.007  28.362  1.00  0.00     0.198 A 
ATOM     56  C   UNL A   1      35.956  33.146  28.330  1.00  0.00     0.198 A 
ATOM     57  F   UNL A   1      38.049  33.420  29.368  1.00  0.00    -0.203 F 
ATOM     58  F   UNL A   1      33.854  30.217  28.001  1.00  0.00    -0.200 F 
ATOM     59  C   UNL A   1      34.885  32.339  27.978  1.00  0.00     0.200 A 
ATOM     60  F   UNL A   1      35.968  34.438  27.972  1.00  0.00    -0.200 F 
ATOM     61  F   UNL A   1      33.870  32.844  27.264  1.00  0.00    -0.200 F 
ENDBRANCH  27  51
BRANCH  39  62
ATOM     62  C   UNL A   1      39.185  32.094  36.049  1.00  0.00     0.064 A 
ATOM     63  C   UNL A   1      38.258  31.556  36.952  1.00  0.00     0.173 A 
ATOM     64  C   UNL A   1      39.644  33.400  36.266  1.00  0.00     0.173 A 
ATOM     65  F   UNL A   1      37.779  30.316  36.773  1.00  0.00    -0.203 F 
ATOM     66  C   UNL A   1      37.797  32.308  38.030  1.00  0.00     0.198 A 
ATOM     67  C   UNL A   1      39.198  34.140  37.357  1.00  0.00     0.198 A 
ATOM     68  F   UNL A   1      40.535  33.952  35.429  1.00  0.00    -0.203 F 
ATOM     69  F   UNL A   1      36.884  31.789  38.863  1.00  0.00    -0.200 F 
ATOM     70  C   UNL A   1      38.273  33.595  38.235  1.00  0.00     0.200 A 
ATOM     71  F   UNL A   1      39.665  35.379  37.560  1.00  0.00    -0.200 F 
ATOM     72  F   UNL A   1      37.833  34.313  39.277  1.00  0.00    -0.200 F 
ENDBRANCH  39  62
ENDBRANCH  13  14
ENDBRANCH   6   8
ENDBRANCH   5   6
ENDBRANCH   4   5
ENDBRANCH   3   4
ENDBRANCH   2   3
ENDBRANCH   1   2
BRANCH   1  73
ATOM     73  C   UNL A   1      40.139  21.519  26.131  1.00  0.00     0.261 C 
BRANCH  73  74
ATOM     74  O   UNL A   1      38.711  21.579  26.291  1.00  0.00    -0.459 OA
BRANCH  74  75
ATOM     75  C   UNL A   1      38.143  22.799  26.035  1.00  0.00     0.348 C 
ATOM     76  O   UNL A   1      38.651  23.881  26.306  1.00  0.00    -0.245 OA
BRANCH  75  77
ATOM     77  C   UNL A   1      36.945  22.559  25.262  1.00  0.00     0.116 A 
ATOM     78  C   UNL A   1      36.076  23.498  24.741  1.00  0.00     0.074 A 
ATOM     79  S   UNL A   1      36.353  20.974  25.023  1.00  0.00    -0.133 S 
ATOM     80  C   UNL A   1      34.797  22.946  24.461  1.00  0.00     0.131 A 
ATOM     81  C   UNL A   1      34.822  21.569  24.526  1.00  0.00     0.112 A 
BRANCH  80  82
ATOM     82  O   UNL A   1      33.631  23.584  24.175  1.00  0.00    -0.488 OA
BRANCH  82  83
ATOM     83  C   UNL A   1      33.751  24.904  23.633  1.00  0.00     0.266 C 
BRANCH  83  84
ATOM     84  C   UNL A   1      33.094  25.961  24.511  1.00  0.00     0.001 A 
ATOM     85  C   UNL A   1      33.799  26.411  25.651  1.00  0.00     0.008 A 
ATOM     86  C   UNL A   1      31.827  26.530  24.245  1.00  0.00     0.062 A 
ATOM     87  C   UNL A   1      33.286  27.391  26.500  1.00  0.00     0.000 A 
ATOM     88  C   UNL A   1      31.338  27.540  25.108  1.00  0.00     0.013 A 
ATOM     89  C   UNL A   1      32.056  27.962  26.225  1.00  0.00     0.001 A 
BRANCH  86  90
ATOM     90  C   UNL A   1      30.954  26.191  23.054  1.00  0.00     0.416 C 
ATOM     91  F   UNL A   1      30.633  24.865  23.008  1.00  0.00    -0.166 F 
ATOM     92  F   UNL A   1      29.764  26.853  23.100  1.00  0.00    -0.166 F 
ATOM     93  F   UNL A   1      31.488  26.470  21.836  1.00  0.00    -0.166 F 
ENDBRANCH  86  90
ENDBRANCH  83  84
ENDBRANCH  82  83
ENDBRANCH  80  82
ENDBRANCH  75  77
ENDBRANCH  74  75
ENDBRANCH  73  74
ENDBRANCH   1  73
TORSDOF 18
ENDMDL
MODEL 3
REMARK VINA RESULT:      -9.2      4.014      7.392
REMARK SMILES O=C(OCCOCCOC(=O)c1cc(OCc2ccccc2C(F)(F)F)cs1)c1ccc(-c2c3nc(c(-c4c(F)c(F)c(F)c(F)c4F)c4ccc([nH]4)c(-c4c(F)c(F)c(F)c(F)c4F)c4nc(c(-c5c(F)c(F)c(F)c(F)c5F)c5ccc2[nH]5)C=C4)C=C3)cc1
REMARK SMILES IDX 7 1 6 2 5 3 4 4 3 5 2 6 1 7 29 8 30 9 91 10 31 11 90 12
REMARK SMILES IDX 32 13 33 14 34 15 84 16 35 17 89 18 83 19 85 20 36 21 88 22
REMARK SMILES IDX 82 23 81 24 37 26 69 27 49 28 68 29 50 30 53 31 67 32 86 33
REMARK SMILES IDX 51 34 52 35 66 37 87 38 54 39 38 40 39 41 47 42 40 43 41 44
REMARK SMILES IDX 45 45 48 46 42 47 43 48 46 49 44 50 70 51 71 52 79 53 72 54
REMARK SMILES IDX 73 55 77 56 80 57 74 58 75 59 78 60 76 61 55 62 56 63 64 64
REMARK SMILES IDX 57 65 58 66 62 67 65 68 59 69 60 70 63 71 61 72 8 73 9 74
REMARK SMILES IDX 10 75 11 76 12 77 13 78 28 79 14 80 27 81 15 82 16 83 17 84
REMARK SMILES IDX 18 85 22 86 19 87 21 88 20 89 23 90 24 91 25 92 26 93
REMARK H PARENT 85 25 53 36
REMARK Flexibility Score: inf
ROOT
ATOM      1  C   UNL A   1      40.838  20.920  26.181  1.00  0.00     0.202 C 
ENDROOT
BRANCH   1   2
ATOM      2  O   UNL A   1      41.637  20.523  27.301  1.00  0.00    -0.374 OA
BRANCH   2   3
ATOM      3  C   UNL A   1      42.263  19.246  27.198  1.00  0.00     0.202 C 
BRANCH   3   4
ATOM      4  C   UNL A   1      42.224  18.653  25.788  1.00  0.00     0.261 C 
BRANCH   4   5
ATOM      5  O   UNL A   1      43.566  18.480  25.298  1.00  0.00    -0.460 OA
BRANCH   5   6
ATOM      6  C   UNL A   1      44.321  19.341  24.580  1.00  0.00     0.338 C 
ATOM      7  O   UNL A   1      44.918  18.919  23.591  1.00  0.00    -0.246 OA
BRANCH   6   8
ATOM      8  C   UNL A   1      44.489  20.785  24.928  1.00  0.00     0.060 A 
ATOM      9  C   UNL A   1      43.931  21.848  24.215  1.00  0.00     0.016 A 
ATOM     10  C   UNL A   1      45.165  21.075  26.126  1.00  0.00     0.016 A 
ATOM     11  C   UNL A   1      44.098  23.165  24.631  1.00  0.00     0.010 A 
ATOM     12  C   UNL A   1      45.295  22.392  26.578  1.00  0.00     0.010 A 
ATOM     13  C   UNL A   1      44.776  23.445  25.817  1.00  0.00    -0.014 A 
BRANCH  13  14
ATOM     14  C   UNL A   1      44.973  24.853  26.211  1.00  0.00     0.031 A 
ATOM     15  C   UNL A   1      46.302  25.496  25.960  1.00  0.00     0.074 A 
ATOM     16  C   UNL A   1      43.939  25.559  26.699  1.00  0.00     0.049 A 
ATOM     17  N   UNL A   1      46.704  26.706  26.242  1.00  0.00    -0.248 NA
ATOM     18  C   UNL A   1      47.314  24.664  25.289  1.00  0.00     0.031 C 
ATOM     19  C   UNL A   1      42.584  25.038  26.894  1.00  0.00     0.029 A 
ATOM     20  N   UNL A   1      43.855  26.868  27.096  1.00  0.00    -0.354 N 
ATOM     21  C   UNL A   1      48.017  26.778  25.800  1.00  0.00     0.074 A 
ATOM     22  C   UNL A   1      48.349  25.487  25.237  1.00  0.00     0.031 C 
ATOM     23  C   UNL A   1      41.798  26.026  27.351  1.00  0.00     0.029 A 
ATOM     24  C   UNL A   1      42.604  27.229  27.531  1.00  0.00     0.049 A 
ATOM     25  H   UNL A   1      44.618  27.488  27.071  1.00  0.00     0.167 HD
ATOM     26  C   UNL A   1      48.865  27.829  25.865  1.00  0.00     0.037 A 
ATOM     27  C   UNL A   1      42.172  28.399  28.039  1.00  0.00     0.037 A 
ATOM     28  C   UNL A   1      48.517  29.100  26.438  1.00  0.00     0.049 A 
ATOM     29  C   UNL A   1      43.157  29.530  28.166  1.00  0.00     0.074 A 
ATOM     30  C   UNL A   1      49.312  30.217  26.623  1.00  0.00     0.029 A 
ATOM     31  N   UNL A   1      47.254  29.419  26.922  1.00  0.00    -0.354 N 
ATOM     32  N   UNL A   1      44.416  29.575  27.797  1.00  0.00    -0.248 NA
ATOM     33  C   UNL A   1      42.669  30.765  28.792  1.00  0.00     0.031 C 
ATOM     34  C   UNL A   1      48.537  31.201  27.248  1.00  0.00     0.029 A 
ATOM     35  C   UNL A   1      47.251  30.711  27.418  1.00  0.00     0.049 A 
ATOM     36  H   UNL A   1      46.477  28.815  26.912  1.00  0.00     0.167 HD
ATOM     37  C   UNL A   1      44.869  30.840  28.137  1.00  0.00     0.074 A 
ATOM     38  C   UNL A   1      43.743  31.542  28.721  1.00  0.00     0.031 C 
ATOM     39  C   UNL A   1      46.106  31.376  27.988  1.00  0.00     0.037 A 
BRANCH  26  40
ATOM     40  C   UNL A   1      50.258  27.608  25.358  1.00  0.00     0.064 A 
ATOM     41  C   UNL A   1      50.558  27.634  23.988  1.00  0.00     0.173 A 
ATOM     42  C   UNL A   1      51.300  27.326  26.254  1.00  0.00     0.173 A 
ATOM     43  F   UNL A   1      49.591  27.871  23.089  1.00  0.00    -0.203 F 
ATOM     44  C   UNL A   1      51.846  27.356  23.533  1.00  0.00     0.198 A 
ATOM     45  C   UNL A   1      52.590  27.070  25.797  1.00  0.00     0.198 A 
ATOM     46  F   UNL A   1      51.062  27.282  27.574  1.00  0.00    -0.203 F 
ATOM     47  F   UNL A   1      52.098  27.329  22.217  1.00  0.00    -0.200 F 
ATOM     48  C   UNL A   1      52.859  27.076  24.437  1.00  0.00     0.200 A 
ATOM     49  F   UNL A   1      53.568  26.800  26.673  1.00  0.00    -0.200 F 
ATOM     50  F   UNL A   1      54.093  26.794  23.997  1.00  0.00    -0.200 F 
ENDBRANCH  26  40
BRANCH  27  51
ATOM     51  C   UNL A   1      40.761  28.544  28.485  1.00  0.00     0.064 A 
ATOM     52  C   UNL A   1      40.376  28.226  29.793  1.00  0.00     0.173 A 
ATOM     53  C   UNL A   1      39.767  29.008  27.608  1.00  0.00     0.173 A 
ATOM     54  F   UNL A   1      41.282  27.755  30.662  1.00  0.00    -0.203 F 
ATOM     55  C   UNL A   1      39.051  28.358  30.207  1.00  0.00     0.198 A 
ATOM     56  C   UNL A   1      38.449  29.166  28.030  1.00  0.00     0.198 A 
ATOM     57  F   UNL A   1      40.081  29.324  26.343  1.00  0.00    -0.203 F 
ATOM     58  F   UNL A   1      38.702  28.011  31.453  1.00  0.00    -0.200 F 
ATOM     59  C   UNL A   1      38.090  28.835  29.328  1.00  0.00     0.200 A 
ATOM     60  F   UNL A   1      37.527  29.639  27.180  1.00  0.00    -0.200 F 
ATOM     61  F   UNL A   1      36.818  28.969  29.727  1.00  0.00    -0.200 F 
ENDBRANCH  27  51
BRANCH  39  62
ATOM     62  C   UNL A   1      46.294  32.786  28.454  1.00  0.00     0.064 A 
ATOM     63  C   UNL A   1      46.707  33.072  29.763  1.00  0.00     0.173 A 
ATOM     64  C   UNL A   1      46.108  33.857  27.568  1.00  0.00     0.173 A 
ATOM     65  F   UNL A   1      46.882  32.079  30.649  1.00  0.00    -0.203 F 
ATOM     66  C   UNL A   1      46.914  34.386  30.173  1.00  0.00     0.198 A 
ATOM     67  C   UNL A   1      46.338  35.167  27.975  1.00  0.00     0.198 A 
ATOM     68  F   UNL A   1      45.718  33.629  26.305  1.00  0.00    -0.203 F 
ATOM     69  F   UNL A   1      47.276  34.641  31.438  1.00  0.00    -0.200 F 
ATOM     70  C   UNL A   1      46.736  35.430  29.278  1.00  0.00     0.200 A 
ATOM     71  F   UNL A   1      46.175  36.175  27.108  1.00  0.00    -0.200 F 
ATOM     72  F   UNL A   1      46.943  36.694  29.673  1.00  0.00    -0.200 F 
ENDBRANCH  39  62
ENDBRANCH  13  14
ENDBRANCH   6   8
ENDBRANCH   5   6
ENDBRANCH   4   5
ENDBRANCH   3   4
ENDBRANCH   2   3
ENDBRANCH   1   2
BRANCH   1  73
ATOM     73  C   UNL A   1      39.863  22.015  26.638  1.00  0.00     0.261 C 
BRANCH  73  74
ATOM     74  O   UNL A   1      38.615  21.851  25.941  1.00  0.00    -0.459 OA
BRANCH  74  75
ATOM     75  C   UNL A   1      37.849  22.982  25.833  1.00  0.00     0.348 C 
ATOM     76  O   UNL A   1      38.154  24.081  26.282  1.00  0.00    -0.245 OA
BRANCH  75  77
ATOM     77  C   UNL A   1      36.732  22.661  24.973  1.00  0.00     0.116 A 
ATOM     78  C   UNL A   1      36.383  23.270  23.784  1.00  0.00     0.074 A 
ATOM     79  S   UNL A   1      35.557  21.515  25.446  1.00  0.00    -0.133 S 
ATOM     80  C   UNL A   1      35.019  23.049  23.450  1.00  0.00     0.131 A 
ATOM     81  C   UNL A   1      34.463  22.071  24.246  1.00  0.00     0.112 A 
BRANCH  80  82
ATOM     82  O   UNL A   1      34.256  23.665  22.510  1.00  0.00    -0.488 OA
BRANCH  82  83
ATOM     83  C   UNL A   1      33.118  24.388  22.996  1.00  0.00     0.266 C 
BRANCH  83  84
ATOM     84  C   UNL A   1      33.396  25.876  23.162  1.00  0.00     0.001 A 
ATOM     85  C   UNL A   1      33.537  26.661  21.995  1.00  0.00     0.008 A 
ATOM     86  C   UNL A   1      33.505  26.523  24.415  1.00  0.00     0.062 A 
ATOM     87  C   UNL A   1      33.770  28.035  22.049  1.00  0.00     0.000 A 
ATOM     88  C   UNL A   1      33.719  27.921  24.444  1.00  0.00     0.013 A 
ATOM     89  C   UNL A   1      33.855  28.669  23.276  1.00  0.00     0.001 A 
BRANCH  86  90
ATOM     90  C   UNL A   1      33.347  25.844  25.760  1.00  0.00     0.416 C 
ATOM     91  F   UNL A   1      32.233  25.058  25.817  1.00  0.00    -0.166 F 
ATOM     92  F   UNL A   1      34.393  25.012  26.028  1.00  0.00    -0.166 F 
ATOM     93  F   UNL A   1      33.251  26.675  26.830  1.00  0.00    -0.166 F 
ENDBRANCH  86  90
ENDBRANCH  83  84
ENDBRANCH  82  83
ENDBRANCH  80  82
ENDBRANCH  75  77
ENDBRANCH  74  75
ENDBRANCH  73  74
ENDBRANCH   1  73
TORSDOF 18
ENDMDL
