MODEL 1
REMARK VINA RESULT:     -11.3      0.000      0.000
REMARK SMILES CC(C)[C@@H](NC(=O)[C@@H]1CC[C@H]2CCCC[C@@H]2[NH2+]1)C(=O)OCCOCCOC(=O)c1ccc(-c2c3nc(c(-c4c(F)c(F)c(F)c(F)c4F)c4ccc([nH]4)c(-c4c(F)c(F)c(F)c(F)c4F)c4nc(c(-c5c(F)c(F)c(F)c(F)c5F)c5ccc2[nH]5)C=C4)C=C3)cc1
REMARK SMILES IDX 23 1 22 2 21 3 20 4 18 5 19 6 4 7 2 8 1 9 3 10 5 11 6 12
REMARK SMILES IDX 7 14 8 15 9 16 17 17 10 18 16 19 11 22 15 23 12 24 14 25
REMARK SMILES IDX 13 26 24 27 25 28 26 29 27 30 28 31 29 32 30 33 91 34 31 35
REMARK SMILES IDX 90 36 32 37 33 38 34 39 84 40 35 41 89 42 83 43 85 44 36 45
REMARK SMILES IDX 88 46 82 47 81 48 37 50 69 51 49 52 68 53 50 54 53 55 67 56
REMARK SMILES IDX 86 57 51 58 52 59 66 61 87 62 54 63 38 64 39 65 47 66 40 67
REMARK SMILES IDX 41 68 45 69 48 70 42 71 43 72 46 73 44 74 70 75 71 76 79 77
REMARK SMILES IDX 72 78 73 79 77 80 80 81 74 82 75 83 78 84 76 85 55 86 56 87
REMARK SMILES IDX 64 88 57 89 58 90 62 91 65 92 59 93 60 94 63 95 61 96
REMARK H PARENT 5 13 17 20 17 21 85 49 53 60
REMARK Flexibility Score: inf
ROOT
ATOM      1  O   UNL A   1      32.307  30.791  26.444  1.00  0.00    -0.374 OA
ENDROOT
BRANCH   1   2
ATOM      2  C   UNL A   1      32.264  29.648  27.275  1.00  0.00     0.202 C 
BRANCH   2   3
ATOM      3  C   UNL A   1      32.954  28.325  26.883  1.00  0.00     0.261 C 
BRANCH   3   4
ATOM      4  O   UNL A   1      32.503  27.522  25.779  1.00  0.00    -0.462 OA
BRANCH   4   5
ATOM      5  C   UNL A   1      31.225  27.091  25.888  1.00  0.00     0.328 C 
ATOM      6  O   UNL A   1      30.767  26.566  26.899  1.00  0.00    -0.250 OA
BRANCH   5   7
ATOM      7  C   UNL A   1      30.387  27.124  24.624  1.00  0.00     0.195 C 
BRANCH   7   8
ATOM      8  C   UNL A   1      30.845  28.250  23.656  1.00  0.00     0.017 C 
ATOM      9  C   UNL A   1      30.471  27.906  22.205  1.00  0.00     0.010 C 
ATOM     10  C   UNL A   1      30.213  29.611  23.988  1.00  0.00     0.010 C 
ENDBRANCH   7   8
BRANCH   7  11
ATOM     11  N   UNL A   1      30.235  25.813  23.960  1.00  0.00    -0.337 N 
ATOM     12  C   UNL A   1      31.162  24.798  23.844  1.00  0.00     0.278 C 
ATOM     13  H   UNL A   1      29.358  25.643  23.547  1.00  0.00     0.164 HD
ATOM     14  O   UNL A   1      30.741  23.656  24.060  1.00  0.00    -0.268 OA
BRANCH  12  15
ATOM     15  C   UNL A   1      32.573  25.050  23.236  1.00  0.00     0.272 C 
ATOM     16  C   UNL A   1      33.009  24.023  22.159  1.00  0.00     0.076 C 
ATOM     17  N   UNL A   1      33.662  25.174  24.186  1.00  0.00    -0.333 N 
ATOM     18  C   UNL A   1      33.984  22.934  22.668  1.00  0.00     0.016 C 
ATOM     19  C   UNL A   1      34.121  24.006  24.898  1.00  0.00     0.186 C 
ATOM     20  H   UNL A   1      33.368  25.853  24.888  1.00  0.00     0.347 HD
ATOM     21  H   UNL A   1      34.461  25.427  23.604  1.00  0.00     0.347 HD
ATOM     22  C   UNL A   1      33.784  22.711  24.164  1.00  0.00     0.048 C 
ATOM     23  C   UNL A   1      33.636  23.922  26.349  1.00  0.00     0.065 C 
ATOM     24  C   UNL A   1      34.632  21.605  24.793  1.00  0.00     0.010 C 
ATOM     25  C   UNL A   1      34.346  22.773  27.061  1.00  0.00     0.006 C 
ATOM     26  C   UNL A   1      34.271  21.458  26.280  1.00  0.00     0.001 C 
ENDBRANCH  12  15
ENDBRANCH   7  11
ENDBRANCH   5   7
ENDBRANCH   4   5
ENDBRANCH   3   4
ENDBRANCH   2   3
ENDBRANCH   1   2
BRANCH   1  27
ATOM     27  C   UNL A   1      31.480  31.914  26.735  1.00  0.00     0.202 C 
BRANCH  27  28
ATOM     28  C   UNL A   1      32.147  33.263  26.986  1.00  0.00     0.261 C 
BRANCH  28  29
ATOM     29  O   UNL A   1      32.994  33.211  28.149  1.00  0.00    -0.460 OA
BRANCH  29  30
ATOM     30  C   UNL A   1      34.118  33.955  28.057  1.00  0.00     0.338 C 
ATOM     31  O   UNL A   1      34.197  35.174  27.955  1.00  0.00    -0.246 OA
BRANCH  30  32
ATOM     32  C   UNL A   1      35.295  33.120  28.340  1.00  0.00     0.060 A 
ATOM     33  C   UNL A   1      35.073  31.772  28.659  1.00  0.00     0.016 A 
ATOM     34  C   UNL A   1      36.579  33.661  28.376  1.00  0.00     0.016 A 
ATOM     35  C   UNL A   1      36.128  30.970  29.072  1.00  0.00     0.010 A 
ATOM     36  C   UNL A   1      37.635  32.863  28.820  1.00  0.00     0.010 A 
ATOM     37  C   UNL A   1      37.403  31.530  29.210  1.00  0.00    -0.014 A 
BRANCH  37  38
ATOM     38  C   UNL A   1      38.438  30.784  29.957  1.00  0.00     0.031 A 
ATOM     39  C   UNL A   1      38.644  31.112  31.409  1.00  0.00     0.074 A 
ATOM     40  C   UNL A   1      39.149  29.810  29.369  1.00  0.00     0.049 A 
ATOM     41  N   UNL A   1      39.530  30.647  32.251  1.00  0.00    -0.248 NA
ATOM     42  C   UNL A   1      37.717  32.096  31.991  1.00  0.00     0.031 C 
ATOM     43  C   UNL A   1      38.973  29.351  27.994  1.00  0.00     0.029 A 
ATOM     44  N   UNL A   1      40.167  29.035  29.861  1.00  0.00    -0.354 N 
ATOM     45  C   UNL A   1      39.272  31.283  33.458  1.00  0.00     0.074 A 
ATOM     46  C   UNL A   1      38.164  32.187  33.234  1.00  0.00     0.031 C 
ATOM     47  C   UNL A   1      39.868  28.379  27.745  1.00  0.00     0.029 A 
ATOM     48  C   UNL A   1      40.705  28.185  28.928  1.00  0.00     0.049 A 
ATOM     49  H   UNL A   1      40.482  29.083  30.792  1.00  0.00     0.167 HD
ATOM     50  C   UNL A   1      39.900  31.121  34.645  1.00  0.00     0.037 A 
ATOM     51  C   UNL A   1      41.776  27.372  29.016  1.00  0.00     0.037 A 
ATOM     52  C   UNL A   1      41.010  30.230  34.851  1.00  0.00     0.049 A 
ATOM     53  C   UNL A   1      42.548  27.312  30.310  1.00  0.00     0.074 A 
ATOM     54  C   UNL A   1      41.720  29.986  36.013  1.00  0.00     0.029 A 
ATOM     55  N   UNL A   1      41.582  29.443  33.861  1.00  0.00    -0.354 N 
ATOM     56  N   UNL A   1      42.301  27.910  31.451  1.00  0.00    -0.248 NA
ATOM     57  C   UNL A   1      43.755  26.475  30.323  1.00  0.00     0.031 C 
ATOM     58  C   UNL A   1      42.761  29.102  35.711  1.00  0.00     0.029 A 
ATOM     59  C   UNL A   1      42.663  28.747  34.374  1.00  0.00     0.049 A 
ATOM     60  H   UNL A   1      41.265  29.388  32.929  1.00  0.00     0.167 HD
ATOM     61  C   UNL A   1      43.304  27.503  32.322  1.00  0.00     0.074 A 
ATOM     62  C   UNL A   1      44.156  26.598  31.581  1.00  0.00     0.031 C 
ATOM     63  C   UNL A   1      43.501  27.849  33.618  1.00  0.00     0.037 A 
BRANCH  50  64
ATOM     64  C   UNL A   1      39.430  31.963  35.796  1.00  0.00     0.064 A 
ATOM     65  C   UNL A   1      38.441  31.515  36.686  1.00  0.00     0.173 A 
ATOM     66  C   UNL A   1      39.982  33.233  36.017  1.00  0.00     0.173 A 
ATOM     67  F   UNL A   1      37.869  30.314  36.512  1.00  0.00    -0.203 F 
ATOM     68  C   UNL A   1      38.000  32.323  37.733  1.00  0.00     0.198 A 
ATOM     69  C   UNL A   1      39.562  34.024  37.082  1.00  0.00     0.198 A 
ATOM     70  F   UNL A   1      40.931  33.709  35.197  1.00  0.00    -0.203 F 
ATOM     71  F   UNL A   1      37.015  31.897  38.535  1.00  0.00    -0.200 F 
ATOM     72  C   UNL A   1      38.565  33.573  37.933  1.00  0.00     0.200 A 
ATOM     73  F   UNL A   1      40.117  35.227  37.281  1.00  0.00    -0.200 F 
ATOM     74  F   UNL A   1      38.141  34.349  38.941  1.00  0.00    -0.200 F 
ENDBRANCH  50  64
BRANCH  51  75
ATOM     75  C   UNL A   1      42.199  26.574  27.837  1.00  0.00     0.064 A 
ATOM     76  C   UNL A   1      43.138  27.075  26.926  1.00  0.00     0.173 A 
ATOM     77  C   UNL A   1      41.668  25.298  27.592  1.00  0.00     0.173 A 
ATOM     78  F   UNL A   1      43.653  28.301  27.102  1.00  0.00    -0.203 F 
ATOM     79  C   UNL A   1      43.523  26.335  25.809  1.00  0.00     0.198 A 
ATOM     80  C   UNL A   1      42.077  24.547  26.491  1.00  0.00     0.198 A 
ATOM     81  F   UNL A   1      40.762  24.774  28.429  1.00  0.00    -0.203 F 
ATOM     82  F   UNL A   1      44.392  26.856  24.932  1.00  0.00    -0.200 F 
ATOM     83  C   UNL A   1      42.998  25.070  25.597  1.00  0.00     0.200 A 
ATOM     84  F   UNL A   1      41.574  23.321  26.296  1.00  0.00    -0.200 F 
ATOM     85  F   UNL A   1      43.375  24.357  24.527  1.00  0.00    -0.200 F 
ENDBRANCH  51  75
BRANCH  63  86
ATOM     86  C   UNL A   1      44.673  27.235  34.329  1.00  0.00     0.064 A 
ATOM     87  C   UNL A   1      44.581  25.979  34.945  1.00  0.00     0.173 A 
ATOM     88  C   UNL A   1      45.920  27.879  34.334  1.00  0.00     0.173 A 
ATOM     89  F   UNL A   1      43.408  25.329  34.982  1.00  0.00    -0.203 F 
ATOM     90  C   UNL A   1      45.690  25.397  35.555  1.00  0.00     0.198 A 
ATOM     91  C   UNL A   1      47.034  27.280  34.916  1.00  0.00     0.198 A 
ATOM     92  F   UNL A   1      46.063  29.079  33.752  1.00  0.00    -0.203 F 
ATOM     93  F   UNL A   1      45.571  24.213  36.170  1.00  0.00    -0.200 F 
ATOM     94  C   UNL A   1      46.918  26.043  35.529  1.00  0.00     0.200 A 
ATOM     95  F   UNL A   1      48.223  27.900  34.876  1.00  0.00    -0.200 F 
ATOM     96  F   UNL A   1      47.988  25.474  36.100  1.00  0.00    -0.200 F 
ENDBRANCH  63  86
ENDBRANCH  37  38
ENDBRANCH  30  32
ENDBRANCH  29  30
ENDBRANCH  28  29
ENDBRANCH  27  28
ENDBRANCH   1  27
TORSDOF 17
ENDMDL
MODEL 2
REMARK VINA RESULT:     -11.1      4.907      8.735
REMARK SMILES CC(C)[C@@H](NC(=O)[C@@H]1CC[C@H]2CCCC[C@@H]2[NH2+]1)C(=O)OCCOCCOC(=O)c1ccc(-c2c3nc(c(-c4c(F)c(F)c(F)c(F)c4F)c4ccc([nH]4)c(-c4c(F)c(F)c(F)c(F)c4F)c4nc(c(-c5c(F)c(F)c(F)c(F)c5F)c5ccc2[nH]5)C=C4)C=C3)cc1
REMARK SMILES IDX 23 1 22 2 21 3 20 4 18 5 19 6 4 7 2 8 1 9 3 10 5 11 6 12
REMARK SMILES IDX 7 14 8 15 9 16 17 17 10 18 16 19 11 22 15 23 12 24 14 25
REMARK SMILES IDX 13 26 24 27 25 28 26 29 27 30 28 31 29 32 30 33 91 34 31 35
REMARK SMILES IDX 90 36 32 37 33 38 34 39 84 40 35 41 89 42 83 43 85 44 36 45
REMARK SMILES IDX 88 46 82 47 81 48 37 50 69 51 49 52 68 53 50 54 53 55 67 56
REMARK SMILES IDX 86 57 51 58 52 59 66 61 87 62 54 63 38 64 39 65 47 66 40 67
REMARK SMILES IDX 41 68 45 69 48 70 42 71 43 72 46 73 44 74 70 75 71 76 79 77
REMARK SMILES IDX 72 78 73 79 77 80 80 81 74 82 75 83 78 84 76 85 55 86 56 87
REMARK SMILES IDX 64 88 57 89 58 90 62 91 65 92 59 93 60 94 63 95 61 96
REMARK H PARENT 5 13 17 20 17 21 85 49 53 60
REMARK Flexibility Score: inf
ROOT
ATOM      1  O   UNL A   1      38.533  22.480  26.049  1.00  0.00    -0.374 OA
ENDROOT
BRANCH   1   2
ATOM      2  C   UNL A   1      37.863  23.713  25.875  1.00  0.00     0.202 C 
BRANCH   2   3
ATOM      3  C   UNL A   1      36.343  23.855  26.089  1.00  0.00     0.261 C 
BRANCH   3   4
ATOM      4  O   UNL A   1      35.483  24.456  25.104  1.00  0.00    -0.462 OA
BRANCH   4   5
ATOM      5  C   UNL A   1      34.876  23.571  24.279  1.00  0.00     0.328 C 
ATOM      6  O   UNL A   1      35.283  23.299  23.153  1.00  0.00    -0.250 OA
BRANCH   5   7
ATOM      7  C   UNL A   1      33.537  23.025  24.736  1.00  0.00     0.195 C 
BRANCH   7   8
ATOM      8  C   UNL A   1      33.574  21.483  24.923  1.00  0.00     0.017 C 
ATOM      9  C   UNL A   1      33.669  21.116  26.413  1.00  0.00     0.010 C 
ATOM     10  C   UNL A   1      32.330  20.785  24.351  1.00  0.00     0.010 C 
ENDBRANCH   7   8
BRANCH   7  11
ATOM     11  N   UNL A   1      32.952  23.736  25.892  1.00  0.00    -0.337 N 
ATOM     12  C   UNL A   1      31.646  24.137  26.081  1.00  0.00     0.278 C 
ATOM     13  H   UNL A   1      33.577  23.951  26.622  1.00  0.00     0.164 HD
ATOM     14  O   UNL A   1      31.172  23.920  27.201  1.00  0.00    -0.268 OA
BRANCH  12  15
ATOM     15  C   UNL A   1      30.910  25.030  25.039  1.00  0.00     0.272 C 
ATOM     16  C   UNL A   1      31.650  25.195  23.687  1.00  0.00     0.076 C 
ATOM     17  N   UNL A   1      30.529  26.354  25.493  1.00  0.00    -0.333 N 
ATOM     18  C   UNL A   1      32.414  26.533  23.533  1.00  0.00     0.016 C 
ATOM     19  C   UNL A   1      31.548  27.352  25.706  1.00  0.00     0.186 C 
ATOM     20  H   UNL A   1      30.041  26.235  26.380  1.00  0.00     0.347 HD
ATOM     21  H   UNL A   1      29.987  26.729  24.713  1.00  0.00     0.347 HD
ATOM     22  C   UNL A   1      32.816  27.066  24.905  1.00  0.00     0.048 C 
ATOM     23  C   UNL A   1      31.905  27.585  27.177  1.00  0.00     0.065 C 
ATOM     24  C   UNL A   1      33.646  28.350  24.905  1.00  0.00     0.010 C 
ATOM     25  C   UNL A   1      32.826  28.797  27.296  1.00  0.00     0.006 C 
ATOM     26  C   UNL A   1      34.026  28.721  26.348  1.00  0.00     0.001 C 
ENDBRANCH  12  15
ENDBRANCH   7  11
ENDBRANCH   5   7
ENDBRANCH   4   5
ENDBRANCH   3   4
ENDBRANCH   2   3
ENDBRANCH   1   2
BRANCH   1  27
ATOM     27  C   UNL A   1      38.157  21.350  25.267  1.00  0.00     0.202 C 
BRANCH  27  28
ATOM     28  C   UNL A   1      39.029  20.100  25.328  1.00  0.00     0.261 C 
BRANCH  28  29
ATOM     29  O   UNL A   1      39.893  20.129  26.480  1.00  0.00    -0.460 OA
BRANCH  29  30
ATOM     30  C   UNL A   1      41.181  19.816  26.222  1.00  0.00     0.338 C 
ATOM     31  O   UNL A   1      41.603  18.832  25.626  1.00  0.00    -0.246 OA
BRANCH  30  32
ATOM     32  C   UNL A   1      42.049  20.958  26.550  1.00  0.00     0.060 A 
ATOM     33  C   UNL A   1      42.218  21.277  27.904  1.00  0.00     0.016 A 
ATOM     34  C   UNL A   1      42.616  21.749  25.552  1.00  0.00     0.016 A 
ATOM     35  C   UNL A   1      42.909  22.425  28.270  1.00  0.00     0.010 A 
ATOM     36  C   UNL A   1      43.284  22.920  25.918  1.00  0.00     0.010 A 
ATOM     37  C   UNL A   1      43.393  23.281  27.274  1.00  0.00    -0.014 A 
BRANCH  37  38
ATOM     38  C   UNL A   1      43.822  24.646  27.647  1.00  0.00     0.031 A 
ATOM     39  C   UNL A   1      42.764  25.662  27.970  1.00  0.00     0.074 A 
ATOM     40  C   UNL A   1      45.124  24.961  27.736  1.00  0.00     0.049 A 
ATOM     41  N   UNL A   1      42.889  26.932  28.255  1.00  0.00    -0.248 NA
ATOM     42  C   UNL A   1      41.376  25.175  27.979  1.00  0.00     0.031 C 
ATOM     43  C   UNL A   1      46.232  24.034  27.529  1.00  0.00     0.029 A 
ATOM     44  N   UNL A   1      45.728  26.159  28.021  1.00  0.00    -0.354 N 
ATOM     45  C   UNL A   1      41.598  27.396  28.472  1.00  0.00     0.074 A 
ATOM     46  C   UNL A   1      40.703  26.280  28.261  1.00  0.00     0.031 C 
ATOM     47  C   UNL A   1      47.389  24.702  27.680  1.00  0.00     0.029 A 
ATOM     48  C   UNL A   1      47.097  26.110  27.947  1.00  0.00     0.049 A 
ATOM     49  H   UNL A   1      45.229  26.974  28.255  1.00  0.00     0.167 HD
ATOM     50  C   UNL A   1      41.200  28.642  28.822  1.00  0.00     0.037 A 
ATOM     51  C   UNL A   1      48.004  27.101  28.048  1.00  0.00     0.037 A 
ATOM     52  C   UNL A   1      42.099  29.747  29.015  1.00  0.00     0.049 A 
ATOM     53  C   UNL A   1      47.526  28.509  28.300  1.00  0.00     0.074 A 
ATOM     54  C   UNL A   1      41.803  31.050  29.372  1.00  0.00     0.029 A 
ATOM     55  N   UNL A   1      43.476  29.680  28.852  1.00  0.00    -0.354 N 
ATOM     56  N   UNL A   1      46.308  28.946  28.510  1.00  0.00    -0.248 NA
ATOM     57  C   UNL A   1      48.550  29.563  28.316  1.00  0.00     0.031 C 
ATOM     58  C   UNL A   1      42.993  31.786  29.361  1.00  0.00     0.029 A 
ATOM     59  C   UNL A   1      44.039  30.928  29.057  1.00  0.00     0.049 A 
ATOM     60  H   UNL A   1      43.979  28.864  28.622  1.00  0.00     0.167 HD
ATOM     61  C   UNL A   1      46.421  30.317  28.706  1.00  0.00     0.074 A 
ATOM     62  C   UNL A   1      47.828  30.637  28.604  1.00  0.00     0.031 C 
ATOM     63  C   UNL A   1      45.445  31.228  28.949  1.00  0.00     0.037 A 
BRANCH  50  64
ATOM     64  C   UNL A   1      39.725  28.879  28.969  1.00  0.00     0.064 A 
ATOM     65  C   UNL A   1      38.933  29.317  27.896  1.00  0.00     0.173 A 
ATOM     66  C   UNL A   1      39.092  28.658  30.202  1.00  0.00     0.173 A 
ATOM     67  F   UNL A   1      39.491  29.558  26.700  1.00  0.00    -0.203 F 
ATOM     68  C   UNL A   1      37.570  29.556  28.061  1.00  0.00     0.198 A 
ATOM     69  C   UNL A   1      37.725  28.868  30.355  1.00  0.00     0.198 A 
ATOM     70  F   UNL A   1      39.802  28.239  31.260  1.00  0.00    -0.203 F 
ATOM     71  F   UNL A   1      36.846  30.028  27.037  1.00  0.00    -0.200 F 
ATOM     72  C   UNL A   1      36.967  29.325  29.289  1.00  0.00     0.200 A 
ATOM     73  F   UNL A   1      37.141  28.633  31.538  1.00  0.00    -0.200 F 
ATOM     74  F   UNL A   1      35.656  29.555  29.446  1.00  0.00    -0.200 F 
ENDBRANCH  50  64
BRANCH  51  75
ATOM     75  C   UNL A   1      49.449  26.803  27.880  1.00  0.00     0.064 A 
ATOM     76  C   UNL A   1      50.042  26.800  26.610  1.00  0.00     0.173 A 
ATOM     77  C   UNL A   1      50.266  26.509  28.983  1.00  0.00     0.173 A 
ATOM     78  F   UNL A   1      49.297  27.048  25.524  1.00  0.00    -0.203 F 
ATOM     79  C   UNL A   1      51.394  26.504  26.449  1.00  0.00     0.198 A 
ATOM     80  C   UNL A   1      51.624  26.242  28.822  1.00  0.00     0.198 A 
ATOM     81  F   UNL A   1      49.747  26.492  30.219  1.00  0.00    -0.203 F 
ATOM     82  F   UNL A   1      51.927  26.467  25.220  1.00  0.00    -0.200 F 
ATOM     83  C   UNL A   1      52.185  26.232  27.555  1.00  0.00     0.200 A 
ATOM     84  F   UNL A   1      52.386  25.991  29.896  1.00  0.00    -0.200 F 
ATOM     85  F   UNL A   1      53.487  25.954  27.399  1.00  0.00    -0.200 F 
ENDBRANCH  51  75
BRANCH  63  86
ATOM     86  C   UNL A   1      45.865  32.657  29.140  1.00  0.00     0.064 A 
ATOM     87  C   UNL A   1      46.271  33.141  30.391  1.00  0.00     0.173 A 
ATOM     88  C   UNL A   1      45.925  33.534  28.045  1.00  0.00     0.173 A 
ATOM     89  F   UNL A   1      46.218  32.349  31.472  1.00  0.00    -0.203 F 
ATOM     90  C   UNL A   1      46.709  34.455  30.543  1.00  0.00     0.198 A 
ATOM     91  C   UNL A   1      46.393  34.836  28.194  1.00  0.00     0.198 A 
ATOM     92  F   UNL A   1      45.554  33.118  26.825  1.00  0.00    -0.203 F 
ATOM     93  F   UNL A   1      47.057  34.908  31.755  1.00  0.00    -0.200 F 
ATOM     94  C   UNL A   1      46.779  35.297  29.443  1.00  0.00     0.200 A 
ATOM     95  F   UNL A   1      46.476  35.643  27.126  1.00  0.00    -0.200 F 
ATOM     96  F   UNL A   1      47.217  36.556  29.587  1.00  0.00    -0.200 F 
ENDBRANCH  63  86
ENDBRANCH  37  38
ENDBRANCH  30  32
ENDBRANCH  29  30
ENDBRANCH  28  29
ENDBRANCH  27  28
ENDBRANCH   1  27
TORSDOF 17
ENDMDL
MODEL 3
REMARK VINA RESULT:     -11.0      3.255      8.580
REMARK SMILES CC(C)[C@@H](NC(=O)[C@@H]1CC[C@H]2CCCC[C@@H]2[NH2+]1)C(=O)OCCOCCOC(=O)c1ccc(-c2c3nc(c(-c4c(F)c(F)c(F)c(F)c4F)c4ccc([nH]4)c(-c4c(F)c(F)c(F)c(F)c4F)c4nc(c(-c5c(F)c(F)c(F)c(F)c5F)c5ccc2[nH]5)C=C4)C=C3)cc1
REMARK SMILES IDX 23 1 22 2 21 3 20 4 18 5 19 6 4 7 2 8 1 9 3 10 5 11 6 12
REMARK SMILES IDX 7 14 8 15 9 16 17 17 10 18 16 19 11 22 15 23 12 24 14 25
REMARK SMILES IDX 13 26 24 27 25 28 26 29 27 30 28 31 29 32 30 33 91 34 31 35
REMARK SMILES IDX 90 36 32 37 33 38 34 39 84 40 35 41 89 42 83 43 85 44 36 45
REMARK SMILES IDX 88 46 82 47 81 48 37 50 69 51 49 52 68 53 50 54 53 55 67 56
REMARK SMILES IDX 86 57 51 58 52 59 66 61 87 62 54 63 38 64 39 65 47 66 40 67
REMARK SMILES IDX 41 68 45 69 48 70 42 71 43 72 46 73 44 74 70 75 71 76 79 77
REMARK SMILES IDX 72 78 73 79 77 80 80 81 74 82 75 83 78 84 76 85 55 86 56 87
REMARK SMILES IDX 64 88 57 89 58 90 62 91 65 92 59 93 60 94 63 95 61 96
REMARK H PARENT 5 13 17 20 17 21 85 49 53 60
REMARK Flexibility Score: inf
ROOT
ATOM      1  O   UNL A   1      40.499  21.597  26.460  1.00  0.00    -0.374 OA
ENDROOT
BRANCH   1   2
ATOM      2  C   UNL A   1      39.301  21.055  25.940  1.00  0.00     0.202 C 
BRANCH   2   3
ATOM      3  C   UNL A   1      38.156  21.948  25.423  1.00  0.00     0.261 C 
BRANCH   3   4
ATOM      4  O   UNL A   1      36.780  21.527  25.454  1.00  0.00    -0.462 OA
BRANCH   4   5
ATOM      5  C   UNL A   1      35.957  22.251  24.661  1.00  0.00     0.328 C 
ATOM      6  O   UNL A   1      36.351  22.987  23.761  1.00  0.00    -0.250 OA
BRANCH   5   7
ATOM      7  C   UNL A   1      34.487  22.258  25.035  1.00  0.00     0.195 C 
BRANCH   7   8
ATOM      8  C   UNL A   1      34.120  21.065  25.960  1.00  0.00     0.017 C 
ATOM      9  C   UNL A   1      33.764  21.559  27.372  1.00  0.00     0.010 C 
ATOM     10  C   UNL A   1      32.924  20.254  25.437  1.00  0.00     0.010 C 
ENDBRANCH   7   8
BRANCH   7  11
ATOM     11  N   UNL A   1      33.993  23.556  25.538  1.00  0.00    -0.337 N 
ATOM     12  C   UNL A   1      32.786  24.172  25.281  1.00  0.00     0.278 C 
ATOM     13  H   UNL A   1      34.606  24.044  26.133  1.00  0.00     0.164 HD
ATOM     14  O   UNL A   1      32.215  24.668  26.258  1.00  0.00    -0.268 OA
BRANCH  12  15
ATOM     15  C   UNL A   1      32.305  24.446  23.825  1.00  0.00     0.272 C 
ATOM     16  C   UNL A   1      33.441  24.714  22.805  1.00  0.00     0.076 C 
ATOM     17  N   UNL A   1      31.320  25.499  23.668  1.00  0.00    -0.333 N 
ATOM     18  C   UNL A   1      33.662  26.209  22.469  1.00  0.00     0.016 C 
ATOM     19  C   UNL A   1      31.716  26.874  23.852  1.00  0.00     0.186 C 
ATOM     20  H   UNL A   1      30.576  25.313  24.340  1.00  0.00     0.347 HD
ATOM     21  H   UNL A   1      31.073  25.452  22.680  1.00  0.00     0.347 HD
ATOM     22  C   UNL A   1      33.213  27.080  23.639  1.00  0.00     0.048 C 
ATOM     23  C   UNL A   1      31.294  27.478  25.195  1.00  0.00     0.065 C 
ATOM     24  C   UNL A   1      33.441  28.583  23.478  1.00  0.00     0.010 C 
ATOM     25  C   UNL A   1      31.573  28.979  25.193  1.00  0.00     0.006 C 
ATOM     26  C   UNL A   1      33.003  29.313  24.758  1.00  0.00     0.001 C 
ENDBRANCH  12  15
ENDBRANCH   7  11
ENDBRANCH   5   7
ENDBRANCH   4   5
ENDBRANCH   3   4
ENDBRANCH   2   3
ENDBRANCH   1   2
BRANCH   1  27
ATOM     27  C   UNL A   1      41.746  20.965  26.183  1.00  0.00     0.202 C 
BRANCH  27  28
ATOM     28  C   UNL A   1      42.924  21.835  25.755  1.00  0.00     0.261 C 
BRANCH  28  29
ATOM     29  O   UNL A   1      42.470  23.018  25.072  1.00  0.00    -0.460 OA
BRANCH  29  30
ATOM     30  C   UNL A   1      43.264  24.099  25.235  1.00  0.00     0.338 C 
ATOM     31  O   UNL A   1      44.321  24.338  24.663  1.00  0.00    -0.246 OA
BRANCH  30  32
ATOM     32  C   UNL A   1      42.568  25.114  26.040  1.00  0.00     0.060 A 
ATOM     33  C   UNL A   1      43.178  26.370  26.169  1.00  0.00     0.016 A 
ATOM     34  C   UNL A   1      41.389  24.818  26.723  1.00  0.00     0.016 A 
ATOM     35  C   UNL A   1      42.642  27.321  27.028  1.00  0.00     0.010 A 
ATOM     36  C   UNL A   1      40.867  25.763  27.609  1.00  0.00     0.010 A 
ATOM     37  C   UNL A   1      41.518  26.997  27.795  1.00  0.00    -0.014 A 
BRANCH  37  38
ATOM     38  C   UNL A   1      41.153  27.864  28.935  1.00  0.00     0.031 A 
ATOM     39  C   UNL A   1      41.973  27.774  30.191  1.00  0.00     0.074 A 
ATOM     40  C   UNL A   1      40.141  28.742  28.841  1.00  0.00     0.049 A 
ATOM     41  N   UNL A   1      41.808  28.377  31.339  1.00  0.00    -0.248 NA
ATOM     42  C   UNL A   1      43.143  26.883  30.139  1.00  0.00     0.031 C 
ATOM     43  C   UNL A   1      39.336  28.975  27.646  1.00  0.00     0.029 A 
ATOM     44  N   UNL A   1      39.620  29.597  29.777  1.00  0.00    -0.354 N 
ATOM     45  C   UNL A   1      42.849  27.938  32.147  1.00  0.00     0.074 A 
ATOM     46  C   UNL A   1      43.624  26.997  31.368  1.00  0.00     0.031 C 
ATOM     47  C   UNL A   1      38.407  29.905  27.925  1.00  0.00     0.029 A 
ATOM     48  C   UNL A   1      38.527  30.295  29.330  1.00  0.00     0.049 A 
ATOM     49  H   UNL A   1      39.993  29.701  30.682  1.00  0.00     0.167 HD
ATOM     50  C   UNL A   1      43.132  28.293  33.422  1.00  0.00     0.037 A 
ATOM     51  C   UNL A   1      37.700  31.124  29.995  1.00  0.00     0.037 A 
ATOM     52  C   UNL A   1      42.344  29.219  34.190  1.00  0.00     0.049 A 
ATOM     53  C   UNL A   1      37.954  31.398  31.456  1.00  0.00     0.074 A 
ATOM     54  C   UNL A   1      42.542  29.652  35.489  1.00  0.00     0.029 A 
ATOM     55  N   UNL A   1      41.194  29.846  33.730  1.00  0.00    -0.354 N 
ATOM     56  N   UNL A   1      38.939  30.986  32.217  1.00  0.00    -0.248 NA
ATOM     57  C   UNL A   1      36.972  32.241  32.152  1.00  0.00     0.031 C 
ATOM     58  C   UNL A   1      41.476  30.489  35.836  1.00  0.00     0.029 A 
ATOM     59  C   UNL A   1      40.647  30.627  34.733  1.00  0.00     0.049 A 
ATOM     60  H   UNL A   1      40.822  29.748  32.823  1.00  0.00     0.167 HD
ATOM     61  C   UNL A   1      38.711  31.537  33.472  1.00  0.00     0.074 A 
ATOM     62  C   UNL A   1      37.500  32.324  33.366  1.00  0.00     0.031 C 
ATOM     63  C   UNL A   1      39.438  31.404  34.608  1.00  0.00     0.037 A 
BRANCH  50  64
ATOM     64  C   UNL A   1      44.315  27.639  34.074  1.00  0.00     0.064 A 
ATOM     65  C   UNL A   1      45.579  28.249  34.099  1.00  0.00     0.173 A 
ATOM     66  C   UNL A   1      44.181  26.387  34.692  1.00  0.00     0.173 A 
ATOM     67  F   UNL A   1      45.766  29.439  33.509  1.00  0.00    -0.203 F 
ATOM     68  C   UNL A   1      46.671  27.613  34.687  1.00  0.00     0.198 A 
ATOM     69  C   UNL A   1      45.266  25.769  35.306  1.00  0.00     0.198 A 
ATOM     70  F   UNL A   1      42.994  25.760  34.699  1.00  0.00    -0.203 F 
ATOM     71  F   UNL A   1      47.880  28.189  34.648  1.00  0.00    -0.200 F 
ATOM     72  C   UNL A   1      46.511  26.377  35.296  1.00  0.00     0.200 A 
ATOM     73  F   UNL A   1      45.108  24.580  35.905  1.00  0.00    -0.200 F 
ATOM     74  F   UNL A   1      47.562  25.767  35.863  1.00  0.00    -0.200 F 
ENDBRANCH  50  64
BRANCH  51  75
ATOM     75  C   UNL A   1      36.538  31.730  29.295  1.00  0.00     0.064 A 
ATOM     76  C   UNL A   1      36.497  33.103  29.019  1.00  0.00     0.173 A 
ATOM     77  C   UNL A   1      35.442  30.950  28.893  1.00  0.00     0.173 A 
ATOM     78  F   UNL A   1      37.508  33.893  29.408  1.00  0.00    -0.203 F 
ATOM     79  C   UNL A   1      35.400  33.675  28.378  1.00  0.00     0.198 A 
ATOM     80  C   UNL A   1      34.359  31.519  28.226  1.00  0.00     0.198 A 
ATOM     81  F   UNL A   1      35.428  29.632  29.138  1.00  0.00    -0.203 F 
ATOM     82  F   UNL A   1      35.368  34.998  28.164  1.00  0.00    -0.200 F 
ATOM     83  C   UNL A   1      34.336  32.882  27.976  1.00  0.00     0.200 A 
ATOM     84  F   UNL A   1      33.339  30.747  27.830  1.00  0.00    -0.200 F 
ATOM     85  F   UNL A   1      33.285  33.433  27.354  1.00  0.00    -0.200 F 
ENDBRANCH  51  75
BRANCH  63  86
ATOM     86  C   UNL A   1      38.959  32.137  35.828  1.00  0.00     0.064 A 
ATOM     87  C   UNL A   1      38.204  31.496  36.820  1.00  0.00     0.173 A 
ATOM     88  C   UNL A   1      39.316  33.479  36.038  1.00  0.00     0.173 A 
ATOM     89  F   UNL A   1      37.823  30.220  36.660  1.00  0.00    -0.203 F 
ATOM     90  C   UNL A   1      37.811  32.174  37.972  1.00  0.00     0.198 A 
ATOM     91  C   UNL A   1      38.949  34.144  37.205  1.00  0.00     0.198 A 
ATOM     92  F   UNL A   1      40.043  34.136  35.123  1.00  0.00    -0.203 F 
ATOM     93  F   UNL A   1      37.059  31.553  38.890  1.00  0.00    -0.200 F 
ATOM     94  C   UNL A   1      38.193  33.493  38.168  1.00  0.00     0.200 A 
ATOM     95  F   UNL A   1      39.334  35.413  37.399  1.00  0.00    -0.200 F 
ATOM     96  F   UNL A   1      37.830  34.139  39.285  1.00  0.00    -0.200 F 
ENDBRANCH  63  86
ENDBRANCH  37  38
ENDBRANCH  30  32
ENDBRANCH  29  30
ENDBRANCH  28  29
ENDBRANCH  27  28
ENDBRANCH   1  27
TORSDOF 17
ENDMDL
