MODEL 1
REMARK VINA RESULT:     -10.4      0.000      0.000
REMARK SMILES C[C@H](CC(=O)OCCOCCOC(=O)c1ccc(-c2c3nc(c(-c4c(F)c(F)c(F)c(F)c4F)c4ccc([nH]4)c(-c4c(F)c(F)c(F)c(F)c4F)c4nc(c(-c5c(F)c(F)c(F)c(F)c5F)c5ccc2[nH]5)C=C4)C=C3)cc1)NC(=O)CS[C@H]1CCS(=O)(=O)C1
REMARK SMILES IDX 7 1 6 2 4 3 5 4 3 5 2 6 1 7 78 8 79 9 80 11 81 12 82 13
REMARK SMILES IDX 83 14 84 15 89 16 85 17 86 18 87 19 88 20 8 21 9 22 10 23
REMARK SMILES IDX 11 24 12 25 13 26 14 27 15 28 16 29 77 30 17 31 76 32 18 33
REMARK SMILES IDX 19 34 20 35 70 36 21 37 75 38 69 39 71 40 22 41 74 42 68 43
REMARK SMILES IDX 67 44 23 46 55 47 35 48 54 49 36 50 39 51 53 52 72 53 37 54
REMARK SMILES IDX 38 55 52 57 73 58 40 59 24 60 25 61 33 62 26 63 27 64 31 65
REMARK SMILES IDX 34 66 28 67 29 68 32 69 30 70 56 71 57 72 65 73 58 74 59 75
REMARK SMILES IDX 63 76 66 77 60 78 61 79 64 80 62 81 41 82 42 83 50 84 43 85
REMARK SMILES IDX 44 86 48 87 51 88 45 89 46 90 49 91 47 92
REMARK H PARENT 78 10 71 45 39 56
REMARK Flexibility Score: inf
ROOT
ATOM      1  C   UNL A   1      39.718  21.833  26.058  1.00  0.00     0.261 C 
ENDROOT
BRANCH   1   2
ATOM      2  O   UNL A   1      38.288  21.992  26.083  1.00  0.00    -0.463 OA
BRANCH   2   3
ATOM      3  C   UNL A   1      37.876  23.273  26.127  1.00  0.00     0.307 C 
ATOM      4  O   UNL A   1      38.619  24.230  26.312  1.00  0.00    -0.252 OA
BRANCH   3   5
ATOM      5  C   UNL A   1      36.419  23.472  25.794  1.00  0.00     0.147 C 
BRANCH   5   6
ATOM      6  C   UNL A   1      35.822  23.575  24.375  1.00  0.00     0.090 C 
ATOM      7  C   UNL A   1      36.583  22.910  23.238  1.00  0.00     0.031 C 
BRANCH   6   8
ATOM      8  N   UNL A   1      34.463  22.995  24.426  1.00  0.00    -0.352 N 
ATOM      9  C   UNL A   1      33.324  23.158  23.697  1.00  0.00     0.230 C 
ATOM     10  H   UNL A   1      34.356  22.340  25.154  1.00  0.00     0.163 HD
ATOM     11  O   UNL A   1      32.305  22.624  24.146  1.00  0.00    -0.274 OA
BRANCH   9  12
ATOM     12  C   UNL A   1      33.309  23.902  22.369  1.00  0.00     0.169 C 
BRANCH  12  13
ATOM     13  S   UNL A   1      32.319  25.451  22.458  1.00  0.00    -0.148 SA
BRANCH  13  14
ATOM     14  C   UNL A   1      32.466  25.892  24.230  1.00  0.00     0.063 C 
ATOM     15  C   UNL A   1      33.680  26.795  24.490  1.00  0.00     0.031 C 
ATOM     16  C   UNL A   1      31.262  26.687  24.682  1.00  0.00     0.151 C 
ATOM     17  C   UNL A   1      33.503  27.349  25.904  1.00  0.00     0.138 C 
ATOM     18  S   UNL A   1      31.763  27.682  26.053  1.00  0.00     0.151 S 
ATOM     19  O   UNL A   1      31.252  27.052  27.258  1.00  0.00    -0.229 OA
ATOM     20  O   UNL A   1      31.498  29.060  25.724  1.00  0.00    -0.229 OA
ENDBRANCH  13  14
ENDBRANCH  12  13
ENDBRANCH   9  12
ENDBRANCH   6   8
ENDBRANCH   5   6
ENDBRANCH   3   5
ENDBRANCH   2   3
ENDBRANCH   1   2
BRANCH   1  21
ATOM     21  C   UNL A   1      40.066  20.351  26.132  1.00  0.00     0.202 C 
BRANCH  21  22
ATOM     22  O   UNL A   1      41.382  20.014  25.703  1.00  0.00    -0.374 OA
BRANCH  22  23
ATOM     23  C   UNL A   1      42.478  20.688  26.329  1.00  0.00     0.202 C 
BRANCH  23  24
ATOM     24  C   UNL A   1      43.434  21.429  25.381  1.00  0.00     0.261 C 
BRANCH  24  25
ATOM     25  O   UNL A   1      42.883  22.699  24.965  1.00  0.00    -0.460 OA
BRANCH  25  26
ATOM     26  C   UNL A   1      43.699  23.776  25.082  1.00  0.00     0.338 C 
ATOM     27  O   UNL A   1      44.625  24.086  24.354  1.00  0.00    -0.246 OA
BRANCH  26  28
ATOM     28  C   UNL A   1      43.123  24.695  26.090  1.00  0.00     0.060 A 
ATOM     29  C   UNL A   1      43.687  25.973  26.207  1.00  0.00     0.016 A 
ATOM     30  C   UNL A   1      42.046  24.325  26.899  1.00  0.00     0.016 A 
ATOM     31  C   UNL A   1      43.175  26.890  27.124  1.00  0.00     0.010 A 
ATOM     32  C   UNL A   1      41.550  25.237  27.838  1.00  0.00     0.010 A 
ATOM     33  C   UNL A   1      42.118  26.519  27.964  1.00  0.00    -0.014 A 
BRANCH  33  34
ATOM     34  C   UNL A   1      41.708  27.423  29.066  1.00  0.00     0.031 A 
ATOM     35  C   UNL A   1      42.480  27.392  30.355  1.00  0.00     0.074 A 
ATOM     36  C   UNL A   1      40.681  28.279  28.918  1.00  0.00     0.049 A 
ATOM     37  N   UNL A   1      42.269  28.049  31.467  1.00  0.00    -0.248 NA
ATOM     38  C   UNL A   1      43.650  26.502  30.392  1.00  0.00     0.031 C 
ATOM     39  C   UNL A   1      39.892  28.450  27.701  1.00  0.00     0.029 A 
ATOM     40  N   UNL A   1      40.123  29.163  29.810  1.00  0.00    -0.354 N 
ATOM     41  C   UNL A   1      43.276  27.649  32.336  1.00  0.00     0.074 A 
ATOM     42  C   UNL A   1      44.081  26.675  31.633  1.00  0.00     0.031 C 
ATOM     43  C   UNL A   1      38.937  29.368  27.928  1.00  0.00     0.029 A 
ATOM     44  C   UNL A   1      39.023  29.821  29.316  1.00  0.00     0.049 A 
ATOM     45  H   UNL A   1      40.477  29.311  30.716  1.00  0.00     0.167 HD
ATOM     46  C   UNL A   1      43.507  28.062  33.605  1.00  0.00     0.037 A 
ATOM     47  C   UNL A   1      38.167  30.666  29.926  1.00  0.00     0.037 A 
ATOM     48  C   UNL A   1      42.704  29.030  34.304  1.00  0.00     0.049 A 
ATOM     49  C   UNL A   1      38.386  31.028  31.374  1.00  0.00     0.074 A 
ATOM     50  C   UNL A   1      42.879  29.533  35.581  1.00  0.00     0.029 A 
ATOM     51  N   UNL A   1      41.564  29.629  33.792  1.00  0.00    -0.354 N 
ATOM     52  N   UNL A   1      39.356  30.671  32.180  1.00  0.00    -0.248 NA
ATOM     53  C   UNL A   1      37.386  31.908  31.998  1.00  0.00     0.031 C 
ATOM     54  C   UNL A   1      41.809  30.387  35.866  1.00  0.00     0.029 A 
ATOM     55  C   UNL A   1      40.999  30.463  34.744  1.00  0.00     0.049 A 
ATOM     56  H   UNL A   1      41.208  29.485  32.885  1.00  0.00     0.167 HD
ATOM     57  C   UNL A   1      39.095  31.295  33.394  1.00  0.00     0.074 A 
ATOM     58  C   UNL A   1      37.887  32.070  33.215  1.00  0.00     0.031 C 
ATOM     59  C   UNL A   1      39.793  31.228  34.556  1.00  0.00     0.037 A 
BRANCH  46  60
ATOM     60  C   UNL A   1      44.660  27.440  34.338  1.00  0.00     0.064 A 
ATOM     61  C   UNL A   1      44.503  26.293  35.128  1.00  0.00     0.173 A 
ATOM     62  C   UNL A   1      45.949  27.978  34.209  1.00  0.00     0.173 A 
ATOM     63  F   UNL A   1      43.287  25.748  35.296  1.00  0.00    -0.203 F 
ATOM     64  C   UNL A   1      45.590  25.719  35.781  1.00  0.00     0.198 A 
ATOM     65  C   UNL A   1      47.040  27.384  34.838  1.00  0.00     0.198 A 
ATOM     66  F   UNL A   1      46.154  29.074  33.463  1.00  0.00    -0.203 F 
ATOM     67  F   UNL A   1      45.410  24.648  36.566  1.00  0.00    -0.200 F 
ATOM     68  C   UNL A   1      46.859  26.260  35.629  1.00  0.00     0.200 A 
ATOM     69  F   UNL A   1      48.266  27.901  34.680  1.00  0.00    -0.200 F 
ATOM     70  F   UNL A   1      47.906  25.701  36.249  1.00  0.00    -0.200 F 
ENDBRANCH  46  60
BRANCH  47  71
ATOM     71  C   UNL A   1      36.992  31.198  29.184  1.00  0.00     0.064 A 
ATOM     72  C   UNL A   1      36.930  32.540  28.787  1.00  0.00     0.173 A 
ATOM     73  C   UNL A   1      35.889  30.380  28.891  1.00  0.00     0.173 A 
ATOM     74  F   UNL A   1      37.943  33.370  29.072  1.00  0.00    -0.203 F 
ATOM     75  C   UNL A   1      35.804  33.049  28.139  1.00  0.00     0.198 A 
ATOM     76  C   UNL A   1      34.778  30.883  28.217  1.00  0.00     0.198 A 
ATOM     77  F   UNL A   1      35.892  29.090  29.259  1.00  0.00    -0.203 F 
ATOM     78  F   UNL A   1      35.750  34.348  27.817  1.00  0.00    -0.200 F 
ATOM     79  C   UNL A   1      34.732  32.218  27.849  1.00  0.00     0.200 A 
ATOM     80  F   UNL A   1      33.749  30.073  27.932  1.00  0.00    -0.200 F 
ATOM     81  F   UNL A   1      33.651  32.707  27.227  1.00  0.00    -0.200 F 
ENDBRANCH  47  71
BRANCH  59  82
ATOM     82  C   UNL A   1      39.279  32.022  35.724  1.00  0.00     0.064 A 
ATOM     83  C   UNL A   1      38.327  31.494  36.608  1.00  0.00     0.173 A 
ATOM     84  C   UNL A   1      39.788  33.301  35.997  1.00  0.00     0.173 A 
ATOM     85  F   UNL A   1      37.799  30.280  36.385  1.00  0.00    -0.203 F 
ATOM     86  C   UNL A   1      37.889  32.223  37.711  1.00  0.00     0.198 A 
ATOM     87  C   UNL A   1      39.371  34.016  37.118  1.00  0.00     0.198 A 
ATOM     88  F   UNL A   1      40.707  33.851  35.189  1.00  0.00    -0.203 F 
ATOM     89  F   UNL A   1      36.948  31.715  38.518  1.00  0.00    -0.200 F 
ATOM     90  C   UNL A   1      38.418  33.479  37.969  1.00  0.00     0.200 A 
ATOM     91  F   UNL A   1      39.896  35.221  37.376  1.00  0.00    -0.200 F 
ATOM     92  F   UNL A   1      38.006  34.174  39.038  1.00  0.00    -0.200 F 
ENDBRANCH  59  82
ENDBRANCH  33  34
ENDBRANCH  26  28
ENDBRANCH  25  26
ENDBRANCH  24  25
ENDBRANCH  23  24
ENDBRANCH  22  23
ENDBRANCH  21  22
ENDBRANCH   1  21
TORSDOF 19
ENDMDL
MODEL 2
REMARK VINA RESULT:     -10.4      1.879      3.156
REMARK SMILES C[C@H](CC(=O)OCCOCCOC(=O)c1ccc(-c2c3nc(c(-c4c(F)c(F)c(F)c(F)c4F)c4ccc([nH]4)c(-c4c(F)c(F)c(F)c(F)c4F)c4nc(c(-c5c(F)c(F)c(F)c(F)c5F)c5ccc2[nH]5)C=C4)C=C3)cc1)NC(=O)CS[C@H]1CCS(=O)(=O)C1
REMARK SMILES IDX 7 1 6 2 4 3 5 4 3 5 2 6 1 7 78 8 79 9 80 11 81 12 82 13
REMARK SMILES IDX 83 14 84 15 89 16 85 17 86 18 87 19 88 20 8 21 9 22 10 23
REMARK SMILES IDX 11 24 12 25 13 26 14 27 15 28 16 29 77 30 17 31 76 32 18 33
REMARK SMILES IDX 19 34 20 35 70 36 21 37 75 38 69 39 71 40 22 41 74 42 68 43
REMARK SMILES IDX 67 44 23 46 55 47 35 48 54 49 36 50 39 51 53 52 72 53 37 54
REMARK SMILES IDX 38 55 52 57 73 58 40 59 24 60 25 61 33 62 26 63 27 64 31 65
REMARK SMILES IDX 34 66 28 67 29 68 32 69 30 70 56 71 57 72 65 73 58 74 59 75
REMARK SMILES IDX 63 76 66 77 60 78 61 79 64 80 62 81 41 82 42 83 50 84 43 85
REMARK SMILES IDX 44 86 48 87 51 88 45 89 46 90 49 91 47 92
REMARK H PARENT 78 10 71 45 39 56
REMARK Flexibility Score: inf
ROOT
ATOM      1  C   UNL A   1      39.980  21.664  26.004  1.00  0.00     0.261 C 
ENDROOT
BRANCH   1   2
ATOM      2  O   UNL A   1      38.543  21.721  25.955  1.00  0.00    -0.463 OA
BRANCH   2   3
ATOM      3  C   UNL A   1      38.036  22.962  26.076  1.00  0.00     0.307 C 
ATOM      4  O   UNL A   1      38.699  23.989  25.986  1.00  0.00    -0.252 OA
BRANCH   3   5
ATOM      5  C   UNL A   1      36.534  23.013  26.203  1.00  0.00     0.147 C 
BRANCH   5   6
ATOM      6  C   UNL A   1      35.567  23.707  25.222  1.00  0.00     0.090 C 
ATOM      7  C   UNL A   1      35.307  23.026  23.886  1.00  0.00     0.031 C 
BRANCH   6   8
ATOM      8  N   UNL A   1      34.273  23.869  25.920  1.00  0.00    -0.352 N 
ATOM      9  C   UNL A   1      33.249  23.032  26.243  1.00  0.00     0.230 C 
ATOM     10  H   UNL A   1      34.117  24.794  26.220  1.00  0.00     0.163 HD
ATOM     11  O   UNL A   1      32.226  23.565  26.685  1.00  0.00    -0.274 OA
BRANCH   9  12
ATOM     12  C   UNL A   1      33.369  21.519  26.130  1.00  0.00     0.169 C 
BRANCH  12  13
ATOM     13  S   UNL A   1      32.246  20.833  24.844  1.00  0.00    -0.148 SA
BRANCH  13  14
ATOM     14  C   UNL A   1      33.257  19.475  24.144  1.00  0.00     0.063 C 
ATOM     15  C   UNL A   1      34.607  19.344  24.864  1.00  0.00     0.031 C 
ATOM     16  C   UNL A   1      32.564  18.145  24.331  1.00  0.00     0.151 C 
ATOM     17  C   UNL A   1      35.196  18.004  24.423  1.00  0.00     0.138 C 
ATOM     18  S   UNL A   1      33.809  16.893  24.356  1.00  0.00     0.151 S 
ATOM     19  O   UNL A   1      33.785  16.228  23.065  1.00  0.00    -0.229 OA
ATOM     20  O   UNL A   1      33.696  16.176  25.601  1.00  0.00    -0.229 OA
ENDBRANCH  13  14
ENDBRANCH  12  13
ENDBRANCH   9  12
ENDBRANCH   6   8
ENDBRANCH   5   6
ENDBRANCH   3   5
ENDBRANCH   2   3
ENDBRANCH   1   2
BRANCH   1  21
ATOM     21  C   UNL A   1      40.432  20.208  25.973  1.00  0.00     0.202 C 
BRANCH  21  22
ATOM     22  O   UNL A   1      41.814  20.008  25.695  1.00  0.00    -0.374 OA
BRANCH  22  23
ATOM     23  C   UNL A   1      42.759  20.814  26.406  1.00  0.00     0.202 C 
BRANCH  23  24
ATOM     24  C   UNL A   1      43.659  21.709  25.537  1.00  0.00     0.261 C 
BRANCH  24  25
ATOM     25  O   UNL A   1      42.962  22.902  25.116  1.00  0.00    -0.460 OA
BRANCH  25  26
ATOM     26  C   UNL A   1      43.677  24.055  25.136  1.00  0.00     0.338 C 
ATOM     27  O   UNL A   1      44.515  24.422  24.331  1.00  0.00    -0.246 OA
BRANCH  26  28
ATOM     28  C   UNL A   1      43.089  24.954  26.155  1.00  0.00     0.060 A 
ATOM     29  C   UNL A   1      43.607  26.253  26.257  1.00  0.00     0.016 A 
ATOM     30  C   UNL A   1      42.045  24.547  26.987  1.00  0.00     0.016 A 
ATOM     31  C   UNL A   1      43.080  27.153  27.183  1.00  0.00     0.010 A 
ATOM     32  C   UNL A   1      41.535  25.442  27.935  1.00  0.00     0.010 A 
ATOM     33  C   UNL A   1      42.057  26.745  28.046  1.00  0.00    -0.014 A 
BRANCH  33  34
ATOM     34  C   UNL A   1      41.636  27.636  29.155  1.00  0.00     0.031 A 
ATOM     35  C   UNL A   1      42.394  27.587  30.451  1.00  0.00     0.074 A 
ATOM     36  C   UNL A   1      40.613  28.496  29.007  1.00  0.00     0.049 A 
ATOM     37  N   UNL A   1      42.173  28.231  31.569  1.00  0.00    -0.248 NA
ATOM     38  C   UNL A   1      43.563  26.695  30.490  1.00  0.00     0.031 C 
ATOM     39  C   UNL A   1      39.837  28.683  27.783  1.00  0.00     0.029 A 
ATOM     40  N   UNL A   1      40.047  29.370  29.903  1.00  0.00    -0.354 N 
ATOM     41  C   UNL A   1      43.170  27.818  32.444  1.00  0.00     0.074 A 
ATOM     42  C   UNL A   1      43.981  26.851  31.738  1.00  0.00     0.031 C 
ATOM     43  C   UNL A   1      38.881  29.600  28.011  1.00  0.00     0.029 A 
ATOM     44  C   UNL A   1      38.954  30.036  29.406  1.00  0.00     0.049 A 
ATOM     45  H   UNL A   1      40.391  29.505  30.815  1.00  0.00     0.167 HD
ATOM     46  C   UNL A   1      43.388  28.215  33.721  1.00  0.00     0.037 A 
ATOM     47  C   UNL A   1      38.092  30.874  30.017  1.00  0.00     0.037 A 
ATOM     48  C   UNL A   1      42.579  29.176  34.423  1.00  0.00     0.049 A 
ATOM     49  C   UNL A   1      38.297  31.219  31.472  1.00  0.00     0.074 A 
ATOM     50  C   UNL A   1      42.742  29.663  35.708  1.00  0.00     0.029 A 
ATOM     51  N   UNL A   1      41.446  29.783  33.906  1.00  0.00    -0.354 N 
ATOM     52  N   UNL A   1      39.257  30.849  32.284  1.00  0.00    -0.248 NA
ATOM     53  C   UNL A   1      37.292  32.093  32.096  1.00  0.00     0.031 C 
ATOM     54  C   UNL A   1      41.671  30.515  35.991  1.00  0.00     0.029 A 
ATOM     55  C   UNL A   1      40.872  30.607  34.863  1.00  0.00     0.049 A 
ATOM     56  H   UNL A   1      41.099  29.651  32.994  1.00  0.00     0.167 HD
ATOM     57  C   UNL A   1      38.985  31.459  33.503  1.00  0.00     0.074 A 
ATOM     58  C   UNL A   1      37.780  32.239  33.320  1.00  0.00     0.031 C 
ATOM     59  C   UNL A   1      39.670  31.377  34.671  1.00  0.00     0.037 A 
BRANCH  46  60
ATOM     60  C   UNL A   1      44.532  27.582  34.458  1.00  0.00     0.064 A 
ATOM     61  C   UNL A   1      45.818  28.141  34.450  1.00  0.00     0.173 A 
ATOM     62  C   UNL A   1      44.323  26.422  35.220  1.00  0.00     0.173 A 
ATOM     63  F   UNL A   1      46.072  29.241  33.724  1.00  0.00    -0.203 F 
ATOM     64  C   UNL A   1      46.860  27.550  35.160  1.00  0.00     0.198 A 
ATOM     65  C   UNL A   1      45.359  25.851  35.954  1.00  0.00     0.198 A 
ATOM     66  F   UNL A   1      43.111  25.850  35.263  1.00  0.00    -0.203 F 
ATOM     67  F   UNL A   1      48.090  28.076  35.103  1.00  0.00    -0.200 F 
ATOM     68  C   UNL A   1      46.628  26.410  35.918  1.00  0.00     0.200 A 
ATOM     69  F   UNL A   1      45.131  24.759  36.695  1.00  0.00    -0.200 F 
ATOM     70  F   UNL A   1      47.628  25.849  36.609  1.00  0.00    -0.200 F 
ENDBRANCH  46  60
BRANCH  47  71
ATOM     71  C   UNL A   1      36.926  31.419  29.270  1.00  0.00     0.064 A 
ATOM     72  C   UNL A   1      36.870  32.766  28.890  1.00  0.00     0.173 A 
ATOM     73  C   UNL A   1      35.826  30.606  28.953  1.00  0.00     0.173 A 
ATOM     74  F   UNL A   1      37.881  33.591  29.199  1.00  0.00    -0.203 F 
ATOM     75  C   UNL A   1      35.752  33.285  28.238  1.00  0.00     0.198 A 
ATOM     76  C   UNL A   1      34.723  31.119  28.273  1.00  0.00     0.198 A 
ATOM     77  F   UNL A   1      35.824  29.311  29.302  1.00  0.00    -0.203 F 
ATOM     78  F   UNL A   1      35.702  34.589  27.933  1.00  0.00    -0.200 F 
ATOM     79  C   UNL A   1      34.683  32.459  27.924  1.00  0.00     0.200 A 
ATOM     80  F   UNL A   1      33.697  30.314  27.965  1.00  0.00    -0.200 F 
ATOM     81  F   UNL A   1      33.609  32.958  27.296  1.00  0.00    -0.200 F 
ENDBRANCH  47  71
BRANCH  59  82
ATOM     82  C   UNL A   1      39.145  32.157  35.843  1.00  0.00     0.064 A 
ATOM     83  C   UNL A   1      38.269  31.580  36.775  1.00  0.00     0.173 A 
ATOM     84  C   UNL A   1      39.569  33.475  36.070  1.00  0.00     0.173 A 
ATOM     85  F   UNL A   1      37.824  30.327  36.597  1.00  0.00    -0.203 F 
ATOM     86  C   UNL A   1      37.823  32.301  37.880  1.00  0.00     0.198 A 
ATOM     87  C   UNL A   1      39.145  34.183  37.193  1.00  0.00     0.198 A 
ATOM     88  F   UNL A   1      40.413  34.072  35.215  1.00  0.00    -0.203 F 
ATOM     89  F   UNL A   1      36.954  31.743  38.735  1.00  0.00    -0.200 F 
ATOM     90  C   UNL A   1      38.268  33.597  38.093  1.00  0.00     0.200 A 
ATOM     91  F   UNL A   1      39.590  35.428  37.406  1.00  0.00    -0.200 F 
ATOM     92  F   UNL A   1      37.848  34.285  39.164  1.00  0.00    -0.200 F 
ENDBRANCH  59  82
ENDBRANCH  33  34
ENDBRANCH  26  28
ENDBRANCH  25  26
ENDBRANCH  24  25
ENDBRANCH  23  24
ENDBRANCH  22  23
ENDBRANCH  21  22
ENDBRANCH   1  21
TORSDOF 19
ENDMDL
MODEL 3
REMARK VINA RESULT:     -10.2      3.156      8.628
REMARK SMILES C[C@H](CC(=O)OCCOCCOC(=O)c1ccc(-c2c3nc(c(-c4c(F)c(F)c(F)c(F)c4F)c4ccc([nH]4)c(-c4c(F)c(F)c(F)c(F)c4F)c4nc(c(-c5c(F)c(F)c(F)c(F)c5F)c5ccc2[nH]5)C=C4)C=C3)cc1)NC(=O)CS[C@H]1CCS(=O)(=O)C1
REMARK SMILES IDX 7 1 6 2 4 3 5 4 3 5 2 6 1 7 78 8 79 9 80 11 81 12 82 13
REMARK SMILES IDX 83 14 84 15 89 16 85 17 86 18 87 19 88 20 8 21 9 22 10 23
REMARK SMILES IDX 11 24 12 25 13 26 14 27 15 28 16 29 77 30 17 31 76 32 18 33
REMARK SMILES IDX 19 34 20 35 70 36 21 37 75 38 69 39 71 40 22 41 74 42 68 43
REMARK SMILES IDX 67 44 23 46 55 47 35 48 54 49 36 50 39 51 53 52 72 53 37 54
REMARK SMILES IDX 38 55 52 57 73 58 40 59 24 60 25 61 33 62 26 63 27 64 31 65
REMARK SMILES IDX 34 66 28 67 29 68 32 69 30 70 56 71 57 72 65 73 58 74 59 75
REMARK SMILES IDX 63 76 66 77 60 78 61 79 64 80 62 81 41 82 42 83 50 84 43 85
REMARK SMILES IDX 44 86 48 87 51 88 45 89 46 90 49 91 47 92
REMARK H PARENT 78 10 71 45 39 56
REMARK Flexibility Score: inf
ROOT
ATOM      1  C   UNL A   1      32.135  25.207  26.133  1.00  0.00     0.261 C 
ENDROOT
BRANCH   1   2
ATOM      2  O   UNL A   1      30.852  24.987  25.520  1.00  0.00    -0.463 OA
BRANCH   2   3
ATOM      3  C   UNL A   1      30.907  24.341  24.341  1.00  0.00     0.307 C 
ATOM      4  O   UNL A   1      30.283  24.678  23.341  1.00  0.00    -0.252 OA
BRANCH   3   5
ATOM      5  C   UNL A   1      31.914  23.220  24.288  1.00  0.00     0.147 C 
BRANCH   5   6
ATOM      6  C   UNL A   1      33.258  23.247  23.530  1.00  0.00     0.090 C 
ATOM      7  C   UNL A   1      33.621  24.520  22.781  1.00  0.00     0.031 C 
BRANCH   6   8
ATOM      8  N   UNL A   1      34.324  22.967  24.515  1.00  0.00    -0.352 N 
ATOM      9  C   UNL A   1      34.807  21.840  25.108  1.00  0.00     0.230 C 
ATOM     10  H   UNL A   1      34.792  23.781  24.810  1.00  0.00     0.163 HD
ATOM     11  O   UNL A   1      35.607  22.008  26.033  1.00  0.00    -0.274 OA
BRANCH   9  12
ATOM     12  C   UNL A   1      34.438  20.444  24.625  1.00  0.00     0.169 C 
BRANCH  12  13
ATOM     13  S   UNL A   1      32.907  19.819  25.432  1.00  0.00    -0.148 SA
BRANCH  13  14
ATOM     14  C   UNL A   1      32.796  18.116  24.765  1.00  0.00     0.063 C 
ATOM     15  C   UNL A   1      33.745  17.910  23.576  1.00  0.00     0.031 C 
ATOM     16  C   UNL A   1      33.223  17.108  25.807  1.00  0.00     0.151 C 
ATOM     17  C   UNL A   1      33.802  16.402  23.333  1.00  0.00     0.138 C 
ATOM     18  S   UNL A   1      33.808  15.675  24.956  1.00  0.00     0.151 S 
ATOM     19  O   UNL A   1      32.767  14.665  25.036  1.00  0.00    -0.229 OA
ATOM     20  O   UNL A   1      35.164  15.429  25.377  1.00  0.00    -0.229 OA
ENDBRANCH  13  14
ENDBRANCH  12  13
ENDBRANCH   9  12
ENDBRANCH   6   8
ENDBRANCH   5   6
ENDBRANCH   3   5
ENDBRANCH   2   3
ENDBRANCH   1   2
BRANCH   1  21
ATOM     21  C   UNL A   1      32.430  26.701  26.173  1.00  0.00     0.202 C 
BRANCH  21  22
ATOM     22  O   UNL A   1      31.367  27.517  26.656  1.00  0.00    -0.374 OA
BRANCH  22  23
ATOM     23  C   UNL A   1      31.712  28.757  27.280  1.00  0.00     0.202 C 
BRANCH  23  24
ATOM     24  C   UNL A   1      31.887  29.955  26.332  1.00  0.00     0.261 C 
BRANCH  24  25
ATOM     25  O   UNL A   1      33.263  30.392  26.287  1.00  0.00    -0.460 OA
BRANCH  25  26
ATOM     26  C   UNL A   1      33.593  31.427  27.100  1.00  0.00     0.338 C 
ATOM     27  O   UNL A   1      32.894  32.373  27.415  1.00  0.00    -0.246 OA
BRANCH  26  28
ATOM     28  C   UNL A   1      34.865  31.100  27.784  1.00  0.00     0.060 A 
ATOM     29  C   UNL A   1      35.059  29.776  28.204  1.00  0.00     0.016 A 
ATOM     30  C   UNL A   1      35.856  32.059  28.003  1.00  0.00     0.016 A 
ATOM     31  C   UNL A   1      36.244  29.402  28.835  1.00  0.00     0.010 A 
ATOM     32  C   UNL A   1      37.035  31.688  28.661  1.00  0.00     0.010 A 
ATOM     33  C   UNL A   1      37.230  30.362  29.091  1.00  0.00    -0.014 A 
BRANCH  33  34
ATOM     34  C   UNL A   1      38.398  30.005  29.933  1.00  0.00     0.031 A 
ATOM     35  C   UNL A   1      39.413  29.038  29.392  1.00  0.00     0.074 A 
ATOM     36  C   UNL A   1      38.572  30.550  31.151  1.00  0.00     0.049 A 
ATOM     37  N   UNL A   1      40.478  28.541  29.968  1.00  0.00    -0.248 NA
ATOM     38  C   UNL A   1      39.199  28.573  28.013  1.00  0.00     0.031 C 
ATOM     39  C   UNL A   1      37.694  31.543  31.764  1.00  0.00     0.029 A 
ATOM     40  N   UNL A   1      39.549  30.333  32.092  1.00  0.00    -0.354 N 
ATOM     41  C   UNL A   1      41.058  27.702  29.024  1.00  0.00     0.074 A 
ATOM     42  C   UNL A   1      40.214  27.737  27.850  1.00  0.00     0.031 C 
ATOM     43  C   UNL A   1      38.161  31.837  32.990  1.00  0.00     0.029 A 
ATOM     44  C   UNL A   1      39.347  31.024  33.262  1.00  0.00     0.049 A 
ATOM     45  H   UNL A   1      40.319  29.739  31.944  1.00  0.00     0.167 HD
ATOM     46  C   UNL A   1      42.193  26.972  29.130  1.00  0.00     0.037 A 
ATOM     47  C   UNL A   1      40.023  30.979  34.428  1.00  0.00     0.037 A 
ATOM     48  C   UNL A   1      43.031  26.936  30.300  1.00  0.00     0.049 A 
ATOM     49  C   UNL A   1      41.225  30.076  34.555  1.00  0.00     0.074 A 
ATOM     50  C   UNL A   1      44.217  26.250  30.489  1.00  0.00     0.029 A 
ATOM     51  N   UNL A   1      42.761  27.602  31.485  1.00  0.00    -0.354 N 
ATOM     52  N   UNL A   1      41.785  29.309  33.651  1.00  0.00    -0.248 NA
ATOM     53  C   UNL A   1      41.886  30.029  35.869  1.00  0.00     0.031 C 
ATOM     54  C   UNL A   1      44.632  26.448  31.809  1.00  0.00     0.029 A 
ATOM     55  C   UNL A   1      43.736  27.307  32.426  1.00  0.00     0.049 A 
ATOM     56  H   UNL A   1      41.992  28.199  31.637  1.00  0.00     0.167 HD
ATOM     57  C   UNL A   1      42.870  28.707  34.277  1.00  0.00     0.074 A 
ATOM     58  C   UNL A   1      42.903  29.212  35.633  1.00  0.00     0.031 C 
ATOM     59  C   UNL A   1      43.757  27.812  33.775  1.00  0.00     0.037 A 
BRANCH  46  60
ATOM     60  C   UNL A   1      42.582  26.119  27.958  1.00  0.00     0.064 A 
ATOM     61  C   UNL A   1      42.020  24.852  27.745  1.00  0.00     0.173 A 
ATOM     62  C   UNL A   1      43.499  26.599  27.011  1.00  0.00     0.173 A 
ATOM     63  F   UNL A   1      41.149  24.341  28.630  1.00  0.00    -0.203 F 
ATOM     64  C   UNL A   1      42.378  24.087  26.638  1.00  0.00     0.198 A 
ATOM     65  C   UNL A   1      43.832  25.845  25.889  1.00  0.00     0.198 A 
ATOM     66  F   UNL A   1      44.064  27.805  27.167  1.00  0.00    -0.203 F 
ATOM     67  F   UNL A   1      41.861  22.862  26.477  1.00  0.00    -0.200 F 
ATOM     68  C   UNL A   1      43.277  24.587  25.707  1.00  0.00     0.200 A 
ATOM     69  F   UNL A   1      44.690  26.335  24.985  1.00  0.00    -0.200 F 
ATOM     70  F   UNL A   1      43.613  23.855  24.637  1.00  0.00    -0.200 F 
ENDBRANCH  46  60
BRANCH  47  71
ATOM     71  C   UNL A   1      39.557  31.783  35.591  1.00  0.00     0.064 A 
ATOM     72  C   UNL A   1      38.582  31.292  36.469  1.00  0.00     0.173 A 
ATOM     73  C   UNL A   1      40.054  33.075  35.824  1.00  0.00     0.173 A 
ATOM     74  F   UNL A   1      38.052  30.077  36.270  1.00  0.00    -0.203 F 
ATOM     75  C   UNL A   1      38.108  32.070  37.526  1.00  0.00     0.198 A 
ATOM     76  C   UNL A   1      39.602  33.838  36.899  1.00  0.00     0.198 A 
ATOM     77  F   UNL A   1      40.982  33.596  35.007  1.00  0.00    -0.203 F 
ATOM     78  F   UNL A   1      37.137  31.596  38.319  1.00  0.00    -0.200 F 
ATOM     79  C   UNL A   1      38.624  33.338  37.744  1.00  0.00     0.200 A 
ATOM     80  F   UNL A   1      40.111  35.060  37.109  1.00  0.00    -0.200 F 
ATOM     81  F   UNL A   1      38.169  34.084  38.760  1.00  0.00    -0.200 F 
ENDBRANCH  47  71
BRANCH  59  82
ATOM     82  C   UNL A   1      44.849  27.327  34.686  1.00  0.00     0.064 A 
ATOM     83  C   UNL A   1      46.094  27.970  34.747  1.00  0.00     0.173 A 
ATOM     84  C   UNL A   1      44.628  26.244  35.551  1.00  0.00     0.173 A 
ATOM     85  F   UNL A   1      46.361  29.002  33.932  1.00  0.00    -0.203 F 
ATOM     86  C   UNL A   1      47.083  27.536  35.625  1.00  0.00     0.198 A 
ATOM     87  C   UNL A   1      45.609  25.831  36.451  1.00  0.00     0.198 A 
ATOM     88  F   UNL A   1      43.452  25.598  35.540  1.00  0.00    -0.203 F 
ATOM     89  F   UNL A   1      48.280  28.140  35.636  1.00  0.00    -0.200 F 
ATOM     90  C   UNL A   1      46.837  26.473  36.482  1.00  0.00     0.200 A 
ATOM     91  F   UNL A   1      45.362  24.816  37.289  1.00  0.00    -0.200 F 
ATOM     92  F   UNL A   1      47.785  26.065  37.336  1.00  0.00    -0.200 F 
ENDBRANCH  59  82
ENDBRANCH  33  34
ENDBRANCH  26  28
ENDBRANCH  25  26
ENDBRANCH  24  25
ENDBRANCH  23  24
ENDBRANCH  22  23
ENDBRANCH  21  22
ENDBRANCH   1  21
TORSDOF 19
ENDMDL
