MODEL 1
REMARK VINA RESULT:     -11.0      0.000      0.000
REMARK SMILES CCc1ncc(S(=O)(=O)NCc2ccc(C(=O)OCCOCCOC(=O)c3ccc(-c4c5nc(c(-c6c(F)c(F)c(F)c(F)c6F)c6ccc([nH]6)c(-c6c(F)c(F)c(F)c(F)c6F)c6nc(c(-c7c(F)c(F)c(F)c(F)c7F)c7ccc4[nH]7)C=C6)C=C5)cc3)o2)[nH]1
REMARK SMILES IDX 19 1 18 2 16 3 17 4 15 5 12 6 13 7 90 8 14 9 11 10 10 11
REMARK SMILES IDX 7 13 8 14 9 15 6 16 3 17 4 18 91 19 5 20 2 22 1 23 20 24
REMARK SMILES IDX 21 25 22 26 23 27 24 28 25 29 26 30 27 31 28 32 89 33 29 34
REMARK SMILES IDX 88 35 30 36 31 37 32 38 82 39 33 40 87 41 81 42 83 43 34 44
REMARK SMILES IDX 86 45 80 46 79 47 35 49 67 50 47 51 66 52 48 53 51 54 65 55
REMARK SMILES IDX 84 56 49 57 50 58 64 60 85 61 52 62 36 63 37 64 45 65 38 66
REMARK SMILES IDX 39 67 43 68 46 69 40 70 41 71 44 72 42 73 68 74 69 75 77 76
REMARK SMILES IDX 70 77 71 78 75 79 78 80 72 81 73 82 76 83 74 84 53 85 54 86
REMARK SMILES IDX 62 87 55 88 56 89 60 90 63 91 57 92 58 93 61 94 59 95
REMARK H PARENT 10 12 91 21 83 48 51 59
REMARK Flexibility Score: inf
ROOT
ATOM      1  C   UNL A   1      34.444  34.990  28.725  1.00  0.00     0.261 C 
ENDROOT
BRANCH   1   2
ATOM      2  O   UNL A   1      34.427  34.001  27.684  1.00  0.00    -0.457 OA
BRANCH   2   3
ATOM      3  C   UNL A   1      33.362  33.148  27.692  1.00  0.00     0.374 C 
ATOM      4  O   UNL A   1      32.188  33.497  27.666  1.00  0.00    -0.242 OA
BRANCH   3   5
ATOM      5  C   UNL A   1      33.841  31.789  27.591  1.00  0.00     0.211 A 
ATOM      6  C   UNL A   1      33.904  29.788  26.670  1.00  0.00     0.119 A 
ATOM      7  C   UNL A   1      34.926  29.816  27.594  1.00  0.00     0.048 A 
ATOM      8  O   UNL A   1      33.246  30.978  26.668  1.00  0.00    -0.453 OA
ATOM      9  C   UNL A   1      34.884  31.102  28.190  1.00  0.00     0.058 A 
BRANCH   6  10
ATOM     10  C   UNL A   1      33.386  28.779  25.720  1.00  0.00     0.174 C 
BRANCH  10  11
ATOM     11  N   UNL A   1      31.986  29.022  25.363  1.00  0.00    -0.202 NA
ATOM     12  H   UNL A   1      31.447  28.969  26.227  1.00  0.00     0.141 HD
BRANCH  11  13
ATOM     13  S   UNL A   1      31.228  28.022  24.254  1.00  0.00     0.258 S 
ATOM     14  O   UNL A   1      30.634  26.895  24.934  1.00  0.00    -0.205 OA
ATOM     15  O   UNL A   1      32.170  27.813  23.178  1.00  0.00    -0.205 OA
BRANCH  13  16
ATOM     16  C   UNL A   1      29.888  28.848  23.507  1.00  0.00     0.167 A 
ATOM     17  C   UNL A   1      28.557  30.573  23.032  1.00  0.00     0.106 A 
ATOM     18  N   UNL A   1      28.021  29.540  22.416  1.00  0.00    -0.240 NA
ATOM     19  N   UNL A   1      29.700  30.198  23.689  1.00  0.00    -0.332 N 
ATOM     20  C   UNL A   1      28.828  28.472  22.712  1.00  0.00     0.153 A 
ATOM     21  H   UNL A   1      30.289  30.794  24.205  1.00  0.00     0.169 HD
BRANCH  17  22
ATOM     22  C   UNL A   1      27.997  31.956  23.091  1.00  0.00     0.072 C 
ATOM     23  C   UNL A   1      29.060  33.042  23.097  1.00  0.00     0.012 C 
ENDBRANCH  17  22
ENDBRANCH  13  16
ENDBRANCH  11  13
ENDBRANCH  10  11
ENDBRANCH   6  10
ENDBRANCH   3   5
ENDBRANCH   2   3
ENDBRANCH   1   2
BRANCH   1  24
ATOM     24  C   UNL A   1      34.759  34.313  30.063  1.00  0.00     0.202 C 
BRANCH  24  25
ATOM     25  O   UNL A   1      33.754  34.479  31.066  1.00  0.00    -0.374 OA
BRANCH  25  26
ATOM     26  C   UNL A   1      34.201  34.605  32.416  1.00  0.00     0.202 C 
BRANCH  26  27
ATOM     27  C   UNL A   1      34.268  33.293  33.206  1.00  0.00     0.261 C 
BRANCH  27  28
ATOM     28  O   UNL A   1      35.158  32.353  32.579  1.00  0.00    -0.460 OA
BRANCH  28  29
ATOM     29  C   UNL A   1      36.341  32.178  33.216  1.00  0.00     0.338 C 
ATOM     30  O   UNL A   1      36.604  32.438  34.377  1.00  0.00    -0.246 OA
BRANCH  29  31
ATOM     31  C   UNL A   1      37.279  31.451  32.337  1.00  0.00     0.060 A 
ATOM     32  C   UNL A   1      38.275  30.685  32.955  1.00  0.00     0.016 A 
ATOM     33  C   UNL A   1      37.233  31.567  30.947  1.00  0.00     0.016 A 
ATOM     34  C   UNL A   1      39.263  30.072  32.186  1.00  0.00     0.010 A 
ATOM     35  C   UNL A   1      38.229  30.958  30.176  1.00  0.00     0.010 A 
ATOM     36  C   UNL A   1      39.268  30.240  30.795  1.00  0.00    -0.014 A 
BRANCH  36  37
ATOM     37  C   UNL A   1      40.444  29.797  30.009  1.00  0.00     0.031 A 
ATOM     38  C   UNL A   1      41.544  30.784  29.733  1.00  0.00     0.074 A 
ATOM     39  C   UNL A   1      40.544  28.533  29.567  1.00  0.00     0.049 A 
ATOM     40  N   UNL A   1      42.640  30.636  29.032  1.00  0.00    -0.248 NA
ATOM     41  C   UNL A   1      41.388  32.121  30.328  1.00  0.00     0.031 C 
ATOM     42  C   UNL A   1      39.565  27.474  29.805  1.00  0.00     0.029 A 
ATOM     43  N   UNL A   1      41.521  27.928  28.815  1.00  0.00    -0.354 N 
ATOM     44  C   UNL A   1      43.297  31.857  29.096  1.00  0.00     0.074 A 
ATOM     45  C   UNL A   1      42.467  32.745  29.882  1.00  0.00     0.031 C 
ATOM     46  C   UNL A   1      39.984  26.350  29.198  1.00  0.00     0.029 A 
ATOM     47  C   UNL A   1      41.244  26.620  28.506  1.00  0.00     0.049 A 
ATOM     48  H   UNL A   1      42.342  28.388  28.526  1.00  0.00     0.167 HD
ATOM     49  C   UNL A   1      44.489  32.203  28.556  1.00  0.00     0.037 A 
ATOM     50  C   UNL A   1      41.921  25.748  27.733  1.00  0.00     0.037 A 
ATOM     51  C   UNL A   1      45.315  31.320  27.778  1.00  0.00     0.049 A 
ATOM     52  C   UNL A   1      43.212  26.180  27.087  1.00  0.00     0.074 A 
ATOM     53  C   UNL A   1      46.549  31.573  27.203  1.00  0.00     0.029 A 
ATOM     54  N   UNL A   1      44.987  30.010  27.462  1.00  0.00    -0.354 N 
ATOM     55  N   UNL A   1      43.836  27.329  27.168  1.00  0.00    -0.248 NA
ATOM     56  C   UNL A   1      43.892  25.189  26.239  1.00  0.00     0.031 C 
ATOM     57  C   UNL A   1      46.947  30.429  26.502  1.00  0.00     0.029 A 
ATOM     58  C   UNL A   1      45.983  29.449  26.680  1.00  0.00     0.049 A 
ATOM     59  H   UNL A   1      44.168  29.547  27.751  1.00  0.00     0.167 HD
ATOM     60  C   UNL A   1      44.990  27.193  26.409  1.00  0.00     0.074 A 
ATOM     61  C   UNL A   1      44.988  25.844  25.881  1.00  0.00     0.031 C 
ATOM     62  C   UNL A   1      45.967  28.103  26.170  1.00  0.00     0.037 A 
BRANCH  49  63
ATOM     63  C   UNL A   1      44.959  33.612  28.768  1.00  0.00     0.064 A 
ATOM     64  C   UNL A   1      44.611  34.645  27.885  1.00  0.00     0.173 A 
ATOM     65  C   UNL A   1      45.744  33.937  29.884  1.00  0.00     0.173 A 
ATOM     66  F   UNL A   1      43.876  34.381  26.794  1.00  0.00    -0.203 F 
ATOM     67  C   UNL A   1      45.051  35.948  28.100  1.00  0.00     0.198 A 
ATOM     68  C   UNL A   1      46.160  35.246  30.110  1.00  0.00     0.198 A 
ATOM     69  F   UNL A   1      46.102  32.986  30.760  1.00  0.00    -0.203 F 
ATOM     70  F   UNL A   1      44.742  36.912  27.221  1.00  0.00    -0.200 F 
ATOM     71  C   UNL A   1      45.819  36.249  29.215  1.00  0.00     0.200 A 
ATOM     72  F   UNL A   1      46.895  35.537  31.192  1.00  0.00    -0.200 F 
ATOM     73  F   UNL A   1      46.237  37.505  29.424  1.00  0.00    -0.200 F 
ENDBRANCH  49  63
BRANCH  50  74
ATOM     74  C   UNL A   1      41.385  24.380  27.513  1.00  0.00     0.064 A 
ATOM     75  C   UNL A   1      42.002  23.261  28.088  1.00  0.00     0.173 A 
ATOM     76  C   UNL A   1      40.257  24.164  26.708  1.00  0.00     0.173 A 
ATOM     77  F   UNL A   1      43.099  23.415  28.842  1.00  0.00    -0.203 F 
ATOM     78  C   UNL A   1      41.520  21.974  27.852  1.00  0.00     0.198 A 
ATOM     79  C   UNL A   1      39.761  22.881  26.494  1.00  0.00     0.198 A 
ATOM     80  F   UNL A   1      39.634  25.203  26.133  1.00  0.00    -0.203 F 
ATOM     81  F   UNL A   1      42.155  20.918  28.377  1.00  0.00    -0.200 F 
ATOM     82  C   UNL A   1      40.397  21.785  27.060  1.00  0.00     0.200 A 
ATOM     83  F   UNL A   1      38.670  22.704  25.736  1.00  0.00    -0.200 F 
ATOM     84  F   UNL A   1      39.934  20.550  26.835  1.00  0.00    -0.200 F 
ENDBRANCH  50  74
BRANCH  62  85
ATOM     85  C   UNL A   1      47.131  27.662  25.329  1.00  0.00     0.064 A 
ATOM     86  C   UNL A   1      47.139  27.835  23.938  1.00  0.00     0.173 A 
ATOM     87  C   UNL A   1      48.268  27.101  25.930  1.00  0.00     0.173 A 
ATOM     88  F   UNL A   1      46.070  28.354  23.315  1.00  0.00    -0.203 F 
ATOM     89  C   UNL A   1      48.237  27.442  23.175  1.00  0.00     0.198 A 
ATOM     90  C   UNL A   1      49.374  26.735  25.168  1.00  0.00     0.198 A 
ATOM     91  F   UNL A   1      48.311  26.920  27.258  1.00  0.00    -0.203 F 
ATOM     92  F   UNL A   1      48.208  27.580  21.843  1.00  0.00    -0.200 F 
ATOM     93  C   UNL A   1      49.355  26.900  23.792  1.00  0.00     0.200 A 
ATOM     94  F   UNL A   1      50.457  26.222  25.766  1.00  0.00    -0.200 F 
ATOM     95  F   UNL A   1      50.412  26.531  23.056  1.00  0.00    -0.200 F 
ENDBRANCH  62  85
ENDBRANCH  36  37
ENDBRANCH  29  31
ENDBRANCH  28  29
ENDBRANCH  27  28
ENDBRANCH  26  27
ENDBRANCH  25  26
ENDBRANCH  24  25
ENDBRANCH   1  24
TORSDOF 19
ENDMDL
MODEL 2
REMARK VINA RESULT:     -10.8      5.270      9.819
REMARK SMILES CCc1ncc(S(=O)(=O)NCc2ccc(C(=O)OCCOCCOC(=O)c3ccc(-c4c5nc(c(-c6c(F)c(F)c(F)c(F)c6F)c6ccc([nH]6)c(-c6c(F)c(F)c(F)c(F)c6F)c6nc(c(-c7c(F)c(F)c(F)c(F)c7F)c7ccc4[nH]7)C=C6)C=C5)cc3)o2)[nH]1
REMARK SMILES IDX 19 1 18 2 16 3 17 4 15 5 12 6 13 7 90 8 14 9 11 10 10 11
REMARK SMILES IDX 7 13 8 14 9 15 6 16 3 17 4 18 91 19 5 20 2 22 1 23 20 24
REMARK SMILES IDX 21 25 22 26 23 27 24 28 25 29 26 30 27 31 28 32 89 33 29 34
REMARK SMILES IDX 88 35 30 36 31 37 32 38 82 39 33 40 87 41 81 42 83 43 34 44
REMARK SMILES IDX 86 45 80 46 79 47 35 49 67 50 47 51 66 52 48 53 51 54 65 55
REMARK SMILES IDX 84 56 49 57 50 58 64 60 85 61 52 62 36 63 37 64 45 65 38 66
REMARK SMILES IDX 39 67 43 68 46 69 40 70 41 71 44 72 42 73 68 74 69 75 77 76
REMARK SMILES IDX 70 77 71 78 75 79 78 80 72 81 73 82 76 83 74 84 53 85 54 86
REMARK SMILES IDX 62 87 55 88 56 89 60 90 63 91 57 92 58 93 61 94 59 95
REMARK H PARENT 10 12 91 21 83 48 51 59
REMARK Flexibility Score: inf
ROOT
ATOM      1  C   UNL A   1      30.843  27.794  23.149  1.00  0.00     0.261 C 
ENDROOT
BRANCH   1   2
ATOM      2  O   UNL A   1      31.763  27.397  22.119  1.00  0.00    -0.457 OA
BRANCH   2   3
ATOM      3  C   UNL A   1      33.081  27.389  22.470  1.00  0.00     0.374 C 
ATOM      4  O   UNL A   1      33.909  28.210  22.092  1.00  0.00    -0.242 OA
BRANCH   3   5
ATOM      5  C   UNL A   1      33.303  26.357  23.456  1.00  0.00     0.211 A 
ATOM      6  C   UNL A   1      33.639  24.270  24.078  1.00  0.00     0.119 A 
ATOM      7  C   UNL A   1      33.823  25.040  25.207  1.00  0.00     0.048 A 
ATOM      8  O   UNL A   1      33.321  25.064  23.020  1.00  0.00    -0.453 OA
ATOM      9  C   UNL A   1      33.604  26.384  24.808  1.00  0.00     0.058 A 
BRANCH   6  10
ATOM     10  C   UNL A   1      33.703  22.822  23.783  1.00  0.00     0.174 C 
BRANCH  10  11
ATOM     11  N   UNL A   1      35.035  22.264  24.033  1.00  0.00    -0.202 NA
ATOM     12  H   UNL A   1      35.332  21.810  23.169  1.00  0.00     0.141 HD
BRANCH  11  13
ATOM     13  S   UNL A   1      35.249  21.152  25.266  1.00  0.00     0.258 S 
ATOM     14  O   UNL A   1      34.964  21.769  26.540  1.00  0.00    -0.205 OA
ATOM     15  O   UNL A   1      36.526  20.518  25.031  1.00  0.00    -0.205 OA
BRANCH  13  16
ATOM     16  C   UNL A   1      34.088  19.860  25.129  1.00  0.00     0.167 A 
ATOM     17  C   UNL A   1      33.373  17.788  24.718  1.00  0.00     0.106 A 
ATOM     18  N   UNL A   1      32.290  18.479  25.006  1.00  0.00    -0.240 NA
ATOM     19  N   UNL A   1      34.485  18.586  24.800  1.00  0.00    -0.332 N 
ATOM     20  C   UNL A   1      32.720  19.759  25.249  1.00  0.00     0.153 A 
ATOM     21  H   UNL A   1      35.413  18.295  24.649  1.00  0.00     0.169 HD
BRANCH  17  22
ATOM     22  C   UNL A   1      33.422  16.358  24.292  1.00  0.00     0.072 C 
ATOM     23  C   UNL A   1      32.786  15.404  25.289  1.00  0.00     0.012 C 
ENDBRANCH  17  22
ENDBRANCH  13  16
ENDBRANCH  11  13
ENDBRANCH  10  11
ENDBRANCH   6  10
ENDBRANCH   3   5
ENDBRANCH   2   3
ENDBRANCH   1   2
BRANCH   1  24
ATOM     24  C   UNL A   1      30.466  29.266  22.953  1.00  0.00     0.202 C 
BRANCH  24  25
ATOM     25  O   UNL A   1      30.538  30.062  24.138  1.00  0.00    -0.374 OA
BRANCH  25  26
ATOM     26  C   UNL A   1      31.561  29.733  25.078  1.00  0.00     0.202 C 
BRANCH  26  27
ATOM     27  C   UNL A   1      31.442  30.425  26.440  1.00  0.00     0.261 C 
BRANCH  27  28
ATOM     28  O   UNL A   1      32.661  30.305  27.195  1.00  0.00    -0.460 OA
BRANCH  28  29
ATOM     29  C   UNL A   1      33.387  31.445  27.287  1.00  0.00     0.338 C 
ATOM     30  O   UNL A   1      32.998  32.587  27.122  1.00  0.00    -0.246 OA
BRANCH  29  31
ATOM     31  C   UNL A   1      34.739  31.136  27.794  1.00  0.00     0.060 A 
ATOM     32  C   UNL A   1      35.042  29.791  28.040  1.00  0.00     0.016 A 
ATOM     33  C   UNL A   1      35.666  32.137  28.090  1.00  0.00     0.016 A 
ATOM     34  C   UNL A   1      36.255  29.444  28.631  1.00  0.00     0.010 A 
ATOM     35  C   UNL A   1      36.881  31.789  28.691  1.00  0.00     0.010 A 
ATOM     36  C   UNL A   1      37.164  30.446  28.996  1.00  0.00    -0.014 A 
BRANCH  36  37
ATOM     37  C   UNL A   1      38.334  30.100  29.839  1.00  0.00     0.031 A 
ATOM     38  C   UNL A   1      39.353  29.134  29.302  1.00  0.00     0.074 A 
ATOM     39  C   UNL A   1      38.500  30.653  31.052  1.00  0.00     0.049 A 
ATOM     40  N   UNL A   1      40.426  28.652  29.876  1.00  0.00    -0.248 NA
ATOM     41  C   UNL A   1      39.133  28.646  27.931  1.00  0.00     0.031 C 
ATOM     42  C   UNL A   1      37.604  31.632  31.664  1.00  0.00     0.029 A 
ATOM     43  N   UNL A   1      39.482  30.459  31.990  1.00  0.00    -0.354 N 
ATOM     44  C   UNL A   1      41.002  27.800  28.942  1.00  0.00     0.074 A 
ATOM     45  C   UNL A   1      40.149  27.810  27.774  1.00  0.00     0.031 C 
ATOM     46  C   UNL A   1      38.071  31.944  32.885  1.00  0.00     0.029 A 
ATOM     47  C   UNL A   1      39.280  31.166  33.149  1.00  0.00     0.049 A 
ATOM     48  H   UNL A   1      40.258  29.871  31.846  1.00  0.00     0.167 HD
ATOM     49  C   UNL A   1      42.145  27.082  29.048  1.00  0.00     0.037 A 
ATOM     50  C   UNL A   1      39.981  31.165  34.300  1.00  0.00     0.037 A 
ATOM     51  C   UNL A   1      42.996  27.075  30.208  1.00  0.00     0.049 A 
ATOM     52  C   UNL A   1      41.213  30.304  34.416  1.00  0.00     0.074 A 
ATOM     53  C   UNL A   1      44.185  26.393  30.403  1.00  0.00     0.029 A 
ATOM     54  N   UNL A   1      42.743  27.782  31.374  1.00  0.00    -0.354 N 
ATOM     55  N   UNL A   1      41.762  29.518  33.523  1.00  0.00    -0.248 NA
ATOM     56  C   UNL A   1      41.922  30.332  35.705  1.00  0.00     0.031 C 
ATOM     57  C   UNL A   1      44.629  26.653  31.704  1.00  0.00     0.029 A 
ATOM     58  C   UNL A   1      43.741  27.534  32.302  1.00  0.00     0.049 A 
ATOM     59  H   UNL A   1      41.969  28.372  31.520  1.00  0.00     0.167 HD
ATOM     60  C   UNL A   1      42.890  28.980  34.128  1.00  0.00     0.074 A 
ATOM     61  C   UNL A   1      42.955  29.537  35.463  1.00  0.00     0.031 C 
ATOM     62  C   UNL A   1      43.793  28.104  33.623  1.00  0.00     0.037 A 
BRANCH  49  63
ATOM     63  C   UNL A   1      42.529  26.221  27.881  1.00  0.00     0.064 A 
ATOM     64  C   UNL A   1      41.990  24.938  27.703  1.00  0.00     0.173 A 
ATOM     65  C   UNL A   1      43.425  26.698  26.912  1.00  0.00     0.173 A 
ATOM     66  F   UNL A   1      41.141  24.432  28.610  1.00  0.00    -0.203 F 
ATOM     67  C   UNL A   1      42.352  24.155  26.612  1.00  0.00     0.198 A 
ATOM     68  C   UNL A   1      43.765  25.922  25.807  1.00  0.00     0.198 A 
ATOM     69  F   UNL A   1      43.967  27.919  27.035  1.00  0.00    -0.203 F 
ATOM     70  F   UNL A   1      41.858  22.916  26.484  1.00  0.00    -0.200 F 
ATOM     71  C   UNL A   1      43.234  24.650  25.661  1.00  0.00     0.200 A 
ATOM     72  F   UNL A   1      44.610  26.405  24.886  1.00  0.00    -0.200 F 
ATOM     73  F   UNL A   1      43.577  23.897  24.607  1.00  0.00    -0.200 F 
ENDBRANCH  49  63
BRANCH  50  74
ATOM     74  C   UNL A   1      39.529  31.997  35.445  1.00  0.00     0.064 A 
ATOM     75  C   UNL A   1      38.645  31.488  36.405  1.00  0.00     0.173 A 
ATOM     76  C   UNL A   1      39.958  33.324  35.590  1.00  0.00     0.173 A 
ATOM     77  F   UNL A   1      38.185  30.233  36.292  1.00  0.00    -0.203 F 
ATOM     78  C   UNL A   1      38.193  32.280  37.458  1.00  0.00     0.198 A 
ATOM     79  C   UNL A   1      39.527  34.107  36.658  1.00  0.00     0.198 A 
ATOM     80  F   UNL A   1      40.803  33.859  34.695  1.00  0.00    -0.203 F 
ATOM     81  F   UNL A   1      37.312  31.783  38.336  1.00  0.00    -0.200 F 
ATOM     82  C   UNL A   1      38.638  33.588  37.587  1.00  0.00     0.200 A 
ATOM     83  F   UNL A   1      39.967  35.366  36.783  1.00  0.00    -0.200 F 
ATOM     84  F   UNL A   1      38.205  34.348  38.600  1.00  0.00    -0.200 F 
ENDBRANCH  50  74
BRANCH  62  85
ATOM     85  C   UNL A   1      44.947  27.718  34.503  1.00  0.00     0.064 A 
ATOM     86  C   UNL A   1      44.893  26.591  35.334  1.00  0.00     0.173 A 
ATOM     87  C   UNL A   1      46.137  28.462  34.478  1.00  0.00     0.173 A 
ATOM     88  F   UNL A   1      43.772  25.856  35.404  1.00  0.00    -0.203 F 
ATOM     89  C   UNL A   1      45.982  26.233  36.127  1.00  0.00     0.198 A 
ATOM     90  C   UNL A   1      47.233  28.086  35.251  1.00  0.00     0.198 A 
ATOM     91  F   UNL A   1      46.241  29.545  33.694  1.00  0.00    -0.203 F 
ATOM     92  F   UNL A   1      45.895  25.175  36.944  1.00  0.00    -0.200 F 
ATOM     93  C   UNL A   1      47.152  26.977  36.078  1.00  0.00     0.200 A 
ATOM     94  F   UNL A   1      48.366  28.798  35.194  1.00  0.00    -0.200 F 
ATOM     95  F   UNL A   1      48.201  26.626  36.835  1.00  0.00    -0.200 F 
ENDBRANCH  62  85
ENDBRANCH  36  37
ENDBRANCH  29  31
ENDBRANCH  28  29
ENDBRANCH  27  28
ENDBRANCH  26  27
ENDBRANCH  25  26
ENDBRANCH  24  25
ENDBRANCH   1  24
TORSDOF 19
ENDMDL
MODEL 3
REMARK VINA RESULT:     -10.7      3.358      8.424
REMARK SMILES CCc1ncc(S(=O)(=O)NCc2ccc(C(=O)OCCOCCOC(=O)c3ccc(-c4c5nc(c(-c6c(F)c(F)c(F)c(F)c6F)c6ccc([nH]6)c(-c6c(F)c(F)c(F)c(F)c6F)c6nc(c(-c7c(F)c(F)c(F)c(F)c7F)c7ccc4[nH]7)C=C6)C=C5)cc3)o2)[nH]1
REMARK SMILES IDX 19 1 18 2 16 3 17 4 15 5 12 6 13 7 90 8 14 9 11 10 10 11
REMARK SMILES IDX 7 13 8 14 9 15 6 16 3 17 4 18 91 19 5 20 2 22 1 23 20 24
REMARK SMILES IDX 21 25 22 26 23 27 24 28 25 29 26 30 27 31 28 32 89 33 29 34
REMARK SMILES IDX 88 35 30 36 31 37 32 38 82 39 33 40 87 41 81 42 83 43 34 44
REMARK SMILES IDX 86 45 80 46 79 47 35 49 67 50 47 51 66 52 48 53 51 54 65 55
REMARK SMILES IDX 84 56 49 57 50 58 64 60 85 61 52 62 36 63 37 64 45 65 38 66
REMARK SMILES IDX 39 67 43 68 46 69 40 70 41 71 44 72 42 73 68 74 69 75 77 76
REMARK SMILES IDX 70 77 71 78 75 79 78 80 72 81 73 82 76 83 74 84 53 85 54 86
REMARK SMILES IDX 62 87 55 88 56 89 60 90 63 91 57 92 58 93 61 94 59 95
REMARK H PARENT 10 12 91 21 83 48 51 59
REMARK Flexibility Score: inf
ROOT
ATOM      1  C   UNL A   1      33.336  22.223  26.741  1.00  0.00     0.261 C 
ENDROOT
BRANCH   1   2
ATOM      2  O   UNL A   1      32.282  22.862  26.003  1.00  0.00    -0.457 OA
BRANCH   2   3
ATOM      3  C   UNL A   1      31.299  23.441  26.753  1.00  0.00     0.374 C 
ATOM      4  O   UNL A   1      30.703  22.889  27.668  1.00  0.00    -0.242 OA
BRANCH   3   5
ATOM      5  C   UNL A   1      31.184  24.835  26.387  1.00  0.00     0.211 A 
ATOM      6  C   UNL A   1      32.006  26.770  25.729  1.00  0.00     0.119 A 
ATOM      7  C   UNL A   1      30.635  26.907  25.700  1.00  0.00     0.048 A 
ATOM      8  O   UNL A   1      32.340  25.520  26.147  1.00  0.00    -0.453 OA
ATOM      9  C   UNL A   1      30.105  25.663  26.127  1.00  0.00     0.058 A 
BRANCH   6  10
ATOM     10  C   UNL A   1      33.149  27.657  25.420  1.00  0.00     0.174 C 
BRANCH  10  11
ATOM     11  N   UNL A   1      33.951  27.159  24.299  1.00  0.00    -0.202 NA
ATOM     12  H   UNL A   1      34.913  27.451  24.471  1.00  0.00     0.141 HD
BRANCH  11  13
ATOM     13  S   UNL A   1      33.572  27.625  22.737  1.00  0.00     0.258 S 
ATOM     14  O   UNL A   1      33.704  26.500  21.842  1.00  0.00    -0.205 OA
ATOM     15  O   UNL A   1      34.299  28.849  22.485  1.00  0.00    -0.205 OA
BRANCH  13  16
ATOM     16  C   UNL A   1      31.894  28.084  22.630  1.00  0.00     0.167 A 
ATOM     17  C   UNL A   1      30.112  29.398  22.897  1.00  0.00     0.106 A 
ATOM     18  N   UNL A   1      29.648  28.284  22.369  1.00  0.00    -0.240 NA
ATOM     19  N   UNL A   1      31.472  29.322  23.053  1.00  0.00    -0.332 N 
ATOM     20  C   UNL A   1      30.737  27.466  22.211  1.00  0.00     0.153 A 
ATOM     21  H   UNL A   1      32.050  30.034  23.409  1.00  0.00     0.169 HD
BRANCH  17  22
ATOM     22  C   UNL A   1      29.302  30.571  23.341  1.00  0.00     0.072 C 
ATOM     23  C   UNL A   1      27.805  30.372  23.178  1.00  0.00     0.012 C 
ENDBRANCH  17  22
ENDBRANCH  13  16
ENDBRANCH  11  13
ENDBRANCH  10  11
ENDBRANCH   6  10
ENDBRANCH   3   5
ENDBRANCH   2   3
ENDBRANCH   1   2
BRANCH   1  24
ATOM     24  C   UNL A   1      34.683  22.554  26.089  1.00  0.00     0.202 C 
BRANCH  24  25
ATOM     25  O   UNL A   1      34.972  21.803  24.907  1.00  0.00    -0.374 OA
BRANCH  25  26
ATOM     26  C   UNL A   1      36.214  22.072  24.257  1.00  0.00     0.202 C 
BRANCH  26  27
ATOM     27  C   UNL A   1      37.365  21.131  24.632  1.00  0.00     0.261 C 
BRANCH  27  28
ATOM     28  O   UNL A   1      37.832  21.388  25.969  1.00  0.00    -0.460 OA
BRANCH  28  29
ATOM     29  C   UNL A   1      39.174  21.291  26.130  1.00  0.00     0.338 C 
ATOM     30  O   UNL A   1      39.902  20.386  25.760  1.00  0.00    -0.246 OA
BRANCH  29  31
ATOM     31  C   UNL A   1      39.702  22.548  26.694  1.00  0.00     0.060 A 
ATOM     32  C   UNL A   1      39.203  23.748  26.170  1.00  0.00     0.016 A 
ATOM     33  C   UNL A   1      40.708  22.562  27.662  1.00  0.00     0.016 A 
ATOM     34  C   UNL A   1      39.746  24.966  26.573  1.00  0.00     0.010 A 
ATOM     35  C   UNL A   1      41.258  23.785  28.061  1.00  0.00     0.010 A 
ATOM     36  C   UNL A   1      40.804  24.988  27.492  1.00  0.00    -0.014 A 
BRANCH  36  37
ATOM     37  C   UNL A   1      41.537  26.254  27.733  1.00  0.00     0.031 A 
ATOM     38  C   UNL A   1      40.847  27.360  28.482  1.00  0.00     0.074 A 
ATOM     39  C   UNL A   1      42.803  26.410  27.312  1.00  0.00     0.049 A 
ATOM     40  N   UNL A   1      41.273  28.564  28.767  1.00  0.00    -0.248 NA
ATOM     41  C   UNL A   1      39.493  27.068  28.978  1.00  0.00     0.031 C 
ATOM     42  C   UNL A   1      43.592  25.398  26.613  1.00  0.00     0.029 A 
ATOM     43  N   UNL A   1      43.646  27.490  27.408  1.00  0.00    -0.354 N 
ATOM     44  C   UNL A   1      40.239  29.173  29.466  1.00  0.00     0.074 A 
ATOM     45  C   UNL A   1      39.156  28.218  29.541  1.00  0.00     0.031 C 
ATOM     46  C   UNL A   1      44.802  25.910  26.329  1.00  0.00     0.029 A 
ATOM     47  C   UNL A   1      44.861  27.293  26.801  1.00  0.00     0.049 A 
ATOM     48  H   UNL A   1      43.402  28.324  27.869  1.00  0.00     0.167 HD
ATOM     49  C   UNL A   1      40.202  30.415  30.004  1.00  0.00     0.037 A 
ATOM     50  C   UNL A   1      45.892  28.143  26.628  1.00  0.00     0.037 A 
ATOM     51  C   UNL A   1      41.281  31.364  29.933  1.00  0.00     0.049 A 
ATOM     52  C   UNL A   1      45.799  29.542  27.178  1.00  0.00     0.074 A 
ATOM     53  C   UNL A   1      41.345  32.641  30.464  1.00  0.00     0.029 A 
ATOM     54  N   UNL A   1      42.486  31.138  29.285  1.00  0.00    -0.354 N 
ATOM     55  N   UNL A   1      44.827  30.104  27.855  1.00  0.00    -0.248 NA
ATOM     56  C   UNL A   1      46.949  30.427  26.938  1.00  0.00     0.031 C 
ATOM     57  C   UNL A   1      42.572  33.205  30.098  1.00  0.00     0.029 A 
ATOM     58  C   UNL A   1      43.292  32.262  29.381  1.00  0.00     0.049 A 
ATOM     59  H   UNL A   1      42.733  30.304  28.825  1.00  0.00     0.167 HD
ATOM     60  C   UNL A   1      45.257  31.393  28.143  1.00  0.00     0.074 A 
ATOM     61  C   UNL A   1      46.583  31.529  27.578  1.00  0.00     0.031 C 
ATOM     62  C   UNL A   1      44.612  32.376  28.818  1.00  0.00     0.037 A 
BRANCH  49  63
ATOM     63  C   UNL A   1      38.938  30.828  30.699  1.00  0.00     0.064 A 
ATOM     64  C   UNL A   1      38.756  30.629  32.075  1.00  0.00     0.173 A 
ATOM     65  C   UNL A   1      37.909  31.458  29.983  1.00  0.00     0.173 A 
ATOM     66  F   UNL A   1      39.705  30.017  32.800  1.00  0.00    -0.203 F 
ATOM     67  C   UNL A   1      37.580  31.025  32.706  1.00  0.00     0.198 A 
ATOM     68  C   UNL A   1      36.745  31.876  30.622  1.00  0.00     0.198 A 
ATOM     69  F   UNL A   1      38.035  31.674  28.665  1.00  0.00    -0.203 F 
ATOM     70  F   UNL A   1      37.409  30.787  34.013  1.00  0.00    -0.200 F 
ATOM     71  C   UNL A   1      36.578  31.654  31.980  1.00  0.00     0.200 A 
ATOM     72  F   UNL A   1      35.782  32.491  29.921  1.00  0.00    -0.200 F 
ATOM     73  F   UNL A   1      35.449  32.039  32.589  1.00  0.00    -0.200 F 
ENDBRANCH  49  63
BRANCH  50  74
ATOM     74  C   UNL A   1      47.101  27.700  25.888  1.00  0.00     0.064 A 
ATOM     75  C   UNL A   1      47.154  27.755  24.489  1.00  0.00     0.173 A 
ATOM     76  C   UNL A   1      48.221  27.194  26.565  1.00  0.00     0.173 A 
ATOM     77  F   UNL A   1      46.097  28.205  23.797  1.00  0.00    -0.203 F 
ATOM     78  C   UNL A   1      48.275  27.306  23.793  1.00  0.00     0.198 A 
ATOM     79  C   UNL A   1      49.351  26.770  25.870  1.00  0.00     0.198 A 
ATOM     80  F   UNL A   1      48.218  27.118  27.904  1.00  0.00    -0.203 F 
ATOM     81  F   UNL A   1      48.281  27.328  22.453  1.00  0.00    -0.200 F 
ATOM     82  C   UNL A   1      49.374  26.818  24.484  1.00  0.00     0.200 A 
ATOM     83  F   UNL A   1      50.414  26.309  26.542  1.00  0.00    -0.200 F 
ATOM     84  F   UNL A   1      50.452  26.388  23.815  1.00  0.00    -0.200 F 
ENDBRANCH  50  74
BRANCH  62  85
ATOM     85  C   UNL A   1      45.342  33.674  29.013  1.00  0.00     0.064 A 
ATOM     86  C   UNL A   1      46.175  33.889  30.119  1.00  0.00     0.173 A 
ATOM     87  C   UNL A   1      45.239  34.695  28.056  1.00  0.00     0.173 A 
ATOM     88  F   UNL A   1      46.295  32.949  31.068  1.00  0.00    -0.203 F 
ATOM     89  C   UNL A   1      46.865  35.090  30.272  1.00  0.00     0.198 A 
ATOM     90  C   UNL A   1      45.951  35.884  28.198  1.00  0.00     0.198 A 
ATOM     91  F   UNL A   1      44.460  34.535  26.977  1.00  0.00    -0.203 F 
ATOM     92  F   UNL A   1      47.624  35.291  31.357  1.00  0.00    -0.200 F 
ATOM     93  C   UNL A   1      46.758  36.082  29.308  1.00  0.00     0.200 A 
ATOM     94  F   UNL A   1      45.856  36.835  27.260  1.00  0.00    -0.200 F 
ATOM     95  F   UNL A   1      47.428  37.233  29.453  1.00  0.00    -0.200 F 
ENDBRANCH  62  85
ENDBRANCH  36  37
ENDBRANCH  29  31
ENDBRANCH  28  29
ENDBRANCH  27  28
ENDBRANCH  26  27
ENDBRANCH  25  26
ENDBRANCH  24  25
ENDBRANCH   1  24
TORSDOF 19
ENDMDL
