MODEL 1
REMARK VINA RESULT:     -12.3      0.000      0.000
REMARK SMILES Cc1ccc(Cn2c(C)c(C[NH2+]Cc3ccco3)c(C(=O)OCCOCCOC(=O)c3ccc(-c4c5nc(c(-c6c(F)c(F)c(F)c(F)c6F)c6ccc([nH]6)c(-c6c(F)c(F)c(F)c(F)c6F)c6nc(c(-c7c(F)c(F)c(F)c(F)c7F)c7ccc4[nH]7)C=C6)C=C5)cc3)c2C)cc1
REMARK SMILES IDX 24 1 23 2 22 3 20 4 21 5 19 6 7 7 8 8 94 9 9 10 10 11 95 12
REMARK SMILES IDX 6 13 5 14 1 15 2 16 3 17 97 18 4 19 96 20 11 21 12 22 13 25
REMARK SMILES IDX 14 26 15 27 18 28 16 29 17 30 25 31 26 32 27 33 28 34 29 35
REMARK SMILES IDX 30 36 31 37 32 38 93 39 33 40 92 41 34 42 35 43 36 44 86 45
REMARK SMILES IDX 37 46 91 47 85 48 87 49 38 50 90 51 84 52 83 53 39 55 71 56
REMARK SMILES IDX 51 57 70 58 52 59 55 60 69 61 88 62 53 63 54 64 68 66 89 67
REMARK SMILES IDX 56 68 40 69 41 70 49 71 42 72 43 73 47 74 50 75 44 76 45 77
REMARK SMILES IDX 48 78 46 79 72 80 73 81 81 82 74 83 75 84 79 85 82 86 76 87
REMARK SMILES IDX 77 88 80 89 78 90 57 91 58 92 66 93 59 94 60 95 64 96 67 97
REMARK SMILES IDX 61 98 62 99 65 100 63 101
REMARK H PARENT 12 23 12 24 87 54 55 65
REMARK Flexibility Score: inf
ROOT
ATOM      1  C   UNL A   1      31.953  30.065  26.151  1.00  0.00     0.202 C 
ENDROOT
BRANCH   1   2
ATOM      2  C   UNL A   1      31.828  29.004  27.170  1.00  0.00     0.261 C 
BRANCH   2   3
ATOM      3  O   UNL A   1      32.354  27.749  26.704  1.00  0.00    -0.460 OA
BRANCH   3   4
ATOM      4  C   UNL A   1      31.692  26.643  26.281  1.00  0.00     0.340 C 
ATOM      5  O   UNL A   1      30.814  26.030  26.884  1.00  0.00    -0.246 OA
BRANCH   4   6
ATOM      6  C   UNL A   1      32.261  26.229  25.015  1.00  0.00     0.089 A 
ATOM      7  N   UNL A   1      33.442  24.957  23.607  1.00  0.00    -0.343 N 
ATOM      8  C   UNL A   1      32.802  25.937  22.845  1.00  0.00     0.025 A 
ATOM      9  C   UNL A   1      33.332  25.344  24.921  1.00  0.00     0.030 A 
ATOM     10  C   UNL A   1      33.026  26.157  21.389  1.00  0.00     0.065 C 
ATOM     11  C   UNL A   1      31.992  26.701  23.698  1.00  0.00     0.042 A 
ATOM     12  C   UNL A   1      34.219  24.858  26.014  1.00  0.00     0.065 C 
BRANCH   7  13
ATOM     13  C   UNL A   1      34.321  23.856  23.163  1.00  0.00     0.157 C 
BRANCH  13  14
ATOM     14  C   UNL A   1      33.919  22.454  23.623  1.00  0.00    -0.028 A 
ATOM     15  C   UNL A   1      32.709  18.478  24.929  1.00  0.00     0.044 C 
ATOM     16  C   UNL A   1      33.144  19.822  24.423  1.00  0.00    -0.051 A 
ATOM     17  C   UNL A   1      34.340  20.374  24.865  1.00  0.00     0.004 A 
ATOM     18  C   UNL A   1      32.353  20.573  23.550  1.00  0.00     0.004 A 
ATOM     19  C   UNL A   1      34.732  21.650  24.441  1.00  0.00     0.006 A 
ATOM     20  C   UNL A   1      32.729  21.873  23.165  1.00  0.00     0.006 A 
ENDBRANCH  13  14
ENDBRANCH   7  13
BRANCH  11  21
ATOM     21  C   UNL A   1      31.069  27.864  23.369  1.00  0.00     0.300 C 
BRANCH  21  22
ATOM     22  N   UNL A   1      29.846  27.329  22.762  1.00  0.00    -0.336 N 
ATOM     23  H   UNL A   1      29.788  26.333  22.976  1.00  0.00     0.346 HD
ATOM     24  H   UNL A   1      29.906  27.505  21.759  1.00  0.00     0.346 HD
BRANCH  22  25
ATOM     25  C   UNL A   1      28.621  27.979  23.243  1.00  0.00     0.337 C 
BRANCH  25  26
ATOM     26  C   UNL A   1      28.439  29.384  22.761  1.00  0.00     0.157 A 
ATOM     27  C   UNL A   1      27.771  30.487  23.253  1.00  0.00     0.052 A 
ATOM     28  O   UNL A   1      28.957  29.675  21.528  1.00  0.00    -0.463 OA
ATOM     29  C   UNL A   1      27.884  31.503  22.271  1.00  0.00     0.042 A 
ATOM     30  C   UNL A   1      28.608  30.955  21.240  1.00  0.00     0.195 A 
ENDBRANCH  25  26
ENDBRANCH  22  25
ENDBRANCH  21  22
ENDBRANCH  11  21
ENDBRANCH   4   6
ENDBRANCH   3   4
ENDBRANCH   2   3
ENDBRANCH   1   2
BRANCH   1  31
ATOM     31  O   UNL A   1      33.266  30.517  26.368  1.00  0.00    -0.374 OA
BRANCH  31  32
ATOM     32  C   UNL A   1      33.553  30.947  27.669  1.00  0.00     0.202 C 
BRANCH  32  33
ATOM     33  C   UNL A   1      34.727  31.921  27.625  1.00  0.00     0.261 C 
BRANCH  33  34
ATOM     34  O   UNL A   1      35.977  31.178  27.618  1.00  0.00    -0.460 OA
BRANCH  34  35
ATOM     35  C   UNL A   1      36.584  30.971  28.829  1.00  0.00     0.338 C 
ATOM     36  O   UNL A   1      36.631  31.786  29.735  1.00  0.00    -0.246 OA
BRANCH  35  37
ATOM     37  C   UNL A   1      37.422  29.727  28.794  1.00  0.00     0.060 A 
ATOM     38  C   UNL A   1      37.452  28.835  29.889  1.00  0.00     0.016 A 
ATOM     39  C   UNL A   1      38.433  29.675  27.847  1.00  0.00     0.016 A 
ATOM     40  C   UNL A   1      38.579  28.022  30.117  1.00  0.00     0.010 A 
ATOM     41  C   UNL A   1      39.591  29.002  28.161  1.00  0.00     0.010 A 
ATOM     42  C   UNL A   1      39.690  28.184  29.295  1.00  0.00    -0.014 A 
BRANCH  42  43
ATOM     43  C   UNL A   1      41.029  27.624  29.506  1.00  0.00     0.031 A 
ATOM     44  C   UNL A   1      41.286  26.313  28.886  1.00  0.00     0.074 A 
ATOM     45  C   UNL A   1      42.040  28.362  30.030  1.00  0.00     0.049 A 
ATOM     46  N   UNL A   1      42.144  25.466  29.334  1.00  0.00    -0.248 NA
ATOM     47  C   UNL A   1      40.515  25.779  27.761  1.00  0.00     0.031 C 
ATOM     48  C   UNL A   1      43.488  28.239  29.855  1.00  0.00     0.029 A 
ATOM     49  N   UNL A   1      41.938  29.515  30.809  1.00  0.00    -0.354 N 
ATOM     50  C   UNL A   1      42.313  24.528  28.341  1.00  0.00     0.074 A 
ATOM     51  C   UNL A   1      41.135  24.625  27.527  1.00  0.00     0.031 C 
ATOM     52  C   UNL A   1      44.124  29.086  30.694  1.00  0.00     0.029 A 
ATOM     53  C   UNL A   1      43.116  29.748  31.515  1.00  0.00     0.049 A 
ATOM     54  H   UNL A   1      41.139  30.088  30.854  1.00  0.00     0.167 HD
ATOM     55  C   UNL A   1      43.546  23.973  28.170  1.00  0.00     0.037 A 
ATOM     56  C   UNL A   1      43.073  29.908  32.860  1.00  0.00     0.037 A 
ATOM     57  C   UNL A   1      44.502  24.591  29.114  1.00  0.00     0.049 A 
ATOM     58  C   UNL A   1      43.692  28.659  33.398  1.00  0.00     0.074 A 
ATOM     59  C   UNL A   1      45.547  25.489  28.944  1.00  0.00     0.029 A 
ATOM     60  N   UNL A   1      44.214  24.612  30.484  1.00  0.00    -0.354 N 
ATOM     61  N   UNL A   1      43.610  27.512  32.772  1.00  0.00    -0.248 NA
ATOM     62  C   UNL A   1      44.641  28.660  34.502  1.00  0.00     0.031 C 
ATOM     63  C   UNL A   1      45.882  26.036  30.218  1.00  0.00     0.029 A 
ATOM     64  C   UNL A   1      45.029  25.494  31.170  1.00  0.00     0.049 A 
ATOM     65  H   UNL A   1      43.515  24.064  30.909  1.00  0.00     0.167 HD
ATOM     66  C   UNL A   1      44.608  26.711  33.232  1.00  0.00     0.074 A 
ATOM     67  C   UNL A   1      45.183  27.439  34.356  1.00  0.00     0.031 C 
ATOM     68  C   UNL A   1      45.006  25.558  32.628  1.00  0.00     0.037 A 
BRANCH  55  69
ATOM     69  C   UNL A   1      43.949  23.149  26.950  1.00  0.00     0.064 A 
ATOM     70  C   UNL A   1      43.333  21.908  26.682  1.00  0.00     0.173 A 
ATOM     71  C   UNL A   1      44.921  23.518  25.991  1.00  0.00     0.173 A 
ATOM     72  F   UNL A   1      42.318  21.457  27.428  1.00  0.00    -0.203 F 
ATOM     73  C   UNL A   1      43.713  21.084  25.615  1.00  0.00     0.198 A 
ATOM     74  C   UNL A   1      45.339  22.672  24.956  1.00  0.00     0.198 A 
ATOM     75  F   UNL A   1      45.452  24.744  25.954  1.00  0.00    -0.203 F 
ATOM     76  F   UNL A   1      43.071  19.923  25.415  1.00  0.00    -0.200 F 
ATOM     77  C   UNL A   1      44.731  21.453  24.766  1.00  0.00     0.200 A 
ATOM     78  F   UNL A   1      46.317  23.069  24.128  1.00  0.00    -0.200 F 
ATOM     79  F   UNL A   1      45.096  20.663  23.747  1.00  0.00    -0.200 F 
ENDBRANCH  55  69
BRANCH  56  80
ATOM     80  C   UNL A   1      41.891  30.695  33.342  1.00  0.00     0.064 A 
ATOM     81  C   UNL A   1      41.959  32.102  33.216  1.00  0.00     0.173 A 
ATOM     82  C   UNL A   1      40.604  30.148  33.468  1.00  0.00     0.173 A 
ATOM     83  F   UNL A   1      43.147  32.698  33.053  1.00  0.00    -0.203 F 
ATOM     84  C   UNL A   1      40.815  32.902  33.107  1.00  0.00     0.198 A 
ATOM     85  C   UNL A   1      39.456  30.947  33.335  1.00  0.00     0.198 A 
ATOM     86  F   UNL A   1      40.443  28.822  33.578  1.00  0.00    -0.203 F 
ATOM     87  F   UNL A   1      40.936  34.202  32.790  1.00  0.00    -0.200 F 
ATOM     88  C   UNL A   1      39.562  32.316  33.127  1.00  0.00     0.200 A 
ATOM     89  F   UNL A   1      38.246  30.372  33.272  1.00  0.00    -0.200 F 
ATOM     90  F   UNL A   1      38.479  33.041  32.803  1.00  0.00    -0.200 F 
ENDBRANCH  56  80
BRANCH  68  91
ATOM     91  C   UNL A   1      45.486  24.381  33.426  1.00  0.00     0.064 A 
ATOM     92  C   UNL A   1      44.688  23.254  33.682  1.00  0.00     0.173 A 
ATOM     93  C   UNL A   1      46.848  24.264  33.789  1.00  0.00     0.173 A 
ATOM     94  F   UNL A   1      43.416  23.171  33.265  1.00  0.00    -0.203 F 
ATOM     95  C   UNL A   1      45.188  22.131  34.331  1.00  0.00     0.198 A 
ATOM     96  C   UNL A   1      47.362  23.107  34.357  1.00  0.00     0.198 A 
ATOM     97  F   UNL A   1      47.735  25.244  33.570  1.00  0.00    -0.203 F 
ATOM     98  F   UNL A   1      44.365  21.113  34.611  1.00  0.00    -0.200 F 
ATOM     99  C   UNL A   1      46.527  22.052  34.654  1.00  0.00     0.200 A 
ATOM    100  F   UNL A   1      48.677  23.016  34.593  1.00  0.00    -0.200 F 
ATOM    101  F   UNL A   1      47.017  20.948  35.233  1.00  0.00    -0.200 F 
ENDBRANCH  68  91
ENDBRANCH  42  43
ENDBRANCH  35  37
ENDBRANCH  34  35
ENDBRANCH  33  34
ENDBRANCH  32  33
ENDBRANCH  31  32
ENDBRANCH   1  31
TORSDOF 20
ENDMDL
MODEL 2
REMARK VINA RESULT:     -12.0      1.804      2.419
REMARK SMILES Cc1ccc(Cn2c(C)c(C[NH2+]Cc3ccco3)c(C(=O)OCCOCCOC(=O)c3ccc(-c4c5nc(c(-c6c(F)c(F)c(F)c(F)c6F)c6ccc([nH]6)c(-c6c(F)c(F)c(F)c(F)c6F)c6nc(c(-c7c(F)c(F)c(F)c(F)c7F)c7ccc4[nH]7)C=C6)C=C5)cc3)c2C)cc1
REMARK SMILES IDX 24 1 23 2 22 3 20 4 21 5 19 6 7 7 8 8 94 9 9 10 10 11 95 12
REMARK SMILES IDX 6 13 5 14 1 15 2 16 3 17 97 18 4 19 96 20 11 21 12 22 13 25
REMARK SMILES IDX 14 26 15 27 18 28 16 29 17 30 25 31 26 32 27 33 28 34 29 35
REMARK SMILES IDX 30 36 31 37 32 38 93 39 33 40 92 41 34 42 35 43 36 44 86 45
REMARK SMILES IDX 37 46 91 47 85 48 87 49 38 50 90 51 84 52 83 53 39 55 71 56
REMARK SMILES IDX 51 57 70 58 52 59 55 60 69 61 88 62 53 63 54 64 68 66 89 67
REMARK SMILES IDX 56 68 40 69 41 70 49 71 42 72 43 73 47 74 50 75 44 76 45 77
REMARK SMILES IDX 48 78 46 79 72 80 73 81 81 82 74 83 75 84 79 85 82 86 76 87
REMARK SMILES IDX 77 88 80 89 78 90 57 91 58 92 66 93 59 94 60 95 64 96 67 97
REMARK SMILES IDX 61 98 62 99 65 100 63 101
REMARK H PARENT 12 23 12 24 87 54 55 65
REMARK Flexibility Score: inf
ROOT
ATOM      1  C   UNL A   1      31.516  27.648  27.101  1.00  0.00     0.202 C 
ENDROOT
BRANCH   1   2
ATOM      2  C   UNL A   1      31.947  26.274  26.780  1.00  0.00     0.261 C 
BRANCH   2   3
ATOM      3  O   UNL A   1      30.829  25.408  26.519  1.00  0.00    -0.460 OA
BRANCH   3   4
ATOM      4  C   UNL A   1      30.770  24.053  26.530  1.00  0.00     0.340 C 
ATOM      5  O   UNL A   1      30.105  23.347  27.285  1.00  0.00    -0.246 OA
BRANCH   4   6
ATOM      6  C   UNL A   1      31.711  23.548  25.550  1.00  0.00     0.089 A 
ATOM      7  N   UNL A   1      33.388  22.302  24.759  1.00  0.00    -0.343 N 
ATOM      8  C   UNL A   1      32.851  23.010  23.681  1.00  0.00     0.025 A 
ATOM      9  C   UNL A   1      32.876  22.872  25.899  1.00  0.00     0.030 A 
ATOM     10  C   UNL A   1      33.427  23.025  22.308  1.00  0.00     0.065 C 
ATOM     11  C   UNL A   1      31.745  23.741  24.139  1.00  0.00     0.042 A 
ATOM     12  C   UNL A   1      33.493  22.743  27.249  1.00  0.00     0.065 C 
BRANCH   7  13
ATOM     13  C   UNL A   1      34.494  21.323  24.774  1.00  0.00     0.157 C 
BRANCH  13  14
ATOM     14  C   UNL A   1      34.084  19.852  24.839  1.00  0.00    -0.028 A 
ATOM     15  C   UNL A   1      32.958  15.646  24.971  1.00  0.00     0.044 C 
ATOM     16  C   UNL A   1      33.377  17.086  24.981  1.00  0.00    -0.051 A 
ATOM     17  C   UNL A   1      32.465  18.071  25.341  1.00  0.00     0.004 A 
ATOM     18  C   UNL A   1      34.656  17.485  24.585  1.00  0.00     0.004 A 
ATOM     19  C   UNL A   1      32.828  19.423  25.304  1.00  0.00     0.006 A 
ATOM     20  C   UNL A   1      35.001  18.846  24.505  1.00  0.00     0.006 A 
ENDBRANCH  13  14
ENDBRANCH   7  13
BRANCH  11  21
ATOM     21  C   UNL A   1      30.796  24.644  23.367  1.00  0.00     0.300 C 
BRANCH  21  22
ATOM     22  N   UNL A   1      31.245  26.031  23.524  1.00  0.00    -0.336 N 
ATOM     23  H   UNL A   1      32.249  26.028  23.704  1.00  0.00     0.346 HD
ATOM     24  H   UNL A   1      30.716  26.433  24.299  1.00  0.00     0.346 HD
BRANCH  22  25
ATOM     25  C   UNL A   1      30.987  26.867  22.345  1.00  0.00     0.337 C 
BRANCH  25  26
ATOM     26  C   UNL A   1      30.473  28.237  22.662  1.00  0.00     0.157 A 
ATOM     27  C   UNL A   1      30.347  28.967  23.827  1.00  0.00     0.052 A 
ATOM     28  O   UNL A   1      29.918  28.933  21.623  1.00  0.00    -0.463 OA
ATOM     29  C   UNL A   1      29.680  30.169  23.483  1.00  0.00     0.042 A 
ATOM     30  C   UNL A   1      29.434  30.095  22.134  1.00  0.00     0.195 A 
ENDBRANCH  25  26
ENDBRANCH  22  25
ENDBRANCH  21  22
ENDBRANCH  11  21
ENDBRANCH   4   6
ENDBRANCH   3   4
ENDBRANCH   2   3
ENDBRANCH   1   2
BRANCH   1  31
ATOM     31  O   UNL A   1      32.744  28.277  27.371  1.00  0.00    -0.374 OA
BRANCH  31  32
ATOM     32  C   UNL A   1      32.762  29.668  27.209  1.00  0.00     0.202 C 
BRANCH  32  33
ATOM     33  C   UNL A   1      34.159  30.101  26.773  1.00  0.00     0.261 C 
BRANCH  33  34
ATOM     34  O   UNL A   1      35.150  29.543  27.678  1.00  0.00    -0.460 OA
BRANCH  34  35
ATOM     35  C   UNL A   1      35.789  30.418  28.515  1.00  0.00     0.338 C 
ATOM     36  O   UNL A   1      35.236  31.269  29.191  1.00  0.00    -0.246 OA
BRANCH  35  37
ATOM     37  C   UNL A   1      37.271  30.386  28.281  1.00  0.00     0.060 A 
ATOM     38  C   UNL A   1      37.812  29.833  27.099  1.00  0.00     0.016 A 
ATOM     39  C   UNL A   1      38.088  30.554  29.388  1.00  0.00     0.016 A 
ATOM     40  C   UNL A   1      39.114  29.297  27.092  1.00  0.00     0.010 A 
ATOM     41  C   UNL A   1      39.291  29.889  29.422  1.00  0.00     0.010 A 
ATOM     42  C   UNL A   1      39.815  29.243  28.293  1.00  0.00    -0.014 A 
BRANCH  42  43
ATOM     43  C   UNL A   1      41.063  28.517  28.552  1.00  0.00     0.031 A 
ATOM     44  C   UNL A   1      41.001  27.053  28.408  1.00  0.00     0.074 A 
ATOM     45  C   UNL A   1      42.251  29.160  28.681  1.00  0.00     0.049 A 
ATOM     46  N   UNL A   1      41.774  26.240  29.036  1.00  0.00    -0.248 NA
ATOM     47  C   UNL A   1      39.980  26.354  27.624  1.00  0.00     0.031 C 
ATOM     48  C   UNL A   1      43.611  28.691  28.417  1.00  0.00     0.029 A 
ATOM     49  N   UNL A   1      42.464  30.498  29.013  1.00  0.00    -0.354 N 
ATOM     50  C   UNL A   1      41.626  25.017  28.423  1.00  0.00     0.074 A 
ATOM     51  C   UNL A   1      40.360  25.085  27.748  1.00  0.00     0.031 C 
ATOM     52  C   UNL A   1      44.504  29.614  28.838  1.00  0.00     0.029 A 
ATOM     53  C   UNL A   1      43.764  30.699  29.471  1.00  0.00     0.049 A 
ATOM     54  H   UNL A   1      41.785  31.207  28.934  1.00  0.00     0.167 HD
ATOM     55  C   UNL A   1      42.709  24.194  28.335  1.00  0.00     0.037 A 
ATOM     56  C   UNL A   1      43.969  31.293  30.673  1.00  0.00     0.037 A 
ATOM     57  C   UNL A   1      43.893  24.874  28.903  1.00  0.00     0.049 A 
ATOM     58  C   UNL A   1      44.459  30.188  31.549  1.00  0.00     0.074 A 
ATOM     59  C   UNL A   1      45.026  25.431  28.326  1.00  0.00     0.029 A 
ATOM     60  N   UNL A   1      43.842  25.398  30.201  1.00  0.00    -0.354 N 
ATOM     61  N   UNL A   1      44.093  28.942  31.376  1.00  0.00    -0.248 NA
ATOM     62  C   UNL A   1      45.565  30.350  32.483  1.00  0.00     0.031 C 
ATOM     63  C   UNL A   1      45.649  26.280  29.288  1.00  0.00     0.029 A 
ATOM     64  C   UNL A   1      44.888  26.266  30.449  1.00  0.00     0.049 A 
ATOM     65  H   UNL A   1      43.142  25.174  30.858  1.00  0.00     0.167 HD
ATOM     66  C   UNL A   1      45.012  28.146  31.986  1.00  0.00     0.074 A 
ATOM     67  C   UNL A   1      45.872  29.064  32.721  1.00  0.00     0.031 C 
ATOM     68  C   UNL A   1      45.116  26.804  31.787  1.00  0.00     0.037 A 
BRANCH  55  69
ATOM     69  C   UNL A   1      42.769  22.954  27.447  1.00  0.00     0.064 A 
ATOM     70  C   UNL A   1      41.990  21.815  27.745  1.00  0.00     0.173 A 
ATOM     71  C   UNL A   1      43.555  22.814  26.280  1.00  0.00     0.173 A 
ATOM     72  F   UNL A   1      41.110  21.815  28.753  1.00  0.00    -0.203 F 
ATOM     73  C   UNL A   1      42.058  20.630  27.002  1.00  0.00     0.198 A 
ATOM     74  C   UNL A   1      43.665  21.613  25.568  1.00  0.00     0.198 A 
ATOM     75  F   UNL A   1      44.187  23.850  25.721  1.00  0.00    -0.203 F 
ATOM     76  F   UNL A   1      41.277  19.593  27.337  1.00  0.00    -0.200 F 
ATOM     77  C   UNL A   1      42.913  20.519  25.928  1.00  0.00     0.200 A 
ATOM     78  F   UNL A   1      44.488  21.541  24.510  1.00  0.00    -0.200 F 
ATOM     79  F   UNL A   1      42.980  19.384  25.219  1.00  0.00    -0.200 F 
ENDBRANCH  55  69
BRANCH  56  80
ATOM     80  C   UNL A   1      43.023  32.420  30.964  1.00  0.00     0.064 A 
ATOM     81  C   UNL A   1      43.250  33.642  30.289  1.00  0.00     0.173 A 
ATOM     82  C   UNL A   1      41.727  32.224  31.468  1.00  0.00     0.173 A 
ATOM     83  F   UNL A   1      44.449  33.888  29.746  1.00  0.00    -0.203 F 
ATOM     84  C   UNL A   1      42.224  34.559  30.031  1.00  0.00     0.198 A 
ATOM     85  C   UNL A   1      40.692  33.133  31.189  1.00  0.00     0.198 A 
ATOM     86  F   UNL A   1      41.417  31.089  32.108  1.00  0.00    -0.203 F 
ATOM     87  F   UNL A   1      42.450  35.604  29.218  1.00  0.00    -0.200 F 
ATOM     88  C   UNL A   1      40.934  34.284  30.450  1.00  0.00     0.200 A 
ATOM     89  F   UNL A   1      39.429  32.829  31.522  1.00  0.00    -0.200 F 
ATOM     90  F   UNL A   1      39.914  35.042  30.017  1.00  0.00    -0.200 F 
ENDBRANCH  56  80
BRANCH  68  91
ATOM     91  C   UNL A   1      45.525  25.878  32.894  1.00  0.00     0.064 A 
ATOM     92  C   UNL A   1      44.606  25.289  33.779  1.00  0.00     0.173 A 
ATOM     93  C   UNL A   1      46.850  25.389  32.973  1.00  0.00     0.173 A 
ATOM     94  F   UNL A   1      43.293  25.553  33.722  1.00  0.00    -0.203 F 
ATOM     95  C   UNL A   1      44.997  24.352  34.729  1.00  0.00     0.198 A 
ATOM     96  C   UNL A   1      47.216  24.390  33.863  1.00  0.00     0.198 A 
ATOM     97  F   UNL A   1      47.825  25.830  32.165  1.00  0.00    -0.203 F 
ATOM     98  F   UNL A   1      44.091  23.876  35.593  1.00  0.00    -0.200 F 
ATOM     99  C   UNL A   1      46.297  23.892  34.760  1.00  0.00     0.200 A 
ATOM    100  F   UNL A   1      48.462  23.899  33.828  1.00  0.00    -0.200 F 
ATOM    101  F   UNL A   1      46.658  22.951  35.641  1.00  0.00    -0.200 F 
ENDBRANCH  68  91
ENDBRANCH  42  43
ENDBRANCH  35  37
ENDBRANCH  34  35
ENDBRANCH  33  34
ENDBRANCH  32  33
ENDBRANCH  31  32
ENDBRANCH   1  31
TORSDOF 20
ENDMDL
MODEL 3
REMARK VINA RESULT:     -11.9      2.193      3.353
REMARK SMILES Cc1ccc(Cn2c(C)c(C[NH2+]Cc3ccco3)c(C(=O)OCCOCCOC(=O)c3ccc(-c4c5nc(c(-c6c(F)c(F)c(F)c(F)c6F)c6ccc([nH]6)c(-c6c(F)c(F)c(F)c(F)c6F)c6nc(c(-c7c(F)c(F)c(F)c(F)c7F)c7ccc4[nH]7)C=C6)C=C5)cc3)c2C)cc1
REMARK SMILES IDX 24 1 23 2 22 3 20 4 21 5 19 6 7 7 8 8 94 9 9 10 10 11 95 12
REMARK SMILES IDX 6 13 5 14 1 15 2 16 3 17 97 18 4 19 96 20 11 21 12 22 13 25
REMARK SMILES IDX 14 26 15 27 18 28 16 29 17 30 25 31 26 32 27 33 28 34 29 35
REMARK SMILES IDX 30 36 31 37 32 38 93 39 33 40 92 41 34 42 35 43 36 44 86 45
REMARK SMILES IDX 37 46 91 47 85 48 87 49 38 50 90 51 84 52 83 53 39 55 71 56
REMARK SMILES IDX 51 57 70 58 52 59 55 60 69 61 88 62 53 63 54 64 68 66 89 67
REMARK SMILES IDX 56 68 40 69 41 70 49 71 42 72 43 73 47 74 50 75 44 76 45 77
REMARK SMILES IDX 48 78 46 79 72 80 73 81 81 82 74 83 75 84 79 85 82 86 76 87
REMARK SMILES IDX 77 88 80 89 78 90 57 91 58 92 66 93 59 94 60 95 64 96 67 97
REMARK SMILES IDX 61 98 62 99 65 100 63 101
REMARK H PARENT 12 23 12 24 87 54 55 65
REMARK Flexibility Score: inf
ROOT
ATOM      1  C   UNL A   1      31.786  28.859  27.611  1.00  0.00     0.202 C 
ENDROOT
BRANCH   1   2
ATOM      2  C   UNL A   1      31.997  27.636  26.813  1.00  0.00     0.261 C 
BRANCH   2   3
ATOM      3  O   UNL A   1      30.755  27.002  26.461  1.00  0.00    -0.460 OA
BRANCH   3   4
ATOM      4  C   UNL A   1      30.525  25.731  26.046  1.00  0.00     0.340 C 
ATOM      5  O   UNL A   1      29.784  24.903  26.571  1.00  0.00    -0.246 OA
BRANCH   4   6
ATOM      6  C   UNL A   1      31.384  25.462  24.910  1.00  0.00     0.089 A 
ATOM      7  N   UNL A   1      32.984  24.432  23.739  1.00  0.00    -0.343 N 
ATOM      8  C   UNL A   1      32.375  25.356  22.888  1.00  0.00     0.025 A 
ATOM      9  C   UNL A   1      32.566  24.733  25.013  1.00  0.00     0.030 A 
ATOM     10  C   UNL A   1      32.846  25.677  21.512  1.00  0.00     0.065 C 
ATOM     11  C   UNL A   1      31.314  25.961  23.578  1.00  0.00     0.042 A 
ATOM     12  C   UNL A   1      33.282  24.315  26.251  1.00  0.00     0.065 C 
BRANCH   7  13
ATOM     13  C   UNL A   1      34.079  23.482  23.455  1.00  0.00     0.157 C 
BRANCH  13  14
ATOM     14  C   UNL A   1      33.797  22.018  23.793  1.00  0.00    -0.028 A 
ATOM     15  C   UNL A   1      33.060  17.834  24.756  1.00  0.00     0.044 C 
ATOM     16  C   UNL A   1      33.296  19.290  24.484  1.00  0.00    -0.051 A 
ATOM     17  C   UNL A   1      32.368  20.017  23.750  1.00  0.00     0.004 A 
ATOM     18  C   UNL A   1      34.461  19.939  24.905  1.00  0.00     0.004 A 
ATOM     19  C   UNL A   1      32.601  21.364  23.445  1.00  0.00     0.006 A 
ATOM     20  C   UNL A   1      34.711  21.279  24.555  1.00  0.00     0.006 A 
ENDBRANCH  13  14
ENDBRANCH   7  13
BRANCH  11  21
ATOM     21  C   UNL A   1      30.319  27.005  23.098  1.00  0.00     0.300 C 
BRANCH  21  22
ATOM     22  N   UNL A   1      31.012  28.293  22.993  1.00  0.00    -0.336 N 
ATOM     23  H   UNL A   1      30.976  28.602  22.021  1.00  0.00     0.346 HD
ATOM     24  H   UNL A   1      31.968  28.148  23.316  1.00  0.00     0.346 HD
BRANCH  22  25
ATOM     25  C   UNL A   1      30.425  29.344  23.835  1.00  0.00     0.337 C 
BRANCH  25  26
ATOM     26  C   UNL A   1      29.448  30.227  23.125  1.00  0.00     0.157 A 
ATOM     27  C   UNL A   1      29.022  30.326  21.815  1.00  0.00     0.052 A 
ATOM     28  O   UNL A   1      28.884  31.229  23.866  1.00  0.00    -0.463 OA
ATOM     29  C   UNL A   1      28.155  31.446  21.753  1.00  0.00     0.042 A 
ATOM     30  C   UNL A   1      28.112  31.964  23.024  1.00  0.00     0.195 A 
ENDBRANCH  25  26
ENDBRANCH  22  25
ENDBRANCH  21  22
ENDBRANCH  11  21
ENDBRANCH   4   6
ENDBRANCH   3   4
ENDBRANCH   2   3
ENDBRANCH   1   2
BRANCH   1  31
ATOM     31  O   UNL A   1      33.023  29.511  27.470  1.00  0.00    -0.374 OA
BRANCH  31  32
ATOM     32  C   UNL A   1      32.958  30.881  27.190  1.00  0.00     0.202 C 
BRANCH  32  33
ATOM     33  C   UNL A   1      34.293  31.527  27.550  1.00  0.00     0.261 C 
BRANCH  33  34
ATOM     34  O   UNL A   1      34.447  31.557  28.996  1.00  0.00    -0.460 OA
BRANCH  34  35
ATOM     35  C   UNL A   1      34.727  32.772  29.565  1.00  0.00     0.338 C 
ATOM     36  O   UNL A   1      34.045  33.775  29.440  1.00  0.00    -0.246 OA
BRANCH  35  37
ATOM     37  C   UNL A   1      36.118  32.785  30.126  1.00  0.00     0.060 A 
ATOM     38  C   UNL A   1      37.204  33.285  29.373  1.00  0.00     0.016 A 
ATOM     39  C   UNL A   1      36.367  31.965  31.215  1.00  0.00     0.016 A 
ATOM     40  C   UNL A   1      38.513  32.821  29.612  1.00  0.00     0.010 A 
ATOM     41  C   UNL A   1      37.613  31.397  31.337  1.00  0.00     0.010 A 
ATOM     42  C   UNL A   1      38.694  31.799  30.538  1.00  0.00    -0.014 A 
BRANCH  42  43
ATOM     43  C   UNL A   1      39.915  31.017  30.758  1.00  0.00     0.031 A 
ATOM     44  C   UNL A   1      40.023  29.760  29.999  1.00  0.00     0.074 A 
ATOM     45  C   UNL A   1      40.981  31.526  31.427  1.00  0.00     0.049 A 
ATOM     46  N   UNL A   1      40.709  28.745  30.390  1.00  0.00    -0.248 NA
ATOM     47  C   UNL A   1      39.270  29.481  28.774  1.00  0.00     0.031 C 
ATOM     48  C   UNL A   1      42.403  31.199  31.325  1.00  0.00     0.029 A 
ATOM     49  N   UNL A   1      40.990  32.586  32.333  1.00  0.00    -0.354 N 
ATOM     50  C   UNL A   1      40.814  27.909  29.303  1.00  0.00     0.074 A 
ATOM     51  C   UNL A   1      39.729  28.278  28.437  1.00  0.00     0.031 C 
ATOM     52  C   UNL A   1      43.091  31.838  32.297  1.00  0.00     0.029 A 
ATOM     53  C   UNL A   1      42.131  32.553  33.131  1.00  0.00     0.049 A 
ATOM     54  H   UNL A   1      40.283  33.268  32.401  1.00  0.00     0.167 HD
ATOM     55  C   UNL A   1      41.961  27.191  29.138  1.00  0.00     0.037 A 
ATOM     56  C   UNL A   1      42.009  32.567  34.481  1.00  0.00     0.037 A 
ATOM     57  C   UNL A   1      42.922  27.544  30.206  1.00  0.00     0.049 A 
ATOM     58  C   UNL A   1      42.393  31.185  34.899  1.00  0.00     0.074 A 
ATOM     59  C   UNL A   1      44.098  28.281  30.209  1.00  0.00     0.029 A 
ATOM     60  N   UNL A   1      42.536  27.456  31.549  1.00  0.00    -0.354 N 
ATOM     61  N   UNL A   1      42.191  30.141  34.133  1.00  0.00    -0.248 NA
ATOM     62  C   UNL A   1      43.244  30.914  36.049  1.00  0.00     0.031 C 
ATOM     63  C   UNL A   1      44.410  28.623  31.557  1.00  0.00     0.029 A 
ATOM     64  C   UNL A   1      43.416  28.118  32.384  1.00  0.00     0.049 A 
ATOM     65  H   UNL A   1      41.732  26.979  31.861  1.00  0.00     0.167 HD
ATOM     66  C   UNL A   1      43.021  29.148  34.551  1.00  0.00     0.074 A 
ATOM     67  C   UNL A   1      43.608  29.648  35.787  1.00  0.00     0.031 C 
ATOM     68  C   UNL A   1      43.291  28.022  33.835  1.00  0.00     0.037 A 
BRANCH  55  69
ATOM     69  C   UNL A   1      42.331  26.456  27.853  1.00  0.00     0.064 A 
ATOM     70  C   UNL A   1      41.785  25.187  27.565  1.00  0.00     0.173 A 
ATOM     71  C   UNL A   1      43.203  26.938  26.850  1.00  0.00     0.173 A 
ATOM     72  F   UNL A   1      40.860  24.629  28.355  1.00  0.00    -0.203 F 
ATOM     73  C   UNL A   1      42.143  24.442  26.434  1.00  0.00     0.198 A 
ATOM     74  C   UNL A   1      43.603  26.174  25.746  1.00  0.00     0.198 A 
ATOM     75  F   UNL A   1      43.644  28.200  26.839  1.00  0.00    -0.203 F 
ATOM     76  F   UNL A   1      41.570  23.248  26.219  1.00  0.00    -0.200 F 
ATOM     77  C   UNL A   1      43.069  24.923  25.536  1.00  0.00     0.200 A 
ATOM     78  F   UNL A   1      44.489  26.678  24.874  1.00  0.00    -0.200 F 
ATOM     79  F   UNL A   1      43.413  24.209  24.456  1.00  0.00    -0.200 F 
ENDBRANCH  55  69
BRANCH  56  80
ATOM     80  C   UNL A   1      40.921  33.469  34.985  1.00  0.00     0.064 A 
ATOM     81  C   UNL A   1      39.741  32.850  35.461  1.00  0.00     0.173 A 
ATOM     82  C   UNL A   1      41.155  34.779  35.431  1.00  0.00     0.173 A 
ATOM     83  F   UNL A   1      39.466  31.587  35.111  1.00  0.00    -0.203 F 
ATOM     84  C   UNL A   1      38.907  33.454  36.410  1.00  0.00     0.198 A 
ATOM     85  C   UNL A   1      40.332  35.376  36.401  1.00  0.00     0.198 A 
ATOM     86  F   UNL A   1      42.256  35.436  35.044  1.00  0.00    -0.203 F 
ATOM     87  F   UNL A   1      37.914  32.747  36.973  1.00  0.00    -0.200 F 
ATOM     88  C   UNL A   1      39.227  34.704  36.909  1.00  0.00     0.200 A 
ATOM     89  F   UNL A   1      40.684  36.550  36.945  1.00  0.00    -0.200 F 
ATOM     90  F   UNL A   1      38.563  35.190  37.970  1.00  0.00    -0.200 F 
ENDBRANCH  56  80
BRANCH  68  91
ATOM     91  C   UNL A   1      43.528  26.704  34.510  1.00  0.00     0.064 A 
ATOM     92  C   UNL A   1      42.486  25.866  34.942  1.00  0.00     0.173 A 
ATOM     93  C   UNL A   1      44.826  26.143  34.561  1.00  0.00     0.173 A 
ATOM     94  F   UNL A   1      41.196  26.212  34.820  1.00  0.00    -0.203 F 
ATOM     95  C   UNL A   1      42.728  24.603  35.468  1.00  0.00     0.198 A 
ATOM     96  C   UNL A   1      45.052  24.848  35.005  1.00  0.00     0.198 A 
ATOM     97  F   UNL A   1      45.911  26.811  34.147  1.00  0.00    -0.203 F 
ATOM     98  F   UNL A   1      41.703  23.875  35.929  1.00  0.00    -0.200 F 
ATOM     99  C   UNL A   1      44.008  24.088  35.485  1.00  0.00     0.200 A 
ATOM    100  F   UNL A   1      46.289  24.336  34.942  1.00  0.00    -0.200 F 
ATOM    101  F   UNL A   1      44.232  22.851  35.944  1.00  0.00    -0.200 F 
ENDBRANCH  68  91
ENDBRANCH  42  43
ENDBRANCH  35  37
ENDBRANCH  34  35
ENDBRANCH  33  34
ENDBRANCH  32  33
ENDBRANCH  31  32
ENDBRANCH   1  31
TORSDOF 20
ENDMDL
