MODEL 1
REMARK VINA RESULT:     -11.9      0.000      0.000
REMARK SMILES C[C@@H](C(=O)OCCOCCOC(=O)c1ccc(-c2c3nc(c(-c4c(F)c(F)c(F)c(F)c4F)c4ccc([nH]4)c(-c4c(F)c(F)c(F)c(F)c4F)c4nc(c(-c5c(F)c(F)c(F)c(F)c5F)c5ccc2[nH]5)C=C4)C=C3)cc1)c1cc(C(=O)c2ccccc2)ccc1O
REMARK SMILES IDX 7 1 6 2 5 3 3 4 4 5 2 6 1 7 77 8 78 9 90 10 79 11 89 12
REMARK SMILES IDX 88 13 91 14 80 16 81 17 82 18 83 19 87 20 84 21 86 22 85 23
REMARK SMILES IDX 8 24 9 25 10 26 11 27 12 28 13 29 14 30 15 31 76 32 16 33
REMARK SMILES IDX 75 34 17 35 18 36 19 37 69 38 20 39 74 40 68 41 70 42 21 43
REMARK SMILES IDX 73 44 67 45 66 46 22 48 54 49 34 50 53 51 35 52 38 53 52 54
REMARK SMILES IDX 71 55 36 56 37 57 51 59 72 60 39 61 23 62 24 63 32 64 25 65
REMARK SMILES IDX 26 66 30 67 33 68 27 69 28 70 31 71 29 72 55 73 56 74 64 75
REMARK SMILES IDX 57 76 58 77 62 78 65 79 59 80 60 81 63 82 61 83 40 84 41 85
REMARK SMILES IDX 49 86 42 87 43 88 47 89 50 90 44 91 45 92 48 93 46 94
REMARK H PARENT 91 15 70 47 38 58
REMARK Flexibility Score: inf
ROOT
ATOM      1  C   UNL A   1      44.407  19.065  25.053  1.00  0.00     0.202 C 
ENDROOT
BRANCH   1   2
ATOM      2  C   UNL A   1      43.148  18.785  25.879  1.00  0.00     0.261 C 
BRANCH   2   3
ATOM      3  O   UNL A   1      42.039  19.513  25.327  1.00  0.00    -0.463 OA
BRANCH   3   4
ATOM      4  C   UNL A   1      41.533  20.502  26.110  1.00  0.00     0.313 C 
ATOM      5  O   UNL A   1      42.175  21.472  26.497  1.00  0.00    -0.252 OA
BRANCH   4   6
ATOM      6  C   UNL A   1      40.036  20.315  26.381  1.00  0.00     0.130 C 
ATOM      7  C   UNL A   1      39.459  19.064  25.695  1.00  0.00     0.025 C 
BRANCH   6   8
ATOM      8  C   UNL A   1      39.184  21.561  26.101  1.00  0.00     0.009 A 
ATOM      9  C   UNL A   1      38.195  21.577  25.091  1.00  0.00     0.020 A 
ATOM     10  C   UNL A   1      39.336  22.741  26.851  1.00  0.00     0.119 A 
ATOM     11  C   UNL A   1      37.409  22.718  24.842  1.00  0.00     0.023 A 
ATOM     12  C   UNL A   1      38.517  23.853  26.652  1.00  0.00     0.047 A 
ATOM     13  C   UNL A   1      37.551  23.846  25.651  1.00  0.00     0.016 A 
BRANCH  10  14
ATOM     14  O   UNL A   1      40.283  22.892  27.824  1.00  0.00    -0.508 OA
ATOM     15  H   UNL A   1      40.081  23.368  28.605  1.00  0.00     0.293 HD
ENDBRANCH  10  14
BRANCH  11  16
ATOM     16  C   UNL A   1      36.403  22.683  23.744  1.00  0.00     0.193 C 
ATOM     17  O   UNL A   1      36.717  23.084  22.627  1.00  0.00    -0.289 OA
BRANCH  16  18
ATOM     18  C   UNL A   1      35.031  22.152  23.968  1.00  0.00     0.022 A 
ATOM     19  C   UNL A   1      33.952  22.808  23.364  1.00  0.00     0.012 A 
ATOM     20  C   UNL A   1      34.800  21.032  24.776  1.00  0.00     0.012 A 
ATOM     21  C   UNL A   1      32.654  22.318  23.530  1.00  0.00     0.001 A 
ATOM     22  C   UNL A   1      33.501  20.545  24.940  1.00  0.00     0.001 A 
ATOM     23  C   UNL A   1      32.432  21.183  24.310  1.00  0.00     0.000 A 
ENDBRANCH  16  18
ENDBRANCH  11  16
ENDBRANCH   6   8
ENDBRANCH   4   6
ENDBRANCH   3   4
ENDBRANCH   2   3
ENDBRANCH   1   2
BRANCH   1  24
ATOM     24  O   UNL A   1      44.323  20.165  24.145  1.00  0.00    -0.374 OA
BRANCH  24  25
ATOM     25  C   UNL A   1      45.008  21.368  24.491  1.00  0.00     0.202 C 
BRANCH  25  26
ATOM     26  C   UNL A   1      44.574  22.631  23.735  1.00  0.00     0.261 C 
BRANCH  26  27
ATOM     27  O   UNL A   1      43.801  23.531  24.553  1.00  0.00    -0.460 OA
BRANCH  27  28
ATOM     28  C   UNL A   1      44.477  24.624  24.982  1.00  0.00     0.338 C 
ATOM     29  O   UNL A   1      45.570  25.021  24.604  1.00  0.00    -0.246 OA
BRANCH  28  30
ATOM     30  C   UNL A   1      43.646  25.416  25.906  1.00  0.00     0.060 A 
ATOM     31  C   UNL A   1      43.927  26.785  26.013  1.00  0.00     0.016 A 
ATOM     32  C   UNL A   1      42.691  24.821  26.734  1.00  0.00     0.016 A 
ATOM     33  C   UNL A   1      43.287  27.555  26.981  1.00  0.00     0.010 A 
ATOM     34  C   UNL A   1      42.057  25.596  27.712  1.00  0.00     0.010 A 
ATOM     35  C   UNL A   1      42.378  26.958  27.864  1.00  0.00    -0.014 A 
BRANCH  35  36
ATOM     36  C   UNL A   1      41.882  27.730  29.030  1.00  0.00     0.031 A 
ATOM     37  C   UNL A   1      42.630  27.651  30.333  1.00  0.00     0.074 A 
ATOM     38  C   UNL A   1      40.805  28.528  28.920  1.00  0.00     0.049 A 
ATOM     39  N   UNL A   1      42.373  28.235  31.476  1.00  0.00    -0.248 NA
ATOM     40  C   UNL A   1      43.830  26.801  30.347  1.00  0.00     0.031 C 
ATOM     41  C   UNL A   1      40.021  28.722  27.703  1.00  0.00     0.029 A 
ATOM     42  N   UNL A   1      40.186  29.324  29.852  1.00  0.00    -0.354 N 
ATOM     43  C   UNL A   1      43.375  27.823  32.344  1.00  0.00     0.074 A 
ATOM     44  C   UNL A   1      44.228  26.917  31.606  1.00  0.00     0.031 C 
ATOM     45  C   UNL A   1      39.017  29.577  27.964  1.00  0.00     0.029 A 
ATOM     46  C   UNL A   1      39.073  29.968  29.372  1.00  0.00     0.049 A 
ATOM     47  H   UNL A   1      40.510  29.423  30.777  1.00  0.00     0.167 HD
ATOM     48  C   UNL A   1      43.573  28.176  33.636  1.00  0.00     0.037 A 
ATOM     49  C   UNL A   1      38.193  30.769  30.004  1.00  0.00     0.037 A 
ATOM     50  C   UNL A   1      42.727  29.079  34.372  1.00  0.00     0.049 A 
ATOM     51  C   UNL A   1      38.395  31.092  31.460  1.00  0.00     0.074 A 
ATOM     52  C   UNL A   1      42.857  29.512  35.680  1.00  0.00     0.029 A 
ATOM     53  N   UNL A   1      41.588  29.683  33.861  1.00  0.00    -0.354 N 
ATOM     54  N   UNL A   1      39.360  30.719  32.266  1.00  0.00    -0.248 NA
ATOM     55  C   UNL A   1      37.388  31.954  32.096  1.00  0.00     0.031 C 
ATOM     56  C   UNL A   1      41.770  30.343  35.975  1.00  0.00     0.029 A 
ATOM     57  C   UNL A   1      40.990  30.466  34.837  1.00  0.00     0.049 A 
ATOM     58  H   UNL A   1      41.254  29.574  32.942  1.00  0.00     0.167 HD
ATOM     59  C   UNL A   1      39.092  31.317  33.490  1.00  0.00     0.074 A 
ATOM     60  C   UNL A   1      37.879  32.090  33.320  1.00  0.00     0.031 C 
ATOM     61  C   UNL A   1      39.788  31.235  34.650  1.00  0.00     0.037 A 
BRANCH  48  62
ATOM     62  C   UNL A   1      44.742  27.565  34.350  1.00  0.00     0.064 A 
ATOM     63  C   UNL A   1      45.995  28.193  34.382  1.00  0.00     0.173 A 
ATOM     64  C   UNL A   1      44.597  26.351  35.040  1.00  0.00     0.173 A 
ATOM     65  F   UNL A   1      46.189  29.348  33.727  1.00  0.00    -0.203 F 
ATOM     66  C   UNL A   1      47.067  27.619  35.061  1.00  0.00     0.198 A 
ATOM     67  C   UNL A   1      45.663  25.793  35.739  1.00  0.00     0.198 A 
ATOM     68  F   UNL A   1      43.417  25.712  35.043  1.00  0.00    -0.203 F 
ATOM     69  F   UNL A   1      48.267  28.216  35.045  1.00  0.00    -0.200 F 
ATOM     70  C   UNL A   1      46.899  26.423  35.744  1.00  0.00     0.200 A 
ATOM     71  F   UNL A   1      45.496  24.643  36.408  1.00  0.00    -0.200 F 
ATOM     72  F   UNL A   1      47.928  25.874  36.402  1.00  0.00    -0.200 F 
ENDBRANCH  48  62
BRANCH  49  73
ATOM     73  C   UNL A   1      37.026  31.315  29.262  1.00  0.00     0.064 A 
ATOM     74  C   UNL A   1      36.962  32.669  28.909  1.00  0.00     0.173 A 
ATOM     75  C   UNL A   1      35.942  30.496  28.911  1.00  0.00     0.173 A 
ATOM     76  F   UNL A   1      37.961  33.498  29.248  1.00  0.00    -0.203 F 
ATOM     77  C   UNL A   1      35.853  33.188  28.244  1.00  0.00     0.198 A 
ATOM     78  C   UNL A   1      34.846  31.010  28.224  1.00  0.00     0.198 A 
ATOM     79  F   UNL A   1      35.954  29.194  29.231  1.00  0.00    -0.203 F 
ATOM     80  F   UNL A   1      35.796  34.496  27.956  1.00  0.00    -0.200 F 
ATOM     81  C   UNL A   1      34.798  32.357  27.898  1.00  0.00     0.200 A 
ATOM     82  F   UNL A   1      33.833  30.200  27.882  1.00  0.00    -0.200 F 
ATOM     83  F   UNL A   1      33.731  32.855  27.257  1.00  0.00    -0.200 F 
ENDBRANCH  49  73
BRANCH  61  84
ATOM     84  C   UNL A   1      39.276  32.026  35.820  1.00  0.00     0.064 A 
ATOM     85  C   UNL A   1      39.646  33.363  36.022  1.00  0.00     0.173 A 
ATOM     86  C   UNL A   1      38.368  31.451  36.722  1.00  0.00     0.173 A 
ATOM     87  F   UNL A   1      40.522  33.954  35.195  1.00  0.00    -0.203 F 
ATOM     88  C   UNL A   1      39.145  34.089  37.099  1.00  0.00     0.198 A 
ATOM     89  C   UNL A   1      37.847  32.188  37.782  1.00  0.00     0.198 A 
ATOM     90  F   UNL A   1      37.976  30.177  36.569  1.00  0.00    -0.203 F 
ATOM     91  F   UNL A   1      39.545  35.352  37.298  1.00  0.00    -0.200 F 
ATOM     92  C   UNL A   1      38.241  33.504  37.974  1.00  0.00     0.200 A 
ATOM     93  F   UNL A   1      36.964  31.624  38.618  1.00  0.00    -0.200 F 
ATOM     94  F   UNL A   1      37.753  34.206  39.005  1.00  0.00    -0.200 F 
ENDBRANCH  61  84
ENDBRANCH  35  36
ENDBRANCH  28  30
ENDBRANCH  27  28
ENDBRANCH  26  27
ENDBRANCH  25  26
ENDBRANCH  24  25
ENDBRANCH   1  24
TORSDOF 18
ENDMDL
MODEL 2
REMARK VINA RESULT:     -11.7      3.392      8.494
REMARK SMILES C[C@@H](C(=O)OCCOCCOC(=O)c1ccc(-c2c3nc(c(-c4c(F)c(F)c(F)c(F)c4F)c4ccc([nH]4)c(-c4c(F)c(F)c(F)c(F)c4F)c4nc(c(-c5c(F)c(F)c(F)c(F)c5F)c5ccc2[nH]5)C=C4)C=C3)cc1)c1cc(C(=O)c2ccccc2)ccc1O
REMARK SMILES IDX 7 1 6 2 5 3 3 4 4 5 2 6 1 7 77 8 78 9 90 10 79 11 89 12
REMARK SMILES IDX 88 13 91 14 80 16 81 17 82 18 83 19 87 20 84 21 86 22 85 23
REMARK SMILES IDX 8 24 9 25 10 26 11 27 12 28 13 29 14 30 15 31 76 32 16 33
REMARK SMILES IDX 75 34 17 35 18 36 19 37 69 38 20 39 74 40 68 41 70 42 21 43
REMARK SMILES IDX 73 44 67 45 66 46 22 48 54 49 34 50 53 51 35 52 38 53 52 54
REMARK SMILES IDX 71 55 36 56 37 57 51 59 72 60 39 61 23 62 24 63 32 64 25 65
REMARK SMILES IDX 26 66 30 67 33 68 27 69 28 70 31 71 29 72 55 73 56 74 64 75
REMARK SMILES IDX 57 76 58 77 62 78 65 79 59 80 60 81 63 82 61 83 40 84 41 85
REMARK SMILES IDX 49 86 42 87 43 88 47 89 50 90 44 91 45 92 48 93 46 94
REMARK H PARENT 91 15 70 47 38 58
REMARK Flexibility Score: inf
ROOT
ATOM      1  C   UNL A   1      30.615  27.156  24.748  1.00  0.00     0.202 C 
ENDROOT
BRANCH   1   2
ATOM      2  C   UNL A   1      30.270  25.798  25.365  1.00  0.00     0.261 C 
BRANCH   2   3
ATOM      3  O   UNL A   1      31.362  24.886  25.163  1.00  0.00    -0.463 OA
BRANCH   3   4
ATOM      4  C   UNL A   1      32.011  24.483  26.287  1.00  0.00     0.313 C 
ATOM      5  O   UNL A   1      31.451  24.102  27.308  1.00  0.00    -0.252 OA
BRANCH   4   6
ATOM      6  C   UNL A   1      33.533  24.470  26.103  1.00  0.00     0.130 C 
ATOM      7  C   UNL A   1      34.026  25.574  25.150  1.00  0.00     0.025 C 
BRANCH   6   8
ATOM      8  C   UNL A   1      34.112  23.097  25.731  1.00  0.00     0.009 A 
ATOM      9  C   UNL A   1      33.344  22.122  25.053  1.00  0.00     0.020 A 
ATOM     10  C   UNL A   1      35.442  22.754  26.031  1.00  0.00     0.119 A 
ATOM     11  C   UNL A   1      33.880  20.868  24.705  1.00  0.00     0.023 A 
ATOM     12  C   UNL A   1      35.998  21.537  25.632  1.00  0.00     0.047 A 
ATOM     13  C   UNL A   1      35.223  20.592  24.968  1.00  0.00     0.016 A 
BRANCH  10  14
ATOM     14  O   UNL A   1      36.287  23.571  26.726  1.00  0.00    -0.508 OA
ATOM     15  H   UNL A   1      36.248  23.598  27.662  1.00  0.00     0.293 HD
ENDBRANCH  10  14
BRANCH  11  16
ATOM     16  C   UNL A   1      33.012  19.871  24.018  1.00  0.00     0.193 C 
ATOM     17  O   UNL A   1      32.192  20.257  23.190  1.00  0.00    -0.289 OA
BRANCH  16  18
ATOM     18  C   UNL A   1      33.134  18.415  24.299  1.00  0.00     0.022 A 
ATOM     19  C   UNL A   1      32.643  17.924  25.515  1.00  0.00     0.012 A 
ATOM     20  C   UNL A   1      33.740  17.540  23.389  1.00  0.00     0.012 A 
ATOM     21  C   UNL A   1      32.716  16.558  25.797  1.00  0.00     0.001 A 
ATOM     22  C   UNL A   1      33.811  16.175  23.675  1.00  0.00     0.001 A 
ATOM     23  C   UNL A   1      33.292  15.684  24.874  1.00  0.00     0.000 A 
ENDBRANCH  16  18
ENDBRANCH  11  16
ENDBRANCH   6   8
ENDBRANCH   4   6
ENDBRANCH   3   4
ENDBRANCH   2   3
ENDBRANCH   1   2
BRANCH   1  24
ATOM     24  O   UNL A   1      31.343  28.054  25.587  1.00  0.00    -0.374 OA
BRANCH  24  25
ATOM     25  C   UNL A   1      31.454  29.414  25.170  1.00  0.00     0.202 C 
BRANCH  25  26
ATOM     26  C   UNL A   1      32.687  30.175  25.676  1.00  0.00     0.261 C 
BRANCH  26  27
ATOM     27  O   UNL A   1      32.529  30.653  27.027  1.00  0.00    -0.460 OA
BRANCH  27  28
ATOM     28  C   UNL A   1      33.268  31.749  27.327  1.00  0.00     0.338 C 
ATOM     29  O   UNL A   1      32.899  32.914  27.347  1.00  0.00    -0.246 OA
BRANCH  28  30
ATOM     30  C   UNL A   1      34.609  31.356  27.796  1.00  0.00     0.060 A 
ATOM     31  C   UNL A   1      34.790  30.022  28.183  1.00  0.00     0.016 A 
ATOM     32  C   UNL A   1      35.634  32.289  27.963  1.00  0.00     0.016 A 
ATOM     33  C   UNL A   1      35.983  29.625  28.784  1.00  0.00     0.010 A 
ATOM     34  C   UNL A   1      36.828  31.889  28.575  1.00  0.00     0.010 A 
ATOM     35  C   UNL A   1      36.995  30.565  29.021  1.00  0.00    -0.014 A 
BRANCH  35  36
ATOM     36  C   UNL A   1      38.157  30.187  29.862  1.00  0.00     0.031 A 
ATOM     37  C   UNL A   1      39.181  29.233  29.309  1.00  0.00     0.074 A 
ATOM     38  C   UNL A   1      38.324  30.718  31.086  1.00  0.00     0.049 A 
ATOM     39  N   UNL A   1      40.267  28.763  29.869  1.00  0.00    -0.248 NA
ATOM     40  C   UNL A   1      38.951  28.746  27.940  1.00  0.00     0.031 C 
ATOM     41  C   UNL A   1      37.426  31.683  31.715  1.00  0.00     0.029 A 
ATOM     42  N   UNL A   1      39.312  30.517  32.017  1.00  0.00    -0.354 N 
ATOM     43  C   UNL A   1      40.847  27.926  28.924  1.00  0.00     0.074 A 
ATOM     44  C   UNL A   1      39.979  27.929  27.767  1.00  0.00     0.031 C 
ATOM     45  C   UNL A   1      37.899  31.984  32.936  1.00  0.00     0.029 A 
ATOM     46  C   UNL A   1      39.117  31.215  33.183  1.00  0.00     0.049 A 
ATOM     47  H   UNL A   1      40.086  29.927  31.864  1.00  0.00     0.167 HD
ATOM     48  C   UNL A   1      42.003  27.227  29.010  1.00  0.00     0.037 A 
ATOM     49  C   UNL A   1      39.834  31.217  34.324  1.00  0.00     0.037 A 
ATOM     50  C   UNL A   1      42.869  27.225  30.160  1.00  0.00     0.049 A 
ATOM     51  C   UNL A   1      41.080  30.378  34.420  1.00  0.00     0.074 A 
ATOM     52  C   UNL A   1      44.073  26.562  30.334  1.00  0.00     0.029 A 
ATOM     53  N   UNL A   1      42.620  27.916  31.335  1.00  0.00    -0.354 N 
ATOM     54  N   UNL A   1      41.635  29.610  33.513  1.00  0.00    -0.248 NA
ATOM     55  C   UNL A   1      41.806  30.408  35.699  1.00  0.00     0.031 C 
ATOM     56  C   UNL A   1      44.527  26.817  31.633  1.00  0.00     0.029 A 
ATOM     57  C   UNL A   1      43.634  27.676  32.250  1.00  0.00     0.049 A 
ATOM     58  H   UNL A   1      41.839  28.493  31.496  1.00  0.00     0.167 HD
ATOM     59  C   UNL A   1      42.781  29.089  34.099  1.00  0.00     0.074 A 
ATOM     60  C   UNL A   1      42.851  29.637  35.438  1.00  0.00     0.031 C 
ATOM     61  C   UNL A   1      43.694  28.235  33.575  1.00  0.00     0.037 A 
BRANCH  48  62
ATOM     62  C   UNL A   1      42.391  26.384  27.832  1.00  0.00     0.064 A 
ATOM     63  C   UNL A   1      43.273  26.854  26.848  1.00  0.00     0.173 A 
ATOM     64  C   UNL A   1      41.902  25.074  27.705  1.00  0.00     0.173 A 
ATOM     65  F   UNL A   1      43.757  28.104  26.917  1.00  0.00    -0.203 F 
ATOM     66  C   UNL A   1      43.634  26.053  25.768  1.00  0.00     0.198 A 
ATOM     67  C   UNL A   1      42.286  24.267  26.637  1.00  0.00     0.198 A 
ATOM     68  F   UNL A   1      41.059  24.575  28.622  1.00  0.00    -0.203 F 
ATOM     69  F   UNL A   1      44.445  26.538  24.817  1.00  0.00    -0.200 F 
ATOM     70  C   UNL A   1      43.145  24.759  25.666  1.00  0.00     0.200 A 
ATOM     71  F   UNL A   1      41.821  23.013  26.547  1.00  0.00    -0.200 F 
ATOM     72  F   UNL A   1      43.498  23.987  24.630  1.00  0.00    -0.200 F 
ENDBRANCH  48  62
BRANCH  49  73
ATOM     73  C   UNL A   1      39.384  32.038  35.479  1.00  0.00     0.064 A 
ATOM     74  C   UNL A   1      39.844  33.348  35.660  1.00  0.00     0.173 A 
ATOM     75  C   UNL A   1      38.498  31.518  36.435  1.00  0.00     0.173 A 
ATOM     76  F   UNL A   1      40.715  33.879  34.788  1.00  0.00    -0.203 F 
ATOM     77  C   UNL A   1      39.448  34.105  36.761  1.00  0.00     0.198 A 
ATOM     78  C   UNL A   1      38.082  32.284  37.521  1.00  0.00     0.198 A 
ATOM     79  F   UNL A   1      38.032  30.267  36.309  1.00  0.00    -0.203 F 
ATOM     80  F   UNL A   1      39.938  35.340  36.935  1.00  0.00    -0.200 F 
ATOM     81  C   UNL A   1      38.563  33.574  37.688  1.00  0.00     0.200 A 
ATOM     82  F   UNL A   1      37.219  31.770  38.409  1.00  0.00    -0.200 F 
ATOM     83  F   UNL A   1      38.181  34.302  38.746  1.00  0.00    -0.200 F 
ENDBRANCH  49  73
BRANCH  61  84
ATOM     84  C   UNL A   1      44.866  27.864  34.437  1.00  0.00     0.064 A 
ATOM     85  C   UNL A   1      46.035  28.637  34.461  1.00  0.00     0.173 A 
ATOM     86  C   UNL A   1      44.800  26.746  35.283  1.00  0.00     0.173 A 
ATOM     87  F   UNL A   1      46.153  29.708  33.661  1.00  0.00    -0.203 F 
ATOM     88  C   UNL A   1      47.105  28.292  35.283  1.00  0.00     0.198 A 
ATOM     89  C   UNL A   1      45.860  26.419  36.124  1.00  0.00     0.198 A 
ATOM     90  F   UNL A   1      43.700  25.977  35.303  1.00  0.00    -0.203 F 
ATOM     91  F   UNL A   1      48.229  29.020  35.258  1.00  0.00    -0.200 F 
ATOM     92  C   UNL A   1      47.014  27.188  36.118  1.00  0.00     0.200 A 
ATOM     93  F   UNL A   1      45.765  25.360  36.939  1.00  0.00    -0.200 F 
ATOM     94  F   UNL A   1      48.041  26.862  36.914  1.00  0.00    -0.200 F 
ENDBRANCH  61  84
ENDBRANCH  35  36
ENDBRANCH  28  30
ENDBRANCH  27  28
ENDBRANCH  26  27
ENDBRANCH  25  26
ENDBRANCH  24  25
ENDBRANCH   1  24
TORSDOF 18
ENDMDL
MODEL 3
REMARK VINA RESULT:     -11.6      3.347      9.118
REMARK SMILES C[C@@H](C(=O)OCCOCCOC(=O)c1ccc(-c2c3nc(c(-c4c(F)c(F)c(F)c(F)c4F)c4ccc([nH]4)c(-c4c(F)c(F)c(F)c(F)c4F)c4nc(c(-c5c(F)c(F)c(F)c(F)c5F)c5ccc2[nH]5)C=C4)C=C3)cc1)c1cc(C(=O)c2ccccc2)ccc1O
REMARK SMILES IDX 7 1 6 2 5 3 3 4 4 5 2 6 1 7 77 8 78 9 90 10 79 11 89 12
REMARK SMILES IDX 88 13 91 14 80 16 81 17 82 18 83 19 87 20 84 21 86 22 85 23
REMARK SMILES IDX 8 24 9 25 10 26 11 27 12 28 13 29 14 30 15 31 76 32 16 33
REMARK SMILES IDX 75 34 17 35 18 36 19 37 69 38 20 39 74 40 68 41 70 42 21 43
REMARK SMILES IDX 73 44 67 45 66 46 22 48 54 49 34 50 53 51 35 52 38 53 52 54
REMARK SMILES IDX 71 55 36 56 37 57 51 59 72 60 39 61 23 62 24 63 32 64 25 65
REMARK SMILES IDX 26 66 30 67 33 68 27 69 28 70 31 71 29 72 55 73 56 74 64 75
REMARK SMILES IDX 57 76 58 77 62 78 65 79 59 80 60 81 63 82 61 83 40 84 41 85
REMARK SMILES IDX 49 86 42 87 43 88 47 89 50 90 44 91 45 92 48 93 46 94
REMARK H PARENT 91 15 70 47 38 58
REMARK Flexibility Score: inf
ROOT
ATOM      1  C   UNL A   1      31.733  28.933  22.883  1.00  0.00     0.202 C 
ENDROOT
BRANCH   1   2
ATOM      2  C   UNL A   1      31.489  27.436  22.676  1.00  0.00     0.261 C 
BRANCH   2   3
ATOM      3  O   UNL A   1      32.067  26.698  23.765  1.00  0.00    -0.463 OA
BRANCH   3   4
ATOM      4  C   UNL A   1      31.352  25.627  24.199  1.00  0.00     0.313 C 
ATOM      5  O   UNL A   1      30.673  24.910  23.472  1.00  0.00    -0.252 OA
BRANCH   4   6
ATOM      6  C   UNL A   1      31.561  25.359  25.694  1.00  0.00     0.130 C 
ATOM      7  C   UNL A   1      31.779  26.650  26.504  1.00  0.00     0.025 C 
BRANCH   6   8
ATOM      8  C   UNL A   1      32.634  24.306  26.002  1.00  0.00     0.009 A 
ATOM      9  C   UNL A   1      33.891  24.311  25.354  1.00  0.00     0.020 A 
ATOM     10  C   UNL A   1      32.424  23.298  26.958  1.00  0.00     0.119 A 
ATOM     11  C   UNL A   1      34.878  23.349  25.644  1.00  0.00     0.023 A 
ATOM     12  C   UNL A   1      33.420  22.381  27.297  1.00  0.00     0.047 A 
ATOM     13  C   UNL A   1      34.649  22.404  26.645  1.00  0.00     0.016 A 
BRANCH  10  14
ATOM     14  O   UNL A   1      31.243  23.136  27.627  1.00  0.00    -0.508 OA
ATOM     15  H   UNL A   1      30.837  22.292  27.662  1.00  0.00     0.293 HD
ENDBRANCH  10  14
BRANCH  11  16
ATOM     16  C   UNL A   1      36.172  23.388  24.907  1.00  0.00     0.193 C 
ATOM     17  O   UNL A   1      36.178  23.696  23.719  1.00  0.00    -0.289 OA
BRANCH  16  18
ATOM     18  C   UNL A   1      37.459  23.081  25.587  1.00  0.00     0.022 A 
ATOM     19  C   UNL A   1      38.058  24.076  26.368  1.00  0.00     0.012 A 
ATOM     20  C   UNL A   1      38.084  21.836  25.448  1.00  0.00     0.012 A 
ATOM     21  C   UNL A   1      39.252  23.810  27.043  1.00  0.00     0.001 A 
ATOM     22  C   UNL A   1      39.278  21.575  26.125  1.00  0.00     0.001 A 
ATOM     23  C   UNL A   1      39.855  22.558  26.928  1.00  0.00     0.000 A 
ENDBRANCH  16  18
ENDBRANCH  11  16
ENDBRANCH   6   8
ENDBRANCH   4   6
ENDBRANCH   3   4
ENDBRANCH   2   3
ENDBRANCH   1   2
BRANCH   1  24
ATOM     24  O   UNL A   1      32.127  29.322  24.201  1.00  0.00    -0.374 OA
BRANCH  24  25
ATOM     25  C   UNL A   1      31.177  30.028  24.998  1.00  0.00     0.202 C 
BRANCH  25  26
ATOM     26  C   UNL A   1      31.695  30.576  26.335  1.00  0.00     0.261 C 
BRANCH  26  27
ATOM     27  O   UNL A   1      33.133  30.575  26.417  1.00  0.00    -0.460 OA
BRANCH  27  28
ATOM     28  C   UNL A   1      33.651  31.508  27.251  1.00  0.00     0.338 C 
ATOM     29  O   UNL A   1      33.090  32.494  27.708  1.00  0.00    -0.246 OA
BRANCH  28  30
ATOM     30  C   UNL A   1      35.000  31.113  27.695  1.00  0.00     0.060 A 
ATOM     31  C   UNL A   1      35.233  29.749  27.914  1.00  0.00     0.016 A 
ATOM     32  C   UNL A   1      35.981  32.059  28.001  1.00  0.00     0.016 A 
ATOM     33  C   UNL A   1      36.432  29.328  28.484  1.00  0.00     0.010 A 
ATOM     34  C   UNL A   1      37.182  31.634  28.582  1.00  0.00     0.010 A 
ATOM     35  C   UNL A   1      37.399  30.272  28.859  1.00  0.00    -0.014 A 
BRANCH  35  36
ATOM     36  C   UNL A   1      38.563  29.837  29.670  1.00  0.00     0.031 A 
ATOM     37  C   UNL A   1      38.722  30.371  31.068  1.00  0.00     0.074 A 
ATOM     38  C   UNL A   1      39.444  28.943  29.187  1.00  0.00     0.049 A 
ATOM     39  N   UNL A   1      39.662  30.131  31.947  1.00  0.00    -0.248 NA
ATOM     40  C   UNL A   1      37.681  31.298  31.537  1.00  0.00     0.031 C 
ATOM     41  C   UNL A   1      39.376  28.321  27.867  1.00  0.00     0.029 A 
ATOM     42  N   UNL A   1      40.571  28.405  29.758  1.00  0.00    -0.354 N 
ATOM     43  C   UNL A   1      39.327  30.877  33.070  1.00  0.00     0.074 A 
ATOM     44  C   UNL A   1      38.115  31.601  32.752  1.00  0.00     0.031 C 
ATOM     45  C   UNL A   1      40.422  27.491  27.723  1.00  0.00     0.029 A 
ATOM     46  C   UNL A   1      41.246  27.543  28.930  1.00  0.00     0.049 A 
ATOM     47  H   UNL A   1      40.866  28.617  30.673  1.00  0.00     0.167 HD
ATOM     48  C   UNL A   1      39.966  30.945  34.262  1.00  0.00     0.037 A 
ATOM     49  C   UNL A   1      42.407  26.886  29.121  1.00  0.00     0.037 A 
ATOM     50  C   UNL A   1      41.170  30.225  34.581  1.00  0.00     0.049 A 
ATOM     51  C   UNL A   1      43.136  27.031  30.431  1.00  0.00     0.074 A 
ATOM     52  C   UNL A   1      41.882  30.214  35.769  1.00  0.00     0.029 A 
ATOM     53  N   UNL A   1      41.845  29.390  33.704  1.00  0.00    -0.354 N 
ATOM     54  N   UNL A   1      42.799  27.718  31.495  1.00  0.00    -0.248 NA
ATOM     55  C   UNL A   1      44.407  26.305  30.568  1.00  0.00     0.031 C 
ATOM     56  C   UNL A   1      43.012  29.408  35.594  1.00  0.00     0.029 A 
ATOM     57  C   UNL A   1      42.980  28.878  34.315  1.00  0.00     0.049 A 
ATOM     58  H   UNL A   1      41.560  29.188  32.783  1.00  0.00     0.167 HD
ATOM     59  C   UNL A   1      43.797  27.488  32.433  1.00  0.00     0.074 A 
ATOM     60  C   UNL A   1      44.748  26.587  31.817  1.00  0.00     0.031 C 
ATOM     61  C   UNL A   1      43.913  27.977  33.692  1.00  0.00     0.037 A 
BRANCH  48  62
ATOM     62  C   UNL A   1      39.386  31.850  35.308  1.00  0.00     0.064 A 
ATOM     63  C   UNL A   1      38.520  31.368  36.300  1.00  0.00     0.173 A 
ATOM     64  C   UNL A   1      39.729  33.210  35.338  1.00  0.00     0.173 A 
ATOM     65  F   UNL A   1      38.152  30.078  36.306  1.00  0.00    -0.203 F 
ATOM     66  C   UNL A   1      38.002  32.219  37.273  1.00  0.00     0.198 A 
ATOM     67  C   UNL A   1      39.228  34.053  36.327  1.00  0.00     0.198 A 
ATOM     68  F   UNL A   1      40.556  33.721  34.414  1.00  0.00    -0.203 F 
ATOM     69  F   UNL A   1      37.144  31.746  38.188  1.00  0.00    -0.200 F 
ATOM     70  C   UNL A   1      38.360  33.559  37.289  1.00  0.00     0.200 A 
ATOM     71  F   UNL A   1      39.586  35.345  36.348  1.00  0.00    -0.200 F 
ATOM     72  F   UNL A   1      37.866  34.376  38.229  1.00  0.00    -0.200 F 
ENDBRANCH  48  62
BRANCH  49  73
ATOM     73  C   UNL A   1      42.963  26.035  28.036  1.00  0.00     0.064 A 
ATOM     74  C   UNL A   1      42.754  24.649  28.024  1.00  0.00     0.173 A 
ATOM     75  C   UNL A   1      43.730  26.589  27.001  1.00  0.00     0.173 A 
ATOM     76  F   UNL A   1      42.051  24.069  29.009  1.00  0.00    -0.203 F 
ATOM     77  C   UNL A   1      43.304  23.848  27.026  1.00  0.00     0.198 A 
ATOM     78  C   UNL A   1      44.257  25.790  25.989  1.00  0.00     0.198 A 
ATOM     79  F   UNL A   1      43.962  27.910  26.970  1.00  0.00    -0.203 F 
ATOM     80  F   UNL A   1      43.127  22.520  27.062  1.00  0.00    -0.200 F 
ATOM     81  C   UNL A   1      44.050  24.419  26.006  1.00  0.00     0.200 A 
ATOM     82  F   UNL A   1      44.969  26.349  25.000  1.00  0.00    -0.200 F 
ATOM     83  F   UNL A   1      44.578  23.649  25.045  1.00  0.00    -0.200 F 
ENDBRANCH  49  73
BRANCH  61  84
ATOM     84  C   UNL A   1      45.094  27.524  34.502  1.00  0.00     0.064 A 
ATOM     85  C   UNL A   1      46.293  28.251  34.523  1.00  0.00     0.173 A 
ATOM     86  C   UNL A   1      45.008  26.375  35.302  1.00  0.00     0.173 A 
ATOM     87  F   UNL A   1      46.431  29.349  33.764  1.00  0.00    -0.203 F 
ATOM     88  C   UNL A   1      47.371  27.830  35.297  1.00  0.00     0.198 A 
ATOM     89  C   UNL A   1      46.077  25.972  36.096  1.00  0.00     0.198 A 
ATOM     90  F   UNL A   1      43.880  25.649  35.323  1.00  0.00    -0.203 F 
ATOM     91  F   UNL A   1      48.522  28.515  35.268  1.00  0.00    -0.200 F 
ATOM     92  C   UNL A   1      47.260  26.695  36.088  1.00  0.00     0.200 A 
ATOM     93  F   UNL A   1      45.964  24.883  36.869  1.00  0.00    -0.200 F 
ATOM     94  F   UNL A   1      48.296  26.296  36.838  1.00  0.00    -0.200 F 
ENDBRANCH  61  84
ENDBRANCH  35  36
ENDBRANCH  28  30
ENDBRANCH  27  28
ENDBRANCH  26  27
ENDBRANCH  25  26
ENDBRANCH  24  25
ENDBRANCH   1  24
TORSDOF 18
ENDMDL
