MODEL 1
REMARK VINA RESULT:     -10.3      0.000      0.000
REMARK SMILES O=C(OCCOCCOC(=O)[C@H]1CCC[N@@H+]1Cc1ccccc1[N+](=O)[O-])c1ccc(-c2c3nc(c(-c4c(F)c(F)c(F)c(F)c4F)c4ccc([nH]4)c(-c4c(F)c(F)c(F)c(F)c4F)c4nc(c(-c5c(F)c(F)c(F)c(F)c5F)c5ccc2[nH]5)C=C4)C=C3)cc1
REMARK SMILES IDX 7 1 6 2 5 3 4 4 3 5 2 6 1 7 27 8 28 9 89 10 29 11 88 12
REMARK SMILES IDX 30 13 31 14 32 15 82 16 33 17 87 18 81 19 83 20 34 21 86 22
REMARK SMILES IDX 80 23 79 24 35 26 67 27 47 28 66 29 48 30 51 31 65 32 84 33
REMARK SMILES IDX 49 34 50 35 64 37 85 38 52 39 36 40 37 41 45 42 38 43 39 44
REMARK SMILES IDX 43 45 46 46 40 47 41 48 44 49 42 50 68 51 69 52 77 53 70 54
REMARK SMILES IDX 71 55 75 56 78 57 72 58 73 59 76 60 74 61 53 62 54 63 62 64
REMARK SMILES IDX 55 65 56 66 60 67 63 68 57 69 58 70 61 71 59 72 8 73 9 74
REMARK SMILES IDX 10 75 11 76 12 77 13 78 16 79 14 80 15 81 17 83 18 84 19 85
REMARK SMILES IDX 23 86 20 87 22 88 21 89 24 90 25 91 26 92
REMARK H PARENT 83 25 51 36 16 82
REMARK Flexibility Score: inf
ROOT
ATOM      1  C   UNL A   1      43.353  19.141  25.483  1.00  0.00     0.202 C 
ENDROOT
BRANCH   1   2
ATOM      2  O   UNL A   1      42.350  20.143  25.634  1.00  0.00    -0.374 OA
BRANCH   2   3
ATOM      3  C   UNL A   1      41.182  19.713  26.335  1.00  0.00     0.202 C 
BRANCH   3   4
ATOM      4  C   UNL A   1      39.932  20.517  25.969  1.00  0.00     0.261 C 
BRANCH   4   5
ATOM      5  O   UNL A   1      39.839  21.703  26.767  1.00  0.00    -0.460 OA
BRANCH   5   6
ATOM      6  C   UNL A   1      39.185  22.841  26.430  1.00  0.00     0.338 C 
ATOM      7  O   UNL A   1      38.163  22.758  25.751  1.00  0.00    -0.246 OA
BRANCH   6   8
ATOM      8  C   UNL A   1      39.579  24.196  26.935  1.00  0.00     0.060 A 
ATOM      9  C   UNL A   1      40.104  25.234  26.161  1.00  0.00     0.016 A 
ATOM     10  C   UNL A   1      39.319  24.455  28.292  1.00  0.00     0.016 A 
ATOM     11  C   UNL A   1      40.399  26.471  26.705  1.00  0.00     0.010 A 
ATOM     12  C   UNL A   1      39.584  25.711  28.847  1.00  0.00     0.010 A 
ATOM     13  C   UNL A   1      40.132  26.716  28.046  1.00  0.00    -0.014 A 
BRANCH  13  14
ATOM     14  C   UNL A   1      40.554  28.014  28.585  1.00  0.00     0.031 A 
ATOM     15  C   UNL A   1      42.018  28.280  28.710  1.00  0.00     0.074 A 
ATOM     16  C   UNL A   1      39.632  28.970  28.787  1.00  0.00     0.049 A 
ATOM     17  N   UNL A   1      42.634  29.327  29.182  1.00  0.00    -0.248 NA
ATOM     18  C   UNL A   1      42.914  27.220  28.216  1.00  0.00     0.031 C 
ATOM     19  C   UNL A   1      38.197  28.822  28.525  1.00  0.00     0.029 A 
ATOM     20  N   UNL A   1      39.763  30.263  29.211  1.00  0.00    -0.354 N 
ATOM     21  C   UNL A   1      43.986  29.039  29.079  1.00  0.00     0.074 A 
ATOM     22  C   UNL A   1      44.105  27.725  28.489  1.00  0.00     0.031 C 
ATOM     23  C   UNL A   1      37.586  29.992  28.767  1.00  0.00     0.029 A 
ATOM     24  C   UNL A   1      38.571  30.940  29.275  1.00  0.00     0.049 A 
ATOM     25  H   UNL A   1      40.628  30.669  29.447  1.00  0.00     0.167 HD
ATOM     26  C   UNL A   1      45.027  29.811  29.464  1.00  0.00     0.037 A 
ATOM     27  C   UNL A   1      38.316  32.179  29.733  1.00  0.00     0.037 A 
ATOM     28  C   UNL A   1      44.856  31.113  30.048  1.00  0.00     0.049 A 
ATOM     29  C   UNL A   1      39.479  32.978  30.253  1.00  0.00     0.074 A 
ATOM     30  C   UNL A   1      45.809  31.971  30.559  1.00  0.00     0.029 A 
ATOM     31  N   UNL A   1      43.624  31.745  30.194  1.00  0.00    -0.354 N 
ATOM     32  N   UNL A   1      40.756  32.671  30.253  1.00  0.00    -0.248 NA
ATOM     33  C   UNL A   1      39.171  34.278  30.857  1.00  0.00     0.031 C 
ATOM     34  C   UNL A   1      45.148  33.101  31.057  1.00  0.00     0.029 A 
ATOM     35  C   UNL A   1      43.788  32.973  30.806  1.00  0.00     0.049 A 
ATOM     36  H   UNL A   1      42.761  31.370  29.904  1.00  0.00     0.167 HD
ATOM     37  C   UNL A   1      41.409  33.742  30.845  1.00  0.00     0.074 A 
ATOM     38  C   UNL A   1      40.382  34.715  31.172  1.00  0.00     0.031 C 
ATOM     39  C   UNL A   1      42.730  33.909  31.103  1.00  0.00     0.037 A 
BRANCH  26  40
ATOM     40  C   UNL A   1      46.394  29.205  29.353  1.00  0.00     0.064 A 
ATOM     41  C   UNL A   1      47.241  29.458  28.261  1.00  0.00     0.173 A 
ATOM     42  C   UNL A   1      46.830  28.285  30.318  1.00  0.00     0.173 A 
ATOM     43  F   UNL A   1      46.857  30.302  27.291  1.00  0.00    -0.203 F 
ATOM     44  C   UNL A   1      48.449  28.778  28.119  1.00  0.00     0.198 A 
ATOM     45  C   UNL A   1      48.051  27.630  30.188  1.00  0.00     0.198 A 
ATOM     46  F   UNL A   1      46.057  27.998  31.377  1.00  0.00    -0.203 F 
ATOM     47  F   UNL A   1      49.203  28.975  27.028  1.00  0.00    -0.200 F 
ATOM     48  C   UNL A   1      48.853  27.865  29.082  1.00  0.00     0.200 A 
ATOM     49  F   UNL A   1      48.440  26.748  31.120  1.00  0.00    -0.200 F 
ATOM     50  F   UNL A   1      50.006  27.197  28.933  1.00  0.00    -0.200 F 
ENDBRANCH  26  40
BRANCH  27  51
ATOM     51  C   UNL A   1      36.922  32.695  29.765  1.00  0.00     0.064 A 
ATOM     52  C   UNL A   1      36.127  32.577  30.913  1.00  0.00     0.173 A 
ATOM     53  C   UNL A   1      36.356  33.334  28.650  1.00  0.00     0.173 A 
ATOM     54  F   UNL A   1      36.608  31.957  32.000  1.00  0.00    -0.203 F 
ATOM     55  C   UNL A   1      34.822  33.070  30.941  1.00  0.00     0.198 A 
ATOM     56  C   UNL A   1      35.063  33.854  28.689  1.00  0.00     0.198 A 
ATOM     57  F   UNL A   1      37.068  33.473  27.521  1.00  0.00    -0.203 F 
ATOM     58  F   UNL A   1      34.071  32.909  32.040  1.00  0.00    -0.200 F 
ATOM     59  C   UNL A   1      34.294  33.715  29.833  1.00  0.00     0.200 A 
ATOM     60  F   UNL A   1      34.566  34.488  27.619  1.00  0.00    -0.200 F 
ATOM     61  F   UNL A   1      33.044  34.195  29.864  1.00  0.00    -0.200 F 
ENDBRANCH  27  51
BRANCH  39  62
ATOM     62  C   UNL A   1      43.130  35.204  31.739  1.00  0.00     0.064 A 
ATOM     63  C   UNL A   1      43.581  36.288  30.973  1.00  0.00     0.173 A 
ATOM     64  C   UNL A   1      43.007  35.376  33.125  1.00  0.00     0.173 A 
ATOM     65  F   UNL A   1      43.730  36.163  29.646  1.00  0.00    -0.203 F 
ATOM     66  C   UNL A   1      43.918  37.494  31.578  1.00  0.00     0.198 A 
ATOM     67  C   UNL A   1      43.315  36.593  33.722  1.00  0.00     0.198 A 
ATOM     68  F   UNL A   1      42.573  34.367  33.895  1.00  0.00    -0.203 F 
ATOM     69  F   UNL A   1      44.390  38.505  30.836  1.00  0.00    -0.200 F 
ATOM     70  C   UNL A   1      43.776  37.648  32.950  1.00  0.00     0.200 A 
ATOM     71  F   UNL A   1      43.164  36.744  35.045  1.00  0.00    -0.200 F 
ATOM     72  F   UNL A   1      44.089  38.815  33.529  1.00  0.00    -0.200 F 
ENDBRANCH  39  62
ENDBRANCH  13  14
ENDBRANCH   6   8
ENDBRANCH   5   6
ENDBRANCH   4   5
ENDBRANCH   3   4
ENDBRANCH   2   3
ENDBRANCH   1   2
BRANCH   1  73
ATOM     73  C   UNL A   1      44.542  19.687  24.695  1.00  0.00     0.261 C 
BRANCH  73  74
ATOM     74  O   UNL A   1      44.322  21.064  24.343  1.00  0.00    -0.459 OA
BRANCH  74  75
ATOM     75  C   UNL A   1      45.283  21.940  24.780  1.00  0.00     0.365 C 
ATOM     76  O   UNL A   1      46.401  21.629  25.153  1.00  0.00    -0.245 OA
BRANCH  75  77
ATOM     77  C   UNL A   1      44.737  23.379  24.738  1.00  0.00     0.295 C 
ATOM     78  C   UNL A   1      43.257  23.397  25.106  1.00  0.00     0.083 C 
ATOM     79  N   UNL A   1      45.394  24.230  25.763  1.00  0.00    -0.319 N 
ATOM     80  C   UNL A   1      43.251  23.515  26.619  1.00  0.00     0.068 C 
ATOM     81  C   UNL A   1      44.580  24.156  26.983  1.00  0.00     0.263 C 
ATOM     82  H   UNL A   1      46.325  23.859  25.950  1.00  0.00     0.349 HD
BRANCH  79  83
ATOM     83  C   UNL A   1      45.738  25.599  25.329  1.00  0.00     0.307 C 
BRANCH  83  84
ATOM     84  C   UNL A   1      47.196  25.994  25.482  1.00  0.00     0.084 A 
ATOM     85  C   UNL A   1      47.999  25.231  26.354  1.00  0.00     0.017 A 
ATOM     86  C   UNL A   1      47.846  26.966  24.698  1.00  0.00     0.278 A 
ATOM     87  C   UNL A   1      49.391  25.332  26.330  1.00  0.00     0.001 A 
ATOM     88  C   UNL A   1      49.244  27.055  24.652  1.00  0.00     0.086 A 
ATOM     89  C   UNL A   1      50.014  26.213  25.451  1.00  0.00     0.007 A 
BRANCH  86  90
ATOM     90  N   UNL A   1      47.099  27.940  23.913  1.00  0.00     0.063 N 
ATOM     91  O   UNL A   1      47.140  27.826  22.679  1.00  0.00    -0.258 OA
ATOM     92  O   UNL A   1      46.489  28.824  24.529  1.00  0.00    -0.258 OA
ENDBRANCH  86  90
ENDBRANCH  83  84
ENDBRANCH  79  83
ENDBRANCH  75  77
ENDBRANCH  74  75
ENDBRANCH  73  74
ENDBRANCH   1  73
TORSDOF 17
ENDMDL
MODEL 2
REMARK VINA RESULT:      -9.9      5.766     10.944
REMARK SMILES O=C(OCCOCCOC(=O)[C@H]1CCC[N@@H+]1Cc1ccccc1[N+](=O)[O-])c1ccc(-c2c3nc(c(-c4c(F)c(F)c(F)c(F)c4F)c4ccc([nH]4)c(-c4c(F)c(F)c(F)c(F)c4F)c4nc(c(-c5c(F)c(F)c(F)c(F)c5F)c5ccc2[nH]5)C=C4)C=C3)cc1
REMARK SMILES IDX 7 1 6 2 5 3 4 4 3 5 2 6 1 7 27 8 28 9 89 10 29 11 88 12
REMARK SMILES IDX 30 13 31 14 32 15 82 16 33 17 87 18 81 19 83 20 34 21 86 22
REMARK SMILES IDX 80 23 79 24 35 26 67 27 47 28 66 29 48 30 51 31 65 32 84 33
REMARK SMILES IDX 49 34 50 35 64 37 85 38 52 39 36 40 37 41 45 42 38 43 39 44
REMARK SMILES IDX 43 45 46 46 40 47 41 48 44 49 42 50 68 51 69 52 77 53 70 54
REMARK SMILES IDX 71 55 75 56 78 57 72 58 73 59 76 60 74 61 53 62 54 63 62 64
REMARK SMILES IDX 55 65 56 66 60 67 63 68 57 69 58 70 61 71 59 72 8 73 9 74
REMARK SMILES IDX 10 75 11 76 12 77 13 78 16 79 14 80 15 81 17 83 18 84 19 85
REMARK SMILES IDX 23 86 20 87 22 88 21 89 24 90 25 91 26 92
REMARK H PARENT 83 25 51 36 16 82
REMARK Flexibility Score: inf
ROOT
ATOM      1  C   UNL A   1      33.307  30.528  26.821  1.00  0.00     0.202 C 
ENDROOT
BRANCH   1   2
ATOM      2  O   UNL A   1      31.896  30.648  26.979  1.00  0.00    -0.374 OA
BRANCH   2   3
ATOM      3  C   UNL A   1      31.396  31.982  26.866  1.00  0.00     0.202 C 
BRANCH   3   4
ATOM      4  C   UNL A   1      32.501  33.039  26.846  1.00  0.00     0.261 C 
BRANCH   4   5
ATOM      5  O   UNL A   1      32.150  34.157  27.670  1.00  0.00    -0.460 OA
BRANCH   5   6
ATOM      6  C   UNL A   1      32.969  34.791  28.544  1.00  0.00     0.338 C 
ATOM      7  O   UNL A   1      32.664  35.918  28.931  1.00  0.00    -0.246 OA
BRANCH   6   8
ATOM      8  C   UNL A   1      34.176  34.147  29.155  1.00  0.00     0.060 A 
ATOM      9  C   UNL A   1      35.504  34.502  28.907  1.00  0.00     0.016 A 
ATOM     10  C   UNL A   1      33.931  33.151  30.118  1.00  0.00     0.016 A 
ATOM     11  C   UNL A   1      36.558  33.879  29.552  1.00  0.00     0.010 A 
ATOM     12  C   UNL A   1      34.986  32.537  30.799  1.00  0.00     0.010 A 
ATOM     13  C   UNL A   1      36.302  32.902  30.504  1.00  0.00    -0.014 A 
BRANCH  13  14
ATOM     14  C   UNL A   1      37.462  32.214  31.084  1.00  0.00     0.031 A 
ATOM     15  C   UNL A   1      37.841  32.542  32.491  1.00  0.00     0.074 A 
ATOM     16  C   UNL A   1      38.033  31.206  30.405  1.00  0.00     0.049 A 
ATOM     17  N   UNL A   1      38.833  32.095  33.208  1.00  0.00    -0.248 NA
ATOM     18  C   UNL A   1      36.964  33.494  33.194  1.00  0.00     0.031 C 
ATOM     19  C   UNL A   1      37.599  30.729  29.088  1.00  0.00     0.029 A 
ATOM     20  N   UNL A   1      39.063  30.372  30.739  1.00  0.00    -0.354 N 
ATOM     21  C   UNL A   1      38.725  32.740  34.432  1.00  0.00     0.074 A 
ATOM     22  C   UNL A   1      37.565  33.600  34.367  1.00  0.00     0.031 C 
ATOM     23  C   UNL A   1      38.342  29.666  28.741  1.00  0.00     0.029 A 
ATOM     24  C   UNL A   1      39.350  29.442  29.771  1.00  0.00     0.049 A 
ATOM     25  H   UNL A   1      39.553  30.434  31.591  1.00  0.00     0.167 HD
ATOM     26  C   UNL A   1      39.543  32.624  35.501  1.00  0.00     0.037 A 
ATOM     27  C   UNL A   1      40.346  28.540  29.723  1.00  0.00     0.037 A 
ATOM     28  C   UNL A   1      40.687  31.755  35.516  1.00  0.00     0.049 A 
ATOM     29  C   UNL A   1      41.305  28.504  30.881  1.00  0.00     0.074 A 
ATOM     30  C   UNL A   1      41.650  31.596  36.493  1.00  0.00     0.029 A 
ATOM     31  N   UNL A   1      41.017  30.886  34.479  1.00  0.00    -0.354 N 
ATOM     32  N   UNL A   1      41.270  29.186  32.003  1.00  0.00    -0.248 NA
ATOM     33  C   UNL A   1      42.452  27.599  30.761  1.00  0.00     0.031 C 
ATOM     34  C   UNL A   1      42.587  30.665  36.027  1.00  0.00     0.029 A 
ATOM     35  C   UNL A   1      42.179  30.202  34.783  1.00  0.00     0.049 A 
ATOM     36  H   UNL A   1      40.498  30.775  33.650  1.00  0.00     0.167 HD
ATOM     37  C   UNL A   1      42.380  28.787  32.731  1.00  0.00     0.074 A 
ATOM     38  C   UNL A   1      43.058  27.786  31.926  1.00  0.00     0.031 C 
ATOM     39  C   UNL A   1      42.809  29.208  33.947  1.00  0.00     0.037 A 
BRANCH  26  40
ATOM     40  C   UNL A   1      39.269  33.533  36.662  1.00  0.00     0.064 A 
ATOM     41  C   UNL A   1      39.792  34.834  36.737  1.00  0.00     0.173 A 
ATOM     42  C   UNL A   1      38.537  33.060  37.762  1.00  0.00     0.173 A 
ATOM     43  F   UNL A   1      40.529  35.323  35.728  1.00  0.00    -0.203 F 
ATOM     44  C   UNL A   1      39.632  35.606  37.886  1.00  0.00     0.198 A 
ATOM     45  C   UNL A   1      38.354  33.845  38.896  1.00  0.00     0.198 A 
ATOM     46  F   UNL A   1      38.023  31.820  37.749  1.00  0.00    -0.203 F 
ATOM     47  F   UNL A   1      40.209  36.814  37.966  1.00  0.00    -0.200 F 
ATOM     48  C   UNL A   1      38.913  35.112  38.964  1.00  0.00     0.200 A 
ATOM     49  F   UNL A   1      37.659  33.365  39.937  1.00  0.00    -0.200 F 
ATOM     50  F   UNL A   1      38.777  35.847  40.076  1.00  0.00    -0.200 F 
ENDBRANCH  26  40
BRANCH  27  51
ATOM     51  C   UNL A   1      40.505  27.660  28.534  1.00  0.00     0.064 A 
ATOM     52  C   UNL A   1      39.890  26.404  28.470  1.00  0.00     0.173 A 
ATOM     53  C   UNL A   1      41.268  28.065  27.426  1.00  0.00     0.173 A 
ATOM     54  F   UNL A   1      39.168  25.958  29.508  1.00  0.00    -0.203 F 
ATOM     55  C   UNL A   1      40.036  25.584  27.350  1.00  0.00     0.198 A 
ATOM     56  C   UNL A   1      41.388  27.259  26.295  1.00  0.00     0.198 A 
ATOM     57  F   UNL A   1      41.885  29.256  27.432  1.00  0.00    -0.203 F 
ATOM     58  F   UNL A   1      39.466  24.371  27.332  1.00  0.00    -0.200 F 
ATOM     59  C   UNL A   1      40.778  26.016  26.261  1.00  0.00     0.200 A 
ATOM     60  F   UNL A   1      42.095  27.688  25.241  1.00  0.00    -0.200 F 
ATOM     61  F   UNL A   1      40.910  25.231  25.182  1.00  0.00    -0.200 F 
ENDBRANCH  27  51
BRANCH  39  62
ATOM     62  C   UNL A   1      44.047  28.558  34.482  1.00  0.00     0.064 A 
ATOM     63  C   UNL A   1      45.317  29.117  34.277  1.00  0.00     0.173 A 
ATOM     64  C   UNL A   1      43.953  27.391  35.254  1.00  0.00     0.173 A 
ATOM     65  F   UNL A   1      45.455  30.223  33.531  1.00  0.00    -0.203 F 
ATOM     66  C   UNL A   1      46.452  28.516  34.809  1.00  0.00     0.198 A 
ATOM     67  C   UNL A   1      45.086  26.811  35.809  1.00  0.00     0.198 A 
ATOM     68  F   UNL A   1      42.757  26.826  35.480  1.00  0.00    -0.203 F 
ATOM     69  F   UNL A   1      47.662  29.039  34.566  1.00  0.00    -0.200 F 
ATOM     70  C   UNL A   1      46.335  27.369  35.582  1.00  0.00     0.200 A 
ATOM     71  F   UNL A   1      44.971  25.711  36.567  1.00  0.00    -0.200 F 
ATOM     72  F   UNL A   1      47.429  26.798  36.104  1.00  0.00    -0.200 F 
ENDBRANCH  39  62
ENDBRANCH  13  14
ENDBRANCH   6   8
ENDBRANCH   5   6
ENDBRANCH   4   5
ENDBRANCH   3   4
ENDBRANCH   2   3
ENDBRANCH   1   2
BRANCH   1  73
ATOM     73  C   UNL A   1      33.652  29.283  26.008  1.00  0.00     0.261 C 
BRANCH  73  74
ATOM     74  O   UNL A   1      32.493  28.806  25.303  1.00  0.00    -0.459 OA
BRANCH  74  75
ATOM     75  C   UNL A   1      32.661  27.617  24.639  1.00  0.00     0.365 C 
ATOM     76  O   UNL A   1      32.853  27.501  23.441  1.00  0.00    -0.245 OA
BRANCH  75  77
ATOM     77  C   UNL A   1      32.559  26.446  25.634  1.00  0.00     0.295 C 
ATOM     78  C   UNL A   1      31.338  26.613  26.531  1.00  0.00     0.083 C 
ATOM     79  N   UNL A   1      32.336  25.160  24.924  1.00  0.00    -0.319 N 
ATOM     80  C   UNL A   1      30.212  25.957  25.753  1.00  0.00     0.068 C 
ATOM     81  C   UNL A   1      30.885  24.958  24.827  1.00  0.00     0.263 C 
ATOM     82  H   UNL A   1      32.735  25.228  23.987  1.00  0.00     0.349 HD
BRANCH  79  83
ATOM     83  C   UNL A   1      33.089  24.003  25.447  1.00  0.00     0.307 C 
BRANCH  83  84
ATOM     84  C   UNL A   1      34.479  23.802  24.870  1.00  0.00     0.084 A 
ATOM     85  C   UNL A   1      35.572  23.818  25.759  1.00  0.00     0.017 A 
ATOM     86  C   UNL A   1      34.743  23.444  23.534  1.00  0.00     0.278 A 
ATOM     87  C   UNL A   1      36.829  23.352  25.368  1.00  0.00     0.001 A 
ATOM     88  C   UNL A   1      35.997  22.954  23.142  1.00  0.00     0.086 A 
ATOM     89  C   UNL A   1      37.030  22.884  24.073  1.00  0.00     0.007 A 
BRANCH  86  90
ATOM     90  N   UNL A   1      33.737  23.584  22.490  1.00  0.00     0.063 N 
ATOM     91  O   UNL A   1      33.640  24.691  21.940  1.00  0.00    -0.258 OA
ATOM     92  O   UNL A   1      33.036  22.595  22.236  1.00  0.00    -0.258 OA
ENDBRANCH  86  90
ENDBRANCH  83  84
ENDBRANCH  79  83
ENDBRANCH  75  77
ENDBRANCH  74  75
ENDBRANCH  73  74
ENDBRANCH   1  73
TORSDOF 17
ENDMDL
MODEL 3
REMARK VINA RESULT:      -9.7      5.502      9.621
REMARK SMILES O=C(OCCOCCOC(=O)[C@H]1CCC[N@@H+]1Cc1ccccc1[N+](=O)[O-])c1ccc(-c2c3nc(c(-c4c(F)c(F)c(F)c(F)c4F)c4ccc([nH]4)c(-c4c(F)c(F)c(F)c(F)c4F)c4nc(c(-c5c(F)c(F)c(F)c(F)c5F)c5ccc2[nH]5)C=C4)C=C3)cc1
REMARK SMILES IDX 7 1 6 2 5 3 4 4 3 5 2 6 1 7 27 8 28 9 89 10 29 11 88 12
REMARK SMILES IDX 30 13 31 14 32 15 82 16 33 17 87 18 81 19 83 20 34 21 86 22
REMARK SMILES IDX 80 23 79 24 35 26 67 27 47 28 66 29 48 30 51 31 65 32 84 33
REMARK SMILES IDX 49 34 50 35 64 37 85 38 52 39 36 40 37 41 45 42 38 43 39 44
REMARK SMILES IDX 43 45 46 46 40 47 41 48 44 49 42 50 68 51 69 52 77 53 70 54
REMARK SMILES IDX 71 55 75 56 78 57 72 58 73 59 76 60 74 61 53 62 54 63 62 64
REMARK SMILES IDX 55 65 56 66 60 67 63 68 57 69 58 70 61 71 59 72 8 73 9 74
REMARK SMILES IDX 10 75 11 76 12 77 13 78 16 79 14 80 15 81 17 83 18 84 19 85
REMARK SMILES IDX 23 86 20 87 22 88 21 89 24 90 25 91 26 92
REMARK H PARENT 83 25 51 36 16 82
REMARK Flexibility Score: inf
ROOT
ATOM      1  C   UNL A   1      30.158  28.773  23.017  1.00  0.00     0.202 C 
ENDROOT
BRANCH   1   2
ATOM      2  O   UNL A   1      30.358  29.670  24.106  1.00  0.00    -0.374 OA
BRANCH   2   3
ATOM      3  C   UNL A   1      31.475  29.353  24.939  1.00  0.00     0.202 C 
BRANCH   3   4
ATOM      4  C   UNL A   1      31.754  30.418  26.001  1.00  0.00     0.261 C 
BRANCH   4   5
ATOM      5  O   UNL A   1      33.163  30.580  26.200  1.00  0.00    -0.460 OA
BRANCH   5   6
ATOM      6  C   UNL A   1      33.751  31.362  27.139  1.00  0.00     0.338 C 
ATOM      7  O   UNL A   1      33.241  32.448  27.409  1.00  0.00    -0.246 OA
BRANCH   6   8
ATOM      8  C   UNL A   1      34.932  30.924  27.951  1.00  0.00     0.060 A 
ATOM      9  C   UNL A   1      35.129  29.646  28.481  1.00  0.00     0.016 A 
ATOM     10  C   UNL A   1      35.957  31.871  28.120  1.00  0.00     0.016 A 
ATOM     11  C   UNL A   1      36.275  29.318  29.183  1.00  0.00     0.010 A 
ATOM     12  C   UNL A   1      37.133  31.542  28.800  1.00  0.00     0.010 A 
ATOM     13  C   UNL A   1      37.283  30.260  29.338  1.00  0.00    -0.014 A 
BRANCH  13  14
ATOM     14  C   UNL A   1      38.430  29.882  30.172  1.00  0.00     0.031 A 
ATOM     15  C   UNL A   1      39.493  29.033  29.558  1.00  0.00     0.074 A 
ATOM     16  C   UNL A   1      38.571  30.441  31.385  1.00  0.00     0.049 A 
ATOM     17  N   UNL A   1      40.578  28.546  30.092  1.00  0.00    -0.248 NA
ATOM     18  C   UNL A   1      39.317  28.701  28.133  1.00  0.00     0.031 C 
ATOM     19  C   UNL A   1      37.643  31.410  31.976  1.00  0.00     0.029 A 
ATOM     20  N   UNL A   1      39.561  30.315  32.318  1.00  0.00    -0.354 N 
ATOM     21  C   UNL A   1      41.193  27.819  29.084  1.00  0.00     0.074 A 
ATOM     22  C   UNL A   1      40.370  27.936  27.901  1.00  0.00     0.031 C 
ATOM     23  C   UNL A   1      38.127  31.812  33.161  1.00  0.00     0.029 A 
ATOM     24  C   UNL A   1      39.351  31.071  33.444  1.00  0.00     0.049 A 
ATOM     25  H   UNL A   1      40.349  29.737  32.195  1.00  0.00     0.167 HD
ATOM     26  C   UNL A   1      42.340  27.107  29.161  1.00  0.00     0.037 A 
ATOM     27  C   UNL A   1      40.060  31.118  34.586  1.00  0.00     0.037 A 
ATOM     28  C   UNL A   1      43.123  27.020  30.362  1.00  0.00     0.049 A 
ATOM     29  C   UNL A   1      41.274  30.235  34.684  1.00  0.00     0.074 A 
ATOM     30  C   UNL A   1      44.257  26.273  30.612  1.00  0.00     0.029 A 
ATOM     31  N   UNL A   1      42.837  27.723  31.530  1.00  0.00    -0.354 N 
ATOM     32  N   UNL A   1      41.809  29.462  33.766  1.00  0.00    -0.248 NA
ATOM     33  C   UNL A   1      41.969  30.209  35.974  1.00  0.00     0.031 C 
ATOM     34  C   UNL A   1      44.630  26.489  31.945  1.00  0.00     0.029 A 
ATOM     35  C   UNL A   1      43.761  27.413  32.510  1.00  0.00     0.049 A 
ATOM     36  H   UNL A   1      42.085  28.349  31.640  1.00  0.00     0.167 HD
ATOM     37  C   UNL A   1      42.909  28.864  34.360  1.00  0.00     0.074 A 
ATOM     38  C   UNL A   1      42.975  29.384  35.715  1.00  0.00     0.031 C 
ATOM     39  C   UNL A   1      43.784  27.965  33.844  1.00  0.00     0.037 A 
BRANCH  26  40
ATOM     40  C   UNL A   1      42.720  26.307  27.950  1.00  0.00     0.064 A 
ATOM     41  C   UNL A   1      43.596  26.800  26.970  1.00  0.00     0.173 A 
ATOM     42  C   UNL A   1      42.126  25.056  27.726  1.00  0.00     0.173 A 
ATOM     43  F   UNL A   1      44.164  28.007  27.119  1.00  0.00    -0.203 F 
ATOM     44  C   UNL A   1      43.827  26.091  25.793  1.00  0.00     0.198 A 
ATOM     45  C   UNL A   1      42.382  24.336  26.562  1.00  0.00     0.198 A 
ATOM     46  F   UNL A   1      41.273  24.541  28.624  1.00  0.00    -0.203 F 
ATOM     47  F   UNL A   1      44.604  26.617  24.836  1.00  0.00    -0.200 F 
ATOM     48  C   UNL A   1      43.220  24.860  25.590  1.00  0.00     0.200 A 
ATOM     49  F   UNL A   1      41.794  23.148  26.367  1.00  0.00    -0.200 F 
ATOM     50  F   UNL A   1      43.426  24.189  24.448  1.00  0.00    -0.200 F 
ENDBRANCH  26  40
BRANCH  27  51
ATOM     51  C   UNL A   1      39.611  31.976  35.714  1.00  0.00     0.064 A 
ATOM     52  C   UNL A   1      40.167  33.243  35.933  1.00  0.00     0.173 A 
ATOM     53  C   UNL A   1      38.601  31.552  36.594  1.00  0.00     0.173 A 
ATOM     54  F   UNL A   1      41.149  33.690  35.137  1.00  0.00    -0.203 F 
ATOM     55  C   UNL A   1      39.737  34.048  36.989  1.00  0.00     0.198 A 
ATOM     56  C   UNL A   1      38.151  32.368  37.630  1.00  0.00     0.198 A 
ATOM     57  F   UNL A   1      38.035  30.346  36.437  1.00  0.00    -0.203 F 
ATOM     58  F   UNL A   1      40.313  35.240  37.197  1.00  0.00    -0.200 F 
ATOM     59  C   UNL A   1      38.725  33.613  37.831  1.00  0.00     0.200 A 
ATOM     60  F   UNL A   1      37.163  31.948  38.430  1.00  0.00    -0.200 F 
ATOM     61  F   UNL A   1      38.307  34.391  38.839  1.00  0.00    -0.200 F 
ENDBRANCH  27  51
BRANCH  39  62
ATOM     62  C   UNL A   1      44.896  27.521  34.742  1.00  0.00     0.064 A 
ATOM     63  C   UNL A   1      44.785  26.370  35.534  1.00  0.00     0.173 A 
ATOM     64  C   UNL A   1      46.106  28.230  34.767  1.00  0.00     0.173 A 
ATOM     65  F   UNL A   1      43.640  25.671  35.554  1.00  0.00    -0.203 F 
ATOM     66  C   UNL A   1      45.841  25.956  36.338  1.00  0.00     0.198 A 
ATOM     67  C   UNL A   1      47.170  27.795  35.548  1.00  0.00     0.198 A 
ATOM     68  F   UNL A   1      46.259  29.333  34.019  1.00  0.00    -0.203 F 
ATOM     69  F   UNL A   1      45.702  24.878  37.123  1.00  0.00    -0.200 F 
ATOM     70  C   UNL A   1      47.035  26.663  36.338  1.00  0.00     0.200 A 
ATOM     71  F   UNL A   1      48.328  28.471  35.536  1.00  0.00    -0.200 F 
ATOM     72  F   UNL A   1      48.056  26.255  37.104  1.00  0.00    -0.200 F 
ENDBRANCH  39  62
ENDBRANCH  13  14
ENDBRANCH   6   8
ENDBRANCH   5   6
ENDBRANCH   4   5
ENDBRANCH   3   4
ENDBRANCH   2   3
ENDBRANCH   1   2
BRANCH   1  73
ATOM     73  C   UNL A   1      29.796  27.381  23.529  1.00  0.00     0.261 C 
BRANCH  73  74
ATOM     74  O   UNL A   1      30.681  26.393  22.972  1.00  0.00    -0.459 OA
BRANCH  74  75
ATOM     75  C   UNL A   1      30.734  25.204  23.653  1.00  0.00     0.365 C 
ATOM     76  O   UNL A   1      30.245  24.154  23.274  1.00  0.00    -0.245 OA
BRANCH  75  77
ATOM     77  C   UNL A   1      31.496  25.395  24.978  1.00  0.00     0.295 C 
ATOM     78  C   UNL A   1      30.551  25.238  26.163  1.00  0.00     0.083 C 
ATOM     79  N   UNL A   1      32.518  24.333  25.163  1.00  0.00    -0.319 N 
ATOM     80  C   UNL A   1      30.562  23.749  26.454  1.00  0.00     0.068 C 
ATOM     81  C   UNL A   1      31.882  23.236  25.905  1.00  0.00     0.263 C 
ATOM     82  H   UNL A   1      32.815  23.999  24.247  1.00  0.00     0.349 HD
BRANCH  79  83
ATOM     83  C   UNL A   1      33.813  24.782  25.712  1.00  0.00     0.307 C 
BRANCH  83  84
ATOM     84  C   UNL A   1      35.049  24.181  25.067  1.00  0.00     0.084 A 
ATOM     85  C   UNL A   1      36.183  23.974  25.879  1.00  0.00     0.017 A 
ATOM     86  C   UNL A   1      35.095  23.668  23.757  1.00  0.00     0.278 A 
ATOM     87  C   UNL A   1      37.239  23.167  25.452  1.00  0.00     0.001 A 
ATOM     88  C   UNL A   1      36.142  22.837  23.332  1.00  0.00     0.086 A 
ATOM     89  C   UNL A   1      37.200  22.567  24.197  1.00  0.00     0.007 A 
BRANCH  86  90
ATOM     90  N   UNL A   1      34.071  23.990  22.772  1.00  0.00     0.063 N 
ATOM     91  O   UNL A   1      33.327  23.069  22.406  1.00  0.00    -0.258 OA
ATOM     92  O   UNL A   1      34.025  25.155  22.356  1.00  0.00    -0.258 OA
ENDBRANCH  86  90
ENDBRANCH  83  84
ENDBRANCH  79  83
ENDBRANCH  75  77
ENDBRANCH  74  75
ENDBRANCH  73  74
ENDBRANCH   1  73
TORSDOF 17
ENDMDL
