MODEL 1
REMARK VINA RESULT:     -10.4      0.000      0.000
REMARK SMILES CC[C@@H](NC(=O)c1cscc1C)C(=O)OCCOCCOC(=O)c1ccc(-c2c3nc(c(-c4c(F)c(F)c(F)c(F)c4F)c4ccc([nH]4)c(-c4c(F)c(F)c(F)c(F)c4F)c4nc(c(-c5c(F)c(F)c(F)c(F)c5F)c5ccc2[nH]5)C=C4)C=C3)cc1
REMARK SMILES IDX 18 1 17 2 16 3 15 4 13 5 14 6 3 7 2 8 1 9 4 10 5 11 6 13
REMARK SMILES IDX 7 14 8 15 11 16 9 17 10 18 12 19 19 20 20 21 21 22 22 23
REMARK SMILES IDX 23 24 24 25 25 26 86 27 26 28 85 29 27 30 28 31 29 32 79 33
REMARK SMILES IDX 30 34 84 35 78 36 80 37 31 38 83 39 77 40 76 41 32 43 64 44
REMARK SMILES IDX 44 45 63 46 45 47 48 48 62 49 81 50 46 51 47 52 61 54 82 55
REMARK SMILES IDX 49 56 33 57 34 58 42 59 35 60 36 61 40 62 43 63 37 64 38 65
REMARK SMILES IDX 41 66 39 67 65 68 66 69 74 70 67 71 68 72 72 73 75 74 69 75
REMARK SMILES IDX 70 76 73 77 71 78 50 79 51 80 59 81 52 82 53 83 57 84 60 85
REMARK SMILES IDX 54 86 55 87 58 88 56 89
REMARK H PARENT 4 12 80 42 48 53
REMARK Flexibility Score: inf
ROOT
ATOM      1  O   UNL A   1      32.496  30.592  26.776  1.00  0.00    -0.374 OA
ENDROOT
BRANCH   1   2
ATOM      2  C   UNL A   1      32.003  29.327  27.217  1.00  0.00     0.202 C 
BRANCH   2   3
ATOM      3  C   UNL A   1      32.936  28.143  26.956  1.00  0.00     0.261 C 
BRANCH   3   4
ATOM      4  O   UNL A   1      32.631  27.460  25.725  1.00  0.00    -0.462 OA
BRANCH   4   5
ATOM      5  C   UNL A   1      31.731  26.445  25.821  1.00  0.00     0.328 C 
ATOM      6  O   UNL A   1      31.096  26.159  26.831  1.00  0.00    -0.250 OA
BRANCH   5   7
ATOM      7  C   UNL A   1      31.470  25.765  24.471  1.00  0.00     0.192 C 
BRANCH   7   8
ATOM      8  C   UNL A   1      30.035  26.162  24.053  1.00  0.00     0.033 C 
ATOM      9  C   UNL A   1      29.942  27.519  23.372  1.00  0.00     0.007 C 
ENDBRANCH   7   8
BRANCH   7  10
ATOM     10  N   UNL A   1      32.391  26.089  23.375  1.00  0.00    -0.339 N 
ATOM     11  C   UNL A   1      33.381  25.334  22.799  1.00  0.00     0.253 C 
ATOM     12  H   UNL A   1      32.282  26.991  22.995  1.00  0.00     0.164 HD
ATOM     13  O   UNL A   1      33.788  25.660  21.687  1.00  0.00    -0.269 OA
BRANCH  11  14
ATOM     14  C   UNL A   1      34.030  24.281  23.569  1.00  0.00     0.053 A 
ATOM     15  C   UNL A   1      34.986  24.491  24.545  1.00  0.00     0.079 A 
ATOM     16  C   UNL A   1      33.708  22.871  23.447  1.00  0.00    -0.028 A 
ATOM     17  S   UNL A   1      35.551  23.035  25.243  1.00  0.00    -0.151 S 
ATOM     18  C   UNL A   1      34.485  22.101  24.292  1.00  0.00     0.069 A 
ATOM     19  C   UNL A   1      32.676  22.304  22.524  1.00  0.00     0.046 C 
ENDBRANCH  11  14
ENDBRANCH   7  10
ENDBRANCH   5   7
ENDBRANCH   4   5
ENDBRANCH   3   4
ENDBRANCH   2   3
ENDBRANCH   1   2
BRANCH   1  20
ATOM     20  C   UNL A   1      31.511  31.585  26.495  1.00  0.00     0.202 C 
BRANCH  20  21
ATOM     21  C   UNL A   1      31.784  32.943  27.145  1.00  0.00     0.261 C 
BRANCH  21  22
ATOM     22  O   UNL A   1      33.178  33.286  27.023  1.00  0.00    -0.460 OA
BRANCH  22  23
ATOM     23  C   UNL A   1      33.758  33.708  28.166  1.00  0.00     0.338 C 
ATOM     24  O   UNL A   1      33.310  34.511  28.974  1.00  0.00    -0.246 OA
BRANCH  23  25
ATOM     25  C   UNL A   1      34.989  32.938  28.426  1.00  0.00     0.060 A 
ATOM     26  C   UNL A   1      34.836  31.619  28.872  1.00  0.00     0.016 A 
ATOM     27  C   UNL A   1      36.263  33.503  28.310  1.00  0.00     0.016 A 
ATOM     28  C   UNL A   1      35.946  30.885  29.278  1.00  0.00     0.010 A 
ATOM     29  C   UNL A   1      37.378  32.766  28.725  1.00  0.00     0.010 A 
ATOM     30  C   UNL A   1      37.216  31.474  29.256  1.00  0.00    -0.014 A 
BRANCH  30  31
ATOM     31  C   UNL A   1      38.328  30.808  29.974  1.00  0.00     0.031 A 
ATOM     32  C   UNL A   1      38.553  31.146  31.422  1.00  0.00     0.074 A 
ATOM     33  C   UNL A   1      39.090  29.881  29.369  1.00  0.00     0.049 A 
ATOM     34  N   UNL A   1      39.457  30.692  32.254  1.00  0.00    -0.248 NA
ATOM     35  C   UNL A   1      37.632  32.130  32.015  1.00  0.00     0.031 C 
ATOM     36  C   UNL A   1      38.939  29.437  27.985  1.00  0.00     0.029 A 
ATOM     37  N   UNL A   1      40.144  29.145  29.849  1.00  0.00    -0.354 N 
ATOM     38  C   UNL A   1      39.215  31.336  33.460  1.00  0.00     0.074 A 
ATOM     39  C   UNL A   1      38.100  32.232  33.250  1.00  0.00     0.031 C 
ATOM     40  C   UNL A   1      39.873  28.506  27.723  1.00  0.00     0.029 A 
ATOM     41  C   UNL A   1      40.701  28.310  28.912  1.00  0.00     0.049 A 
ATOM     42  H   UNL A   1      40.469  29.211  30.775  1.00  0.00     0.167 HD
ATOM     43  C   UNL A   1      39.860  31.184  34.641  1.00  0.00     0.037 A 
ATOM     44  C   UNL A   1      41.768  27.493  29.007  1.00  0.00     0.037 A 
ATOM     45  C   UNL A   1      40.963  30.287  34.853  1.00  0.00     0.049 A 
ATOM     46  C   UNL A   1      42.511  27.393  30.314  1.00  0.00     0.074 A 
ATOM     47  C   UNL A   1      41.668  30.044  36.018  1.00  0.00     0.029 A 
ATOM     48  N   UNL A   1      41.527  29.487  33.869  1.00  0.00    -0.354 N 
ATOM     49  N   UNL A   1      42.261  27.986  31.457  1.00  0.00    -0.248 NA
ATOM     50  C   UNL A   1      43.685  26.509  30.343  1.00  0.00     0.031 C 
ATOM     51  C   UNL A   1      42.688  29.131  35.729  1.00  0.00     0.029 A 
ATOM     52  C   UNL A   1      42.588  28.771  34.395  1.00  0.00     0.049 A 
ATOM     53  H   UNL A   1      41.218  29.438  32.936  1.00  0.00     0.167 HD
ATOM     54  C   UNL A   1      43.226  27.527  32.345  1.00  0.00     0.074 A 
ATOM     55  C   UNL A   1      44.060  26.599  31.611  1.00  0.00     0.031 C 
ATOM     56  C   UNL A   1      43.403  27.845  33.651  1.00  0.00     0.037 A 
BRANCH  43  57
ATOM     57  C   UNL A   1      39.400  32.031  35.791  1.00  0.00     0.064 A 
ATOM     58  C   UNL A   1      38.424  31.583  36.692  1.00  0.00     0.173 A 
ATOM     59  C   UNL A   1      39.966  33.296  36.008  1.00  0.00     0.173 A 
ATOM     60  F   UNL A   1      37.841  30.387  36.519  1.00  0.00    -0.203 F 
ATOM     61  C   UNL A   1      38.013  32.382  37.757  1.00  0.00     0.198 A 
ATOM     62  C   UNL A   1      39.571  34.082  37.087  1.00  0.00     0.198 A 
ATOM     63  F   UNL A   1      40.904  33.770  35.174  1.00  0.00    -0.203 F 
ATOM     64  F   UNL A   1      37.047  31.953  38.581  1.00  0.00    -0.200 F 
ATOM     65  C   UNL A   1      38.590  33.627  37.957  1.00  0.00     0.200 A 
ATOM     66  F   UNL A   1      40.135  35.281  37.283  1.00  0.00    -0.200 F 
ATOM     67  F   UNL A   1      38.197  34.394  38.983  1.00  0.00    -0.200 F 
ENDBRANCH  43  57
BRANCH  44  68
ATOM     68  C   UNL A   1      42.206  26.706  27.825  1.00  0.00     0.064 A 
ATOM     69  C   UNL A   1      43.143  27.221  26.919  1.00  0.00     0.173 A 
ATOM     70  C   UNL A   1      41.681  25.430  27.570  1.00  0.00     0.173 A 
ATOM     71  F   UNL A   1      43.651  28.447  27.108  1.00  0.00    -0.203 F 
ATOM     72  C   UNL A   1      43.531  26.493  25.796  1.00  0.00     0.198 A 
ATOM     73  C   UNL A   1      42.089  24.695  26.460  1.00  0.00     0.198 A 
ATOM     74  F   UNL A   1      40.778  24.896  28.404  1.00  0.00    -0.203 F 
ATOM     75  F   UNL A   1      44.399  27.025  24.924  1.00  0.00    -0.200 F 
ATOM     76  C   UNL A   1      43.007  25.229  25.570  1.00  0.00     0.200 A 
ATOM     77  F   UNL A   1      41.588  23.470  26.250  1.00  0.00    -0.200 F 
ATOM     78  F   UNL A   1      43.383  24.530  24.490  1.00  0.00    -0.200 F 
ENDBRANCH  44  68
BRANCH  56  79
ATOM     79  C   UNL A   1      44.522  27.161  34.381  1.00  0.00     0.064 A 
ATOM     80  C   UNL A   1      44.344  25.912  34.993  1.00  0.00     0.173 A 
ATOM     81  C   UNL A   1      45.798  27.741  34.429  1.00  0.00     0.173 A 
ATOM     82  F   UNL A   1      43.138  25.323  34.986  1.00  0.00    -0.203 F 
ATOM     83  C   UNL A   1      45.399  25.278  35.644  1.00  0.00     0.198 A 
ATOM     84  C   UNL A   1      46.857  27.092  35.057  1.00  0.00     0.198 A 
ATOM     85  F   UNL A   1      46.021  28.932  33.852  1.00  0.00    -0.203 F 
ATOM     86  F   UNL A   1      45.196  24.104  36.258  1.00  0.00    -0.200 F 
ATOM     87  C   UNL A   1      46.655  25.865  35.669  1.00  0.00     0.200 A 
ATOM     88  F   UNL A   1      48.073  27.656  35.071  1.00  0.00    -0.200 F 
ATOM     89  F   UNL A   1      47.671  25.251  36.291  1.00  0.00    -0.200 F 
ENDBRANCH  56  79
ENDBRANCH  30  31
ENDBRANCH  23  25
ENDBRANCH  22  23
ENDBRANCH  21  22
ENDBRANCH  20  21
ENDBRANCH   1  20
TORSDOF 17
ENDMDL
MODEL 2
REMARK VINA RESULT:     -10.4      4.362      9.919
REMARK SMILES CC[C@@H](NC(=O)c1cscc1C)C(=O)OCCOCCOC(=O)c1ccc(-c2c3nc(c(-c4c(F)c(F)c(F)c(F)c4F)c4ccc([nH]4)c(-c4c(F)c(F)c(F)c(F)c4F)c4nc(c(-c5c(F)c(F)c(F)c(F)c5F)c5ccc2[nH]5)C=C4)C=C3)cc1
REMARK SMILES IDX 18 1 17 2 16 3 15 4 13 5 14 6 3 7 2 8 1 9 4 10 5 11 6 13
REMARK SMILES IDX 7 14 8 15 11 16 9 17 10 18 12 19 19 20 20 21 21 22 22 23
REMARK SMILES IDX 23 24 24 25 25 26 86 27 26 28 85 29 27 30 28 31 29 32 79 33
REMARK SMILES IDX 30 34 84 35 78 36 80 37 31 38 83 39 77 40 76 41 32 43 64 44
REMARK SMILES IDX 44 45 63 46 45 47 48 48 62 49 81 50 46 51 47 52 61 54 82 55
REMARK SMILES IDX 49 56 33 57 34 58 42 59 35 60 36 61 40 62 43 63 37 64 38 65
REMARK SMILES IDX 41 66 39 67 65 68 66 69 74 70 67 71 68 72 72 73 75 74 69 75
REMARK SMILES IDX 70 76 73 77 71 78 50 79 51 80 59 81 52 82 53 83 57 84 60 85
REMARK SMILES IDX 54 86 55 87 58 88 56 89
REMARK H PARENT 4 12 80 42 48 53
REMARK Flexibility Score: inf
ROOT
ATOM      1  O   UNL A   1      35.919  22.505  24.577  1.00  0.00    -0.374 OA
ENDROOT
BRANCH   1   2
ATOM      2  C   UNL A   1      35.063  22.914  23.510  1.00  0.00     0.202 C 
BRANCH   2   3
ATOM      3  C   UNL A   1      34.148  24.098  23.834  1.00  0.00     0.261 C 
BRANCH   3   4
ATOM      4  O   UNL A   1      33.053  24.220  22.907  1.00  0.00    -0.462 OA
BRANCH   4   5
ATOM      5  C   UNL A   1      33.089  25.307  22.090  1.00  0.00     0.328 C 
ATOM      6  O   UNL A   1      33.275  25.272  20.878  1.00  0.00    -0.250 OA
BRANCH   5   7
ATOM      7  C   UNL A   1      32.720  26.603  22.824  1.00  0.00     0.192 C 
BRANCH   7   8
ATOM      8  C   UNL A   1      33.484  27.741  22.109  1.00  0.00     0.033 C 
ATOM      9  C   UNL A   1      34.368  28.568  23.030  1.00  0.00     0.007 C 
ENDBRANCH   7   8
BRANCH   7  10
ATOM     10  N   UNL A   1      31.295  26.949  22.882  1.00  0.00    -0.339 N 
ATOM     11  C   UNL A   1      30.645  27.898  23.631  1.00  0.00     0.253 C 
ATOM     12  H   UNL A   1      30.714  26.416  22.293  1.00  0.00     0.164 HD
ATOM     13  O   UNL A   1      29.524  28.252  23.274  1.00  0.00    -0.269 OA
BRANCH  11  14
ATOM     14  C   UNL A   1      31.217  28.339  24.896  1.00  0.00     0.053 A 
ATOM     15  C   UNL A   1      31.617  29.633  25.173  1.00  0.00     0.079 A 
ATOM     16  C   UNL A   1      31.386  27.480  26.053  1.00  0.00    -0.028 A 
ATOM     17  S   UNL A   1      32.258  29.804  26.749  1.00  0.00    -0.151 S 
ATOM     18  C   UNL A   1      31.960  28.163  27.109  1.00  0.00     0.069 A 
ATOM     19  C   UNL A   1      31.001  26.036  26.113  1.00  0.00     0.046 C 
ENDBRANCH  11  14
ENDBRANCH   7  10
ENDBRANCH   5   7
ENDBRANCH   4   5
ENDBRANCH   3   4
ENDBRANCH   2   3
ENDBRANCH   1   2
BRANCH   1  20
ATOM     20  C   UNL A   1      35.903  21.114  24.894  1.00  0.00     0.202 C 
BRANCH  20  21
ATOM     21  C   UNL A   1      37.290  20.487  25.048  1.00  0.00     0.261 C 
BRANCH  21  22
ATOM     22  O   UNL A   1      38.297  21.515  25.128  1.00  0.00    -0.460 OA
BRANCH  22  23
ATOM     23  C   UNL A   1      39.293  21.261  26.003  1.00  0.00     0.338 C 
ATOM     24  O   UNL A   1      39.918  20.217  26.136  1.00  0.00    -0.246 OA
BRANCH  23  25
ATOM     25  C   UNL A   1      39.670  22.497  26.717  1.00  0.00     0.060 A 
ATOM     26  C   UNL A   1      38.960  23.661  26.397  1.00  0.00     0.016 A 
ATOM     27  C   UNL A   1      40.734  22.543  27.623  1.00  0.00     0.016 A 
ATOM     28  C   UNL A   1      39.358  24.888  26.919  1.00  0.00     0.010 A 
ATOM     29  C   UNL A   1      41.137  23.778  28.142  1.00  0.00     0.010 A 
ATOM     30  C   UNL A   1      40.481  24.959  27.752  1.00  0.00    -0.014 A 
BRANCH  30  31
ATOM     31  C   UNL A   1      41.076  26.284  28.043  1.00  0.00     0.031 A 
ATOM     32  C   UNL A   1      42.490  26.549  27.605  1.00  0.00     0.074 A 
ATOM     33  C   UNL A   1      40.358  27.253  28.636  1.00  0.00     0.049 A 
ATOM     34  N   UNL A   1      43.218  27.628  27.745  1.00  0.00    -0.248 NA
ATOM     35  C   UNL A   1      43.177  25.447  26.911  1.00  0.00     0.031 C 
ATOM     36  C   UNL A   1      38.966  27.131  29.063  1.00  0.00     0.029 A 
ATOM     37  N   UNL A   1      40.707  28.536  28.977  1.00  0.00    -0.354 N 
ATOM     38  C   UNL A   1      44.444  27.332  27.165  1.00  0.00     0.074 A 
ATOM     39  C   UNL A   1      44.376  25.967  26.694  1.00  0.00     0.031 C 
ATOM     40  C   UNL A   1      38.578  28.293  29.618  1.00  0.00     0.029 A 
ATOM     41  C   UNL A   1      39.702  29.228  29.606  1.00  0.00     0.049 A 
ATOM     42  H   UNL A   1      41.592  28.921  28.789  1.00  0.00     0.167 HD
ATOM     43  C   UNL A   1      45.528  28.133  27.027  1.00  0.00     0.037 A 
ATOM     44  C   UNL A   1      39.701  30.472  30.125  1.00  0.00     0.037 A 
ATOM     45  C   UNL A   1      45.594  29.493  27.487  1.00  0.00     0.049 A 
ATOM     46  C   UNL A   1      40.943  31.319  30.018  1.00  0.00     0.074 A 
ATOM     47  C   UNL A   1      46.637  30.394  27.374  1.00  0.00     0.029 A 
ATOM     48  N   UNL A   1      44.570  30.147  28.158  1.00  0.00    -0.354 N 
ATOM     49  N   UNL A   1      42.089  31.042  29.446  1.00  0.00    -0.248 NA
ATOM     50  C   UNL A   1      40.888  32.654  30.632  1.00  0.00     0.031 C 
ATOM     51  C   UNL A   1      46.262  31.579  28.016  1.00  0.00     0.029 A 
ATOM     52  C   UNL A   1      44.968  31.431  28.488  1.00  0.00     0.049 A 
ATOM     53  H   UNL A   1      43.691  29.756  28.367  1.00  0.00     0.167 HD
ATOM     54  C   UNL A   1      42.880  32.173  29.604  1.00  0.00     0.074 A 
ATOM     55  C   UNL A   1      42.079  33.145  30.319  1.00  0.00     0.031 C 
ATOM     56  C   UNL A   1      44.154  32.388  29.194  1.00  0.00     0.037 A 
BRANCH  43  57
ATOM     57  C   UNL A   1      46.741  27.544  26.371  1.00  0.00     0.064 A 
ATOM     58  C   UNL A   1      46.943  27.625  24.985  1.00  0.00     0.173 A 
ATOM     59  C   UNL A   1      47.727  26.915  27.144  1.00  0.00     0.173 A 
ATOM     60  F   UNL A   1      46.021  28.203  24.201  1.00  0.00    -0.203 F 
ATOM     61  C   UNL A   1      48.079  27.076  24.395  1.00  0.00     0.198 A 
ATOM     62  C   UNL A   1      48.873  26.389  26.554  1.00  0.00     0.198 A 
ATOM     63  F   UNL A   1      47.581  26.812  28.474  1.00  0.00    -0.203 F 
ATOM     64  F   UNL A   1      48.231  27.125  23.064  1.00  0.00    -0.200 F 
ATOM     65  C   UNL A   1      49.045  26.464  25.180  1.00  0.00     0.200 A 
ATOM     66  F   UNL A   1      49.810  25.805  27.314  1.00  0.00    -0.200 F 
ATOM     67  F   UNL A   1      50.139  25.939  24.611  1.00  0.00    -0.200 F 
ENDBRANCH  43  57
BRANCH  44  68
ATOM     68  C   UNL A   1      38.484  30.992  30.799  1.00  0.00     0.064 A 
ATOM     69  C   UNL A   1      37.462  31.615  30.070  1.00  0.00     0.173 A 
ATOM     70  C   UNL A   1      38.327  30.891  32.190  1.00  0.00     0.173 A 
ATOM     71  F   UNL A   1      37.581  31.758  28.742  1.00  0.00    -0.203 F 
ATOM     72  C   UNL A   1      36.335  32.128  30.707  1.00  0.00     0.198 A 
ATOM     73  C   UNL A   1      37.188  31.383  32.822  1.00  0.00     0.198 A 
ATOM     74  F   UNL A   1      39.279  30.308  32.932  1.00  0.00    -0.203 F 
ATOM     75  F   UNL A   1      35.391  32.754  29.991  1.00  0.00    -0.200 F 
ATOM     76  C   UNL A   1      36.196  32.007  32.082  1.00  0.00     0.200 A 
ATOM     77  F   UNL A   1      37.053  31.255  34.149  1.00  0.00    -0.200 F 
ATOM     78  F   UNL A   1      35.109  32.499  32.693  1.00  0.00    -0.200 F 
ENDBRANCH  44  68
BRANCH  56  79
ATOM     79  C   UNL A   1      44.752  33.735  29.477  1.00  0.00     0.064 A 
ATOM     80  C   UNL A   1      45.492  33.979  30.644  1.00  0.00     0.173 A 
ATOM     81  C   UNL A   1      44.623  34.779  28.550  1.00  0.00     0.173 A 
ATOM     82  F   UNL A   1      45.631  33.016  31.567  1.00  0.00    -0.203 F 
ATOM     83  C   UNL A   1      46.063  35.226  30.880  1.00  0.00     0.198 A 
ATOM     84  C   UNL A   1      45.218  36.016  28.776  1.00  0.00     0.198 A 
ATOM     85  F   UNL A   1      43.932  34.593  27.415  1.00  0.00    -0.203 F 
ATOM     86  F   UNL A   1      46.731  35.451  32.020  1.00  0.00    -0.200 F 
ATOM     87  C   UNL A   1      45.932  36.241  29.943  1.00  0.00     0.200 A 
ATOM     88  F   UNL A   1      45.100  36.992  27.865  1.00  0.00    -0.200 F 
ATOM     89  F   UNL A   1      46.488  37.439  30.169  1.00  0.00    -0.200 F 
ENDBRANCH  56  79
ENDBRANCH  30  31
ENDBRANCH  23  25
ENDBRANCH  22  23
ENDBRANCH  21  22
ENDBRANCH  20  21
ENDBRANCH   1  20
TORSDOF 17
ENDMDL
MODEL 3
REMARK VINA RESULT:     -10.3      4.540      7.568
REMARK SMILES CC[C@@H](NC(=O)c1cscc1C)C(=O)OCCOCCOC(=O)c1ccc(-c2c3nc(c(-c4c(F)c(F)c(F)c(F)c4F)c4ccc([nH]4)c(-c4c(F)c(F)c(F)c(F)c4F)c4nc(c(-c5c(F)c(F)c(F)c(F)c5F)c5ccc2[nH]5)C=C4)C=C3)cc1
REMARK SMILES IDX 18 1 17 2 16 3 15 4 13 5 14 6 3 7 2 8 1 9 4 10 5 11 6 13
REMARK SMILES IDX 7 14 8 15 11 16 9 17 10 18 12 19 19 20 20 21 21 22 22 23
REMARK SMILES IDX 23 24 24 25 25 26 86 27 26 28 85 29 27 30 28 31 29 32 79 33
REMARK SMILES IDX 30 34 84 35 78 36 80 37 31 38 83 39 77 40 76 41 32 43 64 44
REMARK SMILES IDX 44 45 63 46 45 47 48 48 62 49 81 50 46 51 47 52 61 54 82 55
REMARK SMILES IDX 49 56 33 57 34 58 42 59 35 60 36 61 40 62 43 63 37 64 38 65
REMARK SMILES IDX 41 66 39 67 65 68 66 69 74 70 67 71 68 72 72 73 75 74 69 75
REMARK SMILES IDX 70 76 73 77 71 78 50 79 51 80 59 81 52 82 53 83 57 84 60 85
REMARK SMILES IDX 54 86 55 87 58 88 56 89
REMARK H PARENT 4 12 80 42 48 53
REMARK Flexibility Score: inf
ROOT
ATOM      1  O   UNL A   1      34.702  20.881  24.746  1.00  0.00    -0.374 OA
ENDROOT
BRANCH   1   2
ATOM      2  C   UNL A   1      33.537  20.292  25.323  1.00  0.00     0.202 C 
BRANCH   2   3
ATOM      3  C   UNL A   1      32.243  21.084  25.118  1.00  0.00     0.261 C 
BRANCH   3   4
ATOM      4  O   UNL A   1      32.453  22.305  24.384  1.00  0.00    -0.462 OA
BRANCH   4   5
ATOM      5  C   UNL A   1      31.786  23.396  24.849  1.00  0.00     0.328 C 
ATOM      6  O   UNL A   1      30.729  23.363  25.470  1.00  0.00    -0.250 OA
BRANCH   5   7
ATOM      7  C   UNL A   1      32.576  24.695  24.647  1.00  0.00     0.192 C 
BRANCH   7   8
ATOM      8  C   UNL A   1      33.790  24.621  25.602  1.00  0.00     0.033 C 
ATOM      9  C   UNL A   1      35.116  24.374  24.899  1.00  0.00     0.007 C 
ENDBRANCH   7   8
BRANCH   7  10
ATOM     10  N   UNL A   1      33.056  24.976  23.288  1.00  0.00    -0.339 N 
ATOM     11  C   UNL A   1      33.097  26.156  22.591  1.00  0.00     0.253 C 
ATOM     12  H   UNL A   1      33.401  24.193  22.801  1.00  0.00     0.164 HD
ATOM     13  O   UNL A   1      33.846  26.232  21.620  1.00  0.00    -0.269 OA
BRANCH  11  14
ATOM     14  C   UNL A   1      32.153  27.220  22.910  1.00  0.00     0.053 A 
ATOM     15  C   UNL A   1      30.883  27.334  22.376  1.00  0.00     0.079 A 
ATOM     16  C   UNL A   1      32.410  28.268  23.879  1.00  0.00    -0.028 A 
ATOM     17  S   UNL A   1      30.044  28.708  22.953  1.00  0.00    -0.151 S 
ATOM     18  C   UNL A   1      31.343  29.143  23.970  1.00  0.00     0.069 A 
ATOM     19  C   UNL A   1      33.665  28.406  24.682  1.00  0.00     0.046 C 
ENDBRANCH  11  14
ENDBRANCH   7  10
ENDBRANCH   5   7
ENDBRANCH   4   5
ENDBRANCH   3   4
ENDBRANCH   2   3
ENDBRANCH   1   2
BRANCH   1  20
ATOM     20  C   UNL A   1      35.931  20.195  24.977  1.00  0.00     0.202 C 
BRANCH  20  21
ATOM     21  C   UNL A   1      37.181  21.018  24.659  1.00  0.00     0.261 C 
BRANCH  21  22
ATOM     22  O   UNL A   1      37.655  21.687  25.844  1.00  0.00    -0.460 OA
BRANCH  22  23
ATOM     23  C   UNL A   1      38.972  21.527  26.094  1.00  0.00     0.338 C 
ATOM     24  O   UNL A   1      39.687  20.598  25.743  1.00  0.00    -0.246 OA
BRANCH  23  25
ATOM     25  C   UNL A   1      39.518  22.737  26.739  1.00  0.00     0.060 A 
ATOM     26  C   UNL A   1      38.931  23.962  26.399  1.00  0.00     0.016 A 
ATOM     27  C   UNL A   1      40.620  22.694  27.598  1.00  0.00     0.016 A 
ATOM     28  C   UNL A   1      39.488  25.153  26.853  1.00  0.00     0.010 A 
ATOM     29  C   UNL A   1      41.183  23.893  28.048  1.00  0.00     0.010 A 
ATOM     30  C   UNL A   1      40.649  25.126  27.636  1.00  0.00    -0.014 A 
BRANCH  30  31
ATOM     31  C   UNL A   1      41.403  26.384  27.847  1.00  0.00     0.031 A 
ATOM     32  C   UNL A   1      40.738  27.503  28.600  1.00  0.00     0.074 A 
ATOM     33  C   UNL A   1      42.672  26.512  27.424  1.00  0.00     0.049 A 
ATOM     34  N   UNL A   1      41.199  28.689  28.909  1.00  0.00    -0.248 NA
ATOM     35  C   UNL A   1      39.368  27.249  29.075  1.00  0.00     0.031 C 
ATOM     36  C   UNL A   1      43.436  25.482  26.724  1.00  0.00     0.029 A 
ATOM     37  N   UNL A   1      43.541  27.568  27.528  1.00  0.00    -0.354 N 
ATOM     38  C   UNL A   1      40.176  29.320  29.604  1.00  0.00     0.074 A 
ATOM     39  C   UNL A   1      39.061  28.401  29.652  1.00  0.00     0.031 C 
ATOM     40  C   UNL A   1      44.664  25.960  26.454  1.00  0.00     0.029 A 
ATOM     41  C   UNL A   1      44.760  27.336  26.940  1.00  0.00     0.049 A 
ATOM     42  H   UNL A   1      43.313  28.411  27.981  1.00  0.00     0.167 HD
ATOM     43  C   UNL A   1      40.172  30.554  30.164  1.00  0.00     0.037 A 
ATOM     44  C   UNL A   1      45.823  28.151  26.800  1.00  0.00     0.037 A 
ATOM     45  C   UNL A   1      41.283  31.465  30.125  1.00  0.00     0.049 A 
ATOM     46  C   UNL A   1      45.768  29.544  27.373  1.00  0.00     0.074 A 
ATOM     47  C   UNL A   1      41.386  32.727  30.681  1.00  0.00     0.029 A 
ATOM     48  N   UNL A   1      42.487  31.210  29.482  1.00  0.00    -0.354 N 
ATOM     49  N   UNL A   1      44.808  30.125  28.051  1.00  0.00    -0.248 NA
ATOM     50  C   UNL A   1      46.948  30.395  27.159  1.00  0.00     0.031 C 
ATOM     51  C   UNL A   1      42.635  33.255  30.337  1.00  0.00     0.029 A 
ATOM     52  C   UNL A   1      43.328  32.303  29.607  1.00  0.00     0.049 A 
ATOM     53  H   UNL A   1      42.710  30.376  29.009  1.00  0.00     0.167 HD
ATOM     54  C   UNL A   1      45.276  31.393  28.368  1.00  0.00     0.074 A 
ATOM     55  C   UNL A   1      46.611  31.496  27.817  1.00  0.00     0.031 C 
ATOM     56  C   UNL A   1      44.657  32.384  29.056  1.00  0.00     0.037 A 
BRANCH  43  57
ATOM     57  C   UNL A   1      38.912  30.997  30.846  1.00  0.00     0.064 A 
ATOM     58  C   UNL A   1      37.854  31.581  30.134  1.00  0.00     0.173 A 
ATOM     59  C   UNL A   1      38.752  30.809  32.226  1.00  0.00     0.173 A 
ATOM     60  F   UNL A   1      37.966  31.797  28.814  1.00  0.00    -0.203 F 
ATOM     61  C   UNL A   1      36.690  31.983  30.784  1.00  0.00     0.198 A 
ATOM     62  C   UNL A   1      37.577  31.189  32.869  1.00  0.00     0.198 A 
ATOM     63  F   UNL A   1      39.735  30.255  32.952  1.00  0.00    -0.203 F 
ATOM     64  F   UNL A   1      35.709  32.578  30.092  1.00  0.00    -0.200 F 
ATOM     65  C   UNL A   1      36.550  31.781  32.149  1.00  0.00     0.200 A 
ATOM     66  F   UNL A   1      37.440  30.987  34.186  1.00  0.00    -0.200 F 
ATOM     67  F   UNL A   1      35.428  32.164  32.774  1.00  0.00    -0.200 F 
ENDBRANCH  43  57
BRANCH  44  68
ATOM     68  C   UNL A   1      47.032  27.675  26.081  1.00  0.00     0.064 A 
ATOM     69  C   UNL A   1      47.120  27.749  24.684  1.00  0.00     0.173 A 
ATOM     70  C   UNL A   1      48.118  27.121  26.776  1.00  0.00     0.173 A 
ATOM     71  F   UNL A   1      46.095  28.246  23.975  1.00  0.00    -0.203 F 
ATOM     72  C   UNL A   1      48.242  27.276  24.009  1.00  0.00     0.198 A 
ATOM     73  C   UNL A   1      49.249  26.671  26.100  1.00  0.00     0.198 A 
ATOM     74  F   UNL A   1      48.080  27.024  28.113  1.00  0.00    -0.203 F 
ATOM     75  F   UNL A   1      48.284  27.321  22.670  1.00  0.00    -0.200 F 
ATOM     76  C   UNL A   1      49.309  26.742  24.717  1.00  0.00     0.200 A 
ATOM     77  F   UNL A   1      50.281  26.164  26.789  1.00  0.00    -0.200 F 
ATOM     78  F   UNL A   1      50.389  26.289  24.066  1.00  0.00    -0.200 F 
ENDBRANCH  44  68
BRANCH  56  79
ATOM     79  C   UNL A   1      45.426  33.653  29.280  1.00  0.00     0.064 A 
ATOM     80  C   UNL A   1      46.271  33.814  30.388  1.00  0.00     0.173 A 
ATOM     81  C   UNL A   1      45.352  34.701  28.351  1.00  0.00     0.173 A 
ATOM     82  F   UNL A   1      46.364  32.845  31.311  1.00  0.00    -0.203 F 
ATOM     83  C   UNL A   1      46.998  34.988  30.567  1.00  0.00     0.198 A 
ATOM     84  C   UNL A   1      46.101  35.862  28.520  1.00  0.00     0.198 A 
ATOM     85  F   UNL A   1      44.564  34.592  27.271  1.00  0.00    -0.203 F 
ATOM     86  F   UNL A   1      47.768  35.137  31.655  1.00  0.00    -0.200 F 
ATOM     87  C   UNL A   1      46.918  36.007  29.630  1.00  0.00     0.200 A 
ATOM     88  F   UNL A   1      46.031  36.841  27.607  1.00  0.00    -0.200 F 
ATOM     89  F   UNL A   1      47.624  37.134  29.801  1.00  0.00    -0.200 F 
ENDBRANCH  56  79
ENDBRANCH  30  31
ENDBRANCH  23  25
ENDBRANCH  22  23
ENDBRANCH  21  22
ENDBRANCH  20  21
ENDBRANCH   1  20
TORSDOF 17
ENDMDL
