MODEL 1
REMARK VINA RESULT:     -12.3      0.000      0.000
REMARK SMILES Cc1cscc1C(=O)N1C[C@@H](C(=O)OCCOCCOC(=O)c2ccc(-c3c4nc(c(-c5c(F)c(F)c(F)c(F)c5F)c5ccc([nH]5)c(-c5c(F)c(F)c(F)c(F)c5F)c5nc(c(-c6c(F)c(F)c(F)c(F)c6F)c6ccc3[nH]6)C=C5)C=C4)cc2)Oc2ccccc21
REMARK SMILES IDX 17 1 16 2 15 3 14 4 12 5 13 6 11 7 9 8 10 9 92 10 87 11
REMARK SMILES IDX 91 12 86 13 88 14 90 15 89 16 7 17 8 18 6 19 1 20 2 21 3 22
REMARK SMILES IDX 4 23 5 24 18 25 19 26 20 27 21 28 22 29 23 30 24 31 85 32
REMARK SMILES IDX 25 33 84 34 26 35 27 36 28 37 78 38 29 39 83 40 77 41 79 42
REMARK SMILES IDX 30 43 82 44 76 45 75 46 31 48 63 49 43 50 62 51 44 52 47 53
REMARK SMILES IDX 61 54 80 55 45 56 46 57 60 59 81 60 48 61 32 62 33 63 41 64
REMARK SMILES IDX 34 65 35 66 39 67 42 68 36 69 37 70 40 71 38 72 64 73 65 74
REMARK SMILES IDX 73 75 66 76 67 77 71 78 74 79 68 80 69 81 72 82 70 83 49 84
REMARK SMILES IDX 50 85 58 86 51 87 52 88 56 89 59 90 53 91 54 92 57 93 55 94
REMARK H PARENT 79 47 47 58
REMARK Flexibility Score: inf
ROOT
ATOM      1  O   UNL A   1      31.742  27.960  26.276  1.00  0.00    -0.374 OA
ENDROOT
BRANCH   1   2
ATOM      2  C   UNL A   1      32.527  26.788  26.064  1.00  0.00     0.202 C 
BRANCH   2   3
ATOM      3  C   UNL A   1      31.771  25.462  25.966  1.00  0.00     0.261 C 
BRANCH   3   4
ATOM      4  O   UNL A   1      32.519  24.461  25.266  1.00  0.00    -0.460 OA
BRANCH   4   5
ATOM      5  C   UNL A   1      31.863  23.922  24.206  1.00  0.00     0.349 C 
ATOM      6  O   UNL A   1      30.654  23.718  24.155  1.00  0.00    -0.248 OA
BRANCH   5   7
ATOM      7  C   UNL A   1      32.793  23.603  23.035  1.00  0.00     0.302 C 
ATOM      8  N   UNL A   1      33.137  21.330  23.827  1.00  0.00    -0.300 N 
ATOM      9  C   UNL A   1      32.588  22.126  22.723  1.00  0.00     0.183 C 
ATOM     10  C   UNL A   1      34.445  21.743  24.228  1.00  0.00     0.086 A 
ATOM     11  C   UNL A   1      34.937  22.988  23.803  1.00  0.00     0.144 A 
ATOM     12  C   UNL A   1      35.273  20.913  24.993  1.00  0.00     0.030 A 
ATOM     13  O   UNL A   1      34.180  23.923  23.135  1.00  0.00    -0.475 OA
ATOM     14  C   UNL A   1      36.254  23.360  24.083  1.00  0.00     0.049 A 
ATOM     15  C   UNL A   1      36.581  21.297  25.289  1.00  0.00     0.002 A 
ATOM     16  C   UNL A   1      37.077  22.511  24.822  1.00  0.00     0.004 A 
BRANCH   8  17
ATOM     17  C   UNL A   1      32.365  20.493  24.638  1.00  0.00     0.259 C 
ATOM     18  O   UNL A   1      31.498  20.943  25.389  1.00  0.00    -0.269 OA
BRANCH  17  19
ATOM     19  C   UNL A   1      32.571  19.036  24.579  1.00  0.00     0.053 A 
ATOM     20  C   UNL A   1      32.356  18.477  22.008  1.00  0.00     0.046 C 
ATOM     21  C   UNL A   1      32.603  18.132  23.441  1.00  0.00    -0.028 A 
ATOM     22  C   UNL A   1      32.942  16.849  23.833  1.00  0.00     0.069 A 
ATOM     23  S   UNL A   1      33.222  16.703  25.506  1.00  0.00    -0.151 S 
ATOM     24  C   UNL A   1      32.900  18.356  25.745  1.00  0.00     0.079 A 
ENDBRANCH  17  19
ENDBRANCH   8  17
ENDBRANCH   5   7
ENDBRANCH   4   5
ENDBRANCH   3   4
ENDBRANCH   2   3
ENDBRANCH   1   2
BRANCH   1  25
ATOM     25  C   UNL A   1      31.883  29.025  25.333  1.00  0.00     0.202 C 
BRANCH  25  26
ATOM     26  C   UNL A   1      31.863  30.443  25.910  1.00  0.00     0.261 C 
BRANCH  26  27
ATOM     27  O   UNL A   1      32.518  30.488  27.192  1.00  0.00    -0.460 OA
BRANCH  27  28
ATOM     28  C   UNL A   1      33.277  31.585  27.406  1.00  0.00     0.338 C 
ATOM     29  O   UNL A   1      32.904  32.752  27.443  1.00  0.00    -0.246 OA
BRANCH  28  30
ATOM     30  C   UNL A   1      34.641  31.185  27.794  1.00  0.00     0.060 A 
ATOM     31  C   UNL A   1      34.870  29.821  28.021  1.00  0.00     0.016 A 
ATOM     32  C   UNL A   1      35.658  32.120  27.999  1.00  0.00     0.016 A 
ATOM     33  C   UNL A   1      36.097  29.392  28.512  1.00  0.00     0.010 A 
ATOM     34  C   UNL A   1      36.889  31.688  28.505  1.00  0.00     0.010 A 
ATOM     35  C   UNL A   1      37.097  30.330  28.802  1.00  0.00    -0.014 A 
BRANCH  35  36
ATOM     36  C   UNL A   1      38.293  29.891  29.560  1.00  0.00     0.031 A 
ATOM     37  C   UNL A   1      38.496  30.408  30.957  1.00  0.00     0.074 A 
ATOM     38  C   UNL A   1      39.156  29.009  29.028  1.00  0.00     0.049 A 
ATOM     39  N   UNL A   1      39.457  30.150  31.808  1.00  0.00    -0.248 NA
ATOM     40  C   UNL A   1      37.480  31.344  31.464  1.00  0.00     0.031 C 
ATOM     41  C   UNL A   1      39.046  28.419  27.697  1.00  0.00     0.029 A 
ATOM     42  N   UNL A   1      40.299  28.457  29.550  1.00  0.00    -0.354 N 
ATOM     43  C   UNL A   1      39.164  30.890  32.944  1.00  0.00     0.074 A 
ATOM     44  C   UNL A   1      37.952  31.631  32.669  1.00  0.00     0.031 C 
ATOM     45  C   UNL A   1      40.088  27.593  27.499  1.00  0.00     0.029 A 
ATOM     46  C   UNL A   1      40.947  27.617  28.681  1.00  0.00     0.049 A 
ATOM     47  H   UNL A   1      40.622  28.647  30.460  1.00  0.00     0.167 HD
ATOM     48  C   UNL A   1      39.840  30.940  34.116  1.00  0.00     0.037 A 
ATOM     49  C   UNL A   1      42.113  26.956  28.822  1.00  0.00     0.037 A 
ATOM     50  C   UNL A   1      41.040  30.194  34.391  1.00  0.00     0.049 A 
ATOM     51  C   UNL A   1      42.871  27.064  30.120  1.00  0.00     0.074 A 
ATOM     52  C   UNL A   1      41.777  30.145  35.560  1.00  0.00     0.029 A 
ATOM     53  N   UNL A   1      41.682  29.371  33.477  1.00  0.00    -0.354 N 
ATOM     54  N   UNL A   1      42.563  27.732  31.206  1.00  0.00    -0.248 NA
ATOM     55  C   UNL A   1      44.134  26.320  30.214  1.00  0.00     0.031 C 
ATOM     56  C   UNL A   1      42.894  29.332  35.339  1.00  0.00     0.029 A 
ATOM     57  C   UNL A   1      42.825  28.835  34.047  1.00  0.00     0.049 A 
ATOM     58  H   UNL A   1      41.373  29.195  32.559  1.00  0.00     0.167 HD
ATOM     59  C   UNL A   1      43.579  27.473  32.116  1.00  0.00     0.074 A 
ATOM     60  C   UNL A   1      44.504  26.571  31.462  1.00  0.00     0.031 C 
ATOM     61  C   UNL A   1      43.735  27.940  33.379  1.00  0.00     0.037 A 
BRANCH  48  62
ATOM     62  C   UNL A   1      39.313  31.849  35.186  1.00  0.00     0.064 A 
ATOM     63  C   UNL A   1      38.509  31.370  36.231  1.00  0.00     0.173 A 
ATOM     64  C   UNL A   1      39.659  33.208  35.191  1.00  0.00     0.173 A 
ATOM     65  F   UNL A   1      38.139  30.081  36.262  1.00  0.00    -0.203 F 
ATOM     66  C   UNL A   1      38.055  32.224  37.233  1.00  0.00     0.198 A 
ATOM     67  C   UNL A   1      39.224  34.054  36.209  1.00  0.00     0.198 A 
ATOM     68  F   UNL A   1      40.428  33.715  34.216  1.00  0.00    -0.203 F 
ATOM     69  F   UNL A   1      37.258  31.754  38.202  1.00  0.00    -0.200 F 
ATOM     70  C   UNL A   1      38.419  33.563  37.226  1.00  0.00     0.200 A 
ATOM     71  F   UNL A   1      39.585  35.345  36.206  1.00  0.00    -0.200 F 
ATOM     72  F   UNL A   1      37.991  34.381  38.196  1.00  0.00    -0.200 F 
ENDBRANCH  48  62
BRANCH  49  73
ATOM     73  C   UNL A   1      42.646  26.145  27.696  1.00  0.00     0.064 A 
ATOM     74  C   UNL A   1      43.589  26.672  26.804  1.00  0.00     0.173 A 
ATOM     75  C   UNL A   1      42.204  24.832  27.479  1.00  0.00     0.173 A 
ATOM     76  F   UNL A   1      44.022  27.932  26.954  1.00  0.00    -0.203 F 
ATOM     77  C   UNL A   1      44.056  25.923  25.725  1.00  0.00     0.198 A 
ATOM     78  C   UNL A   1      42.691  24.074  26.417  1.00  0.00     0.198 A 
ATOM     79  F   UNL A   1      41.298  24.283  28.302  1.00  0.00    -0.203 F 
ATOM     80  F   UNL A   1      44.920  26.467  24.858  1.00  0.00    -0.200 F 
ATOM     81  C   UNL A   1      43.610  24.622  25.536  1.00  0.00     0.200 A 
ATOM     82  F   UNL A   1      42.265  22.815  26.244  1.00  0.00    -0.200 F 
ATOM     83  F   UNL A   1      44.058  23.902  24.499  1.00  0.00    -0.200 F 
ENDBRANCH  49  73
BRANCH  61  84
ATOM     84  C   UNL A   1      44.938  27.469  34.142  1.00  0.00     0.064 A 
ATOM     85  C   UNL A   1      46.141  28.190  34.134  1.00  0.00     0.173 A 
ATOM     86  C   UNL A   1      44.877  26.302  34.920  1.00  0.00     0.173 A 
ATOM     87  F   UNL A   1      46.255  29.304  33.396  1.00  0.00    -0.203 F 
ATOM     88  C   UNL A   1      47.247  27.745  34.854  1.00  0.00     0.198 A 
ATOM     89  C   UNL A   1      45.974  25.877  35.662  1.00  0.00     0.198 A 
ATOM     90  F   UNL A   1      43.746  25.580  34.968  1.00  0.00    -0.203 F 
ATOM     91  F   UNL A   1      48.400  28.424  34.793  1.00  0.00    -0.200 F 
ATOM     92  C   UNL A   1      47.160  26.594  35.622  1.00  0.00     0.200 A 
ATOM     93  F   UNL A   1      45.885  24.770  36.414  1.00  0.00    -0.200 F 
ATOM     94  F   UNL A   1      48.224  26.170  36.319  1.00  0.00    -0.200 F 
ENDBRANCH  61  84
ENDBRANCH  35  36
ENDBRANCH  28  30
ENDBRANCH  27  28
ENDBRANCH  26  27
ENDBRANCH  25  26
ENDBRANCH   1  25
TORSDOF 16
ENDMDL
MODEL 2
REMARK VINA RESULT:     -12.2      4.415      9.907
REMARK SMILES Cc1cscc1C(=O)N1C[C@@H](C(=O)OCCOCCOC(=O)c2ccc(-c3c4nc(c(-c5c(F)c(F)c(F)c(F)c5F)c5ccc([nH]5)c(-c5c(F)c(F)c(F)c(F)c5F)c5nc(c(-c6c(F)c(F)c(F)c(F)c6F)c6ccc3[nH]6)C=C5)C=C4)cc2)Oc2ccccc21
REMARK SMILES IDX 17 1 16 2 15 3 14 4 12 5 13 6 11 7 9 8 10 9 92 10 87 11
REMARK SMILES IDX 91 12 86 13 88 14 90 15 89 16 7 17 8 18 6 19 1 20 2 21 3 22
REMARK SMILES IDX 4 23 5 24 18 25 19 26 20 27 21 28 22 29 23 30 24 31 85 32
REMARK SMILES IDX 25 33 84 34 26 35 27 36 28 37 78 38 29 39 83 40 77 41 79 42
REMARK SMILES IDX 30 43 82 44 76 45 75 46 31 48 63 49 43 50 62 51 44 52 47 53
REMARK SMILES IDX 61 54 80 55 45 56 46 57 60 59 81 60 48 61 32 62 33 63 41 64
REMARK SMILES IDX 34 65 35 66 39 67 42 68 36 69 37 70 40 71 38 72 64 73 65 74
REMARK SMILES IDX 73 75 66 76 67 77 71 78 74 79 68 80 69 81 72 82 70 83 49 84
REMARK SMILES IDX 50 85 58 86 51 87 52 88 56 89 59 90 53 91 54 92 57 93 55 94
REMARK H PARENT 79 47 47 58
REMARK Flexibility Score: inf
ROOT
ATOM      1  O   UNL A   1      34.516  21.703  24.772  1.00  0.00    -0.374 OA
ENDROOT
BRANCH   1   2
ATOM      2  C   UNL A   1      33.468  22.667  24.847  1.00  0.00     0.202 C 
BRANCH   2   3
ATOM      3  C   UNL A   1      33.282  23.578  23.632  1.00  0.00     0.261 C 
BRANCH   3   4
ATOM      4  O   UNL A   1      32.616  24.800  23.966  1.00  0.00    -0.460 OA
BRANCH   4   5
ATOM      5  C   UNL A   1      31.261  24.699  24.002  1.00  0.00     0.349 C 
ATOM      6  O   UNL A   1      30.570  24.188  23.127  1.00  0.00    -0.248 OA
BRANCH   5   7
ATOM      7  C   UNL A   1      30.659  25.278  25.283  1.00  0.00     0.302 C 
ATOM      8  N   UNL A   1      30.284  27.434  24.223  1.00  0.00    -0.300 N 
ATOM      9  C   UNL A   1      29.607  26.286  24.837  1.00  0.00     0.183 C 
ATOM     10  C   UNL A   1      31.381  27.926  24.998  1.00  0.00     0.086 A 
ATOM     11  C   UNL A   1      31.902  27.136  26.036  1.00  0.00     0.144 A 
ATOM     12  C   UNL A   1      31.916  29.201  24.783  1.00  0.00     0.030 A 
ATOM     13  O   UNL A   1      31.522  25.835  26.273  1.00  0.00    -0.475 OA
ATOM     14  C   UNL A   1      32.892  27.643  26.880  1.00  0.00     0.049 A 
ATOM     15  C   UNL A   1      32.921  29.697  25.615  1.00  0.00     0.002 A 
ATOM     16  C   UNL A   1      33.397  28.926  26.672  1.00  0.00     0.004 A 
BRANCH   8  17
ATOM     17  C   UNL A   1      30.123  27.806  22.885  1.00  0.00     0.259 C 
ATOM     18  O   UNL A   1      30.659  27.176  21.972  1.00  0.00    -0.269 OA
BRANCH  17  19
ATOM     19  C   UNL A   1      29.273  28.961  22.553  1.00  0.00     0.053 A 
ATOM     20  C   UNL A   1      26.904  28.289  23.501  1.00  0.00     0.046 C 
ATOM     21  C   UNL A   1      27.870  29.214  22.835  1.00  0.00    -0.028 A 
ATOM     22  C   UNL A   1      27.503  30.488  22.437  1.00  0.00     0.069 A 
ATOM     23  S   UNL A   1      28.780  31.376  21.745  1.00  0.00    -0.151 S 
ATOM     24  C   UNL A   1      29.856  30.078  21.967  1.00  0.00     0.079 A 
ENDBRANCH  17  19
ENDBRANCH   8  17
ENDBRANCH   5   7
ENDBRANCH   4   5
ENDBRANCH   3   4
ENDBRANCH   2   3
ENDBRANCH   1   2
BRANCH   1  25
ATOM     25  C   UNL A   1      35.783  22.067  25.327  1.00  0.00     0.202 C 
BRANCH  25  26
ATOM     26  C   UNL A   1      36.855  20.973  25.333  1.00  0.00     0.261 C 
BRANCH  26  27
ATOM     27  O   UNL A   1      38.151  21.517  25.020  1.00  0.00    -0.460 OA
BRANCH  27  28
ATOM     28  C   UNL A   1      39.118  21.240  25.922  1.00  0.00     0.338 C 
ATOM     29  O   UNL A   1      39.690  20.171  26.093  1.00  0.00    -0.246 OA
BRANCH  28  30
ATOM     30  C   UNL A   1      39.558  22.481  26.584  1.00  0.00     0.060 A 
ATOM     31  C   UNL A   1      38.934  23.673  26.194  1.00  0.00     0.016 A 
ATOM     32  C   UNL A   1      40.601  22.496  27.512  1.00  0.00     0.016 A 
ATOM     33  C   UNL A   1      39.389  24.892  26.684  1.00  0.00     0.010 A 
ATOM     34  C   UNL A   1      41.067  23.723  27.996  1.00  0.00     0.010 A 
ATOM     35  C   UNL A   1      40.489  24.926  27.551  1.00  0.00    -0.014 A 
BRANCH  35  36
ATOM     36  C   UNL A   1      41.119  26.232  27.858  1.00  0.00     0.031 A 
ATOM     37  C   UNL A   1      42.525  26.486  27.390  1.00  0.00     0.074 A 
ATOM     38  C   UNL A   1      40.431  27.192  28.499  1.00  0.00     0.049 A 
ATOM     39  N   UNL A   1      43.268  27.555  27.530  1.00  0.00    -0.248 NA
ATOM     40  C   UNL A   1      43.185  25.387  26.666  1.00  0.00     0.031 C 
ATOM     41  C   UNL A   1      39.055  27.069  28.974  1.00  0.00     0.029 A 
ATOM     42  N   UNL A   1      40.803  28.462  28.862  1.00  0.00    -0.354 N 
ATOM     43  C   UNL A   1      44.478  27.257  26.918  1.00  0.00     0.074 A 
ATOM     44  C   UNL A   1      44.384  25.899  26.428  1.00  0.00     0.031 C 
ATOM     45  C   UNL A   1      38.700  28.215  29.579  1.00  0.00     0.029 A 
ATOM     46  C   UNL A   1      39.831  29.141  29.551  1.00  0.00     0.049 A 
ATOM     47  H   UNL A   1      41.683  28.847  28.649  1.00  0.00     0.167 HD
ATOM     48  C   UNL A   1      45.565  28.049  26.770  1.00  0.00     0.037 A 
ATOM     49  C   UNL A   1      39.861  30.366  30.111  1.00  0.00     0.037 A 
ATOM     50  C   UNL A   1      45.652  29.403  27.249  1.00  0.00     0.049 A 
ATOM     51  C   UNL A   1      41.101  31.211  29.971  1.00  0.00     0.074 A 
ATOM     52  C   UNL A   1      46.695  30.303  27.113  1.00  0.00     0.029 A 
ATOM     53  N   UNL A   1      44.655  30.051  27.966  1.00  0.00    -0.354 N 
ATOM     54  N   UNL A   1      42.224  30.937  29.352  1.00  0.00    -0.248 NA
ATOM     55  C   UNL A   1      41.073  32.538  30.602  1.00  0.00     0.031 C 
ATOM     56  C   UNL A   1      46.351  31.476  27.792  1.00  0.00     0.029 A 
ATOM     57  C   UNL A   1      45.072  31.326  28.306  1.00  0.00     0.049 A 
ATOM     58  H   UNL A   1      43.782  29.661  28.198  1.00  0.00     0.167 HD
ATOM     59  C   UNL A   1      43.027  32.062  29.501  1.00  0.00     0.074 A 
ATOM     60  C   UNL A   1      42.254  33.029  30.251  1.00  0.00     0.031 C 
ATOM     61  C   UNL A   1      44.289  32.275  29.056  1.00  0.00     0.037 A 
BRANCH  48  62
ATOM     62  C   UNL A   1      46.762  27.467  26.080  1.00  0.00     0.064 A 
ATOM     63  C   UNL A   1      46.954  27.597  24.696  1.00  0.00     0.173 A 
ATOM     64  C   UNL A   1      47.755  26.810  26.822  1.00  0.00     0.173 A 
ATOM     65  F   UNL A   1      46.025  28.204  23.941  1.00  0.00    -0.203 F 
ATOM     66  C   UNL A   1      48.087  27.076  24.079  1.00  0.00     0.198 A 
ATOM     67  C   UNL A   1      48.901  26.313  26.205  1.00  0.00     0.198 A 
ATOM     68  F   UNL A   1      47.621  26.661  28.149  1.00  0.00    -0.203 F 
ATOM     69  F   UNL A   1      48.233  27.180  22.751  1.00  0.00    -0.200 F 
ATOM     70  C   UNL A   1      49.063  26.442  24.834  1.00  0.00     0.200 A 
ATOM     71  F   UNL A   1      49.847  25.709  26.938  1.00  0.00    -0.200 F 
ATOM     72  F   UNL A   1      50.159  25.951  24.240  1.00  0.00    -0.200 F 
ENDBRANCH  48  62
BRANCH  49  73
ATOM     73  C   UNL A   1      38.684  30.863  30.871  1.00  0.00     0.064 A 
ATOM     74  C   UNL A   1      37.633  31.530  30.229  1.00  0.00     0.173 A 
ATOM     75  C   UNL A   1      38.600  30.696  32.261  1.00  0.00     0.173 A 
ATOM     76  F   UNL A   1      37.680  31.736  28.905  1.00  0.00    -0.203 F 
ATOM     77  C   UNL A   1      36.550  32.029  30.951  1.00  0.00     0.198 A 
ATOM     78  C   UNL A   1      37.504  31.171  32.978  1.00  0.00     0.198 A 
ATOM     79  F   UNL A   1      39.583  30.068  32.924  1.00  0.00    -0.203 F 
ATOM     80  F   UNL A   1      35.582  32.706  30.320  1.00  0.00    -0.200 F 
ATOM     81  C   UNL A   1      36.485  31.844  32.324  1.00  0.00     0.200 A 
ATOM     82  F   UNL A   1      37.442  30.982  34.303  1.00  0.00    -0.200 F 
ATOM     83  F   UNL A   1      35.445  32.325  33.018  1.00  0.00    -0.200 F 
ENDBRANCH  49  73
BRANCH  61  84
ATOM     84  C   UNL A   1      44.906  33.611  29.354  1.00  0.00     0.064 A 
ATOM     85  C   UNL A   1      45.678  33.822  30.505  1.00  0.00     0.173 A 
ATOM     86  C   UNL A   1      44.753  34.682  28.459  1.00  0.00     0.173 A 
ATOM     87  F   UNL A   1      45.844  32.835  31.398  1.00  0.00    -0.203 F 
ATOM     88  C   UNL A   1      46.252  35.064  30.764  1.00  0.00     0.198 A 
ATOM     89  C   UNL A   1      45.352  35.912  28.706  1.00  0.00     0.198 A 
ATOM     90  F   UNL A   1      44.030  34.528  27.339  1.00  0.00    -0.203 F 
ATOM     91  F   UNL A   1      46.945  35.257  31.894  1.00  0.00    -0.200 F 
ATOM     92  C   UNL A   1      46.094  36.106  29.862  1.00  0.00     0.200 A 
ATOM     93  F   UNL A   1      45.209  36.915  27.827  1.00  0.00    -0.200 F 
ATOM     94  F   UNL A   1      46.651  37.299  30.110  1.00  0.00    -0.200 F 
ENDBRANCH  61  84
ENDBRANCH  35  36
ENDBRANCH  28  30
ENDBRANCH  27  28
ENDBRANCH  26  27
ENDBRANCH  25  26
ENDBRANCH   1  25
TORSDOF 16
ENDMDL
MODEL 3
REMARK VINA RESULT:     -12.1      1.365      2.850
REMARK SMILES Cc1cscc1C(=O)N1C[C@@H](C(=O)OCCOCCOC(=O)c2ccc(-c3c4nc(c(-c5c(F)c(F)c(F)c(F)c5F)c5ccc([nH]5)c(-c5c(F)c(F)c(F)c(F)c5F)c5nc(c(-c6c(F)c(F)c(F)c(F)c6F)c6ccc3[nH]6)C=C5)C=C4)cc2)Oc2ccccc21
REMARK SMILES IDX 17 1 16 2 15 3 14 4 12 5 13 6 11 7 9 8 10 9 92 10 87 11
REMARK SMILES IDX 91 12 86 13 88 14 90 15 89 16 7 17 8 18 6 19 1 20 2 21 3 22
REMARK SMILES IDX 4 23 5 24 18 25 19 26 20 27 21 28 22 29 23 30 24 31 85 32
REMARK SMILES IDX 25 33 84 34 26 35 27 36 28 37 78 38 29 39 83 40 77 41 79 42
REMARK SMILES IDX 30 43 82 44 76 45 75 46 31 48 63 49 43 50 62 51 44 52 47 53
REMARK SMILES IDX 61 54 80 55 45 56 46 57 60 59 81 60 48 61 32 62 33 63 41 64
REMARK SMILES IDX 34 65 35 66 39 67 42 68 36 69 37 70 40 71 38 72 64 73 65 74
REMARK SMILES IDX 73 75 66 76 67 77 71 78 74 79 68 80 69 81 72 82 70 83 49 84
REMARK SMILES IDX 50 85 58 86 51 87 52 88 56 89 59 90 53 91 54 92 57 93 55 94
REMARK H PARENT 79 47 47 58
REMARK Flexibility Score: inf
ROOT
ATOM      1  O   UNL A   1      31.904  27.890  26.236  1.00  0.00    -0.374 OA
ENDROOT
BRANCH   1   2
ATOM      2  C   UNL A   1      33.170  27.246  26.112  1.00  0.00     0.202 C 
BRANCH   2   3
ATOM      3  C   UNL A   1      33.517  26.668  24.739  1.00  0.00     0.261 C 
BRANCH   3   4
ATOM      4  O   UNL A   1      34.403  25.547  24.830  1.00  0.00    -0.460 OA
BRANCH   4   5
ATOM      5  C   UNL A   1      33.795  24.346  24.644  1.00  0.00     0.349 C 
ATOM      6  O   UNL A   1      33.473  23.880  23.555  1.00  0.00    -0.248 OA
BRANCH   5   7
ATOM      7  C   UNL A   1      33.562  23.592  25.953  1.00  0.00     0.302 C 
ATOM      8  N   UNL A   1      35.584  22.277  25.645  1.00  0.00    -0.300 N 
ATOM      9  C   UNL A   1      34.945  23.275  26.509  1.00  0.00     0.183 C 
ATOM     10  C   UNL A   1      34.733  21.172  25.328  1.00  0.00     0.086 A 
ATOM     11  C   UNL A   1      33.353  21.274  25.568  1.00  0.00     0.144 A 
ATOM     12  C   UNL A   1      35.248  19.969  24.833  1.00  0.00     0.030 A 
ATOM     13  O   UNL A   1      32.726  22.436  25.958  1.00  0.00    -0.475 OA
ATOM     14  C   UNL A   1      32.520  20.169  25.379  1.00  0.00     0.049 A 
ATOM     15  C   UNL A   1      34.410  18.873  24.625  1.00  0.00     0.002 A 
ATOM     16  C   UNL A   1      33.051  18.967  24.912  1.00  0.00     0.004 A 
BRANCH   8  17
ATOM     17  C   UNL A   1      36.755  22.514  24.919  1.00  0.00     0.259 C 
ATOM     18  O   UNL A   1      36.724  22.967  23.774  1.00  0.00    -0.269 OA
BRANCH  17  19
ATOM     19  C   UNL A   1      38.061  22.244  25.544  1.00  0.00     0.053 A 
ATOM     20  C   UNL A   1      38.581  24.454  26.891  1.00  0.00     0.046 C 
ATOM     21  C   UNL A   1      38.870  23.061  26.435  1.00  0.00    -0.028 A 
ATOM     22  C   UNL A   1      39.982  22.365  26.876  1.00  0.00     0.069 A 
ATOM     23  S   UNL A   1      40.079  20.780  26.262  1.00  0.00    -0.151 S 
ATOM     24  C   UNL A   1      38.631  20.986  25.392  1.00  0.00     0.079 A 
ENDBRANCH  17  19
ENDBRANCH   8  17
ENDBRANCH   5   7
ENDBRANCH   4   5
ENDBRANCH   3   4
ENDBRANCH   2   3
ENDBRANCH   1   2
BRANCH   1  25
ATOM     25  C   UNL A   1      31.779  28.907  27.234  1.00  0.00     0.202 C 
BRANCH  25  26
ATOM     26  C   UNL A   1      31.880  30.353  26.738  1.00  0.00     0.261 C 
BRANCH  26  27
ATOM     27  O   UNL A   1      33.250  30.722  26.497  1.00  0.00    -0.460 OA
BRANCH  27  28
ATOM     28  C   UNL A   1      33.760  31.622  27.366  1.00  0.00     0.338 C 
ATOM     29  O   UNL A   1      33.180  32.573  27.877  1.00  0.00    -0.246 OA
BRANCH  28  30
ATOM     30  C   UNL A   1      35.105  31.201  27.794  1.00  0.00     0.060 A 
ATOM     31  C   UNL A   1      35.298  29.838  28.058  1.00  0.00     0.016 A 
ATOM     32  C   UNL A   1      36.138  32.118  28.003  1.00  0.00     0.016 A 
ATOM     33  C   UNL A   1      36.504  29.394  28.587  1.00  0.00     0.010 A 
ATOM     34  C   UNL A   1      37.347  31.672  28.547  1.00  0.00     0.010 A 
ATOM     35  C   UNL A   1      37.518  30.316  28.879  1.00  0.00    -0.014 A 
BRANCH  35  36
ATOM     36  C   UNL A   1      38.686  29.869  29.674  1.00  0.00     0.031 A 
ATOM     37  C   UNL A   1      38.845  30.379  31.080  1.00  0.00     0.074 A 
ATOM     38  C   UNL A   1      39.563  28.986  29.168  1.00  0.00     0.049 A 
ATOM     39  N   UNL A   1      39.776  30.113  31.961  1.00  0.00    -0.248 NA
ATOM     40  C   UNL A   1      37.816  31.318  31.557  1.00  0.00     0.031 C 
ATOM     41  C   UNL A   1      39.495  28.402  27.831  1.00  0.00     0.029 A 
ATOM     42  N   UNL A   1      40.686  28.427  29.725  1.00  0.00    -0.354 N 
ATOM     43  C   UNL A   1      39.447  30.850  33.091  1.00  0.00     0.074 A 
ATOM     44  C   UNL A   1      38.248  31.597  32.778  1.00  0.00     0.031 C 
ATOM     45  C   UNL A   1      40.540  27.573  27.664  1.00  0.00     0.029 A 
ATOM     46  C   UNL A   1      41.359  27.588  28.874  1.00  0.00     0.049 A 
ATOM     47  H   UNL A   1      40.979  28.611  30.646  1.00  0.00     0.167 HD
ATOM     48  C   UNL A   1      40.085  30.891  34.284  1.00  0.00     0.037 A 
ATOM     49  C   UNL A   1      42.517  26.921  29.051  1.00  0.00     0.037 A 
ATOM     50  C   UNL A   1      41.271  30.139  34.596  1.00  0.00     0.049 A 
ATOM     51  C   UNL A   1      43.231  27.020  30.374  1.00  0.00     0.074 A 
ATOM     52  C   UNL A   1      41.969  30.082  35.789  1.00  0.00     0.029 A 
ATOM     53  N   UNL A   1      41.941  29.318  33.700  1.00  0.00    -0.354 N 
ATOM     54  N   UNL A   1      42.890  27.685  31.452  1.00  0.00    -0.248 NA
ATOM     55  C   UNL A   1      44.487  26.271  30.507  1.00  0.00     0.031 C 
ATOM     56  C   UNL A   1      43.089  29.266  35.601  1.00  0.00     0.029 A 
ATOM     57  C   UNL A   1      43.061  28.775  34.305  1.00  0.00     0.049 A 
ATOM     58  H   UNL A   1      41.661  29.147  32.772  1.00  0.00     0.167 HD
ATOM     59  C   UNL A   1      43.874  27.418  32.395  1.00  0.00     0.074 A 
ATOM     60  C   UNL A   1      44.817  26.515  31.768  1.00  0.00     0.031 C 
ATOM     61  C   UNL A   1      43.989  27.879  33.664  1.00  0.00     0.037 A 
BRANCH  48  62
ATOM     62  C   UNL A   1      39.526  31.798  35.341  1.00  0.00     0.064 A 
ATOM     63  C   UNL A   1      38.605  31.340  36.295  1.00  0.00     0.173 A 
ATOM     64  C   UNL A   1      39.956  33.130  35.427  1.00  0.00     0.173 A 
ATOM     65  F   UNL A   1      38.152  30.078  36.245  1.00  0.00    -0.203 F 
ATOM     66  C   UNL A   1      38.121  32.189  37.287  1.00  0.00     0.198 A 
ATOM     67  C   UNL A   1      39.489  33.969  36.437  1.00  0.00     0.198 A 
ATOM     68  F   UNL A   1      40.837  33.616  34.541  1.00  0.00    -0.203 F 
ATOM     69  F   UNL A   1      37.214  31.742  38.166  1.00  0.00    -0.200 F 
ATOM     70  C   UNL A   1      38.569  33.500  37.362  1.00  0.00     0.200 A 
ATOM     71  F   UNL A   1      39.931  35.232  36.514  1.00  0.00    -0.200 F 
ATOM     72  F   UNL A   1      38.111  34.312  38.324  1.00  0.00    -0.200 F 
ENDBRANCH  48  62
BRANCH  49  73
ATOM     73  C   UNL A   1      43.084  26.113  27.940  1.00  0.00     0.064 A 
ATOM     74  C   UNL A   1      43.878  26.701  26.947  1.00  0.00     0.173 A 
ATOM     75  C   UNL A   1      42.822  24.739  27.839  1.00  0.00     0.173 A 
ATOM     76  F   UNL A   1      44.135  28.016  26.984  1.00  0.00    -0.203 F 
ATOM     77  C   UNL A   1      44.375  25.947  25.884  1.00  0.00     0.198 A 
ATOM     78  C   UNL A   1      43.341  23.982  26.792  1.00  0.00     0.198 A 
ATOM     79  F   UNL A   1      42.062  24.130  28.763  1.00  0.00    -0.203 F 
ATOM     80  F   UNL A   1      45.091  26.542  24.921  1.00  0.00    -0.200 F 
ATOM     81  C   UNL A   1      44.110  24.588  25.811  1.00  0.00     0.200 A 
ATOM     82  F   UNL A   1      43.090  22.667  26.731  1.00  0.00    -0.200 F 
ATOM     83  F   UNL A   1      44.586  23.864  24.789  1.00  0.00    -0.200 F 
ENDBRANCH  49  73
BRANCH  61  84
ATOM     84  C   UNL A   1      45.164  27.399  34.465  1.00  0.00     0.064 A 
ATOM     85  C   UNL A   1      45.107  26.214  35.214  1.00  0.00     0.173 A 
ATOM     86  C   UNL A   1      46.373  28.113  34.456  1.00  0.00     0.173 A 
ATOM     87  F   UNL A   1      43.971  25.503  35.266  1.00  0.00    -0.203 F 
ATOM     88  C   UNL A   1      46.208  25.776  35.945  1.00  0.00     0.198 A 
ATOM     89  C   UNL A   1      47.480  27.656  35.163  1.00  0.00     0.198 A 
ATOM     90  F   UNL A   1      46.481  29.248  33.749  1.00  0.00    -0.203 F 
ATOM     91  F   UNL A   1      46.116  24.667  36.691  1.00  0.00    -0.200 F 
ATOM     92  C   UNL A   1      47.395  26.493  35.914  1.00  0.00     0.200 A 
ATOM     93  F   UNL A   1      48.631  28.343  35.122  1.00  0.00    -0.200 F 
ATOM     94  F   UNL A   1      48.455  26.067  36.614  1.00  0.00    -0.200 F 
ENDBRANCH  61  84
ENDBRANCH  35  36
ENDBRANCH  28  30
ENDBRANCH  27  28
ENDBRANCH  26  27
ENDBRANCH  25  26
ENDBRANCH   1  25
TORSDOF 16
ENDMDL
