MODEL 1
REMARK VINA RESULT:     -12.5      0.000      0.000
REMARK SMILES Cc1ccc(NC(=O)Cn2c(CCC(=O)OCCOCCOC(=O)c3ccc(-c4c5nc(c(-c6c(F)c(F)c(F)c(F)c6F)c6ccc([nH]6)c(-c6c(F)c(F)c(F)c(F)c6F)c6nc(c(-c7c(F)c(F)c(F)c(F)c7F)c7ccc4[nH]7)C=C6)C=C5)cc3)ccc2-c2ccccc2)cc1
REMARK SMILES IDX 17 1 16 2 14 3 15 4 13 5 12 6 11 7 10 8 90 9 88 10 89 11
REMARK SMILES IDX 9 12 7 13 6 14 8 16 5 17 1 18 2 19 3 20 98 21 4 22 97 23
REMARK SMILES IDX 91 24 92 25 96 26 93 27 95 28 94 29 18 30 19 31 20 32 21 33
REMARK SMILES IDX 22 34 23 35 24 36 25 37 26 38 87 39 27 40 86 41 28 42 29 43
REMARK SMILES IDX 30 44 80 45 31 46 85 47 79 48 81 49 32 50 84 51 78 52 77 53
REMARK SMILES IDX 33 55 65 56 45 57 64 58 46 59 49 60 63 61 82 62 47 63 48 64
REMARK SMILES IDX 62 66 83 67 50 68 34 69 35 70 43 71 36 72 37 73 41 74 44 75
REMARK SMILES IDX 38 76 39 77 42 78 40 79 66 80 67 81 75 82 68 83 69 84 73 85
REMARK SMILES IDX 76 86 70 87 71 88 74 89 72 90 51 91 52 92 60 93 53 94 54 95
REMARK SMILES IDX 58 96 61 97 55 98 56 99 59 100 57 101
REMARK H PARENT 6 15 81 54 49 65
REMARK Flexibility Score: inf
ROOT
ATOM      1  C   UNL A   1      40.368  21.461  27.154  1.00  0.00     0.261 C 
ENDROOT
BRANCH   1   2
ATOM      2  O   UNL A   1      39.407  21.922  26.163  1.00  0.00    -0.463 OA
BRANCH   2   3
ATOM      3  C   UNL A   1      38.842  23.145  26.374  1.00  0.00     0.306 C 
ATOM      4  O   UNL A   1      39.197  23.936  27.245  1.00  0.00    -0.252 OA
BRANCH   3   5
ATOM      5  C   UNL A   1      37.615  23.418  25.511  1.00  0.00     0.129 C 
BRANCH   5   6
ATOM      6  C   UNL A   1      36.302  23.913  26.126  1.00  0.00     0.066 C 
BRANCH   6   7
ATOM      7  C   UNL A   1      35.161  22.934  26.115  1.00  0.00     0.019 A 
ATOM      8  N   UNL A   1      34.619  22.319  25.008  1.00  0.00    -0.335 N 
ATOM      9  C   UNL A   1      33.934  21.179  25.426  1.00  0.00     0.049 A 
ATOM     10  C   UNL A   1      34.398  22.496  27.188  1.00  0.00     0.024 A 
ATOM     11  C   UNL A   1      33.616  21.401  26.752  1.00  0.00     0.029 A 
BRANCH   8  12
ATOM     12  C   UNL A   1      34.749  22.661  23.596  1.00  0.00     0.222 C 
BRANCH  12  13
ATOM     13  C   UNL A   1      33.529  23.167  22.867  1.00  0.00     0.244 C 
ATOM     14  N   UNL A   1      32.700  24.148  23.267  1.00  0.00    -0.325 N 
ATOM     15  H   UNL A   1      31.922  24.253  22.672  1.00  0.00     0.169 HD
ATOM     16  O   UNL A   1      33.206  22.718  21.762  1.00  0.00    -0.273 OA
BRANCH  14  17
ATOM     17  C   UNL A   1      32.692  25.043  24.323  1.00  0.00     0.041 A 
ATOM     18  C   UNL A   1      32.141  27.844  27.517  1.00  0.00     0.044 C 
ATOM     19  C   UNL A   1      32.352  26.827  26.441  1.00  0.00    -0.051 A 
ATOM     20  C   UNL A   1      33.417  26.977  25.549  1.00  0.00     0.005 A 
ATOM     21  C   UNL A   1      31.482  25.746  26.297  1.00  0.00     0.005 A 
ATOM     22  C   UNL A   1      33.586  26.089  24.490  1.00  0.00     0.026 A 
ATOM     23  C   UNL A   1      31.664  24.849  25.253  1.00  0.00     0.026 A 
ENDBRANCH  14  17
ENDBRANCH  12  13
ENDBRANCH   8  12
BRANCH   9  24
ATOM     24  C   UNL A   1      33.704  19.977  24.615  1.00  0.00    -0.002 A 
ATOM     25  C   UNL A   1      32.527  19.800  23.882  1.00  0.00     0.010 A 
ATOM     26  C   UNL A   1      34.636  18.928  24.661  1.00  0.00     0.010 A 
ATOM     27  C   UNL A   1      32.295  18.601  23.197  1.00  0.00     0.001 A 
ATOM     28  C   UNL A   1      34.404  17.732  23.978  1.00  0.00     0.001 A 
ATOM     29  C   UNL A   1      33.231  17.568  23.247  1.00  0.00     0.000 A 
ENDBRANCH   9  24
ENDBRANCH   6   7
ENDBRANCH   5   6
ENDBRANCH   3   5
ENDBRANCH   2   3
ENDBRANCH   1   2
BRANCH   1  30
ATOM     30  C   UNL A   1      41.846  21.610  26.726  1.00  0.00     0.202 C 
BRANCH  30  31
ATOM     31  O   UNL A   1      42.039  22.012  25.368  1.00  0.00    -0.374 OA
BRANCH  31  32
ATOM     32  C   UNL A   1      43.270  22.683  25.039  1.00  0.00     0.202 C 
BRANCH  32  33
ATOM     33  C   UNL A   1      43.515  24.108  25.589  1.00  0.00     0.261 C 
BRANCH  33  34
ATOM     34  O   UNL A   1      42.270  24.682  26.030  1.00  0.00    -0.460 OA
BRANCH  34  35
ATOM     35  C   UNL A   1      42.008  25.972  25.669  1.00  0.00     0.338 C 
ATOM     36  O   UNL A   1      42.342  26.501  24.626  1.00  0.00    -0.246 OA
BRANCH  35  37
ATOM     37  C   UNL A   1      41.456  26.704  26.859  1.00  0.00     0.060 A 
ATOM     38  C   UNL A   1      40.775  27.936  26.814  1.00  0.00     0.016 A 
ATOM     39  C   UNL A   1      41.889  26.272  28.089  1.00  0.00     0.016 A 
ATOM     40  C   UNL A   1      40.551  28.730  28.003  1.00  0.00     0.010 A 
ATOM     41  C   UNL A   1      41.792  27.113  29.182  1.00  0.00     0.010 A 
ATOM     42  C   UNL A   1      41.081  28.344  29.239  1.00  0.00    -0.014 A 
BRANCH  42  43
ATOM     43  C   UNL A   1      41.056  29.005  30.622  1.00  0.00     0.031 A 
ATOM     44  C   UNL A   1      41.887  30.211  30.643  1.00  0.00     0.074 A 
ATOM     45  C   UNL A   1      40.367  29.087  31.804  1.00  0.00     0.049 A 
ATOM     46  N   UNL A   1      41.336  31.350  30.386  1.00  0.00    -0.248 NA
ATOM     47  C   UNL A   1      43.337  30.190  30.691  1.00  0.00     0.031 C 
ATOM     48  C   UNL A   1      39.171  28.365  32.188  1.00  0.00     0.029 A 
ATOM     49  N   UNL A   1      40.529  30.055  32.864  1.00  0.00    -0.354 N 
ATOM     50  C   UNL A   1      42.338  32.270  30.340  1.00  0.00     0.074 A 
ATOM     51  C   UNL A   1      43.549  31.470  30.365  1.00  0.00     0.031 C 
ATOM     52  C   UNL A   1      38.611  28.984  33.254  1.00  0.00     0.029 A 
ATOM     53  C   UNL A   1      39.404  30.162  33.678  1.00  0.00     0.049 A 
ATOM     54  H   UNL A   1      41.349  30.584  32.997  1.00  0.00     0.167 HD
ATOM     55  C   UNL A   1      42.022  33.590  30.403  1.00  0.00     0.037 A 
ATOM     56  C   UNL A   1      38.849  31.263  34.289  1.00  0.00     0.037 A 
ATOM     57  C   UNL A   1      40.616  33.907  30.010  1.00  0.00     0.049 A 
ATOM     58  C   UNL A   1      37.782  31.615  33.324  1.00  0.00     0.074 A 
ATOM     59  C   UNL A   1      40.009  34.888  29.243  1.00  0.00     0.029 A 
ATOM     60  N   UNL A   1      39.559  33.058  30.345  1.00  0.00    -0.354 N 
ATOM     61  N   UNL A   1      38.129  32.070  32.166  1.00  0.00    -0.248 NA
ATOM     62  C   UNL A   1      36.359  31.583  33.589  1.00  0.00     0.031 C 
ATOM     63  C   UNL A   1      38.603  34.611  29.157  1.00  0.00     0.029 A 
ATOM     64  C   UNL A   1      38.324  33.429  29.825  1.00  0.00     0.049 A 
ATOM     65  H   UNL A   1      39.679  32.258  30.907  1.00  0.00     0.167 HD
ATOM     66  C   UNL A   1      36.988  32.328  31.474  1.00  0.00     0.074 A 
ATOM     67  C   UNL A   1      35.910  32.030  32.406  1.00  0.00     0.031 C 
ATOM     68  C   UNL A   1      37.087  32.670  30.161  1.00  0.00     0.037 A 
BRANCH  55  69
ATOM     69  C   UNL A   1      43.005  34.589  31.021  1.00  0.00     0.064 A 
ATOM     70  C   UNL A   1      43.372  35.740  30.294  1.00  0.00     0.173 A 
ATOM     71  C   UNL A   1      43.477  34.593  32.359  1.00  0.00     0.173 A 
ATOM     72  F   UNL A   1      42.974  35.920  29.029  1.00  0.00    -0.203 F 
ATOM     73  C   UNL A   1      44.111  36.791  30.862  1.00  0.00     0.198 A 
ATOM     74  C   UNL A   1      44.178  35.654  32.933  1.00  0.00     0.198 A 
ATOM     75  F   UNL A   1      43.293  33.585  33.208  1.00  0.00    -0.203 F 
ATOM     76  F   UNL A   1      44.413  37.866  30.121  1.00  0.00    -0.200 F 
ATOM     77  C   UNL A   1      44.498  36.755  32.186  1.00  0.00     0.200 A 
ATOM     78  F   UNL A   1      44.511  35.595  34.232  1.00  0.00    -0.200 F 
ATOM     79  F   UNL A   1      45.159  37.778  32.743  1.00  0.00    -0.200 F 
ENDBRANCH  55  69
BRANCH  56  80
ATOM     80  C   UNL A   1      39.355  32.518  34.999  1.00  0.00     0.064 A 
ATOM     81  C   UNL A   1      38.743  32.916  36.197  1.00  0.00     0.173 A 
ATOM     82  C   UNL A   1      40.151  33.525  34.378  1.00  0.00     0.173 A 
ATOM     83  F   UNL A   1      37.930  32.070  36.845  1.00  0.00    -0.203 F 
ATOM     84  C   UNL A   1      38.867  34.228  36.700  1.00  0.00     0.198 A 
ATOM     85  C   UNL A   1      40.257  34.832  34.869  1.00  0.00     0.198 A 
ATOM     86  F   UNL A   1      40.804  33.313  33.232  1.00  0.00    -0.203 F 
ATOM     87  F   UNL A   1      38.212  34.581  37.814  1.00  0.00    -0.200 F 
ATOM     88  C   UNL A   1      39.604  35.188  36.024  1.00  0.00     0.200 A 
ATOM     89  F   UNL A   1      40.941  35.753  34.172  1.00  0.00    -0.200 F 
ATOM     90  F   UNL A   1      39.653  36.454  36.462  1.00  0.00    -0.200 F 
ENDBRANCH  56  80
BRANCH  68  91
ATOM     91  C   UNL A   1      35.991  32.281  29.181  1.00  0.00     0.064 A 
ATOM     92  C   UNL A   1      34.817  33.048  28.956  1.00  0.00     0.173 A 
ATOM     93  C   UNL A   1      35.975  31.022  28.555  1.00  0.00     0.173 A 
ATOM     94  F   UNL A   1      34.534  34.149  29.664  1.00  0.00    -0.203 F 
ATOM     95  C   UNL A   1      33.815  32.669  28.059  1.00  0.00     0.198 A 
ATOM     96  C   UNL A   1      34.942  30.617  27.698  1.00  0.00     0.198 A 
ATOM     97  F   UNL A   1      36.918  30.107  28.798  1.00  0.00    -0.203 F 
ATOM     98  F   UNL A   1      32.765  33.481  27.858  1.00  0.00    -0.200 F 
ATOM     99  C   UNL A   1      33.880  31.454  27.423  1.00  0.00     0.200 A 
ATOM    100  F   UNL A   1      34.971  29.388  27.166  1.00  0.00    -0.200 F 
ATOM    101  F   UNL A   1      32.901  31.072  26.594  1.00  0.00    -0.200 F 
ENDBRANCH  68  91
ENDBRANCH  42  43
ENDBRANCH  35  37
ENDBRANCH  34  35
ENDBRANCH  33  34
ENDBRANCH  32  33
ENDBRANCH  31  32
ENDBRANCH  30  31
ENDBRANCH   1  30
TORSDOF 20
ENDMDL
MODEL 2
REMARK VINA RESULT:     -12.4      1.450      2.536
REMARK SMILES Cc1ccc(NC(=O)Cn2c(CCC(=O)OCCOCCOC(=O)c3ccc(-c4c5nc(c(-c6c(F)c(F)c(F)c(F)c6F)c6ccc([nH]6)c(-c6c(F)c(F)c(F)c(F)c6F)c6nc(c(-c7c(F)c(F)c(F)c(F)c7F)c7ccc4[nH]7)C=C6)C=C5)cc3)ccc2-c2ccccc2)cc1
REMARK SMILES IDX 17 1 16 2 14 3 15 4 13 5 12 6 11 7 10 8 90 9 88 10 89 11
REMARK SMILES IDX 9 12 7 13 6 14 8 16 5 17 1 18 2 19 3 20 98 21 4 22 97 23
REMARK SMILES IDX 91 24 92 25 96 26 93 27 95 28 94 29 18 30 19 31 20 32 21 33
REMARK SMILES IDX 22 34 23 35 24 36 25 37 26 38 87 39 27 40 86 41 28 42 29 43
REMARK SMILES IDX 30 44 80 45 31 46 85 47 79 48 81 49 32 50 84 51 78 52 77 53
REMARK SMILES IDX 33 55 65 56 45 57 64 58 46 59 49 60 63 61 82 62 47 63 48 64
REMARK SMILES IDX 62 66 83 67 50 68 34 69 35 70 43 71 36 72 37 73 41 74 44 75
REMARK SMILES IDX 38 76 39 77 42 78 40 79 66 80 67 81 75 82 68 83 69 84 73 85
REMARK SMILES IDX 76 86 70 87 71 88 74 89 72 90 51 91 52 92 60 93 53 94 54 95
REMARK SMILES IDX 58 96 61 97 55 98 56 99 59 100 57 101
REMARK H PARENT 6 15 81 54 49 65
REMARK Flexibility Score: inf
ROOT
ATOM      1  C   UNL A   1      41.840  20.023  26.506  1.00  0.00     0.261 C 
ENDROOT
BRANCH   1   2
ATOM      2  O   UNL A   1      40.562  20.549  26.050  1.00  0.00    -0.463 OA
BRANCH   2   3
ATOM      3  C   UNL A   1      40.024  21.572  26.772  1.00  0.00     0.306 C 
ATOM      4  O   UNL A   1      40.317  21.833  27.937  1.00  0.00    -0.252 OA
BRANCH   3   5
ATOM      5  C   UNL A   1      38.900  22.313  26.055  1.00  0.00     0.129 C 
BRANCH   5   6
ATOM      6  C   UNL A   1      37.529  21.665  25.837  1.00  0.00     0.066 C 
BRANCH   6   7
ATOM      7  C   UNL A   1      36.595  22.398  24.915  1.00  0.00     0.019 A 
ATOM      8  N   UNL A   1      35.451  23.075  25.276  1.00  0.00    -0.335 N 
ATOM      9  C   UNL A   1      35.134  23.979  24.262  1.00  0.00     0.049 A 
ATOM     10  C   UNL A   1      36.660  22.497  23.533  1.00  0.00     0.024 A 
ATOM     11  C   UNL A   1      35.731  23.481  23.120  1.00  0.00     0.029 A 
BRANCH   8  12
ATOM     12  C   UNL A   1      34.678  23.005  26.510  1.00  0.00     0.222 C 
BRANCH  12  13
ATOM     13  C   UNL A   1      33.616  21.940  26.630  1.00  0.00     0.244 C 
ATOM     14  N   UNL A   1      32.304  22.077  26.370  1.00  0.00    -0.325 N 
ATOM     15  H   UNL A   1      31.785  21.272  26.597  1.00  0.00     0.169 HD
ATOM     16  O   UNL A   1      33.898  20.783  26.959  1.00  0.00    -0.273 OA
BRANCH  14  17
ATOM     17  C   UNL A   1      31.517  23.093  25.852  1.00  0.00     0.041 A 
ATOM     18  C   UNL A   1      29.456  26.286  23.878  1.00  0.00     0.044 C 
ATOM     19  C   UNL A   1      30.130  25.136  24.555  1.00  0.00    -0.051 A 
ATOM     20  C   UNL A   1      30.222  25.113  25.949  1.00  0.00     0.005 A 
ATOM     21  C   UNL A   1      30.696  24.100  23.812  1.00  0.00     0.005 A 
ATOM     22  C   UNL A   1      30.916  24.096  26.597  1.00  0.00     0.026 A 
ATOM     23  C   UNL A   1      31.371  23.075  24.461  1.00  0.00     0.026 A 
ENDBRANCH  14  17
ENDBRANCH  12  13
ENDBRANCH   8  12
BRANCH   9  24
ATOM     24  C   UNL A   1      34.393  25.233  24.439  1.00  0.00    -0.002 A 
ATOM     25  C   UNL A   1      34.101  25.741  25.708  1.00  0.00     0.010 A 
ATOM     26  C   UNL A   1      33.868  25.886  23.312  1.00  0.00     0.010 A 
ATOM     27  C   UNL A   1      33.309  26.888  25.844  1.00  0.00     0.001 A 
ATOM     28  C   UNL A   1      33.077  27.029  23.448  1.00  0.00     0.001 A 
ATOM     29  C   UNL A   1      32.796  27.529  24.717  1.00  0.00     0.000 A 
ENDBRANCH   9  24
ENDBRANCH   6   7
ENDBRANCH   5   6
ENDBRANCH   3   5
ENDBRANCH   2   3
ENDBRANCH   1   2
BRANCH   1  30
ATOM     30  C   UNL A   1      43.054  20.923  26.176  1.00  0.00     0.202 C 
BRANCH  30  31
ATOM     31  O   UNL A   1      42.931  21.674  24.966  1.00  0.00    -0.374 OA
BRANCH  31  32
ATOM     32  C   UNL A   1      43.477  23.007  24.950  1.00  0.00     0.202 C 
BRANCH  32  33
ATOM     33  C   UNL A   1      43.209  23.940  26.154  1.00  0.00     0.261 C 
BRANCH  33  34
ATOM     34  O   UNL A   1      41.899  24.528  26.034  1.00  0.00    -0.460 OA
BRANCH  34  35
ATOM     35  C   UNL A   1      41.830  25.840  25.664  1.00  0.00     0.338 C 
ATOM     36  O   UNL A   1      42.284  26.316  24.641  1.00  0.00    -0.246 OA
BRANCH  35  37
ATOM     37  C   UNL A   1      41.321  26.643  26.827  1.00  0.00     0.060 A 
ATOM     38  C   UNL A   1      40.806  27.952  26.750  1.00  0.00     0.016 A 
ATOM     39  C   UNL A   1      41.638  26.167  28.076  1.00  0.00     0.016 A 
ATOM     40  C   UNL A   1      40.629  28.774  27.928  1.00  0.00     0.010 A 
ATOM     41  C   UNL A   1      41.598  27.019  29.163  1.00  0.00     0.010 A 
ATOM     42  C   UNL A   1      41.048  28.331  29.188  1.00  0.00    -0.014 A 
BRANCH  42  43
ATOM     43  C   UNL A   1      41.042  28.998  30.568  1.00  0.00     0.031 A 
ATOM     44  C   UNL A   1      41.864  30.210  30.569  1.00  0.00     0.074 A 
ATOM     45  C   UNL A   1      40.374  29.079  31.762  1.00  0.00     0.049 A 
ATOM     46  N   UNL A   1      41.299  31.343  30.317  1.00  0.00    -0.248 NA
ATOM     47  C   UNL A   1      43.314  30.201  30.590  1.00  0.00     0.031 C 
ATOM     48  C   UNL A   1      39.192  28.349  32.171  1.00  0.00     0.029 A 
ATOM     49  N   UNL A   1      40.548  30.053  32.814  1.00  0.00    -0.354 N 
ATOM     50  C   UNL A   1      42.293  32.272  30.249  1.00  0.00     0.074 A 
ATOM     51  C   UNL A   1      43.510  31.482  30.255  1.00  0.00     0.031 C 
ATOM     52  C   UNL A   1      38.647  28.968  33.244  1.00  0.00     0.029 A 
ATOM     53  C   UNL A   1      39.438  30.155  33.649  1.00  0.00     0.049 A 
ATOM     54  H   UNL A   1      41.366  30.589  32.930  1.00  0.00     0.167 HD
ATOM     55  C   UNL A   1      41.967  33.590  30.312  1.00  0.00     0.037 A 
ATOM     56  C   UNL A   1      38.884  31.254  34.265  1.00  0.00     0.037 A 
ATOM     57  C   UNL A   1      40.551  33.893  29.943  1.00  0.00     0.049 A 
ATOM     58  C   UNL A   1      37.797  31.593  33.318  1.00  0.00     0.074 A 
ATOM     59  C   UNL A   1      39.923  34.866  29.184  1.00  0.00     0.029 A 
ATOM     60  N   UNL A   1      39.507  33.037  30.302  1.00  0.00    -0.354 N 
ATOM     61  N   UNL A   1      38.119  32.045  32.152  1.00  0.00    -0.248 NA
ATOM     62  C   UNL A   1      36.380  31.550  33.610  1.00  0.00     0.031 C 
ATOM     63  C   UNL A   1      38.517  34.577  29.125  1.00  0.00     0.029 A 
ATOM     64  C   UNL A   1      38.260  33.396  29.803  1.00  0.00     0.049 A 
ATOM     65  H   UNL A   1      39.644  32.241  30.864  1.00  0.00     0.167 HD
ATOM     66  C   UNL A   1      36.964  32.292  31.481  1.00  0.00     0.074 A 
ATOM     67  C   UNL A   1      35.905  31.989  32.434  1.00  0.00     0.031 C 
ATOM     68  C   UNL A   1      37.036  32.628  30.165  1.00  0.00     0.037 A 
BRANCH  55  69
ATOM     69  C   UNL A   1      42.953  34.599  30.908  1.00  0.00     0.064 A 
ATOM     70  C   UNL A   1      43.259  35.775  30.192  1.00  0.00     0.173 A 
ATOM     71  C   UNL A   1      43.486  34.585  32.223  1.00  0.00     0.173 A 
ATOM     72  F   UNL A   1      42.799  35.972  28.950  1.00  0.00    -0.203 F 
ATOM     73  C   UNL A   1      43.997  36.831  30.750  1.00  0.00     0.198 A 
ATOM     74  C   UNL A   1      44.186  35.650  32.789  1.00  0.00     0.198 A 
ATOM     75  F   UNL A   1      43.365  33.554  33.055  1.00  0.00    -0.203 F 
ATOM     76  F   UNL A   1      44.238  37.929  30.021  1.00  0.00    -0.200 F 
ATOM     77  C   UNL A   1      44.446  36.776  32.053  1.00  0.00     0.200 A 
ATOM     78  F   UNL A   1      44.580  35.571  34.070  1.00  0.00    -0.200 F 
ATOM     79  F   UNL A   1      45.106  37.802  32.604  1.00  0.00    -0.200 F 
ENDBRANCH  55  69
BRANCH  56  80
ATOM     80  C   UNL A   1      39.393  32.515  34.961  1.00  0.00     0.064 A 
ATOM     81  C   UNL A   1      38.803  32.912  36.171  1.00  0.00     0.173 A 
ATOM     82  C   UNL A   1      40.166  33.529  34.320  1.00  0.00     0.173 A 
ATOM     83  F   UNL A   1      38.012  32.060  36.838  1.00  0.00    -0.203 F 
ATOM     84  C   UNL A   1      38.925  34.226  36.666  1.00  0.00     0.198 A 
ATOM     85  C   UNL A   1      40.270  34.837  34.805  1.00  0.00     0.198 A 
ATOM     86  F   UNL A   1      40.796  33.319  33.161  1.00  0.00    -0.203 F 
ATOM     87  F   UNL A   1      38.291  34.576  37.793  1.00  0.00    -0.200 F 
ATOM     88  C   UNL A   1      39.638  35.191  35.972  1.00  0.00     0.200 A 
ATOM     89  F   UNL A   1      40.930  35.763  34.091  1.00  0.00    -0.200 F 
ATOM     90  F   UNL A   1      39.684  36.459  36.406  1.00  0.00    -0.200 F 
ENDBRANCH  56  80
BRANCH  68  91
ATOM     91  C   UNL A   1      35.925  32.227  29.207  1.00  0.00     0.064 A 
ATOM     92  C   UNL A   1      34.805  33.044  28.901  1.00  0.00     0.173 A 
ATOM     93  C   UNL A   1      35.833  30.921  28.691  1.00  0.00     0.173 A 
ATOM     94  F   UNL A   1      34.587  34.218  29.508  1.00  0.00    -0.203 F 
ATOM     95  C   UNL A   1      33.789  32.653  28.026  1.00  0.00     0.198 A 
ATOM     96  C   UNL A   1      34.784  30.510  27.858  1.00  0.00     0.198 A 
ATOM     97  F   UNL A   1      36.714  29.973  29.025  1.00  0.00    -0.203 F 
ATOM     98  F   UNL A   1      32.795  33.509  27.741  1.00  0.00    -0.200 F 
ATOM     99  C   UNL A   1      33.780  31.386  27.497  1.00  0.00     0.200 A 
ATOM    100  F   UNL A   1      34.738  29.240  27.434  1.00  0.00    -0.200 F 
ATOM    101  F   UNL A   1      32.786  30.996  26.691  1.00  0.00    -0.200 F 
ENDBRANCH  68  91
ENDBRANCH  42  43
ENDBRANCH  35  37
ENDBRANCH  34  35
ENDBRANCH  33  34
ENDBRANCH  32  33
ENDBRANCH  31  32
ENDBRANCH  30  31
ENDBRANCH   1  30
TORSDOF 20
ENDMDL
MODEL 3
REMARK VINA RESULT:     -11.7      0.940      3.296
REMARK SMILES Cc1ccc(NC(=O)Cn2c(CCC(=O)OCCOCCOC(=O)c3ccc(-c4c5nc(c(-c6c(F)c(F)c(F)c(F)c6F)c6ccc([nH]6)c(-c6c(F)c(F)c(F)c(F)c6F)c6nc(c(-c7c(F)c(F)c(F)c(F)c7F)c7ccc4[nH]7)C=C6)C=C5)cc3)ccc2-c2ccccc2)cc1
REMARK SMILES IDX 17 1 16 2 14 3 15 4 13 5 12 6 11 7 10 8 90 9 88 10 89 11
REMARK SMILES IDX 9 12 7 13 6 14 8 16 5 17 1 18 2 19 3 20 98 21 4 22 97 23
REMARK SMILES IDX 91 24 92 25 96 26 93 27 95 28 94 29 18 30 19 31 20 32 21 33
REMARK SMILES IDX 22 34 23 35 24 36 25 37 26 38 87 39 27 40 86 41 28 42 29 43
REMARK SMILES IDX 30 44 80 45 31 46 85 47 79 48 81 49 32 50 84 51 78 52 77 53
REMARK SMILES IDX 33 55 65 56 45 57 64 58 46 59 49 60 63 61 82 62 47 63 48 64
REMARK SMILES IDX 62 66 83 67 50 68 34 69 35 70 43 71 36 72 37 73 41 74 44 75
REMARK SMILES IDX 38 76 39 77 42 78 40 79 66 80 67 81 75 82 68 83 69 84 73 85
REMARK SMILES IDX 76 86 70 87 71 88 74 89 72 90 51 91 52 92 60 93 53 94 54 95
REMARK SMILES IDX 58 96 61 97 55 98 56 99 59 100 57 101
REMARK H PARENT 6 15 81 54 49 65
REMARK Flexibility Score: inf
ROOT
ATOM      1  C   UNL A   1      40.602  20.863  26.516  1.00  0.00     0.261 C 
ENDROOT
BRANCH   1   2
ATOM      2  O   UNL A   1      39.748  21.796  25.797  1.00  0.00    -0.463 OA
BRANCH   2   3
ATOM      3  C   UNL A   1      39.192  22.808  26.522  1.00  0.00     0.306 C 
ATOM      4  O   UNL A   1      39.688  23.292  27.537  1.00  0.00    -0.252 OA
BRANCH   3   5
ATOM      5  C   UNL A   1      37.804  23.223  26.045  1.00  0.00     0.129 C 
BRANCH   5   6
ATOM      6  C   UNL A   1      36.919  22.267  25.240  1.00  0.00     0.066 C 
BRANCH   6   7
ATOM      7  C   UNL A   1      35.702  22.878  24.603  1.00  0.00     0.019 A 
ATOM      8  N   UNL A   1      34.560  23.295  25.250  1.00  0.00    -0.335 N 
ATOM      9  C   UNL A   1      33.889  24.198  24.426  1.00  0.00     0.049 A 
ATOM     10  C   UNL A   1      35.459  23.096  23.254  1.00  0.00     0.024 A 
ATOM     11  C   UNL A   1      34.311  23.914  23.142  1.00  0.00     0.029 A 
BRANCH   8  12
ATOM     12  C   UNL A   1      34.084  22.982  26.593  1.00  0.00     0.222 C 
BRANCH  12  13
ATOM     13  C   UNL A   1      32.623  22.657  26.778  1.00  0.00     0.244 C 
ATOM     14  N   UNL A   1      31.937  21.666  26.183  1.00  0.00    -0.325 N 
ATOM     15  H   UNL A   1      30.974  21.694  26.390  1.00  0.00     0.169 HD
ATOM     16  O   UNL A   1      31.917  23.292  27.568  1.00  0.00    -0.273 OA
BRANCH  14  17
ATOM     17  C   UNL A   1      32.275  20.615  25.348  1.00  0.00     0.041 A 
ATOM     18  C   UNL A   1      33.768  17.322  23.051  1.00  0.00     0.044 C 
ATOM     19  C   UNL A   1      33.202  18.437  23.870  1.00  0.00    -0.051 A 
ATOM     20  C   UNL A   1      32.615  19.534  23.230  1.00  0.00     0.005 A 
ATOM     21  C   UNL A   1      33.278  18.414  25.262  1.00  0.00     0.005 A 
ATOM     22  C   UNL A   1      32.155  20.621  23.967  1.00  0.00     0.026 A 
ATOM     23  C   UNL A   1      32.800  19.491  25.997  1.00  0.00     0.026 A 
ENDBRANCH  14  17
ENDBRANCH  12  13
ENDBRANCH   8  12
BRANCH   9  24
ATOM     24  C   UNL A   1      32.998  25.270  24.884  1.00  0.00    -0.002 A 
ATOM     25  C   UNL A   1      33.440  26.273  25.750  1.00  0.00     0.010 A 
ATOM     26  C   UNL A   1      31.638  25.231  24.533  1.00  0.00     0.010 A 
ATOM     27  C   UNL A   1      32.541  27.226  26.246  1.00  0.00     0.001 A 
ATOM     28  C   UNL A   1      30.741  26.180  25.028  1.00  0.00     0.001 A 
ATOM     29  C   UNL A   1      31.194  27.178  25.887  1.00  0.00     0.000 A 
ENDBRANCH   9  24
ENDBRANCH   6   7
ENDBRANCH   5   6
ENDBRANCH   3   5
ENDBRANCH   2   3
ENDBRANCH   1   2
BRANCH   1  30
ATOM     30  C   UNL A   1      42.086  21.291  26.597  1.00  0.00     0.202 C 
BRANCH  30  31
ATOM     31  O   UNL A   1      42.741  21.425  25.334  1.00  0.00    -0.374 OA
BRANCH  31  32
ATOM     32  C   UNL A   1      43.226  22.731  24.969  1.00  0.00     0.202 C 
BRANCH  32  33
ATOM     33  C   UNL A   1      43.273  23.841  26.046  1.00  0.00     0.261 C 
BRANCH  33  34
ATOM     34  O   UNL A   1      42.045  24.594  26.024  1.00  0.00    -0.460 OA
BRANCH  34  35
ATOM     35  C   UNL A   1      42.114  25.899  25.632  1.00  0.00     0.338 C 
ATOM     36  O   UNL A   1      42.658  26.313  24.626  1.00  0.00    -0.246 OA
BRANCH  35  37
ATOM     37  C   UNL A   1      41.627  26.767  26.758  1.00  0.00     0.060 A 
ATOM     38  C   UNL A   1      41.342  28.143  26.661  1.00  0.00     0.016 A 
ATOM     39  C   UNL A   1      41.733  26.237  28.021  1.00  0.00     0.016 A 
ATOM     40  C   UNL A   1      41.183  28.976  27.834  1.00  0.00     0.010 A 
ATOM     41  C   UNL A   1      41.722  27.077  29.118  1.00  0.00     0.010 A 
ATOM     42  C   UNL A   1      41.394  28.461  29.118  1.00  0.00    -0.014 A 
BRANCH  42  43
ATOM     43  C   UNL A   1      41.356  29.111  30.506  1.00  0.00     0.031 A 
ATOM     44  C   UNL A   1      42.120  30.361  30.522  1.00  0.00     0.074 A 
ATOM     45  C   UNL A   1      40.685  29.146  31.701  1.00  0.00     0.049 A 
ATOM     46  N   UNL A   1      41.502  31.469  30.283  1.00  0.00    -0.248 NA
ATOM     47  C   UNL A   1      43.569  30.420  30.544  1.00  0.00     0.031 C 
ATOM     48  C   UNL A   1      39.538  28.356  32.100  1.00  0.00     0.029 A 
ATOM     49  N   UNL A   1      40.813  30.114  32.765  1.00  0.00    -0.354 N 
ATOM     50  C   UNL A   1      42.450  32.444  30.227  1.00  0.00     0.074 A 
ATOM     51  C   UNL A   1      43.704  31.712  30.224  1.00  0.00     0.031 C 
ATOM     52  C   UNL A   1      38.964  28.936  33.180  1.00  0.00     0.029 A 
ATOM     53  C   UNL A   1      39.698  30.154  33.600  1.00  0.00     0.049 A 
ATOM     54  H   UNL A   1      41.604  30.687  32.887  1.00  0.00     0.167 HD
ATOM     55  C   UNL A   1      42.063  33.744  30.305  1.00  0.00     0.037 A 
ATOM     56  C   UNL A   1      39.094  31.218  34.229  1.00  0.00     0.037 A 
ATOM     57  C   UNL A   1      40.634  33.984  29.939  1.00  0.00     0.049 A 
ATOM     58  C   UNL A   1      37.992  31.517  33.285  1.00  0.00     0.074 A 
ATOM     59  C   UNL A   1      39.961  34.935  29.191  1.00  0.00     0.029 A 
ATOM     60  N   UNL A   1      39.632  33.076  30.287  1.00  0.00    -0.354 N 
ATOM     61  N   UNL A   1      38.292  31.998  32.125  1.00  0.00    -0.248 NA
ATOM     62  C   UNL A   1      36.578  31.404  33.575  1.00  0.00     0.031 C 
ATOM     63  C   UNL A   1      38.570  34.581  29.128  1.00  0.00     0.029 A 
ATOM     64  C   UNL A   1      38.370  33.381  29.792  1.00  0.00     0.049 A 
ATOM     65  H   UNL A   1      39.807  32.280  30.840  1.00  0.00     0.167 HD
ATOM     66  C   UNL A   1      37.127  32.197  31.455  1.00  0.00     0.074 A 
ATOM     67  C   UNL A   1      36.083  31.833  32.404  1.00  0.00     0.031 C 
ATOM     68  C   UNL A   1      37.183  32.552  30.144  1.00  0.00     0.037 A 
BRANCH  55  69
ATOM     69  C   UNL A   1      43.000  34.791  30.913  1.00  0.00     0.064 A 
ATOM     70  C   UNL A   1      43.678  34.501  32.115  1.00  0.00     0.173 A 
ATOM     71  C   UNL A   1      43.426  36.000  30.304  1.00  0.00     0.173 A 
ATOM     72  F   UNL A   1      43.430  33.377  32.799  1.00  0.00    -0.203 F 
ATOM     73  C   UNL A   1      44.692  35.323  32.631  1.00  0.00     0.198 A 
ATOM     74  C   UNL A   1      44.460  36.796  30.797  1.00  0.00     0.198 A 
ATOM     75  F   UNL A   1      42.887  36.494  29.193  1.00  0.00    -0.203 F 
ATOM     76  F   UNL A   1      45.310  34.980  33.770  1.00  0.00    -0.200 F 
ATOM     77  C   UNL A   1      45.095  36.461  31.963  1.00  0.00     0.200 A 
ATOM     78  F   UNL A   1      44.843  37.879  30.103  1.00  0.00    -0.200 F 
ATOM     79  F   UNL A   1      46.096  37.220  32.426  1.00  0.00    -0.200 F 
ENDBRANCH  55  69
BRANCH  56  80
ATOM     80  C   UNL A   1      39.542  32.494  34.939  1.00  0.00     0.064 A 
ATOM     81  C   UNL A   1      38.885  32.886  36.116  1.00  0.00     0.173 A 
ATOM     82  C   UNL A   1      40.325  33.519  34.331  1.00  0.00     0.173 A 
ATOM     83  F   UNL A   1      38.079  32.022  36.750  1.00  0.00    -0.203 F 
ATOM     84  C   UNL A   1      38.956  34.205  36.607  1.00  0.00     0.198 A 
ATOM     85  C   UNL A   1      40.379  34.832  34.810  1.00  0.00     0.198 A 
ATOM     86  F   UNL A   1      41.017  33.315  33.205  1.00  0.00    -0.203 F 
ATOM     87  F   UNL A   1      38.260  34.550  37.699  1.00  0.00    -0.200 F 
ATOM     88  C   UNL A   1      39.684  35.180  35.942  1.00  0.00     0.200 A 
ATOM     89  F   UNL A   1      41.055  35.767  34.123  1.00  0.00    -0.200 F 
ATOM     90  F   UNL A   1      39.683  36.452  36.368  1.00  0.00    -0.200 F 
ENDBRANCH  56  80
BRANCH  68  91
ATOM     91  C   UNL A   1      36.092  32.110  29.180  1.00  0.00     0.064 A 
ATOM     92  C   UNL A   1      34.942  32.883  28.872  1.00  0.00     0.173 A 
ATOM     93  C   UNL A   1      36.054  30.804  28.659  1.00  0.00     0.173 A 
ATOM     94  F   UNL A   1      34.675  34.045  29.482  1.00  0.00    -0.203 F 
ATOM     95  C   UNL A   1      33.945  32.455  27.992  1.00  0.00     0.198 A 
ATOM     96  C   UNL A   1      35.025  30.354  27.821  1.00  0.00     0.198 A 
ATOM     97  F   UNL A   1      36.971  29.890  28.994  1.00  0.00    -0.203 F 
ATOM     98  F   UNL A   1      32.919  33.272  27.707  1.00  0.00    -0.200 F 
ATOM     99  C   UNL A   1      33.989  31.190  27.460  1.00  0.00     0.200 A 
ATOM    100  F   UNL A   1      35.031  29.084  27.393  1.00  0.00    -0.200 F 
ATOM    101  F   UNL A   1      33.014  30.764  26.648  1.00  0.00    -0.200 F 
ENDBRANCH  68  91
ENDBRANCH  42  43
ENDBRANCH  35  37
ENDBRANCH  34  35
ENDBRANCH  33  34
ENDBRANCH  32  33
ENDBRANCH  31  32
ENDBRANCH  30  31
ENDBRANCH   1  30
TORSDOF 20
ENDMDL
