MODEL 1
REMARK VINA RESULT:     -10.7      0.000      0.000
REMARK SMILES COc1cc(C[N@@H+]2CCC[C@@](O)(CO)C2)cc(Cl)c1OCC(=O)OCCOCCOC(=O)c1ccc(-c2c3nc(c(-c4c(F)c(F)c(F)c(F)c4F)c4ccc([nH]4)c(-c4c(F)c(F)c(F)c(F)c4F)c4nc(c(-c5c(F)c(F)c(F)c(F)c5F)c5ccc2[nH]5)C=C4)C=C3)cc1
REMARK SMILES IDX 25 1 24 2 22 3 23 4 21 5 20 6 19 7 3 8 4 9 5 10 17 11 16 12
REMARK SMILES IDX 18 13 2 14 1 15 6 16 7 17 8 18 15 19 9 21 11 22 10 23 13 24
REMARK SMILES IDX 14 25 12 27 26 29 27 30 28 31 29 32 30 33 31 34 32 35 33 36
REMARK SMILES IDX 34 37 95 38 35 39 94 40 36 41 37 42 38 43 88 44 39 45 93 46
REMARK SMILES IDX 87 47 89 48 40 49 92 50 86 51 85 52 41 54 73 55 53 56 72 57
REMARK SMILES IDX 54 58 57 59 71 60 90 61 55 62 56 63 70 65 91 66 58 67 42 68
REMARK SMILES IDX 43 69 51 70 44 71 45 72 49 73 52 74 46 75 47 76 50 77 48 78
REMARK SMILES IDX 74 79 75 80 83 81 76 82 77 83 81 84 84 85 78 86 79 87 82 88
REMARK SMILES IDX 80 89 59 90 60 91 68 92 61 93 62 94 66 95 69 96 63 97 64 98
REMARK SMILES IDX 67 99 65 100
REMARK H PARENT 7 20 14 26 12 28 89 53 57 64
REMARK Flexibility Score: inf
ROOT
ATOM      1  C   UNL A   1      37.081  23.324  25.531  1.00  0.00     0.261 C 
ENDROOT
BRANCH   1   2
ATOM      2  O   UNL A   1      35.841  23.138  26.261  1.00  0.00    -0.461 OA
BRANCH   2   3
ATOM      3  C   UNL A   1      35.156  21.994  25.950  1.00  0.00     0.344 C 
ATOM      4  O   UNL A   1      35.656  21.031  25.374  1.00  0.00    -0.248 OA
BRANCH   3   5
ATOM      5  C   UNL A   1      33.652  22.029  26.283  1.00  0.00     0.352 C 
BRANCH   5   6
ATOM      6  O   UNL A   1      32.603  22.121  25.352  1.00  0.00    -0.476 OA
BRANCH   6   7
ATOM      7  C   UNL A   1      31.858  23.244  25.124  1.00  0.00     0.180 A 
ATOM      8  C   UNL A   1      32.279  23.980  24.001  1.00  0.00     0.162 A 
ATOM      9  C   UNL A   1      31.923  25.323  23.821  1.00  0.00     0.060 A 
ATOM     10  C   UNL A   1      31.180  25.987  24.801  1.00  0.00     0.012 A 
ATOM     11  C   UNL A   1      30.860  23.823  25.909  1.00  0.00     0.087 A 
ATOM     12  C   UNL A   1      30.570  25.200  25.785  1.00  0.00     0.034 A 
ATOM     13  Cl  UNL A   1      29.870  22.947  27.019  1.00  0.00    -0.080 Cl
BRANCH   8  14
ATOM     14  O   UNL A   1      32.906  23.327  22.965  1.00  0.00    -0.493 OA
ATOM     15  C   UNL A   1      34.280  23.665  22.836  1.00  0.00     0.278 C 
ENDBRANCH   8  14
BRANCH  10  16
ATOM     16  C   UNL A   1      31.124  27.508  24.849  1.00  0.00     0.299 C 
BRANCH  16  17
ATOM     17  N   UNL A   1      30.175  27.981  23.858  1.00  0.00    -0.329 N 
ATOM     18  C   UNL A   1      28.973  27.234  23.551  1.00  0.00     0.262 C 
ATOM     19  C   UNL A   1      30.609  28.884  22.805  1.00  0.00     0.300 C 
ATOM     20  H   UNL A   1      29.825  28.610  24.582  1.00  0.00     0.348 HD
ATOM     21  C   UNL A   1      27.830  28.224  23.288  1.00  0.00     0.065 C 
ATOM     22  C   UNL A   1      29.535  29.980  22.606  1.00  0.00     0.136 C 
ATOM     23  C   UNL A   1      28.183  29.322  22.281  1.00  0.00     0.049 C 
BRANCH  22  24
ATOM     24  C   UNL A   1      29.460  30.859  23.871  1.00  0.00     0.197 C 
BRANCH  24  25
ATOM     25  O   UNL A   1      30.654  30.763  24.648  1.00  0.00    -0.393 OA
ATOM     26  H   UNL A   1      30.590  30.003  25.247  1.00  0.00     0.210 HD
ENDBRANCH  24  25
ENDBRANCH  22  24
BRANCH  22  27
ATOM     27  O   UNL A   1      29.906  30.829  21.512  1.00  0.00    -0.382 OA
ATOM     28  H   UNL A   1      29.983  31.745  21.826  1.00  0.00     0.211 HD
ENDBRANCH  22  27
ENDBRANCH  16  17
ENDBRANCH  10  16
ENDBRANCH   6   7
ENDBRANCH   5   6
ENDBRANCH   3   5
ENDBRANCH   2   3
ENDBRANCH   1   2
BRANCH   1  29
ATOM     29  C   UNL A   1      38.348  23.517  26.385  1.00  0.00     0.202 C 
BRANCH  29  30
ATOM     30  O   UNL A   1      39.216  22.409  26.595  1.00  0.00    -0.374 OA
BRANCH  30  31
ATOM     31  C   UNL A   1      39.115  21.330  25.681  1.00  0.00     0.202 C 
BRANCH  31  32
ATOM     32  C   UNL A   1      39.657  19.967  26.112  1.00  0.00     0.261 C 
BRANCH  32  33
ATOM     33  O   UNL A   1      40.818  19.534  25.395  1.00  0.00    -0.460 OA
BRANCH  33  34
ATOM     34  C   UNL A   1      41.926  19.416  26.170  1.00  0.00     0.338 C 
ATOM     35  O   UNL A   1      42.450  18.394  26.571  1.00  0.00    -0.246 OA
BRANCH  34  36
ATOM     36  C   UNL A   1      42.522  20.741  26.385  1.00  0.00     0.060 A 
ATOM     37  C   UNL A   1      42.604  21.200  27.703  1.00  0.00     0.016 A 
ATOM     38  C   UNL A   1      42.923  21.545  25.316  1.00  0.00     0.016 A 
ATOM     39  C   UNL A   1      43.071  22.485  27.955  1.00  0.00     0.010 A 
ATOM     40  C   UNL A   1      43.390  22.834  25.570  1.00  0.00     0.010 A 
ATOM     41  C   UNL A   1      43.446  23.313  26.889  1.00  0.00    -0.014 A 
BRANCH  41  42
ATOM     42  C   UNL A   1      43.849  24.707  27.160  1.00  0.00     0.031 A 
ATOM     43  C   UNL A   1      42.822  25.701  27.607  1.00  0.00     0.074 A 
ATOM     44  C   UNL A   1      45.139  25.053  27.010  1.00  0.00     0.049 A 
ATOM     45  N   UNL A   1      42.969  26.968  27.897  1.00  0.00    -0.248 NA
ATOM     46  C   UNL A   1      41.443  25.206  27.745  1.00  0.00     0.031 C 
ATOM     47  C   UNL A   1      46.207  24.146  26.592  1.00  0.00     0.029 A 
ATOM     48  N   UNL A   1      45.767  26.258  27.183  1.00  0.00    -0.354 N 
ATOM     49  C   UNL A   1      41.708  27.419  28.259  1.00  0.00     0.074 A 
ATOM     50  C   UNL A   1      40.798  26.303  28.120  1.00  0.00     0.031 C 
ATOM     51  C   UNL A   1      47.360  24.831  26.528  1.00  0.00     0.029 A 
ATOM     52  C   UNL A   1      47.103  26.226  26.873  1.00  0.00     0.049 A 
ATOM     53  H   UNL A   1      45.305  27.068  27.499  1.00  0.00     0.167 HD
ATOM     54  C   UNL A   1      41.350  28.657  28.678  1.00  0.00     0.037 A 
ATOM     55  C   UNL A   1      48.007  27.222  26.850  1.00  0.00     0.037 A 
ATOM     56  C   UNL A   1      42.272  29.758  28.795  1.00  0.00     0.049 A 
ATOM     57  C   UNL A   1      47.568  28.605  27.250  1.00  0.00     0.074 A 
ATOM     58  C   UNL A   1      42.032  31.043  29.246  1.00  0.00     0.029 A 
ATOM     59  N   UNL A   1      43.612  29.701  28.438  1.00  0.00    -0.354 N 
ATOM     60  N   UNL A   1      46.388  29.011  27.651  1.00  0.00    -0.248 NA
ATOM     61  C   UNL A   1      48.582  29.665  27.193  1.00  0.00     0.031 C 
ATOM     62  C   UNL A   1      43.213  31.780  29.108  1.00  0.00     0.029 A 
ATOM     63  C   UNL A   1      44.204  30.941  28.619  1.00  0.00     0.049 A 
ATOM     64  H   UNL A   1      44.075  28.899  28.105  1.00  0.00     0.167 HD
ATOM     65  C   UNL A   1      46.518  30.369  27.909  1.00  0.00     0.074 A 
ATOM     66  C   UNL A   1      47.900  30.712  27.637  1.00  0.00     0.031 C 
ATOM     67  C   UNL A   1      45.580  31.253  28.330  1.00  0.00     0.037 A 
BRANCH  54  68
ATOM     68  C   UNL A   1      39.908  28.890  29.017  1.00  0.00     0.064 A 
ATOM     69  C   UNL A   1      38.978  29.296  28.048  1.00  0.00     0.173 A 
ATOM     70  C   UNL A   1      39.437  28.669  30.321  1.00  0.00     0.173 A 
ATOM     71  F   UNL A   1      39.377  29.531  26.787  1.00  0.00    -0.203 F 
ATOM     72  C   UNL A   1      37.639  29.494  28.374  1.00  0.00     0.198 A 
ATOM     73  C   UNL A   1      38.093  28.844  30.639  1.00  0.00     0.198 A 
ATOM     74  F   UNL A   1      40.282  28.277  31.286  1.00  0.00    -0.203 F 
ATOM     75  F   UNL A   1      36.778  29.921  27.441  1.00  0.00    -0.200 F 
ATOM     76  C   UNL A   1      37.196  29.262  29.668  1.00  0.00     0.200 A 
ATOM     77  F   UNL A   1      37.665  28.606  31.887  1.00  0.00    -0.200 F 
ATOM     78  F   UNL A   1      35.906  29.446  29.980  1.00  0.00    -0.200 F 
ENDBRANCH  54  68
BRANCH  55  79
ATOM     79  C   UNL A   1      49.403  26.943  26.423  1.00  0.00     0.064 A 
ATOM     80  C   UNL A   1      50.386  26.577  27.352  1.00  0.00     0.173 A 
ATOM     81  C   UNL A   1      49.777  27.020  25.072  1.00  0.00     0.173 A 
ATOM     82  F   UNL A   1      50.081  26.508  28.656  1.00  0.00    -0.203 F 
ATOM     83  C   UNL A   1      51.693  26.310  26.948  1.00  0.00     0.198 A 
ATOM     84  C   UNL A   1      51.077  26.726  24.667  1.00  0.00     0.198 A 
ATOM     85  F   UNL A   1      48.873  27.361  24.143  1.00  0.00    -0.203 F 
ATOM     86  F   UNL A   1      52.621  25.996  27.861  1.00  0.00    -0.200 F 
ATOM     87  C   UNL A   1      52.035  26.377  25.606  1.00  0.00     0.200 A 
ATOM     88  F   UNL A   1      51.398  26.776  23.367  1.00  0.00    -0.200 F 
ATOM     89  F   UNL A   1      53.289  26.109  25.218  1.00  0.00    -0.200 F 
ENDBRANCH  55  79
BRANCH  67  90
ATOM     90  C   UNL A   1      46.022  32.674  28.523  1.00  0.00     0.064 A 
ATOM     91  C   UNL A   1      46.577  33.107  29.734  1.00  0.00     0.173 A 
ATOM     92  C   UNL A   1      45.940  33.594  27.467  1.00  0.00     0.173 A 
ATOM     93  F   UNL A   1      46.659  32.266  30.777  1.00  0.00    -0.203 F 
ATOM     94  C   UNL A   1      47.021  34.416  29.888  1.00  0.00     0.198 A 
ATOM     95  C   UNL A   1      46.412  34.895  27.616  1.00  0.00     0.198 A 
ATOM     96  F   UNL A   1      45.421  33.225  26.286  1.00  0.00    -0.203 F 
ATOM     97  F   UNL A   1      47.513  34.821  31.068  1.00  0.00    -0.200 F 
ATOM     98  C   UNL A   1      46.947  35.306  28.827  1.00  0.00     0.200 A 
ATOM     99  F   UNL A   1      46.352  35.750  26.585  1.00  0.00    -0.200 F 
ATOM    100  F   UNL A   1      47.387  36.563  28.973  1.00  0.00    -0.200 F 
ENDBRANCH  67  90
ENDBRANCH  41  42
ENDBRANCH  34  36
ENDBRANCH  33  34
ENDBRANCH  32  33
ENDBRANCH  31  32
ENDBRANCH  30  31
ENDBRANCH  29  30
ENDBRANCH   1  29
TORSDOF 22
ENDMDL
MODEL 2
REMARK VINA RESULT:     -10.5      0.911      2.062
REMARK SMILES COc1cc(C[N@@H+]2CCC[C@@](O)(CO)C2)cc(Cl)c1OCC(=O)OCCOCCOC(=O)c1ccc(-c2c3nc(c(-c4c(F)c(F)c(F)c(F)c4F)c4ccc([nH]4)c(-c4c(F)c(F)c(F)c(F)c4F)c4nc(c(-c5c(F)c(F)c(F)c(F)c5F)c5ccc2[nH]5)C=C4)C=C3)cc1
REMARK SMILES IDX 25 1 24 2 22 3 23 4 21 5 20 6 19 7 3 8 4 9 5 10 17 11 16 12
REMARK SMILES IDX 18 13 2 14 1 15 6 16 7 17 8 18 15 19 9 21 11 22 10 23 13 24
REMARK SMILES IDX 14 25 12 27 26 29 27 30 28 31 29 32 30 33 31 34 32 35 33 36
REMARK SMILES IDX 34 37 95 38 35 39 94 40 36 41 37 42 38 43 88 44 39 45 93 46
REMARK SMILES IDX 87 47 89 48 40 49 92 50 86 51 85 52 41 54 73 55 53 56 72 57
REMARK SMILES IDX 54 58 57 59 71 60 90 61 55 62 56 63 70 65 91 66 58 67 42 68
REMARK SMILES IDX 43 69 51 70 44 71 45 72 49 73 52 74 46 75 47 76 50 77 48 78
REMARK SMILES IDX 74 79 75 80 83 81 76 82 77 83 81 84 84 85 78 86 79 87 82 88
REMARK SMILES IDX 80 89 59 90 60 91 68 92 61 93 62 94 66 95 69 96 63 97 64 98
REMARK SMILES IDX 67 99 65 100
REMARK H PARENT 7 20 14 26 12 28 89 53 57 64
REMARK Flexibility Score: inf
ROOT
ATOM      1  C   UNL A   1      37.017  23.168  25.513  1.00  0.00     0.261 C 
ENDROOT
BRANCH   1   2
ATOM      2  O   UNL A   1      35.864  22.918  26.358  1.00  0.00    -0.461 OA
BRANCH   2   3
ATOM      3  C   UNL A   1      35.223  21.732  26.119  1.00  0.00     0.344 C 
ATOM      4  O   UNL A   1      35.640  20.871  25.348  1.00  0.00    -0.248 OA
BRANCH   3   5
ATOM      5  C   UNL A   1      33.857  21.583  26.816  1.00  0.00     0.352 C 
BRANCH   5   6
ATOM      6  O   UNL A   1      32.653  21.206  26.197  1.00  0.00    -0.476 OA
BRANCH   6   7
ATOM      7  C   UNL A   1      31.890  22.025  25.410  1.00  0.00     0.180 A 
ATOM      8  C   UNL A   1      32.223  21.961  24.044  1.00  0.00     0.162 A 
ATOM      9  C   UNL A   1      31.853  22.970  23.146  1.00  0.00     0.060 A 
ATOM     10  C   UNL A   1      31.186  24.109  23.608  1.00  0.00     0.012 A 
ATOM     11  C   UNL A   1      30.955  22.992  25.779  1.00  0.00     0.087 A 
ATOM     12  C   UNL A   1      30.655  24.058  24.902  1.00  0.00     0.034 A 
ATOM     13  Cl  UNL A   1      30.054  22.958  27.251  1.00  0.00    -0.080 Cl
BRANCH   8  14
ATOM     14  O   UNL A   1      32.770  20.805  23.538  1.00  0.00    -0.493 OA
ATOM     15  C   UNL A   1      32.153  20.371  22.334  1.00  0.00     0.278 C 
ENDBRANCH   8  14
BRANCH  10  16
ATOM     16  C   UNL A   1      31.131  25.381  22.772  1.00  0.00     0.299 C 
BRANCH  16  17
ATOM     17  N   UNL A   1      31.642  26.488  23.558  1.00  0.00    -0.329 N 
ATOM     18  C   UNL A   1      32.807  26.336  24.406  1.00  0.00     0.262 C 
ATOM     19  C   UNL A   1      30.763  27.583  23.933  1.00  0.00     0.300 C 
ATOM     20  H   UNL A   1      32.079  26.818  22.697  1.00  0.00     0.348 HD
ATOM     21  C   UNL A   1      33.628  27.631  24.353  1.00  0.00     0.065 C 
ATOM     22  C   UNL A   1      31.521  28.921  23.761  1.00  0.00     0.136 C 
ATOM     23  C   UNL A   1      32.806  28.896  24.608  1.00  0.00     0.049 C 
BRANCH  22  24
ATOM     24  C   UNL A   1      31.820  29.152  22.266  1.00  0.00     0.197 C 
BRANCH  24  25
ATOM     25  O   UNL A   1      30.900  30.076  21.684  1.00  0.00    -0.393 OA
ATOM     26  H   UNL A   1      30.570  30.679  22.370  1.00  0.00     0.210 HD
ENDBRANCH  24  25
ENDBRANCH  22  24
BRANCH  22  27
ATOM     27  O   UNL A   1      30.698  30.006  24.209  1.00  0.00    -0.382 OA
ATOM     28  H   UNL A   1      31.216  30.585  24.791  1.00  0.00     0.211 HD
ENDBRANCH  22  27
ENDBRANCH  16  17
ENDBRANCH  10  16
ENDBRANCH   6   7
ENDBRANCH   5   6
ENDBRANCH   3   5
ENDBRANCH   2   3
ENDBRANCH   1   2
BRANCH   1  29
ATOM     29  C   UNL A   1      38.347  23.435  26.243  1.00  0.00     0.202 C 
BRANCH  29  30
ATOM     30  O   UNL A   1      39.224  22.343  26.501  1.00  0.00    -0.374 OA
BRANCH  30  31
ATOM     31  C   UNL A   1      39.138  21.229  25.630  1.00  0.00     0.202 C 
BRANCH  31  32
ATOM     32  C   UNL A   1      39.671  19.884  26.125  1.00  0.00     0.261 C 
BRANCH  32  33
ATOM     33  O   UNL A   1      40.820  19.401  25.419  1.00  0.00    -0.460 OA
BRANCH  33  34
ATOM     34  C   UNL A   1      41.928  19.286  26.194  1.00  0.00     0.338 C 
ATOM     35  O   UNL A   1      42.448  18.267  26.605  1.00  0.00    -0.246 OA
BRANCH  34  36
ATOM     36  C   UNL A   1      42.530  20.611  26.394  1.00  0.00     0.060 A 
ATOM     37  C   UNL A   1      42.523  21.128  27.693  1.00  0.00     0.016 A 
ATOM     38  C   UNL A   1      43.023  21.360  25.324  1.00  0.00     0.016 A 
ATOM     39  C   UNL A   1      42.993  22.416  27.922  1.00  0.00     0.010 A 
ATOM     40  C   UNL A   1      43.493  22.652  25.555  1.00  0.00     0.010 A 
ATOM     41  C   UNL A   1      43.460  23.189  26.851  1.00  0.00    -0.014 A 
BRANCH  41  42
ATOM     42  C   UNL A   1      43.868  24.588  27.090  1.00  0.00     0.031 A 
ATOM     43  C   UNL A   1      42.855  25.583  27.568  1.00  0.00     0.074 A 
ATOM     44  C   UNL A   1      45.148  24.939  26.884  1.00  0.00     0.049 A 
ATOM     45  N   UNL A   1      43.007  26.854  27.837  1.00  0.00    -0.248 NA
ATOM     46  C   UNL A   1      41.485  25.083  27.768  1.00  0.00     0.031 C 
ATOM     47  C   UNL A   1      46.203  24.032  26.433  1.00  0.00     0.029 A 
ATOM     48  N   UNL A   1      45.777  26.148  27.017  1.00  0.00    -0.354 N 
ATOM     49  C   UNL A   1      41.760  27.303  28.246  1.00  0.00     0.074 A 
ATOM     50  C   UNL A   1      40.851  26.181  28.157  1.00  0.00     0.031 C 
ATOM     51  C   UNL A   1      47.349  24.721  26.314  1.00  0.00     0.029 A 
ATOM     52  C   UNL A   1      47.099  26.118  26.653  1.00  0.00     0.049 A 
ATOM     53  H   UNL A   1      45.324  26.959  27.343  1.00  0.00     0.167 HD
ATOM     54  C   UNL A   1      41.414  28.544  28.665  1.00  0.00     0.037 A 
ATOM     55  C   UNL A   1      47.997  27.118  26.582  1.00  0.00     0.037 A 
ATOM     56  C   UNL A   1      42.334  29.650  28.731  1.00  0.00     0.049 A 
ATOM     57  C   UNL A   1      47.568  28.503  26.984  1.00  0.00     0.074 A 
ATOM     58  C   UNL A   1      42.106  30.939  29.177  1.00  0.00     0.029 A 
ATOM     59  N   UNL A   1      43.659  29.595  28.320  1.00  0.00    -0.354 N 
ATOM     60  N   UNL A   1      46.403  28.909  27.428  1.00  0.00    -0.248 NA
ATOM     61  C   UNL A   1      48.573  29.568  26.874  1.00  0.00     0.031 C 
ATOM     62  C   UNL A   1      43.276  31.680  28.983  1.00  0.00     0.029 A 
ATOM     63  C   UNL A   1      44.251  30.840  28.463  1.00  0.00     0.049 A 
ATOM     64  H   UNL A   1      44.111  28.792  27.978  1.00  0.00     0.167 HD
ATOM     65  C   UNL A   1      46.537  30.270  27.666  1.00  0.00     0.074 A 
ATOM     66  C   UNL A   1      47.905  30.616  27.333  1.00  0.00     0.031 C 
ATOM     67  C   UNL A   1      45.613  31.154  28.115  1.00  0.00     0.037 A 
BRANCH  54  68
ATOM     68  C   UNL A   1      39.985  28.775  29.060  1.00  0.00     0.064 A 
ATOM     69  C   UNL A   1      39.013  29.157  28.124  1.00  0.00     0.173 A 
ATOM     70  C   UNL A   1      39.571  28.575  30.386  1.00  0.00     0.173 A 
ATOM     71  F   UNL A   1      39.356  29.372  26.844  1.00  0.00    -0.203 F 
ATOM     72  C   UNL A   1      37.687  29.353  28.503  1.00  0.00     0.198 A 
ATOM     73  C   UNL A   1      38.240  28.746  30.758  1.00  0.00     0.198 A 
ATOM     74  F   UNL A   1      40.458  28.204  31.322  1.00  0.00    -0.203 F 
ATOM     75  F   UNL A   1      36.785  29.758  27.599  1.00  0.00    -0.200 F 
ATOM     76  C   UNL A   1      37.300  29.142  29.818  1.00  0.00     0.200 A 
ATOM     77  F   UNL A   1      37.867  28.529  32.026  1.00  0.00    -0.200 F 
ATOM     78  F   UNL A   1      36.023  29.323  30.181  1.00  0.00    -0.200 F 
ENDBRANCH  54  68
BRANCH  55  79
ATOM     79  C   UNL A   1      49.375  26.841  26.101  1.00  0.00     0.064 A 
ATOM     80  C   UNL A   1      49.706  26.958  24.744  1.00  0.00     0.173 A 
ATOM     81  C   UNL A   1      50.394  26.471  26.993  1.00  0.00     0.173 A 
ATOM     82  F   UNL A   1      48.763  27.291  23.851  1.00  0.00    -0.203 F 
ATOM     83  C   UNL A   1      51.001  26.703  24.296  1.00  0.00     0.198 A 
ATOM     84  C   UNL A   1      51.694  26.243  26.546  1.00  0.00     0.198 A 
ATOM     85  F   UNL A   1      50.131  26.350  28.302  1.00  0.00    -0.203 F 
ATOM     86  F   UNL A   1      51.283  26.788  22.989  1.00  0.00    -0.200 F 
ATOM     87  C   UNL A   1      51.995  26.354  25.197  1.00  0.00     0.200 A 
ATOM     88  F   UNL A   1      52.654  25.923  27.424  1.00  0.00    -0.200 F 
ATOM     89  F   UNL A   1      53.242  26.120  24.767  1.00  0.00    -0.200 F 
ENDBRANCH  55  79
BRANCH  67  90
ATOM     90  C   UNL A   1      46.054  32.580  28.273  1.00  0.00     0.064 A 
ATOM     91  C   UNL A   1      45.898  33.511  27.238  1.00  0.00     0.173 A 
ATOM     92  C   UNL A   1      46.585  33.030  29.491  1.00  0.00     0.173 A 
ATOM     93  F   UNL A   1      45.409  33.123  26.049  1.00  0.00    -0.203 F 
ATOM     94  C   UNL A   1      46.272  34.840  27.410  1.00  0.00     0.198 A 
ATOM     95  C   UNL A   1      46.932  34.365  29.669  1.00  0.00     0.198 A 
ATOM     96  F   UNL A   1      46.750  32.177  30.513  1.00  0.00    -0.203 F 
ATOM     97  F   UNL A   1      46.150  35.706  26.394  1.00  0.00    -0.200 F 
ATOM     98  C   UNL A   1      46.780  35.268  28.628  1.00  0.00     0.200 A 
ATOM     99  F   UNL A   1      47.410  34.781  30.851  1.00  0.00    -0.200 F 
ATOM    100  F   UNL A   1      47.128  36.551  28.796  1.00  0.00    -0.200 F 
ENDBRANCH  67  90
ENDBRANCH  41  42
ENDBRANCH  34  36
ENDBRANCH  33  34
ENDBRANCH  32  33
ENDBRANCH  31  32
ENDBRANCH  30  31
ENDBRANCH  29  30
ENDBRANCH   1  29
TORSDOF 22
ENDMDL
MODEL 3
REMARK VINA RESULT:     -10.2      1.628      7.499
REMARK SMILES COc1cc(C[N@@H+]2CCC[C@@](O)(CO)C2)cc(Cl)c1OCC(=O)OCCOCCOC(=O)c1ccc(-c2c3nc(c(-c4c(F)c(F)c(F)c(F)c4F)c4ccc([nH]4)c(-c4c(F)c(F)c(F)c(F)c4F)c4nc(c(-c5c(F)c(F)c(F)c(F)c5F)c5ccc2[nH]5)C=C4)C=C3)cc1
REMARK SMILES IDX 25 1 24 2 22 3 23 4 21 5 20 6 19 7 3 8 4 9 5 10 17 11 16 12
REMARK SMILES IDX 18 13 2 14 1 15 6 16 7 17 8 18 15 19 9 21 11 22 10 23 13 24
REMARK SMILES IDX 14 25 12 27 26 29 27 30 28 31 29 32 30 33 31 34 32 35 33 36
REMARK SMILES IDX 34 37 95 38 35 39 94 40 36 41 37 42 38 43 88 44 39 45 93 46
REMARK SMILES IDX 87 47 89 48 40 49 92 50 86 51 85 52 41 54 73 55 53 56 72 57
REMARK SMILES IDX 54 58 57 59 71 60 90 61 55 62 56 63 70 65 91 66 58 67 42 68
REMARK SMILES IDX 43 69 51 70 44 71 45 72 49 73 52 74 46 75 47 76 50 77 48 78
REMARK SMILES IDX 74 79 75 80 83 81 76 82 77 83 81 84 84 85 78 86 79 87 82 88
REMARK SMILES IDX 80 89 59 90 60 91 68 92 61 93 62 94 66 95 69 96 63 97 64 98
REMARK SMILES IDX 67 99 65 100
REMARK H PARENT 7 20 14 26 12 28 89 53 57 64
REMARK Flexibility Score: inf
ROOT
ATOM      1  C   UNL A   1      39.168  21.991  26.369  1.00  0.00     0.261 C 
ENDROOT
BRANCH   1   2
ATOM      2  O   UNL A   1      38.237  22.217  25.280  1.00  0.00    -0.461 OA
BRANCH   2   3
ATOM      3  C   UNL A   1      37.121  21.425  25.303  1.00  0.00     0.344 C 
ATOM      4  O   UNL A   1      37.118  20.234  24.998  1.00  0.00    -0.248 OA
BRANCH   3   5
ATOM      5  C   UNL A   1      35.811  22.161  25.645  1.00  0.00     0.352 C 
BRANCH   5   6
ATOM      6  O   UNL A   1      34.569  21.969  25.016  1.00  0.00    -0.476 OA
BRANCH   6   7
ATOM      7  C   UNL A   1      33.418  22.631  25.344  1.00  0.00     0.180 A 
ATOM      8  C   UNL A   1      32.719  23.130  24.228  1.00  0.00     0.162 A 
ATOM      9  C   UNL A   1      31.760  24.143  24.350  1.00  0.00     0.060 A 
ATOM     10  C   UNL A   1      31.516  24.730  25.595  1.00  0.00     0.012 A 
ATOM     11  C   UNL A   1      32.928  22.995  26.599  1.00  0.00     0.087 A 
ATOM     12  C   UNL A   1      32.030  24.078  26.722  1.00  0.00     0.034 A 
ATOM     13  Cl  UNL A   1      33.297  22.158  28.063  1.00  0.00    -0.080 Cl
BRANCH   8  14
ATOM     14  O   UNL A   1      32.847  22.495  23.015  1.00  0.00    -0.493 OA
ATOM     15  C   UNL A   1      33.265  23.360  21.968  1.00  0.00     0.278 C 
ENDBRANCH   8  14
BRANCH  10  16
ATOM     16  C   UNL A   1      30.808  26.074  25.705  1.00  0.00     0.299 C 
BRANCH  16  17
ATOM     17  N   UNL A   1      31.665  27.110  25.158  1.00  0.00    -0.329 N 
ATOM     18  C   UNL A   1      32.850  27.556  25.863  1.00  0.00     0.262 C 
ATOM     19  C   UNL A   1      31.133  28.070  24.206  1.00  0.00     0.300 C 
ATOM     20  H   UNL A   1      32.064  26.382  24.565  1.00  0.00     0.348 HD
ATOM     21  C   UNL A   1      33.952  27.854  24.837  1.00  0.00     0.065 C 
ATOM     22  C   UNL A   1      32.169  28.292  23.079  1.00  0.00     0.136 C 
ATOM     23  C   UNL A   1      33.501  28.764  23.692  1.00  0.00     0.049 C 
BRANCH  22  24
ATOM     24  C   UNL A   1      32.335  26.989  22.272  1.00  0.00     0.197 C 
BRANCH  24  25
ATOM     25  O   UNL A   1      31.343  26.875  21.252  1.00  0.00    -0.393 OA
ATOM     26  H   UNL A   1      30.808  26.080  21.407  1.00  0.00     0.210 HD
ENDBRANCH  24  25
ENDBRANCH  22  24
BRANCH  22  27
ATOM     27  O   UNL A   1      31.697  29.302  22.178  1.00  0.00    -0.382 OA
ATOM     28  H   UNL A   1      30.789  29.548  22.416  1.00  0.00     0.211 HD
ENDBRANCH  22  27
ENDBRANCH  16  17
ENDBRANCH  10  16
ENDBRANCH   6   7
ENDBRANCH   5   6
ENDBRANCH   3   5
ENDBRANCH   2   3
ENDBRANCH   1   2
BRANCH   1  29
ATOM     29  C   UNL A   1      40.390  21.111  26.044  1.00  0.00     0.202 C 
BRANCH  29  30
ATOM     30  O   UNL A   1      41.376  20.900  27.049  1.00  0.00    -0.374 OA
BRANCH  30  31
ATOM     31  C   UNL A   1      42.071  19.665  27.020  1.00  0.00     0.202 C 
BRANCH  31  32
ATOM     32  C   UNL A   1      42.603  19.170  25.675  1.00  0.00     0.261 C 
BRANCH  32  33
ATOM     33  O   UNL A   1      44.031  19.166  25.564  1.00  0.00    -0.460 OA
BRANCH  33  34
ATOM     34  C   UNL A   1      44.496  19.818  24.468  1.00  0.00     0.338 C 
ATOM     35  O   UNL A   1      44.560  19.404  23.326  1.00  0.00    -0.246 OA
BRANCH  34  36
ATOM     36  C   UNL A   1      44.822  21.206  24.820  1.00  0.00     0.060 A 
ATOM     37  C   UNL A   1      45.321  21.440  26.105  1.00  0.00     0.016 A 
ATOM     38  C   UNL A   1      44.576  22.262  23.941  1.00  0.00     0.016 A 
ATOM     39  C   UNL A   1      45.557  22.744  26.524  1.00  0.00     0.010 A 
ATOM     40  C   UNL A   1      44.811  23.570  24.362  1.00  0.00     0.010 A 
ATOM     41  C   UNL A   1      45.283  23.813  25.661  1.00  0.00    -0.014 A 
BRANCH  41  42
ATOM     42  C   UNL A   1      45.446  25.198  26.149  1.00  0.00     0.031 A 
ATOM     43  C   UNL A   1      46.797  25.843  26.107  1.00  0.00     0.074 A 
ATOM     44  C   UNL A   1      44.371  25.857  26.611  1.00  0.00     0.049 A 
ATOM     45  N   UNL A   1      47.152  27.044  26.484  1.00  0.00    -0.248 NA
ATOM     46  C   UNL A   1      47.900  25.028  25.571  1.00  0.00     0.031 C 
ATOM     47  C   UNL A   1      43.016  25.310  26.675  1.00  0.00     0.029 A 
ATOM     48  N   UNL A   1      44.249  27.122  27.122  1.00  0.00    -0.354 N 
ATOM     49  C   UNL A   1      48.512  27.132  26.224  1.00  0.00     0.074 A 
ATOM     50  C   UNL A   1      48.930  25.854  25.690  1.00  0.00     0.031 C 
ATOM     51  C   UNL A   1      42.198  26.232  27.208  1.00  0.00     0.029 A 
ATOM     52  C   UNL A   1      42.979  27.419  27.547  1.00  0.00     0.049 A 
ATOM     53  H   UNL A   1      45.000  27.757  27.177  1.00  0.00     0.167 HD
ATOM     54  C   UNL A   1      49.332  28.195  26.410  1.00  0.00     0.037 A 
ATOM     55  C   UNL A   1      42.510  28.520  28.163  1.00  0.00     0.037 A 
ATOM     56  C   UNL A   1      48.896  29.454  26.957  1.00  0.00     0.049 A 
ATOM     57  C   UNL A   1      43.458  29.658  28.424  1.00  0.00     0.074 A 
ATOM     58  C   UNL A   1      49.627  30.611  27.153  1.00  0.00     0.029 A 
ATOM     59  N   UNL A   1      47.609  29.709  27.412  1.00  0.00    -0.354 N 
ATOM     60  N   UNL A   1      44.729  29.760  28.120  1.00  0.00    -0.248 NA
ATOM     61  C   UNL A   1      42.910  30.833  29.114  1.00  0.00     0.031 C 
ATOM     62  C   UNL A   1      48.798  31.548  27.779  1.00  0.00     0.029 A 
ATOM     63  C   UNL A   1      47.535  30.993  27.927  1.00  0.00     0.049 A 
ATOM     64  H   UNL A   1      46.860  29.073  27.374  1.00  0.00     0.167 HD
ATOM     65  C   UNL A   1      45.131  31.011  28.566  1.00  0.00     0.074 A 
ATOM     66  C   UNL A   1      43.961  31.641  29.145  1.00  0.00     0.031 C 
ATOM     67  C   UNL A   1      46.357  31.588  28.505  1.00  0.00     0.037 A 
BRANCH  54  68
ATOM     68  C   UNL A   1      50.778  28.035  26.043  1.00  0.00     0.064 A 
ATOM     69  C   UNL A   1      51.226  28.191  24.722  1.00  0.00     0.173 A 
ATOM     70  C   UNL A   1      51.737  27.759  27.029  1.00  0.00     0.173 A 
ATOM     71  F   UNL A   1      50.349  28.446  23.738  1.00  0.00    -0.203 F 
ATOM     72  C   UNL A   1      52.574  28.055  24.400  1.00  0.00     0.198 A 
ATOM     73  C   UNL A   1      53.088  27.648  26.708  1.00  0.00     0.198 A 
ATOM     74  F   UNL A   1      51.365  27.604  28.309  1.00  0.00    -0.203 F 
ATOM     75  F   UNL A   1      52.972  28.169  23.125  1.00  0.00    -0.200 F 
ATOM     76  C   UNL A   1      53.504  27.790  25.393  1.00  0.00     0.200 A 
ATOM     77  F   UNL A   1      53.986  27.405  27.672  1.00  0.00    -0.200 F 
ATOM     78  F   UNL A   1      54.802  27.666  25.083  1.00  0.00    -0.200 F 
ENDBRANCH  54  68
BRANCH  55  79
ATOM     79  C   UNL A   1      41.086  28.584  28.579  1.00  0.00     0.064 A 
ATOM     80  C   UNL A   1      40.095  29.049  27.704  1.00  0.00     0.173 A 
ATOM     81  C   UNL A   1      40.683  28.163  29.856  1.00  0.00     0.173 A 
ATOM     82  F   UNL A   1      40.432  29.479  26.479  1.00  0.00    -0.203 F 
ATOM     83  C   UNL A   1      38.758  29.102  28.094  1.00  0.00     0.198 A 
ATOM     84  C   UNL A   1      39.343  28.191  30.235  1.00  0.00     0.198 A 
ATOM     85  F   UNL A   1      41.592  27.705  30.730  1.00  0.00    -0.203 F 
ATOM     86  F   UNL A   1      37.836  29.583  27.250  1.00  0.00    -0.200 F 
ATOM     87  C   UNL A   1      38.382  28.666  29.355  1.00  0.00     0.200 A 
ATOM     88  F   UNL A   1      38.983  27.752  31.449  1.00  0.00    -0.200 F 
ATOM     89  F   UNL A   1      37.095  28.707  29.726  1.00  0.00    -0.200 F 
ENDBRANCH  55  79
BRANCH  67  90
ATOM     90  C   UNL A   1      46.490  32.968  29.078  1.00  0.00     0.064 A 
ATOM     91  C   UNL A   1      46.227  34.107  28.305  1.00  0.00     0.173 A 
ATOM     92  C   UNL A   1      46.828  33.149  30.427  1.00  0.00     0.173 A 
ATOM     93  F   UNL A   1      45.917  33.983  27.005  1.00  0.00    -0.203 F 
ATOM     94  C   UNL A   1      46.313  35.380  28.858  1.00  0.00     0.198 A 
ATOM     95  C   UNL A   1      46.884  34.423  30.984  1.00  0.00     0.198 A 
ATOM     96  F   UNL A   1      47.083  32.089  31.209  1.00  0.00    -0.203 F 
ATOM     97  F   UNL A   1      46.096  36.458  28.091  1.00  0.00    -0.200 F 
ATOM     98  C   UNL A   1      46.632  35.537  30.199  1.00  0.00     0.200 A 
ATOM     99  F   UNL A   1      47.180  34.573  32.284  1.00  0.00    -0.200 F 
ATOM    100  F   UNL A   1      46.702  36.764  30.733  1.00  0.00    -0.200 F 
ENDBRANCH  67  90
ENDBRANCH  41  42
ENDBRANCH  34  36
ENDBRANCH  33  34
ENDBRANCH  32  33
ENDBRANCH  31  32
ENDBRANCH  30  31
ENDBRANCH  29  30
ENDBRANCH   1  29
TORSDOF 22
ENDMDL
