MODEL 1
REMARK VINA RESULT:     -12.3      0.000      0.000
REMARK SMILES Cc1ccc(NC(=O)C[C@H]2SC[C@H](C(=O)OCCOCCOC(=O)c3ccc(-c4c5nc(c(-c6c(F)c(F)c(F)c(F)c6F)c6ccc([nH]6)c(-c6c(F)c(F)c(F)c(F)c6F)c6nc(c(-c7c(F)c(F)c(F)c(F)c7F)c7ccc4[nH]7)C=C6)C=C5)cc3)NC2=O)cc1
REMARK SMILES IDX 18 1 17 2 16 3 14 4 15 5 13 6 10 7 11 8 89 9 12 10 88 11
REMARK SMILES IDX 90 12 9 14 7 15 6 16 8 18 5 19 1 20 2 21 3 22 92 23 4 24
REMARK SMILES IDX 91 25 19 26 20 27 21 28 22 29 23 30 24 31 25 32 26 33 87 34
REMARK SMILES IDX 27 35 86 36 28 37 29 38 30 39 80 40 31 41 85 42 79 43 81 44
REMARK SMILES IDX 32 45 84 46 78 47 77 48 33 50 65 51 45 52 64 53 46 54 49 55
REMARK SMILES IDX 63 56 82 57 47 58 48 59 62 61 83 62 50 63 34 64 35 65 43 66
REMARK SMILES IDX 36 67 37 68 41 69 44 70 38 71 39 72 42 73 40 74 66 75 67 76
REMARK SMILES IDX 75 77 68 78 69 79 73 80 76 81 70 82 71 83 74 84 72 85 51 86
REMARK SMILES IDX 52 87 60 88 53 89 54 90 58 91 61 92 55 93 56 94 59 95 57 96
REMARK H PARENT 88 13 6 17 81 49 49 60
REMARK Flexibility Score: inf
ROOT
ATOM      1  C   UNL A   1      33.847  33.943  28.002  1.00  0.00     0.202 C 
ENDROOT
BRANCH   1   2
ATOM      2  C   UNL A   1      33.893  32.519  28.491  1.00  0.00     0.261 C 
BRANCH   2   3
ATOM      3  O   UNL A   1      33.929  31.613  27.381  1.00  0.00    -0.462 OA
BRANCH   3   4
ATOM      4  C   UNL A   1      32.727  31.144  26.926  1.00  0.00     0.329 C 
ATOM      5  O   UNL A   1      31.654  31.715  27.046  1.00  0.00    -0.250 OA
BRANCH   4   6
ATOM      6  C   UNL A   1      32.886  29.740  26.384  1.00  0.00     0.202 C 
ATOM      7  C   UNL A   1      31.674  27.774  24.487  1.00  0.00     0.145 C 
ATOM      8  S   UNL A   1      31.832  27.184  26.221  1.00  0.00    -0.145 SA
ATOM      9  C   UNL A   1      32.859  28.691  24.146  1.00  0.00     0.234 C 
ATOM     10  C   UNL A   1      31.808  28.827  26.974  1.00  0.00     0.107 C 
ATOM     11  N   UNL A   1      32.997  29.805  24.936  1.00  0.00    -0.341 N 
ATOM     12  O   UNL A   1      33.620  28.561  23.194  1.00  0.00    -0.274 OA
ATOM     13  H   UNL A   1      33.175  30.674  24.508  1.00  0.00     0.164 HD
BRANCH   7  14
ATOM     14  C   UNL A   1      31.382  26.599  23.562  1.00  0.00     0.124 C 
BRANCH  14  15
ATOM     15  C   UNL A   1      30.101  25.847  23.829  1.00  0.00     0.226 C 
ATOM     16  N   UNL A   1      30.075  24.541  24.210  1.00  0.00    -0.326 N 
ATOM     17  H   UNL A   1      29.191  24.258  24.535  1.00  0.00     0.169 HD
ATOM     18  O   UNL A   1      29.022  26.441  23.734  1.00  0.00    -0.275 OA
BRANCH  16  19
ATOM     19  C   UNL A   1      31.022  23.508  24.244  1.00  0.00     0.041 A 
ATOM     20  C   UNL A   1      33.665  20.108  24.591  1.00  0.00     0.044 C 
ATOM     21  C   UNL A   1      32.776  21.312  24.492  1.00  0.00    -0.051 A 
ATOM     22  C   UNL A   1      32.659  22.005  23.282  1.00  0.00     0.005 A 
ATOM     23  C   UNL A   1      32.021  21.738  25.585  1.00  0.00     0.005 A 
ATOM     24  C   UNL A   1      31.780  23.089  23.154  1.00  0.00     0.026 A 
ATOM     25  C   UNL A   1      31.148  22.820  25.458  1.00  0.00     0.026 A 
ENDBRANCH  16  19
ENDBRANCH  14  15
ENDBRANCH   7  14
ENDBRANCH   4   6
ENDBRANCH   3   4
ENDBRANCH   2   3
ENDBRANCH   1   2
BRANCH   1  26
ATOM     26  O   UNL A   1      32.864  34.588  28.800  1.00  0.00    -0.374 OA
BRANCH  26  27
ATOM     27  C   UNL A   1      33.164  35.904  29.226  1.00  0.00     0.202 C 
BRANCH  27  28
ATOM     28  C   UNL A   1      32.778  36.190  30.684  1.00  0.00     0.261 C 
BRANCH  28  29
ATOM     29  O   UNL A   1      33.014  35.011  31.482  1.00  0.00    -0.460 OA
BRANCH  29  30
ATOM     30  C   UNL A   1      34.153  35.006  32.225  1.00  0.00     0.338 C 
ATOM     31  O   UNL A   1      34.555  35.934  32.913  1.00  0.00    -0.246 OA
BRANCH  30  32
ATOM     32  C   UNL A   1      34.997  33.839  31.834  1.00  0.00     0.060 A 
ATOM     33  C   UNL A   1      34.914  32.632  32.557  1.00  0.00     0.016 A 
ATOM     34  C   UNL A   1      36.073  34.058  30.977  1.00  0.00     0.016 A 
ATOM     35  C   UNL A   1      35.977  31.714  32.529  1.00  0.00     0.010 A 
ATOM     36  C   UNL A   1      37.154  33.202  31.029  1.00  0.00     0.010 A 
ATOM     37  C   UNL A   1      37.134  32.040  31.822  1.00  0.00    -0.014 A 
BRANCH  37  38
ATOM     38  C   UNL A   1      38.426  31.347  31.899  1.00  0.00     0.031 A 
ATOM     39  C   UNL A   1      38.628  30.128  31.079  1.00  0.00     0.074 A 
ATOM     40  C   UNL A   1      39.513  31.955  32.437  1.00  0.00     0.049 A 
ATOM     41  N   UNL A   1      39.672  29.377  31.154  1.00  0.00    -0.248 NA
ATOM     42  C   UNL A   1      37.647  29.613  30.128  1.00  0.00     0.031 C 
ATOM     43  C   UNL A   1      40.922  31.718  32.103  1.00  0.00     0.029 A 
ATOM     44  N   UNL A   1      39.593  32.961  33.414  1.00  0.00    -0.354 N 
ATOM     45  C   UNL A   1      39.682  28.553  30.055  1.00  0.00     0.074 A 
ATOM     46  C   UNL A   1      38.335  28.623  29.551  1.00  0.00     0.031 C 
ATOM     47  C   UNL A   1      41.708  32.300  33.024  1.00  0.00     0.029 A 
ATOM     48  C   UNL A   1      40.836  32.821  34.057  1.00  0.00     0.049 A 
ATOM     49  H   UNL A   1      38.905  33.638  33.611  1.00  0.00     0.167 HD
ATOM     50  C   UNL A   1      40.882  28.039  29.652  1.00  0.00     0.037 A 
ATOM     51  C   UNL A   1      40.915  32.579  35.392  1.00  0.00     0.037 A 
ATOM     52  C   UNL A   1      41.927  28.335  30.654  1.00  0.00     0.049 A 
ATOM     53  C   UNL A   1      41.555  31.243  35.620  1.00  0.00     0.074 A 
ATOM     54  C   UNL A   1      43.050  29.146  30.661  1.00  0.00     0.029 A 
ATOM     55  N   UNL A   1      41.722  27.956  31.986  1.00  0.00    -0.354 N 
ATOM     56  N   UNL A   1      41.583  30.322  34.695  1.00  0.00    -0.248 NA
ATOM     57  C   UNL A   1      42.285  30.855  36.820  1.00  0.00     0.031 C 
ATOM     58  C   UNL A   1      43.480  29.295  32.011  1.00  0.00     0.029 A 
ATOM     59  C   UNL A   1      42.643  28.552  32.829  1.00  0.00     0.049 A 
ATOM     60  H   UNL A   1      41.013  27.343  32.286  1.00  0.00     0.167 HD
ATOM     61  C   UNL A   1      42.380  29.296  35.094  1.00  0.00     0.074 A 
ATOM     62  C   UNL A   1      42.765  29.653  36.449  1.00  0.00     0.031 C 
ATOM     63  C   UNL A   1      42.670  28.255  34.261  1.00  0.00     0.037 A 
BRANCH  50  64
ATOM     64  C   UNL A   1      41.189  27.435  28.280  1.00  0.00     0.064 A 
ATOM     65  C   UNL A   1      40.823  26.097  27.989  1.00  0.00     0.173 A 
ATOM     66  C   UNL A   1      41.889  28.067  27.227  1.00  0.00     0.173 A 
ATOM     67  F   UNL A   1      40.144  25.352  28.871  1.00  0.00    -0.203 F 
ATOM     68  C   UNL A   1      41.144  25.462  26.781  1.00  0.00     0.198 A 
ATOM     69  C   UNL A   1      42.185  27.440  26.010  1.00  0.00     0.198 A 
ATOM     70  F   UNL A   1      42.348  29.314  27.311  1.00  0.00    -0.203 F 
ATOM     71  F   UNL A   1      40.795  24.181  26.589  1.00  0.00    -0.200 F 
ATOM     72  C   UNL A   1      41.821  26.135  25.788  1.00  0.00     0.200 A 
ATOM     73  F   UNL A   1      42.843  28.124  25.061  1.00  0.00    -0.200 F 
ATOM     74  F   UNL A   1      42.122  25.534  24.629  1.00  0.00    -0.200 F 
ENDBRANCH  50  64
BRANCH  51  75
ATOM     75  C   UNL A   1      39.836  33.272  36.148  1.00  0.00     0.064 A 
ATOM     76  C   UNL A   1      38.806  32.448  36.657  1.00  0.00     0.173 A 
ATOM     77  C   UNL A   1      40.055  34.494  36.798  1.00  0.00     0.173 A 
ATOM     78  F   UNL A   1      38.577  31.245  36.106  1.00  0.00    -0.203 F 
ATOM     79  C   UNL A   1      38.129  32.765  37.833  1.00  0.00     0.198 A 
ATOM     80  C   UNL A   1      39.376  34.806  37.984  1.00  0.00     0.198 A 
ATOM     81  F   UNL A   1      41.030  35.315  36.383  1.00  0.00    -0.203 F 
ATOM     82  F   UNL A   1      37.286  31.875  38.379  1.00  0.00    -0.200 F 
ATOM     83  C   UNL A   1      38.443  33.926  38.516  1.00  0.00     0.200 A 
ATOM     84  F   UNL A   1      39.708  35.905  38.676  1.00  0.00    -0.200 F 
ATOM     85  F   UNL A   1      37.916  34.150  39.730  1.00  0.00    -0.200 F 
ENDBRANCH  51  75
BRANCH  63  86
ATOM     86  C   UNL A   1      43.107  26.890  34.725  1.00  0.00     0.064 A 
ATOM     87  C   UNL A   1      42.211  25.869  35.086  1.00  0.00     0.173 A 
ATOM     88  C   UNL A   1      44.465  26.502  34.637  1.00  0.00     0.173 A 
ATOM     89  F   UNL A   1      40.885  26.060  35.081  1.00  0.00    -0.203 F 
ATOM     90  C   UNL A   1      42.645  24.581  35.400  1.00  0.00     0.198 A 
ATOM     91  C   UNL A   1      44.885  25.197  34.881  1.00  0.00     0.198 A 
ATOM     92  F   UNL A   1      45.426  27.363  34.270  1.00  0.00    -0.203 F 
ATOM     93  F   UNL A   1      41.751  23.659  35.784  1.00  0.00    -0.200 F 
ATOM     94  C   UNL A   1      43.978  24.242  35.283  1.00  0.00     0.200 A 
ATOM     95  F   UNL A   1      46.171  24.869  34.697  1.00  0.00    -0.200 F 
ATOM     96  F   UNL A   1      44.381  22.989  35.529  1.00  0.00    -0.200 F 
ENDBRANCH  63  86
ENDBRANCH  37  38
ENDBRANCH  30  32
ENDBRANCH  29  30
ENDBRANCH  28  29
ENDBRANCH  27  28
ENDBRANCH  26  27
ENDBRANCH   1  26
TORSDOF 17
ENDMDL
MODEL 2
REMARK VINA RESULT:     -12.3      1.424      2.514
REMARK SMILES Cc1ccc(NC(=O)C[C@H]2SC[C@H](C(=O)OCCOCCOC(=O)c3ccc(-c4c5nc(c(-c6c(F)c(F)c(F)c(F)c6F)c6ccc([nH]6)c(-c6c(F)c(F)c(F)c(F)c6F)c6nc(c(-c7c(F)c(F)c(F)c(F)c7F)c7ccc4[nH]7)C=C6)C=C5)cc3)NC2=O)cc1
REMARK SMILES IDX 18 1 17 2 16 3 14 4 15 5 13 6 10 7 11 8 89 9 12 10 88 11
REMARK SMILES IDX 90 12 9 14 7 15 6 16 8 18 5 19 1 20 2 21 3 22 92 23 4 24
REMARK SMILES IDX 91 25 19 26 20 27 21 28 22 29 23 30 24 31 25 32 26 33 87 34
REMARK SMILES IDX 27 35 86 36 28 37 29 38 30 39 80 40 31 41 85 42 79 43 81 44
REMARK SMILES IDX 32 45 84 46 78 47 77 48 33 50 65 51 45 52 64 53 46 54 49 55
REMARK SMILES IDX 63 56 82 57 47 58 48 59 62 61 83 62 50 63 34 64 35 65 43 66
REMARK SMILES IDX 36 67 37 68 41 69 44 70 38 71 39 72 42 73 40 74 66 75 67 76
REMARK SMILES IDX 75 77 68 78 69 79 73 80 76 81 70 82 71 83 74 84 72 85 51 86
REMARK SMILES IDX 52 87 60 88 53 89 54 90 58 91 61 92 55 93 56 94 59 95 57 96
REMARK H PARENT 88 13 6 17 81 49 49 60
REMARK Flexibility Score: inf
ROOT
ATOM      1  C   UNL A   1      33.853  34.063  28.238  1.00  0.00     0.202 C 
ENDROOT
BRANCH   1   2
ATOM      2  C   UNL A   1      33.837  32.625  28.684  1.00  0.00     0.261 C 
BRANCH   2   3
ATOM      3  O   UNL A   1      33.998  31.754  27.556  1.00  0.00    -0.462 OA
BRANCH   3   4
ATOM      4  C   UNL A   1      32.857  31.253  26.992  1.00  0.00     0.329 C 
ATOM      5  O   UNL A   1      31.801  31.858  26.877  1.00  0.00    -0.250 OA
BRANCH   4   6
ATOM      6  C   UNL A   1      33.036  29.787  26.665  1.00  0.00     0.202 C 
ATOM      7  C   UNL A   1      31.941  27.579  24.974  1.00  0.00     0.145 C 
ATOM      8  S   UNL A   1      31.960  27.237  26.780  1.00  0.00    -0.145 SA
ATOM      9  C   UNL A   1      33.162  28.435  24.600  1.00  0.00     0.234 C 
ATOM     10  C   UNL A   1      31.904  28.969  27.292  1.00  0.00     0.107 C 
ATOM     11  N   UNL A   1      33.256  29.648  25.235  1.00  0.00    -0.341 N 
ATOM     12  O   UNL A   1      33.991  28.169  23.737  1.00  0.00    -0.274 OA
ATOM     13  H   UNL A   1      33.479  30.447  24.705  1.00  0.00     0.164 HD
BRANCH   7  14
ATOM     14  C   UNL A   1      31.703  26.287  24.201  1.00  0.00     0.124 C 
BRANCH  14  15
ATOM     15  C   UNL A   1      31.795  26.387  22.699  1.00  0.00     0.226 C 
ATOM     16  N   UNL A   1      31.213  27.389  21.986  1.00  0.00    -0.326 N 
ATOM     17  H   UNL A   1      31.528  27.424  21.054  1.00  0.00     0.169 HD
ATOM     18  O   UNL A   1      32.453  25.546  22.078  1.00  0.00    -0.275 OA
BRANCH  16  19
ATOM     19  C   UNL A   1      30.267  28.381  22.277  1.00  0.00     0.041 A 
ATOM     20  C   UNL A   1      27.258  31.220  23.523  1.00  0.00     0.044 C 
ATOM     21  C   UNL A   1      28.278  30.225  23.055  1.00  0.00    -0.051 A 
ATOM     22  C   UNL A   1      29.477  30.662  22.479  1.00  0.00     0.005 A 
ATOM     23  C   UNL A   1      28.074  28.855  23.223  1.00  0.00     0.005 A 
ATOM     24  C   UNL A   1      30.469  29.748  22.102  1.00  0.00     0.026 A 
ATOM     25  C   UNL A   1      29.062  27.945  22.843  1.00  0.00     0.026 A 
ENDBRANCH  16  19
ENDBRANCH  14  15
ENDBRANCH   7  14
ENDBRANCH   4   6
ENDBRANCH   3   4
ENDBRANCH   2   3
ENDBRANCH   1   2
BRANCH   1  26
ATOM     26  O   UNL A   1      32.901  34.726  29.059  1.00  0.00    -0.374 OA
BRANCH  26  27
ATOM     27  C   UNL A   1      33.228  36.043  29.463  1.00  0.00     0.202 C 
BRANCH  27  28
ATOM     28  C   UNL A   1      32.711  36.411  30.861  1.00  0.00     0.261 C 
BRANCH  28  29
ATOM     29  O   UNL A   1      32.918  35.299  31.756  1.00  0.00    -0.460 OA
BRANCH  29  30
ATOM     30  C   UNL A   1      34.091  35.289  32.444  1.00  0.00     0.338 C 
ATOM     31  O   UNL A   1      34.557  36.236  33.063  1.00  0.00    -0.246 OA
BRANCH  30  32
ATOM     32  C   UNL A   1      34.875  34.075  32.075  1.00  0.00     0.060 A 
ATOM     33  C   UNL A   1      34.817  32.922  32.884  1.00  0.00     0.016 A 
ATOM     34  C   UNL A   1      35.890  34.204  31.129  1.00  0.00     0.016 A 
ATOM     35  C   UNL A   1      35.852  31.974  32.842  1.00  0.00     0.010 A 
ATOM     36  C   UNL A   1      36.950  33.322  31.162  1.00  0.00     0.010 A 
ATOM     37  C   UNL A   1      36.960  32.217  32.033  1.00  0.00    -0.014 A 
BRANCH  37  38
ATOM     38  C   UNL A   1      38.237  31.492  32.064  1.00  0.00     0.031 A 
ATOM     39  C   UNL A   1      38.381  30.269  31.237  1.00  0.00     0.074 A 
ATOM     40  C   UNL A   1      39.357  32.074  32.562  1.00  0.00     0.049 A 
ATOM     41  N   UNL A   1      39.408  29.494  31.275  1.00  0.00    -0.248 NA
ATOM     42  C   UNL A   1      37.354  29.779  30.321  1.00  0.00     0.031 C 
ATOM     43  C   UNL A   1      40.748  31.804  32.179  1.00  0.00     0.029 A 
ATOM     44  N   UNL A   1      39.496  33.077  33.536  1.00  0.00    -0.354 N 
ATOM     45  C   UNL A   1      39.359  28.670  30.177  1.00  0.00     0.074 A 
ATOM     46  C   UNL A   1      37.997  28.773  29.721  1.00  0.00     0.031 C 
ATOM     47  C   UNL A   1      41.579  32.366  33.070  1.00  0.00     0.029 A 
ATOM     48  C   UNL A   1      40.758  32.907  34.134  1.00  0.00     0.049 A 
ATOM     49  H   UNL A   1      38.833  33.770  33.757  1.00  0.00     0.167 HD
ATOM     50  C   UNL A   1      40.531  28.128  29.731  1.00  0.00     0.037 A 
ATOM     51  C   UNL A   1      40.879  32.663  35.465  1.00  0.00     0.037 A 
ATOM     52  C   UNL A   1      41.619  28.398  30.695  1.00  0.00     0.049 A 
ATOM     53  C   UNL A   1      41.494  31.311  35.671  1.00  0.00     0.074 A 
ATOM     54  C   UNL A   1      42.760  29.181  30.662  1.00  0.00     0.029 A 
ATOM     55  N   UNL A   1      41.452  28.024  32.034  1.00  0.00    -0.354 N 
ATOM     56  N   UNL A   1      41.467  30.390  34.746  1.00  0.00    -0.248 NA
ATOM     57  C   UNL A   1      42.256  30.905  36.844  1.00  0.00     0.031 C 
ATOM     58  C   UNL A   1      43.242  29.320  31.995  1.00  0.00     0.029 A 
ATOM     59  C   UNL A   1      42.416  28.596  32.843  1.00  0.00     0.049 A 
ATOM     60  H   UNL A   1      40.740  27.428  32.360  1.00  0.00     0.167 HD
ATOM     61  C   UNL A   1      42.252  29.346  35.116  1.00  0.00     0.074 A 
ATOM     62  C   UNL A   1      42.694  29.692  36.457  1.00  0.00     0.031 C 
ATOM     63  C   UNL A   1      42.488  28.298  34.274  1.00  0.00     0.037 A 
BRANCH  50  64
ATOM     64  C   UNL A   1      40.775  27.517  28.350  1.00  0.00     0.064 A 
ATOM     65  C   UNL A   1      40.353  26.195  28.068  1.00  0.00     0.173 A 
ATOM     66  C   UNL A   1      41.464  28.127  27.277  1.00  0.00     0.173 A 
ATOM     67  F   UNL A   1      39.675  25.471  28.969  1.00  0.00    -0.203 F 
ATOM     68  C   UNL A   1      40.614  25.551  26.849  1.00  0.00     0.198 A 
ATOM     69  C   UNL A   1      41.700  27.494  26.050  1.00  0.00     0.198 A 
ATOM     70  F   UNL A   1      41.970  29.357  27.349  1.00  0.00    -0.203 F 
ATOM     71  F   UNL A   1      40.214  24.285  26.665  1.00  0.00    -0.200 F 
ATOM     72  C   UNL A   1      41.283  26.203  25.837  1.00  0.00     0.200 A 
ATOM     73  F   UNL A   1      42.352  28.157  25.082  1.00  0.00    -0.200 F 
ATOM     74  F   UNL A   1      41.528  25.595  24.668  1.00  0.00    -0.200 F 
ENDBRANCH  50  64
BRANCH  51  75
ATOM     75  C   UNL A   1      39.844  33.381  36.259  1.00  0.00     0.064 A 
ATOM     76  C   UNL A   1      38.785  32.589  36.760  1.00  0.00     0.173 A 
ATOM     77  C   UNL A   1      40.129  34.571  36.941  1.00  0.00     0.173 A 
ATOM     78  F   UNL A   1      38.492  31.416  36.177  1.00  0.00    -0.203 F 
ATOM     79  C   UNL A   1      38.141  32.902  37.956  1.00  0.00     0.198 A 
ATOM     80  C   UNL A   1      39.483  34.877  38.147  1.00  0.00     0.198 A 
ATOM     81  F   UNL A   1      41.135  35.359  36.536  1.00  0.00    -0.203 F 
ATOM     82  F   UNL A   1      37.266  32.035  38.489  1.00  0.00    -0.200 F 
ATOM     83  C   UNL A   1      38.518  34.025  38.668  1.00  0.00     0.200 A 
ATOM     84  F   UNL A   1      39.876  35.939  38.867  1.00  0.00    -0.200 F 
ATOM     85  F   UNL A   1      38.020  34.236  39.897  1.00  0.00    -0.200 F 
ENDBRANCH  51  75
BRANCH  63  86
ATOM     86  C   UNL A   1      42.908  26.923  34.722  1.00  0.00     0.064 A 
ATOM     87  C   UNL A   1      42.001  25.925  35.122  1.00  0.00     0.173 A 
ATOM     88  C   UNL A   1      44.251  26.500  34.579  1.00  0.00     0.173 A 
ATOM     89  F   UNL A   1      40.682  26.151  35.172  1.00  0.00    -0.203 F 
ATOM     90  C   UNL A   1      42.414  24.627  35.421  1.00  0.00     0.198 A 
ATOM     91  C   UNL A   1      44.646  25.184  34.808  1.00  0.00     0.198 A 
ATOM     92  F   UNL A   1      45.217  27.334  34.170  1.00  0.00    -0.203 F 
ATOM     93  F   UNL A   1      41.513  23.730  35.844  1.00  0.00    -0.200 F 
ATOM     94  C   UNL A   1      43.731  24.253  35.249  1.00  0.00     0.200 A 
ATOM     95  F   UNL A   1      45.914  24.822  34.572  1.00  0.00    -0.200 F 
ATOM     96  F   UNL A   1      44.112  22.991  35.481  1.00  0.00    -0.200 F 
ENDBRANCH  63  86
ENDBRANCH  37  38
ENDBRANCH  30  32
ENDBRANCH  29  30
ENDBRANCH  28  29
ENDBRANCH  27  28
ENDBRANCH  26  27
ENDBRANCH   1  26
TORSDOF 17
ENDMDL
MODEL 3
REMARK VINA RESULT:     -12.0      1.104      1.698
REMARK SMILES Cc1ccc(NC(=O)C[C@H]2SC[C@H](C(=O)OCCOCCOC(=O)c3ccc(-c4c5nc(c(-c6c(F)c(F)c(F)c(F)c6F)c6ccc([nH]6)c(-c6c(F)c(F)c(F)c(F)c6F)c6nc(c(-c7c(F)c(F)c(F)c(F)c7F)c7ccc4[nH]7)C=C6)C=C5)cc3)NC2=O)cc1
REMARK SMILES IDX 18 1 17 2 16 3 14 4 15 5 13 6 10 7 11 8 89 9 12 10 88 11
REMARK SMILES IDX 90 12 9 14 7 15 6 16 8 18 5 19 1 20 2 21 3 22 92 23 4 24
REMARK SMILES IDX 91 25 19 26 20 27 21 28 22 29 23 30 24 31 25 32 26 33 87 34
REMARK SMILES IDX 27 35 86 36 28 37 29 38 30 39 80 40 31 41 85 42 79 43 81 44
REMARK SMILES IDX 32 45 84 46 78 47 77 48 33 50 65 51 45 52 64 53 46 54 49 55
REMARK SMILES IDX 63 56 82 57 47 58 48 59 62 61 83 62 50 63 34 64 35 65 43 66
REMARK SMILES IDX 36 67 37 68 41 69 44 70 38 71 39 72 42 73 40 74 66 75 67 76
REMARK SMILES IDX 75 77 68 78 69 79 73 80 76 81 70 82 71 83 74 84 72 85 51 86
REMARK SMILES IDX 52 87 60 88 53 89 54 90 58 91 61 92 55 93 56 94 59 95 57 96
REMARK H PARENT 88 13 6 17 81 49 49 60
REMARK Flexibility Score: inf
ROOT
ATOM      1  C   UNL A   1      33.253  33.914  28.011  1.00  0.00     0.202 C 
ENDROOT
BRANCH   1   2
ATOM      2  C   UNL A   1      34.158  32.711  28.021  1.00  0.00     0.261 C 
BRANCH   2   3
ATOM      3  O   UNL A   1      33.387  31.508  27.900  1.00  0.00    -0.462 OA
BRANCH   3   4
ATOM      4  C   UNL A   1      34.048  30.390  27.471  1.00  0.00     0.329 C 
ATOM      5  O   UNL A   1      35.261  30.242  27.472  1.00  0.00    -0.250 OA
BRANCH   4   6
ATOM      6  C   UNL A   1      33.073  29.413  26.851  1.00  0.00     0.202 C 
ATOM      7  C   UNL A   1      32.729  27.537  24.549  1.00  0.00     0.145 C 
ATOM      8  S   UNL A   1      31.429  28.827  24.700  1.00  0.00    -0.145 SA
ATOM      9  C   UNL A   1      33.200  27.115  25.950  1.00  0.00     0.234 C 
ATOM     10  C   UNL A   1      32.458  30.019  25.586  1.00  0.00     0.107 C 
ATOM     11  N   UNL A   1      33.719  28.116  26.731  1.00  0.00    -0.341 N 
ATOM     12  O   UNL A   1      33.231  25.969  26.384  1.00  0.00    -0.274 OA
ATOM     13  H   UNL A   1      34.555  27.951  27.225  1.00  0.00     0.164 HD
BRANCH   7  14
ATOM     14  C   UNL A   1      32.276  26.450  23.583  1.00  0.00     0.124 C 
BRANCH  14  15
ATOM     15  C   UNL A   1      33.263  26.064  22.508  1.00  0.00     0.226 C 
ATOM     16  N   UNL A   1      33.670  24.783  22.302  1.00  0.00    -0.326 N 
ATOM     17  H   UNL A   1      34.150  24.669  21.451  1.00  0.00     0.169 HD
ATOM     18  O   UNL A   1      33.704  26.937  21.753  1.00  0.00    -0.275 OA
BRANCH  16  19
ATOM     19  C   UNL A   1      33.560  23.587  23.026  1.00  0.00     0.041 A 
ATOM     20  C   UNL A   1      33.142  19.712  24.888  1.00  0.00     0.044 C 
ATOM     21  C   UNL A   1      33.252  21.071  24.264  1.00  0.00    -0.051 A 
ATOM     22  C   UNL A   1      34.235  21.968  24.696  1.00  0.00     0.005 A 
ATOM     23  C   UNL A   1      32.411  21.449  23.218  1.00  0.00     0.005 A 
ATOM     24  C   UNL A   1      34.396  23.214  24.075  1.00  0.00     0.026 A 
ATOM     25  C   UNL A   1      32.569  22.693  22.602  1.00  0.00     0.026 A 
ENDBRANCH  16  19
ENDBRANCH  14  15
ENDBRANCH   7  14
ENDBRANCH   4   6
ENDBRANCH   3   4
ENDBRANCH   2   3
ENDBRANCH   1   2
BRANCH   1  26
ATOM     26  O   UNL A   1      33.870  34.861  28.874  1.00  0.00    -0.374 OA
BRANCH  26  27
ATOM     27  C   UNL A   1      33.094  35.993  29.222  1.00  0.00     0.202 C 
BRANCH  27  28
ATOM     28  C   UNL A   1      32.928  36.193  30.735  1.00  0.00     0.261 C 
BRANCH  28  29
ATOM     29  O   UNL A   1      33.292  34.976  31.421  1.00  0.00    -0.460 OA
BRANCH  29  30
ATOM     30  C   UNL A   1      34.440  35.015  32.147  1.00  0.00     0.338 C 
ATOM     31  O   UNL A   1      34.853  35.985  32.769  1.00  0.00    -0.246 OA
BRANCH  30  32
ATOM     32  C   UNL A   1      35.277  33.824  31.821  1.00  0.00     0.060 A 
ATOM     33  C   UNL A   1      35.192  32.661  32.614  1.00  0.00     0.016 A 
ATOM     34  C   UNL A   1      36.350  33.987  30.948  1.00  0.00     0.016 A 
ATOM     35  C   UNL A   1      36.250  31.738  32.635  1.00  0.00     0.010 A 
ATOM     36  C   UNL A   1      37.426  33.130  31.045  1.00  0.00     0.010 A 
ATOM     37  C   UNL A   1      37.405  32.016  31.905  1.00  0.00    -0.014 A 
BRANCH  37  38
ATOM     38  C   UNL A   1      38.694  31.322  32.016  1.00  0.00     0.031 A 
ATOM     39  C   UNL A   1      38.913  30.097  31.208  1.00  0.00     0.074 A 
ATOM     40  C   UNL A   1      39.769  31.932  32.575  1.00  0.00     0.049 A 
ATOM     41  N   UNL A   1      39.954  29.346  31.312  1.00  0.00    -0.248 NA
ATOM     42  C   UNL A   1      37.954  29.577  30.238  1.00  0.00     0.031 C 
ATOM     43  C   UNL A   1      41.185  31.692  32.275  1.00  0.00     0.029 A 
ATOM     44  N   UNL A   1      39.827  32.944  33.547  1.00  0.00    -0.354 N 
ATOM     45  C   UNL A   1      39.988  28.514  30.219  1.00  0.00     0.074 A 
ATOM     46  C   UNL A   1      38.653  28.583  29.684  1.00  0.00     0.031 C 
ATOM     47  C   UNL A   1      41.950  32.278  33.210  1.00  0.00     0.029 A 
ATOM     48  C   UNL A   1      41.056  32.807  34.219  1.00  0.00     0.049 A 
ATOM     49  H   UNL A   1      39.137  33.623  33.724  1.00  0.00     0.167 HD
ATOM     50  C   UNL A   1      41.197  27.997  29.848  1.00  0.00     0.037 A 
ATOM     51  C   UNL A   1      41.103  32.574  35.557  1.00  0.00     0.037 A 
ATOM     52  C   UNL A   1      42.219  28.297  30.871  1.00  0.00     0.049 A 
ATOM     53  C   UNL A   1      41.736  31.239  35.809  1.00  0.00     0.074 A 
ATOM     54  C   UNL A   1      43.343  29.107  30.899  1.00  0.00     0.029 A 
ATOM     55  N   UNL A   1      41.983  27.928  32.201  1.00  0.00    -0.354 N 
ATOM     56  N   UNL A   1      41.784  30.312  34.891  1.00  0.00    -0.248 NA
ATOM     57  C   UNL A   1      42.437  30.858  37.027  1.00  0.00     0.031 C 
ATOM     58  C   UNL A   1      43.742  29.265  32.257  1.00  0.00     0.029 A 
ATOM     59  C   UNL A   1      42.885  28.528  33.061  1.00  0.00     0.049 A 
ATOM     60  H   UNL A   1      41.267  27.318  32.489  1.00  0.00     0.167 HD
ATOM     61  C   UNL A   1      42.570  29.288  35.314  1.00  0.00     0.074 A 
ATOM     62  C   UNL A   1      42.924  29.653  36.676  1.00  0.00     0.031 C 
ATOM     63  C   UNL A   1      42.879  28.241  34.496  1.00  0.00     0.037 A 
BRANCH  50  64
ATOM     64  C   UNL A   1      41.535  27.383  28.487  1.00  0.00     0.064 A 
ATOM     65  C   UNL A   1      41.635  28.204  27.337  1.00  0.00     0.173 A 
ATOM     66  C   UNL A   1      41.709  26.008  28.212  1.00  0.00     0.173 A 
ATOM     67  F   UNL A   1      41.506  29.535  27.416  1.00  0.00    -0.203 F 
ATOM     68  C   UNL A   1      41.865  27.694  26.050  1.00  0.00     0.198 A 
ATOM     69  C   UNL A   1      41.967  25.502  26.931  1.00  0.00     0.198 A 
ATOM     70  F   UNL A   1      41.622  25.067  29.150  1.00  0.00    -0.203 F 
ATOM     71  F   UNL A   1      41.913  28.529  25.002  1.00  0.00    -0.200 F 
ATOM     72  C   UNL A   1      42.037  26.343  25.848  1.00  0.00     0.200 A 
ATOM     73  F   UNL A   1      42.132  24.181  26.766  1.00  0.00    -0.200 F 
ATOM     74  F   UNL A   1      42.264  25.853  24.622  1.00  0.00    -0.200 F 
ENDBRANCH  50  64
BRANCH  51  75
ATOM     75  C   UNL A   1      40.008  33.273  36.284  1.00  0.00     0.064 A 
ATOM     76  C   UNL A   1      38.941  32.460  36.730  1.00  0.00     0.173 A 
ATOM     77  C   UNL A   1      40.225  34.475  36.970  1.00  0.00     0.173 A 
ATOM     78  F   UNL A   1      38.710  31.275  36.143  1.00  0.00    -0.203 F 
ATOM     79  C   UNL A   1      38.222  32.766  37.884  1.00  0.00     0.198 A 
ATOM     80  C   UNL A   1      39.503  34.775  38.133  1.00  0.00     0.198 A 
ATOM     81  F   UNL A   1      41.233  35.284  36.615  1.00  0.00    -0.203 F 
ATOM     82  F   UNL A   1      37.339  31.883  38.375  1.00  0.00    -0.200 F 
ATOM     83  C   UNL A   1      38.531  33.904  38.607  1.00  0.00     0.200 A 
ATOM     84  F   UNL A   1      39.828  35.852  38.864  1.00  0.00    -0.200 F 
ATOM     85  F   UNL A   1      37.958  34.113  39.802  1.00  0.00    -0.200 F 
ENDBRANCH  51  75
BRANCH  63  86
ATOM     86  C   UNL A   1      43.303  26.878  34.978  1.00  0.00     0.064 A 
ATOM     87  C   UNL A   1      42.414  25.802  35.146  1.00  0.00     0.173 A 
ATOM     88  C   UNL A   1      44.675  26.557  35.107  1.00  0.00     0.173 A 
ATOM     89  F   UNL A   1      41.099  25.932  34.925  1.00  0.00    -0.203 F 
ATOM     90  C   UNL A   1      42.856  24.523  35.484  1.00  0.00     0.198 A 
ATOM     91  C   UNL A   1      45.116  25.263  35.373  1.00  0.00     0.198 A 
ATOM     92  F   UNL A   1      45.637  27.476  34.938  1.00  0.00    -0.203 F 
ATOM     93  F   UNL A   1      41.960  23.546  35.679  1.00  0.00    -0.200 F 
ATOM     94  C   UNL A   1      44.206  24.251  35.581  1.00  0.00     0.200 A 
ATOM     95  F   UNL A   1      46.430  25.002  35.397  1.00  0.00    -0.200 F 
ATOM     96  F   UNL A   1      44.627  23.008  35.847  1.00  0.00    -0.200 F 
ENDBRANCH  63  86
ENDBRANCH  37  38
ENDBRANCH  30  32
ENDBRANCH  29  30
ENDBRANCH  28  29
ENDBRANCH  27  28
ENDBRANCH  26  27
ENDBRANCH   1  26
TORSDOF 17
ENDMDL
