MODEL 1
REMARK VINA RESULT:     -10.6      0.000      0.000
REMARK SMILES CCCC1(CCC)C[NH+]([C@H]2CCC[C@@H](C(=O)OCCOCCOC(=O)c3ccc(-c4c5nc(c(-c6c(F)c(F)c(F)c(F)c6F)c6ccc([nH]6)c(-c6c(F)c(F)c(F)c(F)c6F)c6nc(c(-c7c(F)c(F)c(F)c(F)c7F)c7ccc4[nH]7)C=C6)C=C5)cc3)C2)C1
REMARK SMILES IDX 19 1 18 2 17 3 15 4 16 5 14 6 10 7 11 8 89 9 12 10 13 11
REMARK SMILES IDX 9 12 4 13 8 14 90 15 3 17 2 18 1 19 5 20 6 21 7 22 20 23
REMARK SMILES IDX 21 24 22 25 23 26 24 27 25 28 26 29 27 30 88 31 28 32 87 33
REMARK SMILES IDX 29 34 30 35 31 36 81 37 32 38 86 39 80 40 82 41 33 42 85 43
REMARK SMILES IDX 79 44 78 45 34 47 66 48 46 49 65 50 47 51 50 52 64 53 83 54
REMARK SMILES IDX 48 55 49 56 63 58 84 59 51 60 35 61 36 62 44 63 37 64 38 65
REMARK SMILES IDX 42 66 45 67 39 68 40 69 43 70 41 71 67 72 68 73 76 74 69 75
REMARK SMILES IDX 70 76 74 77 77 78 71 79 72 80 75 81 73 82 52 83 53 84 61 85
REMARK SMILES IDX 54 86 55 87 59 88 62 89 56 90 57 91 60 92 58 93
REMARK H PARENT 9 16 82 46 50 57
REMARK Flexibility Score: inf
ROOT
ATOM      1  C   UNL A   1      34.339  31.246  27.367  1.00  0.00     0.202 C 
ENDROOT
BRANCH   1   2
ATOM      2  C   UNL A   1      34.271  29.723  27.397  1.00  0.00     0.261 C 
BRANCH   2   3
ATOM      3  O   UNL A   1      34.290  29.177  26.077  1.00  0.00    -0.463 OA
BRANCH   3   4
ATOM      4  C   UNL A   1      33.106  28.632  25.722  1.00  0.00     0.309 C 
ATOM      5  O   UNL A   1      32.566  27.718  26.339  1.00  0.00    -0.252 OA
BRANCH   4   6
ATOM      6  C   UNL A   1      32.519  29.229  24.453  1.00  0.00     0.105 C 
ATOM      7  C   UNL A   1      32.401  27.189  22.882  1.00  0.00     0.184 C 
ATOM      8  C   UNL A   1      30.968  27.588  22.498  1.00  0.00     0.065 C 
ATOM      9  C   UNL A   1      33.127  28.502  23.250  1.00  0.00     0.080 C 
ATOM     10  C   UNL A   1      30.204  28.311  23.606  1.00  0.00     0.007 C 
ATOM     11  C   UNL A   1      30.992  29.402  24.335  1.00  0.00     0.016 C 
BRANCH   7  12
ATOM     12  N   UNL A   1      32.631  26.164  23.927  1.00  0.00    -0.331 N 
ATOM     13  C   UNL A   1      33.027  24.073  24.208  1.00  0.00     0.068 C 
ATOM     14  C   UNL A   1      33.795  25.298  23.591  1.00  0.00     0.275 C 
ATOM     15  C   UNL A   1      31.777  24.958  23.889  1.00  0.00     0.275 C 
ATOM     16  H   UNL A   1      32.592  26.770  24.747  1.00  0.00     0.348 HD
BRANCH  13  17
ATOM     17  C   UNL A   1      33.279  22.756  23.427  1.00  0.00     0.018 C 
BRANCH  17  18
ATOM     18  C   UNL A   1      32.254  21.636  23.610  1.00  0.00    -0.002 C 
ATOM     19  C   UNL A   1      32.867  20.319  24.057  1.00  0.00     0.004 C 
ENDBRANCH  17  18
ENDBRANCH  13  17
BRANCH  13  20
ATOM     20  C   UNL A   1      33.382  23.874  25.708  1.00  0.00     0.018 C 
BRANCH  20  21
ATOM     21  C   UNL A   1      34.712  23.162  25.977  1.00  0.00    -0.002 C 
ATOM     22  C   UNL A   1      34.703  21.949  26.886  1.00  0.00     0.004 C 
ENDBRANCH  20  21
ENDBRANCH  13  20
ENDBRANCH   7  12
ENDBRANCH   4   6
ENDBRANCH   3   4
ENDBRANCH   2   3
ENDBRANCH   1   2
BRANCH   1  23
ATOM     23  O   UNL A   1      33.595  31.975  28.346  1.00  0.00    -0.374 OA
BRANCH  23  24
ATOM     24  C   UNL A   1      34.088  33.269  28.697  1.00  0.00     0.202 C 
BRANCH  24  25
ATOM     25  C   UNL A   1      34.617  33.444  30.129  1.00  0.00     0.261 C 
BRANCH  25  26
ATOM     26  O   UNL A   1      34.528  32.237  30.901  1.00  0.00    -0.460 OA
BRANCH  26  27
ATOM     27  C   UNL A   1      35.514  32.093  31.827  1.00  0.00     0.338 C 
ATOM     28  O   UNL A   1      35.485  32.412  32.994  1.00  0.00    -0.246 OA
BRANCH  27  29
ATOM     29  C   UNL A   1      36.593  31.258  31.244  1.00  0.00     0.060 A 
ATOM     30  C   UNL A   1      37.506  30.680  32.138  1.00  0.00     0.016 A 
ATOM     31  C   UNL A   1      36.683  31.004  29.874  1.00  0.00     0.016 A 
ATOM     32  C   UNL A   1      38.546  29.886  31.660  1.00  0.00     0.010 A 
ATOM     33  C   UNL A   1      37.739  30.226  29.391  1.00  0.00     0.010 A 
ATOM     34  C   UNL A   1      38.695  29.698  30.280  1.00  0.00    -0.014 A 
BRANCH  34  35
ATOM     35  C   UNL A   1      39.979  29.179  29.757  1.00  0.00     0.031 A 
ATOM     36  C   UNL A   1      41.145  30.129  29.717  1.00  0.00     0.074 A 
ATOM     37  C   UNL A   1      40.117  27.906  29.353  1.00  0.00     0.049 A 
ATOM     38  N   UNL A   1      42.358  29.942  29.266  1.00  0.00    -0.248 NA
ATOM     39  C   UNL A   1      40.905  31.476  30.261  1.00  0.00     0.031 C 
ATOM     40  C   UNL A   1      39.071  26.886  29.388  1.00  0.00     0.029 A 
ATOM     41  N   UNL A   1      41.205  27.257  28.823  1.00  0.00    -0.354 N 
ATOM     42  C   UNL A   1      43.021  31.145  29.472  1.00  0.00     0.074 A 
ATOM     43  C   UNL A   1      42.073  32.064  30.058  1.00  0.00     0.031 C 
ATOM     44  C   UNL A   1      39.563  25.741  28.881  1.00  0.00     0.029 A 
ATOM     45  C   UNL A   1      40.948  25.957  28.463  1.00  0.00     0.049 A 
ATOM     46  H   UNL A   1      42.085  27.683  28.711  1.00  0.00     0.167 HD
ATOM     47  C   UNL A   1      44.311  31.451  29.205  1.00  0.00     0.037 A 
ATOM     48  C   UNL A   1      41.742  25.059  27.846  1.00  0.00     0.037 A 
ATOM     49  C   UNL A   1      45.248  30.538  28.611  1.00  0.00     0.049 A 
ATOM     50  C   UNL A   1      43.155  25.450  27.488  1.00  0.00     0.074 A 
ATOM     51  C   UNL A   1      46.577  30.749  28.294  1.00  0.00     0.029 A 
ATOM     52  N   UNL A   1      44.945  29.237  28.238  1.00  0.00    -0.354 N 
ATOM     53  N   UNL A   1      43.783  26.583  27.703  1.00  0.00    -0.248 NA
ATOM     54  C   UNL A   1      43.971  24.437  26.804  1.00  0.00     0.031 C 
ATOM     55  C   UNL A   1      47.068  29.587  27.687  1.00  0.00     0.029 A 
ATOM     56  C   UNL A   1      46.058  28.637  27.675  1.00  0.00     0.049 A 
ATOM     57  H   UNL A   1      44.068  28.804  28.358  1.00  0.00     0.167 HD
ATOM     58  C   UNL A   1      45.070  26.407  27.209  1.00  0.00     0.074 A 
ATOM     59  C   UNL A   1      45.139  25.056  26.696  1.00  0.00     0.031 C 
ATOM     60  C   UNL A   1      46.103  27.285  27.182  1.00  0.00     0.037 A 
BRANCH  47  61
ATOM     61  C   UNL A   1      44.770  32.842  29.530  1.00  0.00     0.064 A 
ATOM     62  C   UNL A   1      45.336  33.156  30.774  1.00  0.00     0.173 A 
ATOM     63  C   UNL A   1      44.658  33.867  28.579  1.00  0.00     0.173 A 
ATOM     64  F   UNL A   1      45.444  32.216  31.724  1.00  0.00    -0.203 F 
ATOM     65  C   UNL A   1      45.755  34.454  31.061  1.00  0.00     0.198 A 
ATOM     66  C   UNL A   1      45.103  35.155  28.861  1.00  0.00     0.198 A 
ATOM     67  F   UNL A   1      44.118  33.618  27.376  1.00  0.00    -0.203 F 
ATOM     68  F   UNL A   1      46.251  34.742  32.272  1.00  0.00    -0.200 F 
ATOM     69  C   UNL A   1      45.645  35.449  30.102  1.00  0.00     0.200 A 
ATOM     70  F   UNL A   1      45.002  36.115  27.930  1.00  0.00    -0.200 F 
ATOM     71  F   UNL A   1      46.055  36.695  30.378  1.00  0.00    -0.200 F 
ENDBRANCH  47  61
BRANCH  48  72
ATOM     72  C   UNL A   1      41.223  23.708  27.506  1.00  0.00     0.064 A 
ATOM     73  C   UNL A   1      41.777  22.552  28.076  1.00  0.00     0.173 A 
ATOM     74  C   UNL A   1      40.190  23.540  26.571  1.00  0.00     0.173 A 
ATOM     75  F   UNL A   1      42.787  22.656  28.951  1.00  0.00    -0.203 F 
ATOM     76  C   UNL A   1      41.332  21.283  27.708  1.00  0.00     0.198 A 
ATOM     77  C   UNL A   1      39.728  22.272  26.225  1.00  0.00     0.198 A 
ATOM     78  F   UNL A   1      39.630  24.611  25.990  1.00  0.00    -0.203 F 
ATOM     79  F   UNL A   1      41.918  20.194  28.226  1.00  0.00    -0.200 F 
ATOM     80  C   UNL A   1      40.306  21.143  26.786  1.00  0.00     0.200 A 
ATOM     81  F   UNL A   1      38.731  22.143  25.339  1.00  0.00    -0.200 F 
ATOM     82  F   UNL A   1      39.884  19.923  26.428  1.00  0.00    -0.200 F 
ENDBRANCH  48  72
BRANCH  60  83
ATOM     83  C   UNL A   1      47.406  26.800  26.614  1.00  0.00     0.064 A 
ATOM     84  C   UNL A   1      47.691  26.892  25.245  1.00  0.00     0.173 A 
ATOM     85  C   UNL A   1      48.399  26.284  27.462  1.00  0.00     0.173 A 
ATOM     86  F   UNL A   1      46.770  27.367  24.393  1.00  0.00    -0.203 F 
ATOM     87  C   UNL A   1      48.915  26.460  24.740  1.00  0.00     0.198 A 
ATOM     88  C   UNL A   1      49.632  25.883  26.957  1.00  0.00     0.198 A 
ATOM     89  F   UNL A   1      48.178  26.185  28.781  1.00  0.00    -0.203 F 
ATOM     90  F   UNL A   1      49.150  26.515  23.422  1.00  0.00    -0.200 F 
ATOM     91  C   UNL A   1      49.886  25.964  25.597  1.00  0.00     0.200 A 
ATOM     92  F   UNL A   1      50.575  25.417  27.788  1.00  0.00    -0.200 F 
ATOM     93  F   UNL A   1      51.067  25.557  25.110  1.00  0.00    -0.200 F 
ENDBRANCH  60  83
ENDBRANCH  34  35
ENDBRANCH  27  29
ENDBRANCH  26  27
ENDBRANCH  25  26
ENDBRANCH  24  25
ENDBRANCH  23  24
ENDBRANCH   1  23
TORSDOF 19
ENDMDL
MODEL 2
REMARK VINA RESULT:     -10.3      4.674      9.125
REMARK SMILES CCCC1(CCC)C[NH+]([C@H]2CCC[C@@H](C(=O)OCCOCCOC(=O)c3ccc(-c4c5nc(c(-c6c(F)c(F)c(F)c(F)c6F)c6ccc([nH]6)c(-c6c(F)c(F)c(F)c(F)c6F)c6nc(c(-c7c(F)c(F)c(F)c(F)c7F)c7ccc4[nH]7)C=C6)C=C5)cc3)C2)C1
REMARK SMILES IDX 19 1 18 2 17 3 15 4 16 5 14 6 10 7 11 8 89 9 12 10 13 11
REMARK SMILES IDX 9 12 4 13 8 14 90 15 3 17 2 18 1 19 5 20 6 21 7 22 20 23
REMARK SMILES IDX 21 24 22 25 23 26 24 27 25 28 26 29 27 30 88 31 28 32 87 33
REMARK SMILES IDX 29 34 30 35 31 36 81 37 32 38 86 39 80 40 82 41 33 42 85 43
REMARK SMILES IDX 79 44 78 45 34 47 66 48 46 49 65 50 47 51 50 52 64 53 83 54
REMARK SMILES IDX 48 55 49 56 63 58 84 59 51 60 35 61 36 62 44 63 37 64 38 65
REMARK SMILES IDX 42 66 45 67 39 68 40 69 43 70 41 71 67 72 68 73 76 74 69 75
REMARK SMILES IDX 70 76 74 77 77 78 71 79 72 80 75 81 73 82 52 83 53 84 61 85
REMARK SMILES IDX 54 86 55 87 59 88 62 89 56 90 57 91 60 92 58 93
REMARK H PARENT 9 16 82 46 50 57
REMARK Flexibility Score: inf
ROOT
ATOM      1  C   UNL A   1      33.605  29.127  25.867  1.00  0.00     0.202 C 
ENDROOT
BRANCH   1   2
ATOM      2  C   UNL A   1      33.923  28.231  24.675  1.00  0.00     0.261 C 
BRANCH   2   3
ATOM      3  O   UNL A   1      33.476  28.818  23.452  1.00  0.00    -0.463 OA
BRANCH   3   4
ATOM      4  C   UNL A   1      33.170  27.896  22.513  1.00  0.00     0.309 C 
ATOM      5  O   UNL A   1      34.012  27.261  21.884  1.00  0.00    -0.252 OA
BRANCH   4   6
ATOM      6  C   UNL A   1      31.676  27.747  22.273  1.00  0.00     0.105 C 
ATOM      7  C   UNL A   1      31.259  25.278  22.885  1.00  0.00     0.184 C 
ATOM      8  C   UNL A   1      30.035  25.707  23.709  1.00  0.00     0.065 C 
ATOM      9  C   UNL A   1      31.407  26.328  21.762  1.00  0.00     0.080 C 
ATOM     10  C   UNL A   1      30.151  27.103  24.317  1.00  0.00     0.007 C 
ATOM     11  C   UNL A   1      30.687  28.182  23.372  1.00  0.00     0.016 C 
BRANCH   7  12
ATOM     12  N   UNL A   1      32.562  25.053  23.552  1.00  0.00    -0.331 N 
ATOM     13  C   UNL A   1      33.811  23.516  24.383  1.00  0.00     0.068 C 
ATOM     14  C   UNL A   1      33.289  23.901  22.950  1.00  0.00     0.275 C 
ATOM     15  C   UNL A   1      32.544  24.317  24.835  1.00  0.00     0.275 C 
ATOM     16  H   UNL A   1      32.909  26.012  23.541  1.00  0.00     0.348 HD
BRANCH  13  17
ATOM     17  C   UNL A   1      33.889  21.981  24.597  1.00  0.00     0.018 C 
BRANCH  17  18
ATOM     18  C   UNL A   1      33.311  21.434  25.903  1.00  0.00    -0.002 C 
ATOM     19  C   UNL A   1      34.303  21.438  27.054  1.00  0.00     0.004 C 
ENDBRANCH  17  18
ENDBRANCH  13  17
BRANCH  13  20
ATOM     20  C   UNL A   1      35.193  24.162  24.679  1.00  0.00     0.018 C 
BRANCH  20  21
ATOM     21  C   UNL A   1      36.407  23.274  24.387  1.00  0.00    -0.002 C 
ATOM     22  C   UNL A   1      37.474  23.148  25.455  1.00  0.00     0.004 C 
ENDBRANCH  20  21
ENDBRANCH  13  20
ENDBRANCH   7  12
ENDBRANCH   4   6
ENDBRANCH   3   4
ENDBRANCH   2   3
ENDBRANCH   1   2
BRANCH   1  23
ATOM     23  O   UNL A   1      32.591  30.123  25.713  1.00  0.00    -0.374 OA
BRANCH  23  24
ATOM     24  C   UNL A   1      32.224  30.856  26.882  1.00  0.00     0.202 C 
BRANCH  24  25
ATOM     25  C   UNL A   1      33.344  31.635  27.590  1.00  0.00     0.261 C 
BRANCH  25  26
ATOM     26  O   UNL A   1      33.431  32.998  27.149  1.00  0.00    -0.460 OA
BRANCH  26  27
ATOM     27  C   UNL A   1      33.387  33.914  28.154  1.00  0.00     0.338 C 
ATOM     28  O   UNL A   1      32.527  34.738  28.366  1.00  0.00    -0.246 OA
BRANCH  27  29
ATOM     29  C   UNL A   1      34.468  33.607  29.122  1.00  0.00     0.060 A 
ATOM     30  C   UNL A   1      35.775  33.958  28.753  1.00  0.00     0.016 A 
ATOM     31  C   UNL A   1      34.212  33.041  30.373  1.00  0.00     0.016 A 
ATOM     32  C   UNL A   1      36.839  33.697  29.613  1.00  0.00     0.010 A 
ATOM     33  C   UNL A   1      35.281  32.758  31.227  1.00  0.00     0.010 A 
ATOM     34  C   UNL A   1      36.600  33.050  30.832  1.00  0.00    -0.014 A 
BRANCH  34  35
ATOM     35  C   UNL A   1      37.738  32.449  31.564  1.00  0.00     0.031 A 
ATOM     36  C   UNL A   1      38.440  31.284  30.919  1.00  0.00     0.074 A 
ATOM     37  C   UNL A   1      38.154  32.930  32.747  1.00  0.00     0.049 A 
ATOM     38  N   UNL A   1      39.428  30.553  31.366  1.00  0.00    -0.248 NA
ATOM     39  C   UNL A   1      37.956  30.892  29.585  1.00  0.00     0.031 C 
ATOM     40  C   UNL A   1      37.580  34.079  33.445  1.00  0.00     0.029 A 
ATOM     41  N   UNL A   1      39.158  32.497  33.577  1.00  0.00    -0.354 N 
ATOM     42  C   UNL A   1      39.679  29.620  30.370  1.00  0.00     0.074 A 
ATOM     43  C   UNL A   1      38.725  29.852  29.310  1.00  0.00     0.031 C 
ATOM     44  C   UNL A   1      38.232  34.249  34.610  1.00  0.00     0.029 A 
ATOM     45  C   UNL A   1      39.248  33.207  34.749  1.00  0.00     0.049 A 
ATOM     46  H   UNL A   1      39.759  31.749  33.352  1.00  0.00     0.167 HD
ATOM     47  C   UNL A   1      40.630  28.658  30.339  1.00  0.00     0.037 A 
ATOM     48  C   UNL A   1      40.048  33.013  35.816  1.00  0.00     0.037 A 
ATOM     49  C   UNL A   1      41.570  28.422  31.400  1.00  0.00     0.049 A 
ATOM     50  C   UNL A   1      41.050  31.884  35.789  1.00  0.00     0.074 A 
ATOM     51  C   UNL A   1      42.571  27.471  31.472  1.00  0.00     0.029 A 
ATOM     52  N   UNL A   1      41.614  29.145  32.582  1.00  0.00    -0.354 N 
ATOM     53  N   UNL A   1      41.298  31.016  34.836  1.00  0.00    -0.248 NA
ATOM     54  C   UNL A   1      41.886  31.711  36.986  1.00  0.00     0.031 C 
ATOM     55  C   UNL A   1      43.194  27.591  32.719  1.00  0.00     0.029 A 
ATOM     56  C   UNL A   1      42.614  28.649  33.400  1.00  0.00     0.049 A 
ATOM     57  H   UNL A   1      41.022  29.901  32.806  1.00  0.00     0.167 HD
ATOM     58  C   UNL A   1      42.333  30.217  35.306  1.00  0.00     0.074 A 
ATOM     59  C   UNL A   1      42.677  30.710  36.622  1.00  0.00     0.031 C 
ATOM     60  C   UNL A   1      42.945  29.167  34.703  1.00  0.00     0.037 A 
BRANCH  47  61
ATOM     61  C   UNL A   1      40.678  27.776  29.127  1.00  0.00     0.064 A 
ATOM     62  C   UNL A   1      39.852  26.649  29.005  1.00  0.00     0.173 A 
ATOM     63  C   UNL A   1      41.550  28.071  28.068  1.00  0.00     0.173 A 
ATOM     64  F   UNL A   1      39.017  26.312  30.000  1.00  0.00    -0.203 F 
ATOM     65  C   UNL A   1      39.910  25.838  27.873  1.00  0.00     0.198 A 
ATOM     66  C   UNL A   1      41.586  27.274  26.928  1.00  0.00     0.198 A 
ATOM     67  F   UNL A   1      42.365  29.134  28.139  1.00  0.00    -0.203 F 
ATOM     68  F   UNL A   1      39.144  24.742  27.798  1.00  0.00    -0.200 F 
ATOM     69  C   UNL A   1      40.771  26.156  26.834  1.00  0.00     0.200 A 
ATOM     70  F   UNL A   1      42.413  27.586  25.921  1.00  0.00    -0.200 F 
ATOM     71  F   UNL A   1      40.822  25.378  25.743  1.00  0.00    -0.200 F 
ENDBRANCH  47  61
BRANCH  48  72
ATOM     72  C   UNL A   1      39.929  33.889  37.012  1.00  0.00     0.064 A 
ATOM     73  C   UNL A   1      40.741  35.022  37.166  1.00  0.00     0.173 A 
ATOM     74  C   UNL A   1      39.029  33.589  38.046  1.00  0.00     0.173 A 
ATOM     75  F   UNL A   1      41.639  35.335  36.221  1.00  0.00    -0.203 F 
ATOM     76  C   UNL A   1      40.673  35.807  38.317  1.00  0.00     0.198 A 
ATOM     77  C   UNL A   1      38.942  34.390  39.183  1.00  0.00     0.198 A 
ATOM     78  F   UNL A   1      38.234  32.513  37.953  1.00  0.00    -0.203 F 
ATOM     79  F   UNL A   1      41.502  36.850  38.463  1.00  0.00    -0.200 F 
ATOM     80  C   UNL A   1      39.772  35.493  39.322  1.00  0.00     0.200 A 
ATOM     81  F   UNL A   1      38.064  34.087  40.148  1.00  0.00    -0.200 F 
ATOM     82  F   UNL A   1      39.711  36.244  40.431  1.00  0.00    -0.200 F 
ENDBRANCH  48  72
BRANCH  60  83
ATOM     83  C   UNL A   1      44.073  28.508  35.442  1.00  0.00     0.064 A 
ATOM     84  C   UNL A   1      43.854  27.424  36.303  1.00  0.00     0.173 A 
ATOM     85  C   UNL A   1      45.395  28.938  35.246  1.00  0.00     0.173 A 
ATOM     86  F   UNL A   1      42.607  26.984  36.533  1.00  0.00    -0.203 F 
ATOM     87  C   UNL A   1      44.917  26.809  36.961  1.00  0.00     0.198 A 
ATOM     88  C   UNL A   1      46.456  28.301  35.882  1.00  0.00     0.198 A 
ATOM     89  F   UNL A   1      45.657  29.965  34.425  1.00  0.00    -0.203 F 
ATOM     90  F   UNL A   1      44.681  25.803  37.815  1.00  0.00    -0.200 F 
ATOM     91  C   UNL A   1      46.216  27.242  36.744  1.00  0.00     0.200 A 
ATOM     92  F   UNL A   1      47.712  28.712  35.659  1.00  0.00    -0.200 F 
ATOM     93  F   UNL A   1      47.238  26.643  37.371  1.00  0.00    -0.200 F 
ENDBRANCH  60  83
ENDBRANCH  34  35
ENDBRANCH  27  29
ENDBRANCH  26  27
ENDBRANCH  25  26
ENDBRANCH  24  25
ENDBRANCH  23  24
ENDBRANCH   1  23
TORSDOF 19
ENDMDL
MODEL 3
REMARK VINA RESULT:     -10.3      3.156      8.600
REMARK SMILES CCCC1(CCC)C[NH+]([C@H]2CCC[C@@H](C(=O)OCCOCCOC(=O)c3ccc(-c4c5nc(c(-c6c(F)c(F)c(F)c(F)c6F)c6ccc([nH]6)c(-c6c(F)c(F)c(F)c(F)c6F)c6nc(c(-c7c(F)c(F)c(F)c(F)c7F)c7ccc4[nH]7)C=C6)C=C5)cc3)C2)C1
REMARK SMILES IDX 19 1 18 2 17 3 15 4 16 5 14 6 10 7 11 8 89 9 12 10 13 11
REMARK SMILES IDX 9 12 4 13 8 14 90 15 3 17 2 18 1 19 5 20 6 21 7 22 20 23
REMARK SMILES IDX 21 24 22 25 23 26 24 27 25 28 26 29 27 30 88 31 28 32 87 33
REMARK SMILES IDX 29 34 30 35 31 36 81 37 32 38 86 39 80 40 82 41 33 42 85 43
REMARK SMILES IDX 79 44 78 45 34 47 66 48 46 49 65 50 47 51 50 52 64 53 83 54
REMARK SMILES IDX 48 55 49 56 63 58 84 59 51 60 35 61 36 62 44 63 37 64 38 65
REMARK SMILES IDX 42 66 45 67 39 68 40 69 43 70 41 71 67 72 68 73 76 74 69 75
REMARK SMILES IDX 70 76 74 77 77 78 71 79 72 80 75 81 73 82 52 83 53 84 61 85
REMARK SMILES IDX 54 86 55 87 59 88 62 89 56 90 57 91 60 92 58 93
REMARK H PARENT 9 16 82 46 50 57
REMARK Flexibility Score: inf
ROOT
ATOM      1  C   UNL A   1      35.729  21.874  24.246  1.00  0.00     0.202 C 
ENDROOT
BRANCH   1   2
ATOM      2  C   UNL A   1      35.365  23.347  24.094  1.00  0.00     0.261 C 
BRANCH   2   3
ATOM      3  O   UNL A   1      34.266  23.698  24.936  1.00  0.00    -0.463 OA
BRANCH   3   4
ATOM      4  C   UNL A   1      33.420  24.575  24.349  1.00  0.00     0.309 C 
ATOM      5  O   UNL A   1      33.770  25.665  23.908  1.00  0.00    -0.252 OA
BRANCH   4   6
ATOM      6  C   UNL A   1      31.975  24.100  24.326  1.00  0.00     0.105 C 
ATOM      7  C   UNL A   1      30.807  25.800  25.872  1.00  0.00     0.184 C 
ATOM      8  C   UNL A   1      29.689  25.955  24.829  1.00  0.00     0.065 C 
ATOM      9  C   UNL A   1      31.356  24.366  25.701  1.00  0.00     0.080 C 
ATOM     10  C   UNL A   1      30.147  25.743  23.387  1.00  0.00     0.007 C 
ATOM     11  C   UNL A   1      31.058  24.532  23.165  1.00  0.00     0.016 C 
BRANCH   7  12
ATOM     12  N   UNL A   1      31.922  26.775  25.914  1.00  0.00    -0.331 N 
ATOM     13  C   UNL A   1      32.424  28.767  26.540  1.00  0.00     0.068 C 
ATOM     14  C   UNL A   1      32.026  27.423  27.252  1.00  0.00     0.275 C 
ATOM     15  C   UNL A   1      31.672  28.112  25.334  1.00  0.00     0.275 C 
ATOM     16  H   UNL A   1      32.653  26.191  25.508  1.00  0.00     0.348 HD
BRANCH  13  17
ATOM     17  C   UNL A   1      31.835  30.014  27.250  1.00  0.00     0.018 C 
BRANCH  17  18
ATOM     18  C   UNL A   1      31.691  31.285  26.411  1.00  0.00    -0.002 C 
ATOM     19  C   UNL A   1      32.086  32.551  27.154  1.00  0.00     0.004 C 
ENDBRANCH  17  18
ENDBRANCH  13  17
BRANCH  13  20
ATOM     20  C   UNL A   1      33.967  28.910  26.412  1.00  0.00     0.018 C 
BRANCH  20  21
ATOM     21  C   UNL A   1      34.669  29.526  27.625  1.00  0.00    -0.002 C 
ATOM     22  C   UNL A   1      36.178  29.668  27.582  1.00  0.00     0.004 C 
ENDBRANCH  20  21
ENDBRANCH  13  20
ENDBRANCH   7  12
ENDBRANCH   4   6
ENDBRANCH   3   4
ENDBRANCH   2   3
ENDBRANCH   1   2
BRANCH   1  23
ATOM     23  O   UNL A   1      37.113  21.518  24.260  1.00  0.00    -0.374 OA
BRANCH  23  24
ATOM     24  C   UNL A   1      37.640  21.031  25.495  1.00  0.00     0.202 C 
BRANCH  24  25
ATOM     25  C   UNL A   1      38.914  20.174  25.414  1.00  0.00     0.261 C 
BRANCH  25  26
ATOM     26  O   UNL A   1      40.104  20.929  25.681  1.00  0.00    -0.460 OA
BRANCH  26  27
ATOM     27  C   UNL A   1      40.505  20.898  26.981  1.00  0.00     0.338 C 
ATOM     28  O   UNL A   1      40.778  19.926  27.648  1.00  0.00    -0.246 OA
BRANCH  27  29
ATOM     29  C   UNL A   1      40.785  22.286  27.424  1.00  0.00     0.060 A 
ATOM     30  C   UNL A   1      40.004  23.306  26.862  1.00  0.00     0.016 A 
ATOM     31  C   UNL A   1      41.744  22.581  28.395  1.00  0.00     0.016 A 
ATOM     32  C   UNL A   1      40.215  24.633  27.230  1.00  0.00     0.010 A 
ATOM     33  C   UNL A   1      41.972  23.913  28.748  1.00  0.00     0.010 A 
ATOM     34  C   UNL A   1      41.235  24.945  28.137  1.00  0.00    -0.014 A 
BRANCH  34  35
ATOM     35  C   UNL A   1      41.699  26.346  28.246  1.00  0.00     0.031 A 
ATOM     36  C   UNL A   1      43.052  26.674  27.674  1.00  0.00     0.074 A 
ATOM     37  C   UNL A   1      40.943  27.302  28.809  1.00  0.00     0.049 A 
ATOM     38  N   UNL A   1      43.708  27.805  27.679  1.00  0.00    -0.248 NA
ATOM     39  C   UNL A   1      43.760  25.570  27.006  1.00  0.00     0.031 C 
ATOM     40  C   UNL A   1      39.601  27.111  29.356  1.00  0.00     0.029 A 
ATOM     41  N   UNL A   1      41.208  28.632  29.022  1.00  0.00    -0.354 N 
ATOM     42  C   UNL A   1      44.901  27.546  27.017  1.00  0.00     0.074 A 
ATOM     43  C   UNL A   1      44.896  26.148  26.651  1.00  0.00     0.031 C 
ATOM     44  C   UNL A   1      39.166  28.280  29.860  1.00  0.00     0.029 A 
ATOM     45  C   UNL A   1      40.209  29.292  29.694  1.00  0.00     0.049 A 
ATOM     46  H   UNL A   1      42.036  29.072  28.720  1.00  0.00     0.167 HD
ATOM     47  C   UNL A   1      45.908  28.402  26.732  1.00  0.00     0.037 A 
ATOM     48  C   UNL A   1      40.161  30.563  30.141  1.00  0.00     0.037 A 
ATOM     49  C   UNL A   1      45.915  29.789  27.108  1.00  0.00     0.049 A 
ATOM     50  C   UNL A   1      41.332  31.479  29.876  1.00  0.00     0.074 A 
ATOM     51  C   UNL A   1      46.888  30.743  26.871  1.00  0.00     0.029 A 
ATOM     52  N   UNL A   1      44.896  30.416  27.809  1.00  0.00    -0.354 N 
ATOM     53  N   UNL A   1      42.450  31.234  29.233  1.00  0.00    -0.248 NA
ATOM     54  C   UNL A   1      41.233  32.850  30.398  1.00  0.00     0.031 C 
ATOM     55  C   UNL A   1      46.476  31.939  27.470  1.00  0.00     0.029 A 
ATOM     56  C   UNL A   1      45.225  31.742  28.033  1.00  0.00     0.049 A 
ATOM     57  H   UNL A   1      44.062  29.982  28.104  1.00  0.00     0.167 HD
ATOM     58  C   UNL A   1      43.169  32.423  29.248  1.00  0.00     0.074 A 
ATOM     59  C   UNL A   1      42.357  33.393  29.951  1.00  0.00     0.031 C 
ATOM     60  C   UNL A   1      44.392  32.691  28.727  1.00  0.00     0.037 A 
BRANCH  47  61
ATOM     61  C   UNL A   1      47.095  27.850  26.000  1.00  0.00     0.064 A 
ATOM     62  C   UNL A   1      47.133  27.794  24.599  1.00  0.00     0.173 A 
ATOM     63  C   UNL A   1      48.214  27.388  26.708  1.00  0.00     0.173 A 
ATOM     64  F   UNL A   1      46.079  28.204  23.877  1.00  0.00    -0.203 F 
ATOM     65  C   UNL A   1      48.242  27.276  23.934  1.00  0.00     0.198 A 
ATOM     66  C   UNL A   1      49.331  26.895  26.039  1.00  0.00     0.198 A 
ATOM     67  F   UNL A   1      48.224  27.414  28.049  1.00  0.00    -0.203 F 
ATOM     68  F   UNL A   1      48.239  27.190  22.596  1.00  0.00    -0.200 F 
ATOM     69  C   UNL A   1      49.342  26.834  24.654  1.00  0.00     0.200 A 
ATOM     70  F   UNL A   1      50.395  26.476  26.736  1.00  0.00    -0.200 F 
ATOM     71  F   UNL A   1      50.411  26.342  24.012  1.00  0.00    -0.200 F 
ENDBRANCH  47  61
BRANCH  48  72
ATOM     72  C   UNL A   1      38.979  31.048  30.901  1.00  0.00     0.064 A 
ATOM     73  C   UNL A   1      38.863  30.824  32.281  1.00  0.00     0.173 A 
ATOM     74  C   UNL A   1      37.922  31.708  30.258  1.00  0.00     0.173 A 
ATOM     75  F   UNL A   1      39.832  30.171  32.937  1.00  0.00    -0.203 F 
ATOM     76  C   UNL A   1      37.725  31.223  32.982  1.00  0.00     0.198 A 
ATOM     77  C   UNL A   1      36.798  32.131  30.965  1.00  0.00     0.198 A 
ATOM     78  F   UNL A   1      37.979  31.941  28.939  1.00  0.00    -0.203 F 
ATOM     79  F   UNL A   1      37.615  30.945  34.289  1.00  0.00    -0.200 F 
ATOM     80  C   UNL A   1      36.695  31.879  32.325  1.00  0.00     0.200 A 
ATOM     81  F   UNL A   1      35.809  32.771  30.326  1.00  0.00    -0.200 F 
ATOM     82  F   UNL A   1      35.600  32.256  32.998  1.00  0.00    -0.200 F 
ENDBRANCH  48  72
BRANCH  60  83
ATOM     83  C   UNL A   1      44.910  34.093  28.863  1.00  0.00     0.064 A 
ATOM     84  C   UNL A   1      44.607  35.084  27.918  1.00  0.00     0.173 A 
ATOM     85  C   UNL A   1      45.677  34.459  29.980  1.00  0.00     0.173 A 
ATOM     86  F   UNL A   1      43.886  34.780  26.828  1.00  0.00    -0.203 F 
ATOM     87  C   UNL A   1      45.075  36.386  28.074  1.00  0.00     0.198 A 
ATOM     88  C   UNL A   1      46.117  35.769  30.147  1.00  0.00     0.198 A 
ATOM     89  F   UNL A   1      45.985  33.550  30.916  1.00  0.00    -0.203 F 
ATOM     90  F   UNL A   1      44.812  37.307  27.137  1.00  0.00    -0.200 F 
ATOM     91  C   UNL A   1      45.822  36.729  29.191  1.00  0.00     0.200 A 
ATOM     92  F   UNL A   1      46.826  36.102  31.234  1.00  0.00    -0.200 F 
ATOM     93  F   UNL A   1      46.265  37.985  29.344  1.00  0.00    -0.200 F 
ENDBRANCH  60  83
ENDBRANCH  34  35
ENDBRANCH  27  29
ENDBRANCH  26  27
ENDBRANCH  25  26
ENDBRANCH  24  25
ENDBRANCH  23  24
ENDBRANCH   1  23
TORSDOF 19
ENDMDL
