MODEL 1
REMARK VINA RESULT:     -11.3      0.000      0.000
REMARK SMILES O=C(CCN/C(=[NH+]\S(=O)(=O)c1ccccc1)c1ccccc1)OCCOCCOC(=O)c1ccc(-c2c3nc(c(-c4c(F)c(F)c(F)c(F)c4F)c4ccc([nH]4)c(-c4c(F)c(F)c(F)c(F)c4F)c4nc(c(-c5c(F)c(F)c(F)c(F)c5F)c5ccc2[nH]5)C=C4)C=C3)cc1
REMARK SMILES IDX 25 1 24 2 23 3 2 4 1 5 3 6 4 7 5 8 6 9 7 11 17 13 18 14
REMARK SMILES IDX 22 15 19 16 21 17 20 18 8 19 9 20 10 21 11 22 12 23 16 24
REMARK SMILES IDX 13 25 15 26 14 27 26 28 27 29 28 30 29 31 30 32 31 33 32 34
REMARK SMILES IDX 33 35 94 36 34 37 93 38 35 39 36 40 37 41 87 42 38 43 92 44
REMARK SMILES IDX 86 45 88 46 39 47 91 48 85 49 84 50 40 52 72 53 52 54 71 55
REMARK SMILES IDX 53 56 56 57 70 58 89 59 54 60 55 61 69 63 90 64 57 65 41 66
REMARK SMILES IDX 42 67 50 68 43 69 44 70 48 71 51 72 45 73 46 74 49 75 47 76
REMARK SMILES IDX 73 77 74 78 82 79 75 80 76 81 80 82 83 83 77 84 78 85 81 86
REMARK SMILES IDX 79 87 58 88 59 89 67 90 60 91 61 92 65 93 68 94 62 95 63 96
REMARK SMILES IDX 66 97 64 98
REMARK H PARENT 5 10 7 12 88 51 56 62
REMARK Flexibility Score: inf
ROOT
ATOM      1  C   UNL A   1      34.655  30.374  28.004  1.00  0.00     0.202 C 
ENDROOT
BRANCH   1   2
ATOM      2  C   UNL A   1      35.266  29.194  27.239  1.00  0.00     0.261 C 
BRANCH   2   3
ATOM      3  O   UNL A   1      34.495  28.676  26.141  1.00  0.00    -0.463 OA
BRANCH   3   4
ATOM      4  C   UNL A   1      33.619  27.663  26.275  1.00  0.00     0.309 C 
ATOM      5  O   UNL A   1      33.979  26.503  26.082  1.00  0.00    -0.252 OA
BRANCH   4   6
ATOM      6  C   UNL A   1      32.179  27.988  26.537  1.00  0.00     0.168 C 
BRANCH   6   7
ATOM      7  C   UNL A   1      31.543  28.687  25.353  1.00  0.00     0.245 C 
BRANCH   7   8
ATOM      8  N   UNL A   1      31.920  28.113  24.068  1.00  0.00    -0.273 N 
ATOM      9  C   UNL A   1      31.198  27.963  22.891  1.00  0.00     0.290 C 
ATOM     10  H   UNL A   1      32.844  27.775  24.026  1.00  0.00     0.305 HD
ATOM     11  N   UNL A   1      31.565  27.236  21.873  1.00  0.00    -0.162 N 
ATOM     12  H   UNL A   1      31.025  27.251  21.050  1.00  0.00     0.327 HD
BRANCH   9  13
ATOM     13  C   UNL A   1      29.878  28.665  22.721  1.00  0.00     0.064 A 
ATOM     14  C   UNL A   1      29.842  29.918  22.096  1.00  0.00     0.016 A 
ATOM     15  C   UNL A   1      28.689  28.100  23.196  1.00  0.00     0.016 A 
ATOM     16  C   UNL A   1      28.621  30.569  21.901  1.00  0.00     0.001 A 
ATOM     17  C   UNL A   1      27.468  28.739  22.973  1.00  0.00     0.001 A 
ATOM     18  C   UNL A   1      27.434  29.970  22.323  1.00  0.00     0.000 A 
ENDBRANCH   9  13
BRANCH  11  19
ATOM     19  S   UNL A   1      32.889  26.309  21.935  1.00  0.00     0.328 S 
ATOM     20  O   UNL A   1      33.222  25.845  20.599  1.00  0.00    -0.179 OA
ATOM     21  O   UNL A   1      33.898  27.020  22.703  1.00  0.00    -0.179 OA
BRANCH  19  22
ATOM     22  C   UNL A   1      32.487  24.861  22.894  1.00  0.00     0.109 A 
ATOM     23  C   UNL A   1      31.144  24.595  23.189  1.00  0.00     0.024 A 
ATOM     24  C   UNL A   1      33.504  24.123  23.506  1.00  0.00     0.024 A 
ATOM     25  C   UNL A   1      30.814  23.597  24.105  1.00  0.00     0.001 A 
ATOM     26  C   UNL A   1      33.166  23.118  24.416  1.00  0.00     0.001 A 
ATOM     27  C   UNL A   1      31.826  22.862  24.722  1.00  0.00     0.000 A 
ENDBRANCH  19  22
ENDBRANCH  11  19
ENDBRANCH   7   8
ENDBRANCH   6   7
ENDBRANCH   4   6
ENDBRANCH   3   4
ENDBRANCH   2   3
ENDBRANCH   1   2
BRANCH   1  28
ATOM     28  O   UNL A   1      34.063  31.423  27.241  1.00  0.00    -0.374 OA
BRANCH  28  29
ATOM     29  C   UNL A   1      32.649  31.588  27.286  1.00  0.00     0.202 C 
BRANCH  29  30
ATOM     30  C   UNL A   1      32.145  33.027  27.325  1.00  0.00     0.261 C 
BRANCH  30  31
ATOM     31  O   UNL A   1      33.228  33.965  27.416  1.00  0.00    -0.460 OA
BRANCH  31  32
ATOM     32  C   UNL A   1      33.280  34.651  28.582  1.00  0.00     0.338 C 
ATOM     33  O   UNL A   1      32.478  35.471  28.992  1.00  0.00    -0.246 OA
BRANCH  32  34
ATOM     34  C   UNL A   1      34.417  34.181  29.397  1.00  0.00     0.060 A 
ATOM     35  C   UNL A   1      35.702  34.500  28.944  1.00  0.00     0.016 A 
ATOM     36  C   UNL A   1      34.242  33.386  30.535  1.00  0.00     0.016 A 
ATOM     37  C   UNL A   1      36.816  33.971  29.588  1.00  0.00     0.010 A 
ATOM     38  C   UNL A   1      35.361  32.856  31.182  1.00  0.00     0.010 A 
ATOM     39  C   UNL A   1      36.649  33.118  30.686  1.00  0.00    -0.014 A 
BRANCH  39  40
ATOM     40  C   UNL A   1      37.826  32.380  31.189  1.00  0.00     0.031 A 
ATOM     41  C   UNL A   1      38.340  32.697  32.564  1.00  0.00     0.074 A 
ATOM     42  C   UNL A   1      38.374  31.391  30.463  1.00  0.00     0.049 A 
ATOM     43  N   UNL A   1      39.294  32.121  33.248  1.00  0.00    -0.248 NA
ATOM     44  C   UNL A   1      37.678  33.807  33.269  1.00  0.00     0.031 C 
ATOM     45  C   UNL A   1      37.938  30.980  29.131  1.00  0.00     0.029 A 
ATOM     46  N   UNL A   1      39.415  30.549  30.756  1.00  0.00    -0.354 N 
ATOM     47  C   UNL A   1      39.326  32.775  34.471  1.00  0.00     0.074 A 
ATOM     48  C   UNL A   1      38.331  33.824  34.421  1.00  0.00     0.031 C 
ATOM     49  C   UNL A   1      38.718  29.968  28.713  1.00  0.00     0.029 A 
ATOM     50  C   UNL A   1      39.712  29.672  29.743  1.00  0.00     0.049 A 
ATOM     51  H   UNL A   1      39.905  30.573  31.610  1.00  0.00     0.167 HD
ATOM     52  C   UNL A   1      40.106  32.514  35.547  1.00  0.00     0.037 A 
ATOM     53  C   UNL A   1      40.684  28.743  29.664  1.00  0.00     0.037 A 
ATOM     54  C   UNL A   1      41.125  31.500  35.580  1.00  0.00     0.049 A 
ATOM     55  C   UNL A   1      41.595  28.529  30.846  1.00  0.00     0.074 A 
ATOM     56  C   UNL A   1      41.993  31.177  36.607  1.00  0.00     0.029 A 
ATOM     57  N   UNL A   1      41.421  30.652  34.522  1.00  0.00    -0.354 N 
ATOM     58  N   UNL A   1      41.595  29.126  32.013  1.00  0.00    -0.248 NA
ATOM     59  C   UNL A   1      42.631  27.496  30.702  1.00  0.00     0.031 C 
ATOM     60  C   UNL A   1      42.843  30.160  36.156  1.00  0.00     0.029 A 
ATOM     61  C   UNL A   1      42.471  29.817  34.867  1.00  0.00     0.049 A 
ATOM     62  H   UNL A   1      40.955  30.646  33.656  1.00  0.00     0.167 HD
ATOM     63  C   UNL A   1      42.611  28.529  32.749  1.00  0.00     0.074 A 
ATOM     64  C   UNL A   1      43.191  27.506  31.904  1.00  0.00     0.031 C 
ATOM     65  C   UNL A   1      43.031  28.802  34.010  1.00  0.00     0.037 A 
BRANCH  52  66
ATOM     66  C   UNL A   1      39.886  33.353  36.769  1.00  0.00     0.064 A 
ATOM     67  C   UNL A   1      40.636  34.518  36.999  1.00  0.00     0.173 A 
ATOM     68  C   UNL A   1      38.910  33.004  37.713  1.00  0.00     0.173 A 
ATOM     69  F   UNL A   1      41.594  34.884  36.133  1.00  0.00    -0.203 F 
ATOM     70  C   UNL A   1      40.429  35.291  38.138  1.00  0.00     0.198 A 
ATOM     71  C   UNL A   1      38.690  33.792  38.840  1.00  0.00     0.198 A 
ATOM     72  F   UNL A   1      38.169  31.900  37.542  1.00  0.00    -0.203 F 
ATOM     73  F   UNL A   1      41.185  36.375  38.357  1.00  0.00    -0.200 F 
ATOM     74  C   UNL A   1      39.453  34.930  39.055  1.00  0.00     0.200 A 
ATOM     75  F   UNL A   1      37.742  33.447  39.722  1.00  0.00    -0.200 F 
ATOM     76  F   UNL A   1      39.254  35.676  40.150  1.00  0.00    -0.200 F 
ENDBRANCH  52  66
BRANCH  53  77
ATOM     77  C   UNL A   1      40.853  27.950  28.420  1.00  0.00     0.064 A 
ATOM     78  C   UNL A   1      40.236  26.702  28.263  1.00  0.00     0.173 A 
ATOM     79  C   UNL A   1      41.669  28.412  27.377  1.00  0.00     0.173 A 
ATOM     80  F   UNL A   1      39.467  26.207  29.244  1.00  0.00    -0.203 F 
ATOM     81  C   UNL A   1      40.452  25.932  27.122  1.00  0.00     0.198 A 
ATOM     82  C   UNL A   1      41.862  27.654  26.224  1.00  0.00     0.198 A 
ATOM     83  F   UNL A   1      42.285  29.598  27.481  1.00  0.00    -0.203 F 
ATOM     84  F   UNL A   1      39.896  24.717  27.021  1.00  0.00    -0.200 F 
ATOM     85  C   UNL A   1      41.261  26.410  26.102  1.00  0.00     0.200 A 
ATOM     86  F   UNL A   1      42.639  28.123  25.238  1.00  0.00    -0.200 F 
ATOM     87  F   UNL A   1      41.474  25.666  25.008  1.00  0.00    -0.200 F 
ENDBRANCH  53  77
BRANCH  65  88
ATOM     88  C   UNL A   1      44.150  27.964  34.557  1.00  0.00     0.064 A 
ATOM     89  C   UNL A   1      43.912  26.714  35.148  1.00  0.00     0.173 A 
ATOM     90  C   UNL A   1      45.478  28.404  34.461  1.00  0.00     0.173 A 
ATOM     91  F   UNL A   1      42.657  26.256  35.276  1.00  0.00    -0.203 F 
ATOM     92  C   UNL A   1      44.961  25.952  35.655  1.00  0.00     0.198 A 
ATOM     93  C   UNL A   1      46.527  27.625  34.940  1.00  0.00     0.198 A 
ATOM     94  F   UNL A   1      45.761  29.588  33.896  1.00  0.00    -0.203 F 
ATOM     95  F   UNL A   1      44.705  24.787  36.264  1.00  0.00    -0.200 F 
ATOM     96  C   UNL A   1      46.267  26.404  35.545  1.00  0.00     0.200 A 
ATOM     97  F   UNL A   1      47.791  28.057  34.822  1.00  0.00    -0.200 F 
ATOM     98  F   UNL A   1      47.276  25.668  36.031  1.00  0.00    -0.200 F 
ENDBRANCH  65  88
ENDBRANCH  39  40
ENDBRANCH  32  34
ENDBRANCH  31  32
ENDBRANCH  30  31
ENDBRANCH  29  30
ENDBRANCH  28  29
ENDBRANCH   1  28
TORSDOF 19
ENDMDL
MODEL 2
REMARK VINA RESULT:     -11.2      4.271      6.678
REMARK SMILES O=C(CCN/C(=[NH+]\S(=O)(=O)c1ccccc1)c1ccccc1)OCCOCCOC(=O)c1ccc(-c2c3nc(c(-c4c(F)c(F)c(F)c(F)c4F)c4ccc([nH]4)c(-c4c(F)c(F)c(F)c(F)c4F)c4nc(c(-c5c(F)c(F)c(F)c(F)c5F)c5ccc2[nH]5)C=C4)C=C3)cc1
REMARK SMILES IDX 25 1 24 2 23 3 2 4 1 5 3 6 4 7 5 8 6 9 7 11 17 13 18 14
REMARK SMILES IDX 22 15 19 16 21 17 20 18 8 19 9 20 10 21 11 22 12 23 16 24
REMARK SMILES IDX 13 25 15 26 14 27 26 28 27 29 28 30 29 31 30 32 31 33 32 34
REMARK SMILES IDX 33 35 94 36 34 37 93 38 35 39 36 40 37 41 87 42 38 43 92 44
REMARK SMILES IDX 86 45 88 46 39 47 91 48 85 49 84 50 40 52 72 53 52 54 71 55
REMARK SMILES IDX 53 56 56 57 70 58 89 59 54 60 55 61 69 63 90 64 57 65 41 66
REMARK SMILES IDX 42 67 50 68 43 69 44 70 48 71 51 72 45 73 46 74 49 75 47 76
REMARK SMILES IDX 73 77 74 78 82 79 75 80 76 81 80 82 83 83 77 84 78 85 81 86
REMARK SMILES IDX 79 87 58 88 59 89 67 90 60 91 61 92 65 93 68 94 62 95 63 96
REMARK SMILES IDX 66 97 64 98
REMARK H PARENT 5 10 7 12 88 51 56 62
REMARK Flexibility Score: inf
ROOT
ATOM      1  C   UNL A   1      34.411  32.987  28.747  1.00  0.00     0.202 C 
ENDROOT
BRANCH   1   2
ATOM      2  C   UNL A   1      33.609  32.021  27.867  1.00  0.00     0.261 C 
BRANCH   2   3
ATOM      3  O   UNL A   1      34.353  30.967  27.232  1.00  0.00    -0.463 OA
BRANCH   3   4
ATOM      4  C   UNL A   1      33.787  29.818  26.818  1.00  0.00     0.309 C 
ATOM      5  O   UNL A   1      34.484  28.914  26.361  1.00  0.00    -0.252 OA
BRANCH   4   6
ATOM      6  C   UNL A   1      32.291  29.718  26.808  1.00  0.00     0.168 C 
BRANCH   6   7
ATOM      7  C   UNL A   1      31.713  30.163  25.481  1.00  0.00     0.245 C 
BRANCH   7   8
ATOM      8  N   UNL A   1      32.127  29.331  24.358  1.00  0.00    -0.273 N 
ATOM      9  C   UNL A   1      31.390  28.761  23.328  1.00  0.00     0.290 C 
ATOM     10  H   UNL A   1      33.092  29.141  24.324  1.00  0.00     0.305 HD
ATOM     11  N   UNL A   1      31.831  27.854  22.503  1.00  0.00    -0.162 N 
ATOM     12  H   UNL A   1      31.261  27.565  21.754  1.00  0.00     0.327 HD
BRANCH   9  13
ATOM     13  C   UNL A   1      29.962  29.180  23.100  1.00  0.00     0.064 A 
ATOM     14  C   UNL A   1      28.942  28.226  23.199  1.00  0.00     0.016 A 
ATOM     15  C   UNL A   1      29.639  30.500  22.765  1.00  0.00     0.016 A 
ATOM     16  C   UNL A   1      27.609  28.605  23.022  1.00  0.00     0.001 A 
ATOM     17  C   UNL A   1      28.304  30.882  22.618  1.00  0.00     0.001 A 
ATOM     18  C   UNL A   1      27.290  29.935  22.750  1.00  0.00     0.000 A 
ENDBRANCH   9  13
BRANCH  11  19
ATOM     19  S   UNL A   1      33.297  27.193  22.684  1.00  0.00     0.328 S 
ATOM     20  O   UNL A   1      33.633  26.423  21.498  1.00  0.00    -0.179 OA
ATOM     21  O   UNL A   1      34.207  28.237  23.125  1.00  0.00    -0.179 OA
BRANCH  19  22
ATOM     22  C   UNL A   1      33.201  26.036  24.036  1.00  0.00     0.109 A 
ATOM     23  C   UNL A   1      34.366  25.732  24.752  1.00  0.00     0.024 A 
ATOM     24  C   UNL A   1      32.032  25.298  24.244  1.00  0.00     0.024 A 
ATOM     25  C   UNL A   1      34.369  24.684  25.670  1.00  0.00     0.001 A 
ATOM     26  C   UNL A   1      32.039  24.255  25.173  1.00  0.00     0.001 A 
ATOM     27  C   UNL A   1      33.206  23.942  25.877  1.00  0.00     0.000 A 
ENDBRANCH  19  22
ENDBRANCH  11  19
ENDBRANCH   7   8
ENDBRANCH   6   7
ENDBRANCH   4   6
ENDBRANCH   3   4
ENDBRANCH   2   3
ENDBRANCH   1   2
BRANCH   1  28
ATOM     28  O   UNL A   1      34.031  33.105  30.117  1.00  0.00    -0.374 OA
BRANCH  28  29
ATOM     29  C   UNL A   1      34.545  34.193  30.878  1.00  0.00     0.202 C 
BRANCH  29  30
ATOM     30  C   UNL A   1      34.849  33.900  32.344  1.00  0.00     0.261 C 
BRANCH  30  31
ATOM     31  O   UNL A   1      35.055  32.497  32.571  1.00  0.00    -0.460 OA
BRANCH  31  32
ATOM     32  C   UNL A   1      36.189  32.199  33.247  1.00  0.00     0.338 C 
ATOM     33  O   UNL A   1      36.426  32.415  34.423  1.00  0.00    -0.246 OA
BRANCH  32  34
ATOM     34  C   UNL A   1      37.110  31.436  32.382  1.00  0.00     0.060 A 
ATOM     35  C   UNL A   1      38.233  30.865  32.992  1.00  0.00     0.016 A 
ATOM     36  C   UNL A   1      36.927  31.340  30.999  1.00  0.00     0.016 A 
ATOM     37  C   UNL A   1      39.209  30.253  32.213  1.00  0.00     0.010 A 
ATOM     38  C   UNL A   1      37.907  30.723  30.217  1.00  0.00     0.010 A 
ATOM     39  C   UNL A   1      39.068  30.212  30.820  1.00  0.00    -0.014 A 
BRANCH  39  40
ATOM     40  C   UNL A   1      40.226  29.784  30.008  1.00  0.00     0.031 A 
ATOM     41  C   UNL A   1      41.339  30.763  29.771  1.00  0.00     0.074 A 
ATOM     42  C   UNL A   1      40.317  28.520  29.561  1.00  0.00     0.049 A 
ATOM     43  N   UNL A   1      42.488  30.586  29.172  1.00  0.00    -0.248 NA
ATOM     44  C   UNL A   1      41.133  32.125  30.291  1.00  0.00     0.031 C 
ATOM     45  C   UNL A   1      39.310  27.480  29.757  1.00  0.00     0.029 A 
ATOM     46  N   UNL A   1      41.314  27.901  28.852  1.00  0.00    -0.354 N 
ATOM     47  C   UNL A   1      43.153  31.801  29.271  1.00  0.00     0.074 A 
ATOM     48  C   UNL A   1      42.263  32.722  29.943  1.00  0.00     0.031 C 
ATOM     49  C   UNL A   1      39.736  26.349  29.169  1.00  0.00     0.029 A 
ATOM     50  C   UNL A   1      41.037  26.592  28.547  1.00  0.00     0.049 A 
ATOM     51  H   UNL A   1      42.147  28.352  28.586  1.00  0.00     0.167 HD
ATOM     52  C   UNL A   1      44.403  32.114  28.853  1.00  0.00     0.037 A 
ATOM     53  C   UNL A   1      41.755  25.701  27.838  1.00  0.00     0.037 A 
ATOM     54  C   UNL A   1      45.269  31.210  28.146  1.00  0.00     0.049 A 
ATOM     55  C   UNL A   1      43.109  26.102  27.309  1.00  0.00     0.074 A 
ATOM     56  C   UNL A   1      46.539  31.439  27.648  1.00  0.00     0.029 A 
ATOM     57  N   UNL A   1      44.941  29.901  27.824  1.00  0.00    -0.354 N 
ATOM     58  N   UNL A   1      43.748  27.240  27.439  1.00  0.00    -0.248 NA
ATOM     59  C   UNL A   1      43.849  25.084  26.550  1.00  0.00     0.031 C 
ATOM     60  C   UNL A   1      46.964  30.280  26.988  1.00  0.00     0.029 A 
ATOM     61  C   UNL A   1      45.979  29.315  27.118  1.00  0.00     0.049 A 
ATOM     62  H   UNL A   1      44.096  29.456  28.060  1.00  0.00     0.167 HD
ATOM     63  C   UNL A   1      44.969  27.070  26.800  1.00  0.00     0.074 A 
ATOM     64  C   UNL A   1      44.992  25.709  26.302  1.00  0.00     0.031 C 
ATOM     65  C   UNL A   1      45.982  27.957  26.635  1.00  0.00     0.037 A 
BRANCH  52  66
ATOM     66  C   UNL A   1      44.892  33.501  29.144  1.00  0.00     0.064 A 
ATOM     67  C   UNL A   1      44.649  34.561  28.257  1.00  0.00     0.173 A 
ATOM     68  C   UNL A   1      45.595  33.780  30.324  1.00  0.00     0.173 A 
ATOM     69  F   UNL A   1      43.995  34.341  27.106  1.00  0.00    -0.203 F 
ATOM     70  C   UNL A   1      45.110  35.846  28.532  1.00  0.00     0.198 A 
ATOM     71  C   UNL A   1      46.035  35.070  30.607  1.00  0.00     0.198 A 
ATOM     72  F   UNL A   1      45.856  32.801  31.204  1.00  0.00    -0.203 F 
ATOM     73  F   UNL A   1      44.902  36.834  27.650  1.00  0.00    -0.200 F 
ATOM     74  C   UNL A   1      45.798  36.100  29.709  1.00  0.00     0.200 A 
ATOM     75  F   UNL A   1      46.693  35.317  31.748  1.00  0.00    -0.200 F 
ATOM     76  F   UNL A   1      46.239  37.338  29.973  1.00  0.00    -0.200 F 
ENDBRANCH  52  66
BRANCH  53  77
ATOM     77  C   UNL A   1      41.209  24.345  27.578  1.00  0.00     0.064 A 
ATOM     78  C   UNL A   1      41.770  23.208  28.174  1.00  0.00     0.173 A 
ATOM     79  C   UNL A   1      40.135  24.159  26.694  1.00  0.00     0.173 A 
ATOM     80  F   UNL A   1      42.814  23.334  29.006  1.00  0.00    -0.203 F 
ATOM     81  C   UNL A   1      41.296  21.932  27.875  1.00  0.00     0.198 A 
ATOM     82  C   UNL A   1      39.644  22.885  26.418  1.00  0.00     0.198 A 
ATOM     83  F   UNL A   1      39.567  25.215  26.096  1.00  0.00    -0.203 F 
ATOM     84  F   UNL A   1      41.886  20.857  28.415  1.00  0.00    -0.200 F 
ATOM     85  C   UNL A   1      40.231  21.772  27.001  1.00  0.00     0.200 A 
ATOM     86  F   UNL A   1      38.611  22.735  25.578  1.00  0.00    -0.200 F 
ATOM     87  F   UNL A   1      39.781  20.544  26.708  1.00  0.00    -0.200 F 
ENDBRANCH  53  77
BRANCH  65  88
ATOM     88  C   UNL A   1      47.206  27.474  25.912  1.00  0.00     0.064 A 
ATOM     89  C   UNL A   1      47.336  27.600  24.521  1.00  0.00     0.173 A 
ATOM     90  C   UNL A   1      48.273  26.905  26.624  1.00  0.00     0.173 A 
ATOM     91  F   UNL A   1      46.338  28.124  23.794  1.00  0.00    -0.203 F 
ATOM     92  C   UNL A   1      48.476  27.142  23.865  1.00  0.00     0.198 A 
ATOM     93  C   UNL A   1      49.423  26.477  25.969  1.00  0.00     0.198 A 
ATOM     94  F   UNL A   1      48.201  26.770  27.957  1.00  0.00    -0.203 F 
ATOM     95  F   UNL A   1      48.556  27.222  22.531  1.00  0.00    -0.200 F 
ATOM     96  C   UNL A   1      49.521  26.587  24.590  1.00  0.00     0.200 A 
ATOM     97  F   UNL A   1      50.437  25.953  26.671  1.00  0.00    -0.200 F 
ATOM     98  F   UNL A   1      50.617  26.149  23.957  1.00  0.00    -0.200 F 
ENDBRANCH  65  88
ENDBRANCH  39  40
ENDBRANCH  32  34
ENDBRANCH  31  32
ENDBRANCH  30  31
ENDBRANCH  29  30
ENDBRANCH  28  29
ENDBRANCH   1  28
TORSDOF 19
ENDMDL
MODEL 3
REMARK VINA RESULT:     -11.2      3.285      8.966
REMARK SMILES O=C(CCN/C(=[NH+]\S(=O)(=O)c1ccccc1)c1ccccc1)OCCOCCOC(=O)c1ccc(-c2c3nc(c(-c4c(F)c(F)c(F)c(F)c4F)c4ccc([nH]4)c(-c4c(F)c(F)c(F)c(F)c4F)c4nc(c(-c5c(F)c(F)c(F)c(F)c5F)c5ccc2[nH]5)C=C4)C=C3)cc1
REMARK SMILES IDX 25 1 24 2 23 3 2 4 1 5 3 6 4 7 5 8 6 9 7 11 17 13 18 14
REMARK SMILES IDX 22 15 19 16 21 17 20 18 8 19 9 20 10 21 11 22 12 23 16 24
REMARK SMILES IDX 13 25 15 26 14 27 26 28 27 29 28 30 29 31 30 32 31 33 32 34
REMARK SMILES IDX 33 35 94 36 34 37 93 38 35 39 36 40 37 41 87 42 38 43 92 44
REMARK SMILES IDX 86 45 88 46 39 47 91 48 85 49 84 50 40 52 72 53 52 54 71 55
REMARK SMILES IDX 53 56 56 57 70 58 89 59 54 60 55 61 69 63 90 64 57 65 41 66
REMARK SMILES IDX 42 67 50 68 43 69 44 70 48 71 51 72 45 73 46 74 49 75 47 76
REMARK SMILES IDX 73 77 74 78 82 79 75 80 76 81 80 82 83 83 77 84 78 85 81 86
REMARK SMILES IDX 79 87 58 88 59 89 67 90 60 91 61 92 65 93 68 94 62 95 63 96
REMARK SMILES IDX 66 97 64 98
REMARK H PARENT 5 10 7 12 88 51 56 62
REMARK Flexibility Score: inf
ROOT
ATOM      1  C   UNL A   1      40.754  20.534  26.403  1.00  0.00     0.202 C 
ENDROOT
BRANCH   1   2
ATOM      2  C   UNL A   1      39.902  21.777  26.126  1.00  0.00     0.261 C 
BRANCH   2   3
ATOM      3  O   UNL A   1      38.479  21.621  26.266  1.00  0.00    -0.463 OA
BRANCH   3   4
ATOM      4  C   UNL A   1      37.628  21.700  25.226  1.00  0.00     0.309 C 
ATOM      5  O   UNL A   1      37.234  20.678  24.669  1.00  0.00    -0.252 OA
BRANCH   4   6
ATOM      6  C   UNL A   1      37.277  23.055  24.687  1.00  0.00     0.168 C 
BRANCH   6   7
ATOM      7  C   UNL A   1      36.369  22.953  23.478  1.00  0.00     0.245 C 
BRANCH   7   8
ATOM      8  N   UNL A   1      35.208  23.830  23.548  1.00  0.00    -0.273 N 
ATOM      9  C   UNL A   1      33.854  23.540  23.654  1.00  0.00     0.290 C 
ATOM     10  H   UNL A   1      35.419  24.791  23.514  1.00  0.00     0.305 HD
ATOM     11  N   UNL A   1      32.887  24.399  23.486  1.00  0.00    -0.162 N 
ATOM     12  H   UNL A   1      31.959  24.120  23.659  1.00  0.00     0.327 HD
BRANCH   9  13
ATOM     13  C   UNL A   1      33.405  22.142  23.982  1.00  0.00     0.064 A 
ATOM     14  C   UNL A   1      33.756  21.579  25.215  1.00  0.00     0.016 A 
ATOM     15  C   UNL A   1      32.662  21.386  23.068  1.00  0.00     0.016 A 
ATOM     16  C   UNL A   1      33.320  20.294  25.548  1.00  0.00     0.001 A 
ATOM     17  C   UNL A   1      32.202  20.114  23.416  1.00  0.00     0.001 A 
ATOM     18  C   UNL A   1      32.528  19.571  24.657  1.00  0.00     0.000 A 
ENDBRANCH   9  13
BRANCH  11  19
ATOM     19  S   UNL A   1      33.182  25.913  23.001  1.00  0.00     0.328 S 
ATOM     20  O   UNL A   1      33.995  26.594  23.995  1.00  0.00    -0.179 OA
ATOM     21  O   UNL A   1      33.653  25.860  21.626  1.00  0.00    -0.179 OA
BRANCH  19  22
ATOM     22  C   UNL A   1      31.621  26.772  22.941  1.00  0.00     0.109 A 
ATOM     23  C   UNL A   1      31.604  28.124  22.574  1.00  0.00     0.024 A 
ATOM     24  C   UNL A   1      30.468  26.163  23.444  1.00  0.00     0.024 A 
ATOM     25  C   UNL A   1      30.438  28.873  22.719  1.00  0.00     0.001 A 
ATOM     26  C   UNL A   1      29.300  26.917  23.578  1.00  0.00     0.001 A 
ATOM     27  C   UNL A   1      29.287  28.270  23.226  1.00  0.00     0.000 A 
ENDBRANCH  19  22
ENDBRANCH  11  19
ENDBRANCH   7   8
ENDBRANCH   6   7
ENDBRANCH   4   6
ENDBRANCH   3   4
ENDBRANCH   2   3
ENDBRANCH   1   2
BRANCH   1  28
ATOM     28  O   UNL A   1      42.019  20.440  25.751  1.00  0.00    -0.374 OA
BRANCH  28  29
ATOM     29  C   UNL A   1      43.074  21.295  26.176  1.00  0.00     0.202 C 
BRANCH  29  30
ATOM     30  C   UNL A   1      43.659  22.216  25.111  1.00  0.00     0.261 C 
BRANCH  30  31
ATOM     31  O   UNL A   1      42.906  23.433  24.991  1.00  0.00    -0.460 OA
BRANCH  31  32
ATOM     32  C   UNL A   1      43.626  24.561  25.195  1.00  0.00     0.338 C 
ATOM     33  O   UNL A   1      44.651  24.896  24.626  1.00  0.00    -0.246 OA
BRANCH  32  34
ATOM     34  C   UNL A   1      42.929  25.442  26.152  1.00  0.00     0.060 A 
ATOM     35  C   UNL A   1      43.422  26.743  26.298  1.00  0.00     0.016 A 
ATOM     36  C   UNL A   1      41.867  24.992  26.944  1.00  0.00     0.016 A 
ATOM     37  C   UNL A   1      42.900  27.577  27.281  1.00  0.00     0.010 A 
ATOM     38  C   UNL A   1      41.341  25.831  27.930  1.00  0.00     0.010 A 
ATOM     39  C   UNL A   1      41.883  27.112  28.124  1.00  0.00    -0.014 A 
BRANCH  39  40
ATOM     40  C   UNL A   1      41.525  27.921  29.307  1.00  0.00     0.031 A 
ATOM     41  C   UNL A   1      40.308  28.798  29.236  1.00  0.00     0.074 A 
ATOM     42  C   UNL A   1      42.227  27.814  30.448  1.00  0.00     0.049 A 
ATOM     43  N   UNL A   1      39.750  29.523  30.171  1.00  0.00    -0.248 NA
ATOM     44  C   UNL A   1      39.619  28.856  27.936  1.00  0.00     0.031 C 
ATOM     45  C   UNL A   1      43.406  26.973  30.637  1.00  0.00     0.029 A 
ATOM     46  N   UNL A   1      42.038  28.415  31.665  1.00  0.00    -0.354 N 
ATOM     47  C   UNL A   1      38.630  30.095  29.583  1.00  0.00     0.074 A 
ATOM     48  C   UNL A   1      38.612  29.675  28.199  1.00  0.00     0.031 C 
ATOM     49  C   UNL A   1      43.847  27.122  31.898  1.00  0.00     0.029 A 
ATOM     50  C   UNL A   1      42.987  28.076  32.596  1.00  0.00     0.049 A 
ATOM     51  H   UNL A   1      41.294  29.033  31.852  1.00  0.00     0.167 HD
ATOM     52  C   UNL A   1      37.691  30.887  30.153  1.00  0.00     0.037 A 
ATOM     53  C   UNL A   1      43.140  28.501  33.865  1.00  0.00     0.037 A 
ATOM     54  C   UNL A   1      37.734  31.340  31.518  1.00  0.00     0.049 A 
ATOM     55  C   UNL A   1      42.127  29.451  34.450  1.00  0.00     0.074 A 
ATOM     56  C   UNL A   1      36.852  32.171  32.183  1.00  0.00     0.029 A 
ATOM     57  N   UNL A   1      38.730  31.004  32.423  1.00  0.00    -0.354 N 
ATOM     58  N   UNL A   1      41.050  29.959  33.901  1.00  0.00    -0.248 NA
ATOM     59  C   UNL A   1      42.343  29.872  35.842  1.00  0.00     0.031 C 
ATOM     60  C   UNL A   1      37.337  32.372  33.480  1.00  0.00     0.029 A 
ATOM     61  C   UNL A   1      38.493  31.626  33.638  1.00  0.00     0.049 A 
ATOM     62  H   UNL A   1      39.492  30.412  32.231  1.00  0.00     0.167 HD
ATOM     63  C   UNL A   1      40.450  30.738  34.881  1.00  0.00     0.074 A 
ATOM     64  C   UNL A   1      41.271  30.618  36.068  1.00  0.00     0.031 C 
ATOM     65  C   UNL A   1      39.322  31.490  34.808  1.00  0.00     0.037 A 
BRANCH  52  66
ATOM     66  C   UNL A   1      36.547  31.321  29.287  1.00  0.00     0.064 A 
ATOM     67  C   UNL A   1      36.443  32.642  28.823  1.00  0.00     0.173 A 
ATOM     68  C   UNL A   1      35.554  30.410  28.902  1.00  0.00     0.173 A 
ATOM     69  F   UNL A   1      37.359  33.555  29.179  1.00  0.00    -0.203 F 
ATOM     70  C   UNL A   1      35.376  33.038  28.022  1.00  0.00     0.198 A 
ATOM     71  C   UNL A   1      34.500  30.803  28.082  1.00  0.00     0.198 A 
ATOM     72  F   UNL A   1      35.605  29.136  29.321  1.00  0.00    -0.203 F 
ATOM     73  F   UNL A   1      35.275  34.315  27.626  1.00  0.00    -0.200 F 
ATOM     74  C   UNL A   1      34.408  32.118  27.648  1.00  0.00     0.200 A 
ATOM     75  F   UNL A   1      33.569  29.912  27.715  1.00  0.00    -0.200 F 
ATOM     76  F   UNL A   1      33.382  32.500  26.875  1.00  0.00    -0.200 F 
ENDBRANCH  52  66
BRANCH  53  77
ATOM     77  C   UNL A   1      44.302  28.039  34.667  1.00  0.00     0.064 A 
ATOM     78  C   UNL A   1      44.232  26.877  35.445  1.00  0.00     0.173 A 
ATOM     79  C   UNL A   1      45.494  28.778  34.700  1.00  0.00     0.173 A 
ATOM     80  F   UNL A   1      43.105  26.151  35.466  1.00  0.00    -0.203 F 
ATOM     81  C   UNL A   1      45.302  26.484  36.248  1.00  0.00     0.198 A 
ATOM     82  C   UNL A   1      46.572  28.370  35.481  1.00  0.00     0.198 A 
ATOM     83  F   UNL A   1      45.608  29.901  33.976  1.00  0.00    -0.203 F 
ATOM     84  F   UNL A   1      45.189  25.399  37.026  1.00  0.00    -0.200 F 
ATOM     85  C   UNL A   1      46.472  27.228  36.262  1.00  0.00     0.200 A 
ATOM     86  F   UNL A   1      47.703  29.088  35.486  1.00  0.00    -0.200 F 
ATOM     87  F   UNL A   1      47.497  26.855  37.040  1.00  0.00    -0.200 F 
ENDBRANCH  53  77
BRANCH  65  88
ATOM     88  C   UNL A   1      38.900  32.214  36.054  1.00  0.00     0.064 A 
ATOM     89  C   UNL A   1      38.154  31.578  37.057  1.00  0.00     0.173 A 
ATOM     90  C   UNL A   1      39.271  33.552  36.258  1.00  0.00     0.173 A 
ATOM     91  F   UNL A   1      37.763  30.304  36.903  1.00  0.00    -0.203 F 
ATOM     92  C   UNL A   1      37.766  32.266  38.204  1.00  0.00     0.198 A 
ATOM     93  C   UNL A   1      38.908  34.226  37.419  1.00  0.00     0.198 A 
ATOM     94  F   UNL A   1      39.993  34.203  35.332  1.00  0.00    -0.203 F 
ATOM     95  F   UNL A   1      37.007  31.656  39.124  1.00  0.00    -0.200 F 
ATOM     96  C   UNL A   1      38.148  33.587  38.387  1.00  0.00     0.200 A 
ATOM     97  F   UNL A   1      39.289  35.499  37.600  1.00  0.00    -0.200 F 
ATOM     98  F   UNL A   1      37.776  34.247  39.492  1.00  0.00    -0.200 F 
ENDBRANCH  65  88
ENDBRANCH  39  40
ENDBRANCH  32  34
ENDBRANCH  31  32
ENDBRANCH  30  31
ENDBRANCH  29  30
ENDBRANCH  28  29
ENDBRANCH   1  28
TORSDOF 19
ENDMDL
