MODEL 1
REMARK VINA RESULT:     -11.7      0.000      0.000
REMARK SMILES N#C/C(=C/c1cc(Br)ccc1OCC(=O)OCCOCCOC(=O)c1ccc(-c2c3nc(c(-c4c(F)c(F)c(F)c(F)c4F)c4ccc([nH]4)c(-c4c(F)c(F)c(F)c(F)c4F)c4nc(c(-c5c(F)c(F)c(F)c(F)c5F)c5ccc2[nH]5)C=C4)C=C3)cc1)c1ccc(F)cc1
REMARK SMILES IDX 18 1 17 2 16 3 14 4 15 5 13 6 12 7 11 8 5 9 6 10 7 11 10 12
REMARK SMILES IDX 8 13 9 14 4 15 3 16 2 17 1 18 88 19 89 20 94 21 90 22 93 23
REMARK SMILES IDX 91 24 92 25 19 26 20 27 21 28 22 29 23 30 24 31 25 32 26 33
REMARK SMILES IDX 87 34 27 35 86 36 28 37 29 38 30 39 80 40 31 41 85 42 79 43
REMARK SMILES IDX 81 44 32 45 84 46 78 47 77 48 33 50 65 51 45 52 64 53 46 54
REMARK SMILES IDX 49 55 63 56 82 57 47 58 48 59 62 61 83 62 50 63 34 64 35 65
REMARK SMILES IDX 43 66 36 67 37 68 41 69 44 70 38 71 39 72 42 73 40 74 66 75
REMARK SMILES IDX 67 76 75 77 68 78 69 79 73 80 76 81 70 82 71 83 74 84 72 85
REMARK SMILES IDX 51 86 52 87 60 88 53 89 54 90 58 91 61 92 55 93 56 94 59 95
REMARK SMILES IDX 57 96
REMARK H PARENT 81 49 49 60
REMARK Flexibility Score: inf
ROOT
ATOM      1  C   UNL A   1      31.175  27.577  24.823  1.00  0.00     0.202 C 
ENDROOT
BRANCH   1   2
ATOM      2  C   UNL A   1      31.845  26.207  25.020  1.00  0.00     0.261 C 
BRANCH   2   3
ATOM      3  O   UNL A   1      30.887  25.121  25.077  1.00  0.00    -0.461 OA
BRANCH   3   4
ATOM      4  C   UNL A   1      31.088  24.258  26.114  1.00  0.00     0.344 C 
ATOM      5  O   UNL A   1      31.399  24.604  27.249  1.00  0.00    -0.248 OA
BRANCH   4   6
ATOM      6  C   UNL A   1      30.846  22.784  25.764  1.00  0.00     0.351 C 
BRANCH   6   7
ATOM      7  O   UNL A   1      31.870  21.835  25.914  1.00  0.00    -0.481 OA
BRANCH   7   8
ATOM      8  C   UNL A   1      32.154  20.833  25.029  1.00  0.00     0.127 A 
ATOM      9  C   UNL A   1      32.533  20.871  23.671  1.00  0.00     0.019 A 
ATOM     10  C   UNL A   1      33.085  19.661  23.163  1.00  0.00     0.027 A 
ATOM     11  C   UNL A   1      33.151  18.467  23.886  1.00  0.00     0.018 A 
ATOM     12  C   UNL A   1      32.178  19.600  25.732  1.00  0.00     0.048 A 
ATOM     13  Br  UNL A   1      34.000  16.958  23.129  1.00  0.00    -0.051 Br
ATOM     14  C   UNL A   1      32.659  18.420  25.168  1.00  0.00     0.019 A 
BRANCH   9  15
ATOM     15  C   UNL A   1      32.568  22.093  22.798  1.00  0.00     0.032 C 
ATOM     16  C   UNL A   1      33.328  23.212  22.842  1.00  0.00     0.060 C 
BRANCH  16  17
ATOM     17  C   UNL A   1      33.227  24.303  21.789  1.00  0.00     0.100 C 
ATOM     18  N   UNL A   1      33.143  25.209  20.916  1.00  0.00    -0.192 NA
ENDBRANCH  16  17
BRANCH  16  19
ATOM     19  C   UNL A   1      34.583  23.316  23.649  1.00  0.00    -0.008 A 
ATOM     20  C   UNL A   1      34.554  23.851  24.956  1.00  0.00     0.012 A 
ATOM     21  C   UNL A   1      35.813  22.878  23.134  1.00  0.00     0.012 A 
ATOM     22  C   UNL A   1      35.736  24.079  25.664  1.00  0.00     0.040 A 
ATOM     23  C   UNL A   1      36.991  23.064  23.868  1.00  0.00     0.040 A 
ATOM     24  C   UNL A   1      36.945  23.691  25.109  1.00  0.00     0.123 A 
ATOM     25  F   UNL A   1      38.083  23.926  25.776  1.00  0.00    -0.207 F 
ENDBRANCH  16  19
ENDBRANCH   9  15
ENDBRANCH   7   8
ENDBRANCH   6   7
ENDBRANCH   4   6
ENDBRANCH   3   4
ENDBRANCH   2   3
ENDBRANCH   1   2
BRANCH   1  26
ATOM     26  O   UNL A   1      31.411  28.577  25.825  1.00  0.00    -0.374 OA
BRANCH  26  27
ATOM     27  C   UNL A   1      31.508  29.914  25.363  1.00  0.00     0.202 C 
BRANCH  27  28
ATOM     28  C   UNL A   1      31.779  30.991  26.410  1.00  0.00     0.261 C 
BRANCH  28  29
ATOM     29  O   UNL A   1      32.922  30.732  27.200  1.00  0.00    -0.460 OA
BRANCH  29  30
ATOM     30  C   UNL A   1      33.584  31.847  27.557  1.00  0.00     0.338 C 
ATOM     31  O   UNL A   1      33.180  32.995  27.629  1.00  0.00    -0.246 OA
BRANCH  30  32
ATOM     32  C   UNL A   1      34.878  31.395  28.040  1.00  0.00     0.060 A 
ATOM     33  C   UNL A   1      35.014  30.030  28.298  1.00  0.00     0.016 A 
ATOM     34  C   UNL A   1      35.940  32.294  28.170  1.00  0.00     0.016 A 
ATOM     35  C   UNL A   1      36.231  29.555  28.746  1.00  0.00     0.010 A 
ATOM     36  C   UNL A   1      37.160  31.816  28.624  1.00  0.00     0.010 A 
ATOM     37  C   UNL A   1      37.288  30.455  28.945  1.00  0.00    -0.014 A 
BRANCH  37  38
ATOM     38  C   UNL A   1      38.476  29.978  29.664  1.00  0.00     0.031 A 
ATOM     39  C   UNL A   1      38.695  30.474  31.059  1.00  0.00     0.074 A 
ATOM     40  C   UNL A   1      39.279  29.074  29.086  1.00  0.00     0.049 A 
ATOM     41  N   UNL A   1      39.642  30.172  31.905  1.00  0.00    -0.248 NA
ATOM     42  C   UNL A   1      37.713  31.447  31.572  1.00  0.00     0.031 C 
ATOM     43  C   UNL A   1      39.099  28.526  27.741  1.00  0.00     0.029 A 
ATOM     44  N   UNL A   1      40.400  28.452  29.560  1.00  0.00    -0.354 N 
ATOM     45  C   UNL A   1      39.367  30.911  33.048  1.00  0.00     0.074 A 
ATOM     46  C   UNL A   1      38.194  31.709  32.777  1.00  0.00     0.031 C 
ATOM     47  C   UNL A   1      40.080  27.641  27.498  1.00  0.00     0.029 A 
ATOM     48  C   UNL A   1      40.967  27.590  28.657  1.00  0.00     0.049 A 
ATOM     49  H   UNL A   1      40.764  28.608  30.461  1.00  0.00     0.167 HD
ATOM     50  C   UNL A   1      40.037  30.903  34.221  1.00  0.00     0.037 A 
ATOM     51  C   UNL A   1      42.092  26.859  28.767  1.00  0.00     0.037 A 
ATOM     52  C   UNL A   1      41.205  30.099  34.454  1.00  0.00     0.049 A 
ATOM     53  C   UNL A   1      42.857  26.925  30.061  1.00  0.00     0.074 A 
ATOM     54  C   UNL A   1      41.965  29.989  35.603  1.00  0.00     0.029 A 
ATOM     55  N   UNL A   1      41.788  29.270  33.503  1.00  0.00    -0.354 N 
ATOM     56  N   UNL A   1      42.578  27.596  31.155  1.00  0.00    -0.248 NA
ATOM     57  C   UNL A   1      44.091  26.135  30.139  1.00  0.00     0.031 C 
ATOM     58  C   UNL A   1      43.043  29.141  35.327  1.00  0.00     0.029 A 
ATOM     59  C   UNL A   1      42.922  28.675  34.026  1.00  0.00     0.049 A 
ATOM     60  H   UNL A   1      41.445  29.129  32.591  1.00  0.00     0.167 HD
ATOM     61  C   UNL A   1      43.591  27.299  32.056  1.00  0.00     0.074 A 
ATOM     62  C   UNL A   1      44.476  26.365  31.386  1.00  0.00     0.031 C 
ATOM     63  C   UNL A   1      43.781  27.757  33.319  1.00  0.00     0.037 A 
BRANCH  50  64
ATOM     64  C   UNL A   1      39.542  31.810  35.310  1.00  0.00     0.064 A 
ATOM     65  C   UNL A   1      39.983  33.138  35.427  1.00  0.00     0.173 A 
ATOM     66  C   UNL A   1      38.607  31.346  36.245  1.00  0.00     0.173 A 
ATOM     67  F   UNL A   1      40.895  33.626  34.571  1.00  0.00    -0.203 F 
ATOM     68  C   UNL A   1      39.523  33.958  36.454  1.00  0.00     0.198 A 
ATOM     69  C   UNL A   1      38.126  32.178  37.253  1.00  0.00     0.198 A 
ATOM     70  F   UNL A   1      38.159  30.083  36.185  1.00  0.00    -0.203 F 
ATOM     71  F   UNL A   1      39.995  35.206  36.575  1.00  0.00    -0.200 F 
ATOM     72  C   UNL A   1      38.589  33.480  37.362  1.00  0.00     0.200 A 
ATOM     73  F   UNL A   1      37.217  31.717  38.124  1.00  0.00    -0.200 F 
ATOM     74  F   UNL A   1      38.142  34.272  38.345  1.00  0.00    -0.200 F 
ENDBRANCH  50  64
BRANCH  51  75
ATOM     75  C   UNL A   1      42.550  26.028  27.625  1.00  0.00     0.064 A 
ATOM     76  C   UNL A   1      43.557  26.474  26.757  1.00  0.00     0.173 A 
ATOM     77  C   UNL A   1      41.994  24.762  27.381  1.00  0.00     0.173 A 
ATOM     78  F   UNL A   1      44.109  27.682  26.938  1.00  0.00    -0.203 F 
ATOM     79  C   UNL A   1      43.975  25.694  25.679  1.00  0.00     0.198 A 
ATOM     80  C   UNL A   1      42.435  23.971  26.323  1.00  0.00     0.198 A 
ATOM     81  F   UNL A   1      41.032  24.284  28.184  1.00  0.00    -0.203 F 
ATOM     82  F   UNL A   1      44.908  26.163  24.841  1.00  0.00    -0.200 F 
ATOM     83  C   UNL A   1      43.419  24.442  25.468  1.00  0.00     0.200 A 
ATOM     84  F   UNL A   1      41.906  22.754  26.133  1.00  0.00    -0.200 F 
ATOM     85  F   UNL A   1      43.828  23.690  24.435  1.00  0.00    -0.200 F 
ENDBRANCH  51  75
BRANCH  63  86
ATOM     86  C   UNL A   1      44.987  27.245  34.049  1.00  0.00     0.064 A 
ATOM     87  C   UNL A   1      46.225  27.900  33.964  1.00  0.00     0.173 A 
ATOM     88  C   UNL A   1      44.893  26.114  34.873  1.00  0.00     0.173 A 
ATOM     89  F   UNL A   1      46.368  28.976  33.177  1.00  0.00    -0.203 F 
ATOM     90  C   UNL A   1      47.332  27.422  34.658  1.00  0.00     0.198 A 
ATOM     91  C   UNL A   1      45.994  25.661  35.593  1.00  0.00     0.198 A 
ATOM     92  F   UNL A   1      43.729  25.459  34.994  1.00  0.00    -0.203 F 
ATOM     93  F   UNL A   1      48.519  28.030  34.521  1.00  0.00    -0.200 F 
ATOM     94  C   UNL A   1      47.214  26.310  35.478  1.00  0.00     0.200 A 
ATOM     95  F   UNL A   1      45.874  24.597  36.398  1.00  0.00    -0.200 F 
ATOM     96  F   UNL A   1      48.280  25.857  36.151  1.00  0.00    -0.200 F 
ENDBRANCH  63  86
ENDBRANCH  37  38
ENDBRANCH  30  32
ENDBRANCH  29  30
ENDBRANCH  28  29
ENDBRANCH  27  28
ENDBRANCH  26  27
ENDBRANCH   1  26
TORSDOF 19
ENDMDL
MODEL 2
REMARK VINA RESULT:     -11.7      4.493      9.711
REMARK SMILES N#C/C(=C/c1cc(Br)ccc1OCC(=O)OCCOCCOC(=O)c1ccc(-c2c3nc(c(-c4c(F)c(F)c(F)c(F)c4F)c4ccc([nH]4)c(-c4c(F)c(F)c(F)c(F)c4F)c4nc(c(-c5c(F)c(F)c(F)c(F)c5F)c5ccc2[nH]5)C=C4)C=C3)cc1)c1ccc(F)cc1
REMARK SMILES IDX 18 1 17 2 16 3 14 4 15 5 13 6 12 7 11 8 5 9 6 10 7 11 10 12
REMARK SMILES IDX 8 13 9 14 4 15 3 16 2 17 1 18 88 19 89 20 94 21 90 22 93 23
REMARK SMILES IDX 91 24 92 25 19 26 20 27 21 28 22 29 23 30 24 31 25 32 26 33
REMARK SMILES IDX 87 34 27 35 86 36 28 37 29 38 30 39 80 40 31 41 85 42 79 43
REMARK SMILES IDX 81 44 32 45 84 46 78 47 77 48 33 50 65 51 45 52 64 53 46 54
REMARK SMILES IDX 49 55 63 56 82 57 47 58 48 59 62 61 83 62 50 63 34 64 35 65
REMARK SMILES IDX 43 66 36 67 37 68 41 69 44 70 38 71 39 72 42 73 40 74 66 75
REMARK SMILES IDX 67 76 75 77 68 78 69 79 73 80 76 81 70 82 71 83 74 84 72 85
REMARK SMILES IDX 51 86 52 87 60 88 53 89 54 90 58 91 61 92 55 93 56 94 59 95
REMARK SMILES IDX 57 96
REMARK H PARENT 81 49 49 60
REMARK Flexibility Score: inf
ROOT
ATOM      1  C   UNL A   1      34.190  22.203  23.857  1.00  0.00     0.202 C 
ENDROOT
BRANCH   1   2
ATOM      2  C   UNL A   1      33.135  23.298  24.083  1.00  0.00     0.261 C 
BRANCH   2   3
ATOM      3  O   UNL A   1      32.588  23.810  22.842  1.00  0.00    -0.461 OA
BRANCH   3   4
ATOM      4  C   UNL A   1      33.181  24.960  22.408  1.00  0.00     0.344 C 
ATOM      5  O   UNL A   1      34.385  25.182  22.475  1.00  0.00    -0.248 OA
BRANCH   4   6
ATOM      6  C   UNL A   1      32.213  25.965  21.768  1.00  0.00     0.351 C 
BRANCH   6   7
ATOM      7  O   UNL A   1      32.063  27.253  22.305  1.00  0.00    -0.481 OA
BRANCH   7   8
ATOM      8  C   UNL A   1      30.869  27.861  22.578  1.00  0.00     0.127 A 
ATOM      9  C   UNL A   1      29.878  27.575  23.540  1.00  0.00     0.019 A 
ATOM     10  C   UNL A   1      28.938  28.619  23.769  1.00  0.00     0.027 A 
ATOM     11  C   UNL A   1      28.890  29.804  23.030  1.00  0.00     0.018 A 
ATOM     12  C   UNL A   1      30.775  29.045  21.801  1.00  0.00     0.048 A 
ATOM     13  Br  UNL A   1      27.654  31.154  23.502  1.00  0.00    -0.051 Br
ATOM     14  C   UNL A   1      29.789  30.007  22.011  1.00  0.00     0.019 A 
BRANCH   9  15
ATOM     15  C   UNL A   1      29.842  26.373  24.440  1.00  0.00     0.032 C 
ATOM     16  C   UNL A   1      30.685  25.945  25.408  1.00  0.00     0.060 C 
BRANCH  16  17
ATOM     17  C   UNL A   1      30.399  24.710  26.247  1.00  0.00     0.100 C 
ATOM     18  N   UNL A   1      30.161  23.686  26.944  1.00  0.00    -0.192 NA
ENDBRANCH  16  17
BRANCH  16  19
ATOM     19  C   UNL A   1      31.736  26.816  26.021  1.00  0.00    -0.008 A 
ATOM     20  C   UNL A   1      31.403  27.729  27.047  1.00  0.00     0.012 A 
ATOM     21  C   UNL A   1      33.074  26.741  25.603  1.00  0.00     0.012 A 
ATOM     22  C   UNL A   1      32.345  28.640  27.530  1.00  0.00     0.040 A 
ATOM     23  C   UNL A   1      34.026  27.624  26.125  1.00  0.00     0.040 A 
ATOM     24  C   UNL A   1      33.647  28.584  27.057  1.00  0.00     0.123 A 
ATOM     25  F   UNL A   1      34.548  29.469  27.503  1.00  0.00    -0.207 F 
ENDBRANCH  16  19
ENDBRANCH   9  15
ENDBRANCH   7   8
ENDBRANCH   6   7
ENDBRANCH   4   6
ENDBRANCH   3   4
ENDBRANCH   2   3
ENDBRANCH   1   2
BRANCH   1  26
ATOM     26  O   UNL A   1      35.434  22.331  24.560  1.00  0.00    -0.374 OA
BRANCH  26  27
ATOM     27  C   UNL A   1      35.816  21.225  25.362  1.00  0.00     0.202 C 
BRANCH  27  28
ATOM     28  C   UNL A   1      37.237  20.698  25.183  1.00  0.00     0.261 C 
BRANCH  28  29
ATOM     29  O   UNL A   1      38.225  21.705  25.265  1.00  0.00    -0.460 OA
BRANCH  29  30
ATOM     30  C   UNL A   1      39.250  21.378  26.072  1.00  0.00     0.338 C 
ATOM     31  O   UNL A   1      39.801  20.300  26.223  1.00  0.00    -0.246 OA
BRANCH  30  32
ATOM     32  C   UNL A   1      39.728  22.634  26.626  1.00  0.00     0.060 A 
ATOM     33  C   UNL A   1      39.125  23.801  26.155  1.00  0.00     0.016 A 
ATOM     34  C   UNL A   1      40.701  22.643  27.629  1.00  0.00     0.016 A 
ATOM     35  C   UNL A   1      39.539  25.016  26.664  1.00  0.00     0.010 A 
ATOM     36  C   UNL A   1      41.118  23.864  28.136  1.00  0.00     0.010 A 
ATOM     37  C   UNL A   1      40.561  25.047  27.624  1.00  0.00    -0.014 A 
BRANCH  37  38
ATOM     38  C   UNL A   1      41.163  26.345  27.952  1.00  0.00     0.031 A 
ATOM     39  C   UNL A   1      42.579  26.586  27.532  1.00  0.00     0.074 A 
ATOM     40  C   UNL A   1      40.417  27.286  28.549  1.00  0.00     0.049 A 
ATOM     41  N   UNL A   1      43.312  27.656  27.672  1.00  0.00    -0.248 NA
ATOM     42  C   UNL A   1      43.265  25.467  26.861  1.00  0.00     0.031 C 
ATOM     43  C   UNL A   1      39.021  27.122  28.954  1.00  0.00     0.029 A 
ATOM     44  N   UNL A   1      40.729  28.567  28.909  1.00  0.00    -0.354 N 
ATOM     45  C   UNL A   1      44.539  27.342  27.104  1.00  0.00     0.074 A 
ATOM     46  C   UNL A   1      44.471  25.970  26.657  1.00  0.00     0.031 C 
ATOM     47  C   UNL A   1      38.592  28.269  29.507  1.00  0.00     0.029 A 
ATOM     48  C   UNL A   1      39.694  29.227  29.521  1.00  0.00     0.049 A 
ATOM     49  H   UNL A   1      41.609  28.975  28.745  1.00  0.00     0.167 HD
ATOM     50  C   UNL A   1      45.617  28.144  26.963  1.00  0.00     0.037 A 
ATOM     51  C   UNL A   1      39.664  30.466  30.045  1.00  0.00     0.037 A 
ATOM     52  C   UNL A   1      45.652  29.504  27.426  1.00  0.00     0.049 A 
ATOM     53  C   UNL A   1      40.904  31.311  29.935  1.00  0.00     0.074 A 
ATOM     54  C   UNL A   1      46.676  30.425  27.328  1.00  0.00     0.029 A 
ATOM     55  N   UNL A   1      44.604  30.133  28.087  1.00  0.00    -0.354 N 
ATOM     56  N   UNL A   1      42.053  31.028  29.367  1.00  0.00    -0.248 NA
ATOM     57  C   UNL A   1      40.846  32.649  30.538  1.00  0.00     0.031 C 
ATOM     58  C   UNL A   1      46.271  31.592  27.986  1.00  0.00     0.029 A 
ATOM     59  C   UNL A   1      44.971  31.419  28.440  1.00  0.00     0.049 A 
ATOM     60  H   UNL A   1      43.729  29.722  28.278  1.00  0.00     0.167 HD
ATOM     61  C   UNL A   1      42.851  32.152  29.529  1.00  0.00     0.074 A 
ATOM     62  C   UNL A   1      42.041  33.133  30.226  1.00  0.00     0.031 C 
ATOM     63  C   UNL A   1      44.135  32.360  29.144  1.00  0.00     0.037 A 
BRANCH  50  64
ATOM     64  C   UNL A   1      46.840  27.557  26.320  1.00  0.00     0.064 A 
ATOM     65  C   UNL A   1      47.847  26.933  27.073  1.00  0.00     0.173 A 
ATOM     66  C   UNL A   1      47.003  27.613  24.928  1.00  0.00     0.173 A 
ATOM     67  F   UNL A   1      47.753  26.872  28.410  1.00  0.00    -0.203 F 
ATOM     68  C   UNL A   1      48.981  26.409  26.458  1.00  0.00     0.198 A 
ATOM     69  C   UNL A   1      48.123  27.061  24.314  1.00  0.00     0.198 A 
ATOM     70  F   UNL A   1      46.075  28.206  24.162  1.00  0.00    -0.203 F 
ATOM     71  F   UNL A   1      49.953  25.863  27.201  1.00  0.00    -0.200 F 
ATOM     72  C   UNL A   1      49.115  26.466  25.078  1.00  0.00     0.200 A 
ATOM     73  F   UNL A   1      48.247  27.110  22.980  1.00  0.00    -0.200 F 
ATOM     74  F   UNL A   1      50.204  25.956  24.487  1.00  0.00    -0.200 F 
ENDBRANCH  50  64
BRANCH  51  75
ATOM     75  C   UNL A   1      38.435  30.958  30.717  1.00  0.00     0.064 A 
ATOM     76  C   UNL A   1      37.368  31.492  29.982  1.00  0.00     0.173 A 
ATOM     77  C   UNL A   1      38.300  30.899  32.113  1.00  0.00     0.173 A 
ATOM     78  F   UNL A   1      37.454  31.585  28.648  1.00  0.00    -0.203 F 
ATOM     79  C   UNL A   1      36.221  31.964  30.619  1.00  0.00     0.198 A 
ATOM     80  C   UNL A   1      37.141  31.343  32.745  1.00  0.00     0.198 A 
ATOM     81  F   UNL A   1      39.289  30.393  32.864  1.00  0.00    -0.203 F 
ATOM     82  F   UNL A   1      35.233  32.508  29.896  1.00  0.00    -0.200 F 
ATOM     83  C   UNL A   1      36.106  31.883  31.999  1.00  0.00     0.200 A 
ATOM     84  F   UNL A   1      37.028  31.245  34.077  1.00  0.00    -0.200 F 
ATOM     85  F   UNL A   1      34.999  32.331  32.609  1.00  0.00    -0.200 F 
ENDBRANCH  51  75
BRANCH  63  86
ATOM     86  C   UNL A   1      44.730  33.698  29.469  1.00  0.00     0.064 A 
ATOM     87  C   UNL A   1      45.444  33.912  30.657  1.00  0.00     0.173 A 
ATOM     88  C   UNL A   1      44.619  34.763  28.563  1.00  0.00     0.173 A 
ATOM     89  F   UNL A   1      45.563  32.928  31.560  1.00  0.00    -0.203 F 
ATOM     90  C   UNL A   1      46.003  35.155  30.938  1.00  0.00     0.198 A 
ATOM     91  C   UNL A   1      45.210  35.994  28.832  1.00  0.00     0.198 A 
ATOM     92  F   UNL A   1      43.954  34.606  27.409  1.00  0.00    -0.203 F 
ATOM     93  F   UNL A   1      46.635  35.354  32.103  1.00  0.00    -0.200 F 
ATOM     94  C   UNL A   1      45.893  36.191  30.023  1.00  0.00     0.200 A 
ATOM     95  F   UNL A   1      45.118  36.989  27.940  1.00  0.00    -0.200 F 
ATOM     96  F   UNL A   1      46.439  37.385  30.293  1.00  0.00    -0.200 F 
ENDBRANCH  63  86
ENDBRANCH  37  38
ENDBRANCH  30  32
ENDBRANCH  29  30
ENDBRANCH  28  29
ENDBRANCH  27  28
ENDBRANCH  26  27
ENDBRANCH   1  26
TORSDOF 19
ENDMDL
MODEL 3
REMARK VINA RESULT:     -11.5      1.221      7.345
REMARK SMILES N#C/C(=C/c1cc(Br)ccc1OCC(=O)OCCOCCOC(=O)c1ccc(-c2c3nc(c(-c4c(F)c(F)c(F)c(F)c4F)c4ccc([nH]4)c(-c4c(F)c(F)c(F)c(F)c4F)c4nc(c(-c5c(F)c(F)c(F)c(F)c5F)c5ccc2[nH]5)C=C4)C=C3)cc1)c1ccc(F)cc1
REMARK SMILES IDX 18 1 17 2 16 3 14 4 15 5 13 6 12 7 11 8 5 9 6 10 7 11 10 12
REMARK SMILES IDX 8 13 9 14 4 15 3 16 2 17 1 18 88 19 89 20 94 21 90 22 93 23
REMARK SMILES IDX 91 24 92 25 19 26 20 27 21 28 22 29 23 30 24 31 25 32 26 33
REMARK SMILES IDX 87 34 27 35 86 36 28 37 29 38 30 39 80 40 31 41 85 42 79 43
REMARK SMILES IDX 81 44 32 45 84 46 78 47 77 48 33 50 65 51 45 52 64 53 46 54
REMARK SMILES IDX 49 55 63 56 82 57 47 58 48 59 62 61 83 62 50 63 34 64 35 65
REMARK SMILES IDX 43 66 36 67 37 68 41 69 44 70 38 71 39 72 42 73 40 74 66 75
REMARK SMILES IDX 67 76 75 77 68 78 69 79 73 80 76 81 70 82 71 83 74 84 72 85
REMARK SMILES IDX 51 86 52 87 60 88 53 89 54 90 58 91 61 92 55 93 56 94 59 95
REMARK SMILES IDX 57 96
REMARK H PARENT 81 49 49 60
REMARK Flexibility Score: inf
ROOT
ATOM      1  C   UNL A   1      31.464  26.940  26.111  1.00  0.00     0.202 C 
ENDROOT
BRANCH   1   2
ATOM      2  C   UNL A   1      30.308  25.927  26.119  1.00  0.00     0.261 C 
BRANCH   2   3
ATOM      3  O   UNL A   1      30.604  24.738  25.344  1.00  0.00    -0.461 OA
BRANCH   3   4
ATOM      4  C   UNL A   1      31.103  23.704  26.082  1.00  0.00     0.344 C 
ATOM      5  O   UNL A   1      31.055  23.646  27.306  1.00  0.00    -0.248 OA
BRANCH   4   6
ATOM      6  C   UNL A   1      31.703  22.566  25.246  1.00  0.00     0.351 C 
BRANCH   6   7
ATOM      7  O   UNL A   1      32.857  21.893  25.679  1.00  0.00    -0.481 OA
BRANCH   7   8
ATOM      8  C   UNL A   1      33.390  20.781  25.091  1.00  0.00     0.127 A 
ATOM      9  C   UNL A   1      34.721  20.318  25.012  1.00  0.00     0.019 A 
ATOM     10  C   UNL A   1      34.864  18.954  24.628  1.00  0.00     0.027 A 
ATOM     11  C   UNL A   1      33.803  18.138  24.231  1.00  0.00     0.018 A 
ATOM     12  C   UNL A   1      32.330  19.956  24.633  1.00  0.00     0.048 A 
ATOM     13  Br  UNL A   1      34.116  16.316  23.840  1.00  0.00    -0.051 Br
ATOM     14  C   UNL A   1      32.527  18.649  24.194  1.00  0.00     0.019 A 
BRANCH   9  15
ATOM     15  C   UNL A   1      35.944  21.065  25.459  1.00  0.00     0.032 C 
ATOM     16  C   UNL A   1      36.383  22.318  25.195  1.00  0.00     0.060 C 
BRANCH  16  17
ATOM     17  C   UNL A   1      37.641  22.888  25.829  1.00  0.00     0.100 C 
ATOM     18  N   UNL A   1      38.685  23.361  26.355  1.00  0.00    -0.192 NA
ENDBRANCH  16  17
BRANCH  16  19
ATOM     19  C   UNL A   1      35.510  23.384  24.609  1.00  0.00    -0.008 A 
ATOM     20  C   UNL A   1      35.122  24.500  25.382  1.00  0.00     0.012 A 
ATOM     21  C   UNL A   1      35.069  23.306  23.279  1.00  0.00     0.012 A 
ATOM     22  C   UNL A   1      34.201  25.427  24.891  1.00  0.00     0.040 A 
ATOM     23  C   UNL A   1      34.182  24.265  22.774  1.00  0.00     0.040 A 
ATOM     24  C   UNL A   1      33.733  25.296  23.592  1.00  0.00     0.123 A 
ATOM     25  F   UNL A   1      32.834  26.171  23.124  1.00  0.00    -0.207 F 
ENDBRANCH  16  19
ENDBRANCH   9  15
ENDBRANCH   7   8
ENDBRANCH   6   7
ENDBRANCH   4   6
ENDBRANCH   3   4
ENDBRANCH   2   3
ENDBRANCH   1   2
BRANCH   1  26
ATOM     26  O   UNL A   1      31.170  28.279  26.535  1.00  0.00    -0.374 OA
BRANCH  26  27
ATOM     27  C   UNL A   1      31.398  29.302  25.579  1.00  0.00     0.202 C 
BRANCH  27  28
ATOM     28  C   UNL A   1      31.970  30.619  26.095  1.00  0.00     0.261 C 
BRANCH  28  29
ATOM     29  O   UNL A   1      33.296  30.506  26.573  1.00  0.00    -0.460 OA
BRANCH  29  30
ATOM     30  C   UNL A   1      33.698  31.579  27.277  1.00  0.00     0.338 C 
ATOM     31  O   UNL A   1      33.107  32.622  27.503  1.00  0.00    -0.246 OA
BRANCH  30  32
ATOM     32  C   UNL A   1      34.948  31.186  27.907  1.00  0.00     0.060 A 
ATOM     33  C   UNL A   1      35.078  29.844  28.270  1.00  0.00     0.016 A 
ATOM     34  C   UNL A   1      35.981  32.112  28.072  1.00  0.00     0.016 A 
ATOM     35  C   UNL A   1      36.254  29.425  28.859  1.00  0.00     0.010 A 
ATOM     36  C   UNL A   1      37.160  31.690  28.667  1.00  0.00     0.010 A 
ATOM     37  C   UNL A   1      37.276  30.357  29.091  1.00  0.00    -0.014 A 
BRANCH  37  38
ATOM     38  C   UNL A   1      38.398  29.953  29.948  1.00  0.00     0.031 A 
ATOM     39  C   UNL A   1      39.397  28.992  29.385  1.00  0.00     0.074 A 
ATOM     40  C   UNL A   1      38.530  30.500  31.165  1.00  0.00     0.049 A 
ATOM     41  N   UNL A   1      40.486  28.518  29.927  1.00  0.00    -0.248 NA
ATOM     42  C   UNL A   1      39.135  28.494  28.022  1.00  0.00     0.031 C 
ATOM     43  C   UNL A   1      37.607  31.468  31.757  1.00  0.00     0.029 A 
ATOM     44  N   UNL A   1      39.497  30.326  32.114  1.00  0.00    -0.354 N 
ATOM     45  C   UNL A   1      41.038  27.674  28.973  1.00  0.00     0.074 A 
ATOM     46  C   UNL A   1      40.147  27.662  27.836  1.00  0.00     0.031 C 
ATOM     47  C   UNL A   1      38.057  31.807  32.976  1.00  0.00     0.029 A 
ATOM     48  C   UNL A   1      39.277  31.055  33.254  1.00  0.00     0.049 A 
ATOM     49  H   UNL A   1      40.274  29.735  31.992  1.00  0.00     0.167 HD
ATOM     50  C   UNL A   1      42.198  26.984  29.049  1.00  0.00     0.037 A 
ATOM     51  C   UNL A   1      39.987  31.087  34.397  1.00  0.00     0.037 A 
ATOM     52  C   UNL A   1      43.058  27.014  30.199  1.00  0.00     0.049 A 
ATOM     53  C   UNL A   1      41.237  30.252  34.478  1.00  0.00     0.074 A 
ATOM     54  C   UNL A   1      44.266  26.374  30.393  1.00  0.00     0.029 A 
ATOM     55  N   UNL A   1      42.785  27.725  31.362  1.00  0.00    -0.354 N 
ATOM     56  N   UNL A   1      41.779  29.482  33.563  1.00  0.00    -0.248 NA
ATOM     57  C   UNL A   1      41.975  30.290  35.746  1.00  0.00     0.031 C 
ATOM     58  C   UNL A   1      44.694  26.647  31.697  1.00  0.00     0.029 A 
ATOM     59  C   UNL A   1      43.784  27.508  32.294  1.00  0.00     0.049 A 
ATOM     60  H   UNL A   1      41.996  28.298  31.502  1.00  0.00     0.167 HD
ATOM     61  C   UNL A   1      42.927  28.954  34.137  1.00  0.00     0.074 A 
ATOM     62  C   UNL A   1      43.016  29.517  35.470  1.00  0.00     0.031 C 
ATOM     63  C   UNL A   1      43.827  28.081  33.616  1.00  0.00     0.037 A 
BRANCH  50  64
ATOM     64  C   UNL A   1      42.571  26.123  27.877  1.00  0.00     0.064 A 
ATOM     65  C   UNL A   1      43.398  26.592  26.845  1.00  0.00     0.173 A 
ATOM     66  C   UNL A   1      42.098  24.806  27.789  1.00  0.00     0.173 A 
ATOM     67  F   UNL A   1      43.859  27.853  26.867  1.00  0.00    -0.203 F 
ATOM     68  C   UNL A   1      43.719  25.782  25.758  1.00  0.00     0.198 A 
ATOM     69  C   UNL A   1      42.446  23.989  26.717  1.00  0.00     0.198 A 
ATOM     70  F   UNL A   1      41.297  24.309  28.744  1.00  0.00    -0.203 F 
ATOM     71  F   UNL A   1      44.470  26.269  24.761  1.00  0.00    -0.200 F 
ATOM     72  C   UNL A   1      43.249  24.478  25.699  1.00  0.00     0.200 A 
ATOM     73  F   UNL A   1      41.997  22.726  26.665  1.00  0.00    -0.200 F 
ATOM     74  F   UNL A   1      43.564  23.698  24.656  1.00  0.00    -0.200 F 
ENDBRANCH  50  64
BRANCH  51  75
ATOM     75  C   UNL A   1      39.525  31.919  35.536  1.00  0.00     0.064 A 
ATOM     76  C   UNL A   1      40.034  33.207  35.751  1.00  0.00     0.173 A 
ATOM     77  C   UNL A   1      38.555  31.445  36.434  1.00  0.00     0.173 A 
ATOM     78  F   UNL A   1      40.973  33.701  34.931  1.00  0.00    -0.203 F 
ATOM     79  C   UNL A   1      39.605  33.980  36.829  1.00  0.00     0.198 A 
ATOM     80  C   UNL A   1      38.105  32.230  37.492  1.00  0.00     0.198 A 
ATOM     81  F   UNL A   1      38.031  30.221  36.272  1.00  0.00    -0.203 F 
ATOM     82  F   UNL A   1      40.140  35.191  37.035  1.00  0.00    -0.200 F 
ATOM     83  C   UNL A   1      38.637  33.494  37.694  1.00  0.00     0.200 A 
ATOM     84  F   UNL A   1      37.157  31.762  38.315  1.00  0.00    -0.200 F 
ATOM     85  F   UNL A   1      38.220  34.241  38.726  1.00  0.00    -0.200 F 
ENDBRANCH  51  75
BRANCH  63  86
ATOM     86  C   UNL A   1      44.979  27.694  34.496  1.00  0.00     0.064 A 
ATOM     87  C   UNL A   1      44.919  26.563  35.324  1.00  0.00     0.173 A 
ATOM     88  C   UNL A   1      46.168  28.437  34.478  1.00  0.00     0.173 A 
ATOM     89  F   UNL A   1      43.797  25.831  35.386  1.00  0.00    -0.203 F 
ATOM     90  C   UNL A   1      46.000  26.207  36.123  1.00  0.00     0.198 A 
ATOM     91  C   UNL A   1      47.259  28.057  35.252  1.00  0.00     0.198 A 
ATOM     92  F   UNL A   1      46.278  29.521  33.696  1.00  0.00    -0.203 F 
ATOM     93  F   UNL A   1      45.903  25.155  36.947  1.00  0.00    -0.200 F 
ATOM     94  C   UNL A   1      47.171  26.948  36.081  1.00  0.00     0.200 A 
ATOM     95  F   UNL A   1      48.397  28.763  35.197  1.00  0.00    -0.200 F 
ATOM     96  F   UNL A   1      48.214  26.598  36.846  1.00  0.00    -0.200 F 
ENDBRANCH  63  86
ENDBRANCH  37  38
ENDBRANCH  30  32
ENDBRANCH  29  30
ENDBRANCH  28  29
ENDBRANCH  27  28
ENDBRANCH  26  27
ENDBRANCH   1  26
TORSDOF 19
ENDMDL
