MODEL 1
REMARK VINA RESULT:     -12.1      0.000      0.000
REMARK SMILES NC(=O)C1CC[NH+](Cc2ccc(C(=O)OCCOCCOC(=O)c3ccc(-c4c5nc(c(-c6c(F)c(F)c(F)c(F)c6F)c6ccc([nH]6)c(-c6c(F)c(F)c(F)c(F)c6F)c6nc(c(-c7c(F)c(F)c(F)c(F)c7F)c7ccc4[nH]7)C=C6)C=C5)cc3)cc2)CC1
REMARK SMILES IDX 17 1 16 2 15 3 13 4 14 5 12 6 9 7 10 8 88 9 11 10 87 11 8 12
REMARK SMILES IDX 7 13 4 14 5 15 90 16 6 17 89 18 2 20 1 21 3 24 18 25 19 26
REMARK SMILES IDX 20 27 21 28 22 29 23 30 24 31 25 32 86 33 26 34 85 35 27 36
REMARK SMILES IDX 28 37 29 38 79 39 30 40 84 41 78 42 80 43 31 44 83 45 77 46
REMARK SMILES IDX 76 47 32 49 64 50 44 51 63 52 45 53 48 54 62 55 81 56 46 57
REMARK SMILES IDX 47 58 61 60 82 61 49 62 33 63 34 64 42 65 35 66 36 67 40 68
REMARK SMILES IDX 43 69 37 70 38 71 41 72 39 73 65 74 66 75 74 76 67 77 68 78
REMARK SMILES IDX 72 79 75 80 69 81 70 82 73 83 71 84 50 85 51 86 59 87 52 88
REMARK SMILES IDX 53 89 57 90 60 91 54 92 55 93 58 94 56 95
REMARK H PARENT 7 19 1 22 1 23 80 48 48 59
REMARK Flexibility Score: inf
ROOT
ATOM      1  C   UNL A   1      32.110  27.168  25.070  1.00  0.00     0.202 C 
ENDROOT
BRANCH   1   2
ATOM      2  C   UNL A   1      32.642  27.228  23.635  1.00  0.00     0.261 C 
BRANCH   2   3
ATOM      3  O   UNL A   1      33.822  26.421  23.507  1.00  0.00    -0.460 OA
BRANCH   3   4
ATOM      4  C   UNL A   1      33.659  25.269  22.814  1.00  0.00     0.338 C 
ATOM      5  O   UNL A   1      33.379  25.170  21.628  1.00  0.00    -0.246 OA
BRANCH   4   6
ATOM      6  C   UNL A   1      34.007  24.102  23.663  1.00  0.00     0.060 A 
ATOM      7  C   UNL A   1      34.668  21.758  25.046  1.00  0.00     0.006 A 
ATOM      8  C   UNL A   1      35.520  22.255  24.049  1.00  0.00     0.010 A 
ATOM      9  C   UNL A   1      33.565  22.528  25.446  1.00  0.00     0.010 A 
ATOM     10  C   UNL A   1      35.188  23.417  23.358  1.00  0.00     0.016 A 
ATOM     11  C   UNL A   1      33.221  23.685  24.744  1.00  0.00     0.016 A 
BRANCH   7  12
ATOM     12  C   UNL A   1      34.840  20.329  25.531  1.00  0.00     0.299 C 
BRANCH  12  13
ATOM     13  N   UNL A   1      34.175  19.300  24.691  1.00  0.00    -0.331 N 
ATOM     14  C   UNL A   1      33.113  16.627  24.033  1.00  0.00     0.089 C 
ATOM     15  C   UNL A   1      34.404  17.182  23.424  1.00  0.00     0.075 C 
ATOM     16  C   UNL A   1      32.194  17.794  24.407  1.00  0.00     0.075 C 
ATOM     17  C   UNL A   1      35.069  18.187  24.363  1.00  0.00     0.263 C 
ATOM     18  C   UNL A   1      32.904  18.837  25.276  1.00  0.00     0.263 C 
ATOM     19  H   UNL A   1      33.942  19.756  23.809  1.00  0.00     0.348 HD
BRANCH  14  20
ATOM     20  C   UNL A   1      33.393  15.708  25.223  1.00  0.00     0.220 C 
ATOM     21  N   UNL A   1      32.422  15.679  26.180  1.00  0.00    -0.369 N 
ATOM     22  H   UNL A   1      32.532  15.109  26.976  1.00  0.00     0.159 HD
ATOM     23  H   UNL A   1      31.611  16.227  26.076  1.00  0.00     0.159 HD
ATOM     24  O   UNL A   1      34.411  15.044  25.372  1.00  0.00    -0.275 OA
ENDBRANCH  14  20
ENDBRANCH  12  13
ENDBRANCH   7  12
ENDBRANCH   4   6
ENDBRANCH   3   4
ENDBRANCH   2   3
ENDBRANCH   1   2
BRANCH   1  25
ATOM     25  O   UNL A   1      32.244  28.362  25.843  1.00  0.00    -0.374 OA
BRANCH  25  26
ATOM     26  C   UNL A   1      31.953  29.599  25.192  1.00  0.00     0.202 C 
BRANCH  26  27
ATOM     27  C   UNL A   1      31.765  30.819  26.100  1.00  0.00     0.261 C 
BRANCH  27  28
ATOM     28  O   UNL A   1      32.578  30.743  27.283  1.00  0.00    -0.460 OA
BRANCH  28  29
ATOM     29  C   UNL A   1      33.330  31.843  27.514  1.00  0.00     0.338 C 
ATOM     30  O   UNL A   1      32.948  33.004  27.577  1.00  0.00    -0.246 OA
BRANCH  29  31
ATOM     31  C   UNL A   1      34.710  31.461  27.859  1.00  0.00     0.060 A 
ATOM     32  C   UNL A   1      34.945  30.109  28.131  1.00  0.00     0.016 A 
ATOM     33  C   UNL A   1      35.735  32.401  27.999  1.00  0.00     0.016 A 
ATOM     34  C   UNL A   1      36.185  29.699  28.611  1.00  0.00     0.010 A 
ATOM     35  C   UNL A   1      36.982  31.987  28.485  1.00  0.00     0.010 A 
ATOM     36  C   UNL A   1      37.197  30.642  28.835  1.00  0.00    -0.014 A 
BRANCH  36  37
ATOM     37  C   UNL A   1      38.417  30.210  29.561  1.00  0.00     0.031 A 
ATOM     38  C   UNL A   1      38.625  30.655  30.982  1.00  0.00     0.074 A 
ATOM     39  C   UNL A   1      39.283  29.355  28.988  1.00  0.00     0.049 A 
ATOM     40  N   UNL A   1      39.553  30.301  31.836  1.00  0.00    -0.248 NA
ATOM     41  C   UNL A   1      37.658  31.628  31.514  1.00  0.00     0.031 C 
ATOM     42  C   UNL A   1      39.178  28.836  27.626  1.00  0.00     0.029 A 
ATOM     43  N   UNL A   1      40.411  28.757  29.493  1.00  0.00    -0.354 N 
ATOM     44  C   UNL A   1      39.280  31.003  33.004  1.00  0.00     0.074 A 
ATOM     45  C   UNL A   1      38.125  31.834  32.738  1.00  0.00     0.031 C 
ATOM     46  C   UNL A   1      40.193  27.982  27.407  1.00  0.00     0.029 A 
ATOM     47  C   UNL A   1      41.024  27.907  28.606  1.00  0.00     0.049 A 
ATOM     48  H   UNL A   1      40.748  28.923  30.402  1.00  0.00     0.167 HD
ATOM     49  C   UNL A   1      39.923  30.948  34.194  1.00  0.00     0.037 A 
ATOM     50  C   UNL A   1      42.128  27.149  28.752  1.00  0.00     0.037 A 
ATOM     51  C   UNL A   1      41.069  30.117  34.461  1.00  0.00     0.049 A 
ATOM     52  C   UNL A   1      42.847  27.135  30.075  1.00  0.00     0.074 A 
ATOM     53  C   UNL A   1      41.773  29.969  35.645  1.00  0.00     0.029 A 
ATOM     54  N   UNL A   1      41.684  29.298  33.527  1.00  0.00    -0.354 N 
ATOM     55  N   UNL A   1      42.550  27.760  31.188  1.00  0.00    -0.248 NA
ATOM     56  C   UNL A   1      44.049  26.293  30.164  1.00  0.00     0.031 C 
ATOM     57  C   UNL A   1      42.844  29.099  35.411  1.00  0.00     0.029 A 
ATOM     58  C   UNL A   1      42.775  28.662  34.099  1.00  0.00     0.049 A 
ATOM     59  H   UNL A   1      41.390  29.184  32.594  1.00  0.00     0.167 HD
ATOM     60  C   UNL A   1      43.503  27.362  32.118  1.00  0.00     0.074 A 
ATOM     61  C   UNL A   1      44.381  26.431  31.440  1.00  0.00     0.031 C 
ATOM     62  C   UNL A   1      43.636  27.730  33.416  1.00  0.00     0.037 A 
BRANCH  49  63
ATOM     63  C   UNL A   1      39.417  31.832  35.298  1.00  0.00     0.064 A 
ATOM     64  C   UNL A   1      38.551  31.349  36.292  1.00  0.00     0.173 A 
ATOM     65  C   UNL A   1      39.832  33.169  35.383  1.00  0.00     0.173 A 
ATOM     66  F   UNL A   1      38.113  30.081  36.249  1.00  0.00    -0.203 F 
ATOM     67  C   UNL A   1      38.099  32.181  37.314  1.00  0.00     0.198 A 
ATOM     68  C   UNL A   1      39.402  33.990  36.422  1.00  0.00     0.198 A 
ATOM     69  F   UNL A   1      40.663  33.679  34.462  1.00  0.00    -0.203 F 
ATOM     70  F   UNL A   1      37.237  31.711  38.226  1.00  0.00    -0.200 F 
ATOM     71  C   UNL A   1      38.530  33.497  37.382  1.00  0.00     0.200 A 
ATOM     72  F   UNL A   1      39.828  35.258  36.493  1.00  0.00    -0.200 F 
ATOM     73  F   UNL A   1      38.101  34.294  38.370  1.00  0.00    -0.200 F 
ENDBRANCH  49  63
BRANCH  50  74
ATOM     74  C   UNL A   1      42.609  26.316  27.619  1.00  0.00     0.064 A 
ATOM     75  C   UNL A   1      43.575  26.799  26.725  1.00  0.00     0.173 A 
ATOM     76  C   UNL A   1      42.099  25.029  27.397  1.00  0.00     0.173 A 
ATOM     77  F   UNL A   1      44.075  28.034  26.881  1.00  0.00    -0.203 F 
ATOM     78  C   UNL A   1      43.999  26.034  25.641  1.00  0.00     0.198 A 
ATOM     79  C   UNL A   1      42.544  24.254  26.329  1.00  0.00     0.198 A 
ATOM     80  F   UNL A   1      41.172  24.522  28.223  1.00  0.00    -0.203 F 
ATOM     81  F   UNL A   1      44.888  26.537  24.774  1.00  0.00    -0.200 F 
ATOM     82  C   UNL A   1      43.487  24.759  25.446  1.00  0.00     0.200 A 
ATOM     83  F   UNL A   1      42.055  23.019  26.152  1.00  0.00    -0.200 F 
ATOM     84  F   UNL A   1      43.896  24.022  24.405  1.00  0.00    -0.200 F 
ENDBRANCH  50  74
BRANCH  62  85
ATOM     85  C   UNL A   1      44.747  27.093  34.202  1.00  0.00     0.064 A 
ATOM     86  C   UNL A   1      44.569  25.880  34.885  1.00  0.00     0.173 A 
ATOM     87  C   UNL A   1      46.012  27.697  34.256  1.00  0.00     0.173 A 
ATOM     88  F   UNL A   1      43.374  25.269  34.875  1.00  0.00    -0.203 F 
ATOM     89  C   UNL A   1      45.606  25.316  35.624  1.00  0.00     0.198 A 
ATOM     90  C   UNL A   1      47.056  27.113  34.969  1.00  0.00     0.198 A 
ATOM     91  F   UNL A   1      46.239  28.852  33.613  1.00  0.00    -0.203 F 
ATOM     92  F   UNL A   1      45.396  24.188  36.316  1.00  0.00    -0.200 F 
ATOM     93  C   UNL A   1      46.849  25.929  35.661  1.00  0.00     0.200 A 
ATOM     94  F   UNL A   1      48.260  27.700  34.993  1.00  0.00    -0.200 F 
ATOM     95  F   UNL A   1      47.845  25.385  36.372  1.00  0.00    -0.200 F 
ENDBRANCH  62  85
ENDBRANCH  36  37
ENDBRANCH  29  31
ENDBRANCH  28  29
ENDBRANCH  27  28
ENDBRANCH  26  27
ENDBRANCH  25  26
ENDBRANCH   1  25
TORSDOF 17
ENDMDL
MODEL 2
REMARK VINA RESULT:     -11.7      0.561      1.717
REMARK SMILES NC(=O)C1CC[NH+](Cc2ccc(C(=O)OCCOCCOC(=O)c3ccc(-c4c5nc(c(-c6c(F)c(F)c(F)c(F)c6F)c6ccc([nH]6)c(-c6c(F)c(F)c(F)c(F)c6F)c6nc(c(-c7c(F)c(F)c(F)c(F)c7F)c7ccc4[nH]7)C=C6)C=C5)cc3)cc2)CC1
REMARK SMILES IDX 17 1 16 2 15 3 13 4 14 5 12 6 9 7 10 8 88 9 11 10 87 11 8 12
REMARK SMILES IDX 7 13 4 14 5 15 90 16 6 17 89 18 2 20 1 21 3 24 18 25 19 26
REMARK SMILES IDX 20 27 21 28 22 29 23 30 24 31 25 32 86 33 26 34 85 35 27 36
REMARK SMILES IDX 28 37 29 38 79 39 30 40 84 41 78 42 80 43 31 44 83 45 77 46
REMARK SMILES IDX 76 47 32 49 64 50 44 51 63 52 45 53 48 54 62 55 81 56 46 57
REMARK SMILES IDX 47 58 61 60 82 61 49 62 33 63 34 64 42 65 35 66 36 67 40 68
REMARK SMILES IDX 43 69 37 70 38 71 41 72 39 73 65 74 66 75 74 76 67 77 68 78
REMARK SMILES IDX 72 79 75 80 69 81 70 82 73 83 71 84 50 85 51 86 59 87 52 88
REMARK SMILES IDX 53 89 57 90 60 91 54 92 55 93 58 94 56 95
REMARK H PARENT 7 19 1 22 1 23 80 48 48 59
REMARK Flexibility Score: inf
ROOT
ATOM      1  C   UNL A   1      32.540  28.110  23.215  1.00  0.00     0.202 C 
ENDROOT
BRANCH   1   2
ATOM      2  C   UNL A   1      31.937  26.907  22.484  1.00  0.00     0.261 C 
BRANCH   2   3
ATOM      3  O   UNL A   1      32.571  25.693  22.915  1.00  0.00    -0.460 OA
BRANCH   3   4
ATOM      4  C   UNL A   1      32.079  25.163  24.060  1.00  0.00     0.338 C 
ATOM      5  O   UNL A   1      31.031  25.471  24.610  1.00  0.00    -0.246 OA
BRANCH   4   6
ATOM      6  C   UNL A   1      32.924  24.028  24.508  1.00  0.00     0.060 A 
ATOM      7  C   UNL A   1      34.409  21.745  25.164  1.00  0.00     0.006 A 
ATOM      8  C   UNL A   1      34.516  22.316  23.887  1.00  0.00     0.010 A 
ATOM      9  C   UNL A   1      33.671  22.417  26.150  1.00  0.00     0.010 A 
ATOM     10  C   UNL A   1      33.774  23.448  23.560  1.00  0.00     0.016 A 
ATOM     11  C   UNL A   1      32.912  23.542  25.821  1.00  0.00     0.016 A 
BRANCH   7  12
ATOM     12  C   UNL A   1      34.922  20.335  25.397  1.00  0.00     0.299 C 
BRANCH  12  13
ATOM     13  N   UNL A   1      34.220  19.280  24.622  1.00  0.00    -0.331 N 
ATOM     14  C   UNL A   1      33.145  16.582  24.097  1.00  0.00     0.089 C 
ATOM     15  C   UNL A   1      34.396  17.128  23.403  1.00  0.00     0.075 C 
ATOM     16  C   UNL A   1      32.239  17.754  24.488  1.00  0.00     0.075 C 
ATOM     17  C   UNL A   1      35.105  18.163  24.277  1.00  0.00     0.263 C 
ATOM     18  C   UNL A   1      32.987  18.825  25.288  1.00  0.00     0.263 C 
ATOM     19  H   UNL A   1      33.936  19.709  23.742  1.00  0.00     0.348 HD
BRANCH  14  20
ATOM     20  C   UNL A   1      33.496  15.698  25.294  1.00  0.00     0.220 C 
ATOM     21  N   UNL A   1      32.526  15.594  26.247  1.00  0.00    -0.369 N 
ATOM     22  H   UNL A   1      32.681  15.041  27.048  1.00  0.00     0.159 HD
ATOM     23  H   UNL A   1      31.673  16.071  26.136  1.00  0.00     0.159 HD
ATOM     24  O   UNL A   1      34.566  15.124  25.452  1.00  0.00    -0.275 OA
ENDBRANCH  14  20
ENDBRANCH  12  13
ENDBRANCH   7  12
ENDBRANCH   4   6
ENDBRANCH   3   4
ENDBRANCH   2   3
ENDBRANCH   1   2
BRANCH   1  25
ATOM     25  O   UNL A   1      31.671  28.805  24.112  1.00  0.00    -0.374 OA
BRANCH  25  26
ATOM     26  C   UNL A   1      32.164  29.074  25.424  1.00  0.00     0.202 C 
BRANCH  26  27
ATOM     27  C   UNL A   1      31.943  30.494  25.958  1.00  0.00     0.261 C 
BRANCH  27  28
ATOM     28  O   UNL A   1      32.489  30.667  27.276  1.00  0.00    -0.460 OA
BRANCH  28  29
ATOM     29  C   UNL A   1      33.230  31.788  27.428  1.00  0.00     0.338 C 
ATOM     30  O   UNL A   1      32.835  32.946  27.420  1.00  0.00    -0.246 OA
BRANCH  29  31
ATOM     31  C   UNL A   1      34.618  31.446  27.783  1.00  0.00     0.060 A 
ATOM     32  C   UNL A   1      34.903  30.092  27.993  1.00  0.00     0.016 A 
ATOM     33  C   UNL A   1      35.600  32.418  27.993  1.00  0.00     0.016 A 
ATOM     34  C   UNL A   1      36.149  29.709  28.480  1.00  0.00     0.010 A 
ATOM     35  C   UNL A   1      36.853  32.031  28.484  1.00  0.00     0.010 A 
ATOM     36  C   UNL A   1      37.117  30.679  28.771  1.00  0.00    -0.014 A 
BRANCH  36  37
ATOM     37  C   UNL A   1      38.339  30.261  29.502  1.00  0.00     0.031 A 
ATOM     38  C   UNL A   1      38.538  30.708  30.923  1.00  0.00     0.074 A 
ATOM     39  C   UNL A   1      39.216  29.415  28.932  1.00  0.00     0.049 A 
ATOM     40  N   UNL A   1      39.466  30.365  31.781  1.00  0.00    -0.248 NA
ATOM     41  C   UNL A   1      37.558  31.671  31.452  1.00  0.00     0.031 C 
ATOM     42  C   UNL A   1      39.122  28.895  27.570  1.00  0.00     0.029 A 
ATOM     43  N   UNL A   1      40.349  28.830  29.441  1.00  0.00    -0.354 N 
ATOM     44  C   UNL A   1      39.182  31.063  32.948  1.00  0.00     0.074 A 
ATOM     45  C   UNL A   1      38.019  31.881  32.678  1.00  0.00     0.031 C 
ATOM     46  C   UNL A   1      40.146  28.053  27.354  1.00  0.00     0.029 A 
ATOM     47  C   UNL A   1      40.975  27.987  28.556  1.00  0.00     0.049 A 
ATOM     48  H   UNL A   1      40.682  28.999  30.351  1.00  0.00     0.167 HD
ATOM     49  C   UNL A   1      39.822  31.016  34.140  1.00  0.00     0.037 A 
ATOM     50  C   UNL A   1      42.087  27.241  28.705  1.00  0.00     0.037 A 
ATOM     51  C   UNL A   1      40.976  30.197  34.411  1.00  0.00     0.049 A 
ATOM     52  C   UNL A   1      42.801  27.235  30.031  1.00  0.00     0.074 A 
ATOM     53  C   UNL A   1      41.677  30.057  35.597  1.00  0.00     0.029 A 
ATOM     54  N   UNL A   1      41.603  29.385  33.478  1.00  0.00    -0.354 N 
ATOM     55  N   UNL A   1      42.494  27.857  31.143  1.00  0.00    -0.248 NA
ATOM     56  C   UNL A   1      44.012  26.407  30.124  1.00  0.00     0.031 C 
ATOM     57  C   UNL A   1      42.758  29.199  35.367  1.00  0.00     0.029 A 
ATOM     58  C   UNL A   1      42.699  28.761  34.055  1.00  0.00     0.049 A 
ATOM     59  H   UNL A   1      41.313  29.268  32.544  1.00  0.00     0.167 HD
ATOM     60  C   UNL A   1      43.447  27.469  32.076  1.00  0.00     0.074 A 
ATOM     61  C   UNL A   1      44.338  26.548  31.401  1.00  0.00     0.031 C 
ATOM     62  C   UNL A   1      43.573  27.839  33.375  1.00  0.00     0.037 A 
BRANCH  49  63
ATOM     63  C   UNL A   1      39.302  31.894  35.243  1.00  0.00     0.064 A 
ATOM     64  C   UNL A   1      38.497  31.385  36.273  1.00  0.00     0.173 A 
ATOM     65  C   UNL A   1      39.644  33.253  35.286  1.00  0.00     0.173 A 
ATOM     66  F   UNL A   1      38.130  30.095  36.270  1.00  0.00    -0.203 F 
ATOM     67  C   UNL A   1      38.032  32.213  37.293  1.00  0.00     0.198 A 
ATOM     68  C   UNL A   1      39.202  34.071  36.323  1.00  0.00     0.198 A 
ATOM     69  F   UNL A   1      40.415  33.788  34.328  1.00  0.00    -0.203 F 
ATOM     70  F   UNL A   1      37.226  31.716  38.242  1.00  0.00    -0.200 F 
ATOM     71  C   UNL A   1      38.390  33.552  37.320  1.00  0.00     0.200 A 
ATOM     72  F   UNL A   1      39.559  35.362  36.354  1.00  0.00    -0.200 F 
ATOM     73  F   UNL A   1      37.948  34.345  38.306  1.00  0.00    -0.200 F 
ENDBRANCH  49  63
BRANCH  50  74
ATOM     74  C   UNL A   1      42.580  26.414  27.574  1.00  0.00     0.064 A 
ATOM     75  C   UNL A   1      42.094  25.116  27.360  1.00  0.00     0.173 A 
ATOM     76  C   UNL A   1      43.561  26.897  26.696  1.00  0.00     0.173 A 
ATOM     77  F   UNL A   1      41.174  24.601  28.189  1.00  0.00    -0.203 F 
ATOM     78  C   UNL A   1      42.584  24.326  26.322  1.00  0.00     0.198 A 
ATOM     79  C   UNL A   1      44.029  26.117  25.641  1.00  0.00     0.198 A 
ATOM     80  F   UNL A   1      44.059  28.131  26.858  1.00  0.00    -0.203 F 
ATOM     81  F   UNL A   1      42.137  23.073  26.169  1.00  0.00    -0.200 F 
ATOM     82  C   UNL A   1      43.547  24.829  25.460  1.00  0.00     0.200 A 
ATOM     83  F   UNL A   1      44.952  26.611  24.804  1.00  0.00    -0.200 F 
ATOM     84  F   UNL A   1      44.016  24.070  24.460  1.00  0.00    -0.200 F 
ENDBRANCH  50  74
BRANCH  62  85
ATOM     85  C   UNL A   1      44.687  27.214  34.164  1.00  0.00     0.064 A 
ATOM     86  C   UNL A   1      45.944  27.825  34.282  1.00  0.00     0.173 A 
ATOM     87  C   UNL A   1      44.488  25.992  34.825  1.00  0.00     0.173 A 
ATOM     88  F   UNL A   1      46.191  28.988  33.658  1.00  0.00    -0.203 F 
ATOM     89  C   UNL A   1      46.971  27.219  35.002  1.00  0.00     0.198 A 
ATOM     90  C   UNL A   1      45.506  25.405  35.571  1.00  0.00     0.198 A 
ATOM     91  F   UNL A   1      43.302  25.369  34.753  1.00  0.00    -0.203 F 
ATOM     92  F   UNL A   1      48.181  27.794  35.052  1.00  0.00    -0.200 F 
ATOM     93  C   UNL A   1      46.750  26.013  35.650  1.00  0.00     0.200 A 
ATOM     94  F   UNL A   1      45.287  24.247  36.207  1.00  0.00    -0.200 F 
ATOM     95  F   UNL A   1      47.738  25.432  36.342  1.00  0.00    -0.200 F 
ENDBRANCH  62  85
ENDBRANCH  36  37
ENDBRANCH  29  31
ENDBRANCH  28  29
ENDBRANCH  27  28
ENDBRANCH  26  27
ENDBRANCH  25  26
ENDBRANCH   1  25
TORSDOF 17
ENDMDL
MODEL 3
REMARK VINA RESULT:     -11.6      3.396      8.881
REMARK SMILES NC(=O)C1CC[NH+](Cc2ccc(C(=O)OCCOCCOC(=O)c3ccc(-c4c5nc(c(-c6c(F)c(F)c(F)c(F)c6F)c6ccc([nH]6)c(-c6c(F)c(F)c(F)c(F)c6F)c6nc(c(-c7c(F)c(F)c(F)c(F)c7F)c7ccc4[nH]7)C=C6)C=C5)cc3)cc2)CC1
REMARK SMILES IDX 17 1 16 2 15 3 13 4 14 5 12 6 9 7 10 8 88 9 11 10 87 11 8 12
REMARK SMILES IDX 7 13 4 14 5 15 90 16 6 17 89 18 2 20 1 21 3 24 18 25 19 26
REMARK SMILES IDX 20 27 21 28 22 29 23 30 24 31 25 32 86 33 26 34 85 35 27 36
REMARK SMILES IDX 28 37 29 38 79 39 30 40 84 41 78 42 80 43 31 44 83 45 77 46
REMARK SMILES IDX 76 47 32 49 64 50 44 51 63 52 45 53 48 54 62 55 81 56 46 57
REMARK SMILES IDX 47 58 61 60 82 61 49 62 33 63 34 64 42 65 35 66 36 67 40 68
REMARK SMILES IDX 43 69 37 70 38 71 41 72 39 73 65 74 66 75 74 76 67 77 68 78
REMARK SMILES IDX 72 79 75 80 69 81 70 82 73 83 71 84 50 85 51 86 59 87 52 88
REMARK SMILES IDX 53 89 57 90 60 91 54 92 55 93 58 94 56 95
REMARK H PARENT 7 19 1 22 1 23 80 48 48 59
REMARK Flexibility Score: inf
ROOT
ATOM      1  C   UNL A   1      41.322  21.801  26.473  1.00  0.00     0.202 C 
ENDROOT
BRANCH   1   2
ATOM      2  C   UNL A   1      39.918  21.189  26.457  1.00  0.00     0.261 C 
BRANCH   2   3
ATOM      3  O   UNL A   1      39.057  21.941  25.589  1.00  0.00    -0.460 OA
BRANCH   3   4
ATOM      4  C   UNL A   1      37.972  21.271  25.133  1.00  0.00     0.338 C 
ATOM      5  O   UNL A   1      37.872  20.059  25.001  1.00  0.00    -0.246 OA
BRANCH   4   6
ATOM      6  C   UNL A   1      36.834  22.204  24.937  1.00  0.00     0.060 A 
ATOM      7  C   UNL A   1      34.854  24.124  24.451  1.00  0.00     0.006 A 
ATOM      8  C   UNL A   1      35.561  23.551  23.383  1.00  0.00     0.010 A 
ATOM      9  C   UNL A   1      35.043  23.615  25.745  1.00  0.00     0.010 A 
ATOM     10  C   UNL A   1      36.548  22.600  23.626  1.00  0.00     0.016 A 
ATOM     11  C   UNL A   1      36.044  22.673  25.993  1.00  0.00     0.016 A 
BRANCH   7  12
ATOM     12  C   UNL A   1      34.057  25.396  24.221  1.00  0.00     0.299 C 
BRANCH  12  13
ATOM     13  N   UNL A   1      32.777  25.474  24.971  1.00  0.00    -0.331 N 
ATOM     14  C   UNL A   1      29.890  25.962  25.339  1.00  0.00     0.089 C 
ATOM     15  C   UNL A   1      30.967  26.920  25.854  1.00  0.00     0.075 C 
ATOM     16  C   UNL A   1      30.470  24.546  25.272  1.00  0.00     0.075 C 
ATOM     17  C   UNL A   1      32.234  26.835  25.004  1.00  0.00     0.263 C 
ATOM     18  C   UNL A   1      31.787  24.494  24.491  1.00  0.00     0.263 C 
ATOM     19  H   UNL A   1      32.992  25.223  25.935  1.00  0.00     0.348 HD
BRANCH  14  20
ATOM     20  C   UNL A   1      29.318  26.417  23.996  1.00  0.00     0.220 C 
ATOM     21  N   UNL A   1      27.962  26.326  23.876  1.00  0.00    -0.369 N 
ATOM     22  H   UNL A   1      27.522  26.601  23.039  1.00  0.00     0.159 HD
ATOM     23  H   UNL A   1      27.424  25.986  24.627  1.00  0.00     0.159 HD
ATOM     24  O   UNL A   1      29.985  26.815  23.048  1.00  0.00    -0.275 OA
ENDBRANCH  14  20
ENDBRANCH  12  13
ENDBRANCH   7  12
ENDBRANCH   4   6
ENDBRANCH   3   4
ENDBRANCH   2   3
ENDBRANCH   1   2
BRANCH   1  25
ATOM     25  O   UNL A   1      42.292  21.176  25.631  1.00  0.00    -0.374 OA
BRANCH  25  26
ATOM     26  C   UNL A   1      43.648  21.603  25.766  1.00  0.00     0.202 C 
BRANCH  26  27
ATOM     27  C   UNL A   1      44.210  22.461  24.628  1.00  0.00     0.261 C 
BRANCH  27  28
ATOM     28  O   UNL A   1      43.524  23.720  24.512  1.00  0.00    -0.460 OA
BRANCH  28  29
ATOM     29  C   UNL A   1      44.216  24.777  24.993  1.00  0.00     0.338 C 
ATOM     30  O   UNL A   1      45.325  25.160  24.644  1.00  0.00    -0.246 OA
BRANCH  29  31
ATOM     31  C   UNL A   1      43.383  25.558  25.923  1.00  0.00     0.060 A 
ATOM     32  C   UNL A   1      43.892  26.790  26.349  1.00  0.00     0.016 A 
ATOM     33  C   UNL A   1      42.178  25.073  26.439  1.00  0.00     0.016 A 
ATOM     34  C   UNL A   1      43.236  27.510  27.343  1.00  0.00     0.010 A 
ATOM     35  C   UNL A   1      41.519  25.798  27.440  1.00  0.00     0.010 A 
ATOM     36  C   UNL A   1      42.069  26.997  27.927  1.00  0.00    -0.014 A 
BRANCH  36  37
ATOM     37  C   UNL A   1      41.529  27.670  29.134  1.00  0.00     0.031 A 
ATOM     38  C   UNL A   1      42.262  27.541  30.440  1.00  0.00     0.074 A 
ATOM     39  C   UNL A   1      40.446  28.462  29.043  1.00  0.00     0.049 A 
ATOM     40  N   UNL A   1      42.034  28.139  31.583  1.00  0.00    -0.248 NA
ATOM     41  C   UNL A   1      43.407  26.617  30.463  1.00  0.00     0.031 C 
ATOM     42  C   UNL A   1      39.663  28.684  27.830  1.00  0.00     0.029 A 
ATOM     43  N   UNL A   1      39.832  29.244  29.990  1.00  0.00    -0.354 N 
ATOM     44  C   UNL A   1      43.007  27.668  32.457  1.00  0.00     0.074 A 
ATOM     45  C   UNL A   1      43.802  26.704  31.726  1.00  0.00     0.031 C 
ATOM     46  C   UNL A   1      38.680  29.559  28.100  1.00  0.00     0.029 A 
ATOM     47  C   UNL A   1      38.755  29.946  29.507  1.00  0.00     0.049 A 
ATOM     48  H   UNL A   1      40.133  29.296  30.925  1.00  0.00     0.167 HD
ATOM     49  C   UNL A   1      43.226  28.017  33.747  1.00  0.00     0.037 A 
ATOM     50  C   UNL A   1      37.931  30.809  30.131  1.00  0.00     0.037 A 
ATOM     51  C   UNL A   1      42.439  28.980  34.473  1.00  0.00     0.049 A 
ATOM     52  C   UNL A   1      38.175  31.153  31.577  1.00  0.00     0.074 A 
ATOM     53  C   UNL A   1      42.602  29.424  35.775  1.00  0.00     0.029 A 
ATOM     54  N   UNL A   1      41.334  29.643  33.961  1.00  0.00    -0.354 N 
ATOM     55  N   UNL A   1      39.128  30.743  32.378  1.00  0.00    -0.248 NA
ATOM     56  C   UNL A   1      37.234  32.095  32.200  1.00  0.00     0.031 C 
ATOM     57  C   UNL A   1      41.564  30.317  36.065  1.00  0.00     0.029 A 
ATOM     58  C   UNL A   1      40.788  30.472  34.929  1.00  0.00     0.049 A 
ATOM     59  H   UNL A   1      40.987  29.539  33.045  1.00  0.00     0.167 HD
ATOM     60  C   UNL A   1      38.924  31.401  33.585  1.00  0.00     0.074 A 
ATOM     61  C   UNL A   1      37.763  32.247  33.405  1.00  0.00     0.031 C 
ATOM     62  C   UNL A   1      39.637  31.316  34.735  1.00  0.00     0.037 A 
BRANCH  49  63
ATOM     63  C   UNL A   1      44.354  27.335  34.468  1.00  0.00     0.064 A 
ATOM     64  C   UNL A   1      45.645  27.883  34.504  1.00  0.00     0.173 A 
ATOM     65  C   UNL A   1      44.129  26.137  35.162  1.00  0.00     0.173 A 
ATOM     66  F   UNL A   1      45.915  29.021  33.846  1.00  0.00    -0.203 F 
ATOM     67  C   UNL A   1      46.676  27.242  35.187  1.00  0.00     0.198 A 
ATOM     68  C   UNL A   1      45.155  25.514  35.867  1.00  0.00     0.198 A 
ATOM     69  F   UNL A   1      42.912  25.574  35.163  1.00  0.00    -0.203 F 
ATOM     70  F   UNL A   1      47.913  27.759  35.170  1.00  0.00    -0.200 F 
ATOM     71  C   UNL A   1      46.429  26.062  35.873  1.00  0.00     0.200 A 
ATOM     72  F   UNL A   1      44.912  24.380  36.539  1.00  0.00    -0.200 F 
ATOM     73  F   UNL A   1      47.420  25.450  36.535  1.00  0.00    -0.200 F 
ENDBRANCH  49  63
BRANCH  50  74
ATOM     74  C   UNL A   1      36.809  31.433  29.383  1.00  0.00     0.064 A 
ATOM     75  C   UNL A   1      36.832  32.794  29.044  1.00  0.00     0.173 A 
ATOM     76  C   UNL A   1      35.683  30.686  29.008  1.00  0.00     0.173 A 
ATOM     77  F   UNL A   1      37.876  33.555  29.404  1.00  0.00    -0.203 F 
ATOM     78  C   UNL A   1      35.764  33.388  28.376  1.00  0.00     0.198 A 
ATOM     79  C   UNL A   1      34.628  31.275  28.314  1.00  0.00     0.198 A 
ATOM     80  F   UNL A   1      35.611  29.382  29.309  1.00  0.00    -0.203 F 
ATOM     81  F   UNL A   1      35.790  34.700  28.107  1.00  0.00    -0.200 F 
ATOM     82  C   UNL A   1      34.665  32.627  28.006  1.00  0.00     0.200 A 
ATOM     83  F   UNL A   1      33.573  30.533  27.949  1.00  0.00    -0.200 F 
ATOM     84  F   UNL A   1      33.638  33.197  27.361  1.00  0.00    -0.200 F 
ENDBRANCH  50  74
BRANCH  62  85
ATOM     85  C   UNL A   1      39.206  32.192  35.877  1.00  0.00     0.064 A 
ATOM     86  C   UNL A   1      39.688  33.501  36.029  1.00  0.00     0.173 A 
ATOM     87  C   UNL A   1      38.285  31.719  36.824  1.00  0.00     0.173 A 
ATOM     88  F   UNL A   1      40.582  33.997  35.158  1.00  0.00    -0.203 F 
ATOM     89  C   UNL A   1      39.292  34.290  37.106  1.00  0.00     0.198 A 
ATOM     90  C   UNL A   1      37.866  32.522  37.881  1.00  0.00     0.198 A 
ATOM     91  F   UNL A   1      37.785  30.479  36.721  1.00  0.00    -0.203 F 
ATOM     92  F   UNL A   1      39.810  35.516  37.262  1.00  0.00    -0.200 F 
ATOM     93  C   UNL A   1      38.377  33.803  38.027  1.00  0.00     0.200 A 
ATOM     94  F   UNL A   1      36.972  32.055  38.763  1.00  0.00    -0.200 F 
ATOM     95  F   UNL A   1      37.997  34.563  39.063  1.00  0.00    -0.200 F 
ENDBRANCH  62  85
ENDBRANCH  36  37
ENDBRANCH  29  31
ENDBRANCH  28  29
ENDBRANCH  27  28
ENDBRANCH  26  27
ENDBRANCH  25  26
ENDBRANCH   1  25
TORSDOF 17
ENDMDL
