MODEL 1
REMARK VINA RESULT:      -9.9      0.000      0.000
REMARK SMILES Cc1ccc(S(=O)(=O)n2cc(C(=O)C(=O)N[C@@H](Cc3c[nH]c4ccccc34)C(=O)OCCOCCOC(=O)c3ccc(-c4c5nc(c(-c6c(F)c(F)c(F)c(F)c6F)c6ccc([nH]6)c(-c6c(F)c(F)c(F)c(F)c6F)c6nc(c(-c7c(F)c(F)c(F)c(F)c7F)c7ccc4[nH]7)C=C6)C=C5)cc3)c3ccccc32)cc1
REMARK SMILES IDX 31 1 30 2 28 3 29 4 17 5 16 6 14 7 15 8 12 10 13 11 11 12
REMARK SMILES IDX 9 13 10 14 107 15 102 16 106 17 103 18 105 19 104 20 6 21
REMARK SMILES IDX 7 22 8 23 5 24 1 25 2 26 3 27 109 28 4 29 108 30 18 31 19 32
REMARK SMILES IDX 20 33 27 34 21 35 22 36 26 37 23 39 25 40 24 41 32 42 33 43
REMARK SMILES IDX 34 44 35 45 36 46 37 47 38 48 39 49 40 50 101 51 41 52
REMARK SMILES IDX 100 53 42 54 43 55 44 56 94 57 45 58 99 59 93 60 95 61 46 62
REMARK SMILES IDX 98 63 92 64 91 65 47 67 79 68 59 69 78 70 60 71 63 72 77 73
REMARK SMILES IDX 96 74 61 75 62 76 76 78 97 79 64 80 48 81 49 82 57 83 50 84
REMARK SMILES IDX 51 85 55 86 58 87 52 88 53 89 56 90 54 91 80 92 81 93 89 94
REMARK SMILES IDX 82 95 83 96 87 97 90 98 84 99 85 100 88 101 86 102 65 103
REMARK SMILES IDX 66 104 74 105 67 106 68 107 72 108 75 109 69 110 70 111
REMARK SMILES IDX 73 112 71 113
REMARK H PARENT 16 9 21 38 95 66 63 77
REMARK Flexibility Score: inf
ROOT
ATOM      1  C   UNL A   1      36.563  33.136  33.419  1.00  0.00     0.261 C 
ENDROOT
BRANCH   1   2
ATOM      2  O   UNL A   1      36.730  32.248  34.518  1.00  0.00    -0.462 OA
BRANCH   2   3
ATOM      3  C   UNL A   1      37.536  31.179  34.249  1.00  0.00     0.329 C 
ATOM      4  O   UNL A   1      37.329  30.348  33.370  1.00  0.00    -0.250 OA
BRANCH   3   5
ATOM      5  C   UNL A   1      38.661  31.090  35.279  1.00  0.00     0.197 C 
BRANCH   5   6
ATOM      6  N   UNL A   1      38.139  30.637  36.590  1.00  0.00    -0.335 N 
ATOM      7  C   UNL A   1      37.802  31.374  37.702  1.00  0.00     0.293 C 
ATOM      8  O   UNL A   1      37.357  30.856  38.718  1.00  0.00    -0.265 OA
ATOM      9  H   UNL A   1      38.013  29.665  36.677  1.00  0.00     0.164 HD
BRANCH   7  10
ATOM     10  C   UNL A   1      37.894  32.881  37.608  1.00  0.00     0.252 C 
ATOM     11  O   UNL A   1      36.845  33.443  37.295  1.00  0.00    -0.283 OA
BRANCH  10  12
ATOM     12  C   UNL A   1      39.159  33.598  37.667  1.00  0.00     0.054 A 
ATOM     13  N   UNL A   1      41.170  34.479  38.160  1.00  0.00    -0.240 N 
ATOM     14  C   UNL A   1      40.076  33.801  38.701  1.00  0.00     0.117 A 
ATOM     15  C   UNL A   1      41.028  34.433  36.758  1.00  0.00     0.065 A 
ATOM     16  C   UNL A   1      39.662  34.309  36.544  1.00  0.00     0.012 A 
ATOM     17  C   UNL A   1      41.897  34.846  35.732  1.00  0.00     0.028 A 
ATOM     18  C   UNL A   1      39.112  34.800  35.343  1.00  0.00     0.011 A 
ATOM     19  C   UNL A   1      41.322  35.408  34.591  1.00  0.00     0.002 A 
ATOM     20  C   UNL A   1      39.945  35.427  34.418  1.00  0.00     0.001 A 
BRANCH  13  21
ATOM     21  S   UNL A   1      41.749  36.050  38.639  1.00  0.00     0.268 S 
ATOM     22  O   UNL A   1      42.305  36.587  37.407  1.00  0.00    -0.201 OA
ATOM     23  O   UNL A   1      42.604  35.709  39.771  1.00  0.00    -0.201 OA
BRANCH  21  24
ATOM     24  C   UNL A   1      40.818  37.365  39.318  1.00  0.00     0.088 A 
ATOM     25  C   UNL A   1      39.551  40.829  41.551  1.00  0.00     0.044 C 
ATOM     26  C   UNL A   1      39.941  39.648  40.710  1.00  0.00    -0.051 A 
ATOM     27  C   UNL A   1      41.291  39.498  40.434  1.00  0.00     0.005 A 
ATOM     28  C   UNL A   1      39.031  38.669  40.248  1.00  0.00     0.005 A 
ATOM     29  C   UNL A   1      41.710  38.386  39.737  1.00  0.00     0.022 A 
ATOM     30  C   UNL A   1      39.463  37.511  39.549  1.00  0.00     0.022 A 
ENDBRANCH  21  24
ENDBRANCH  13  21
ENDBRANCH  10  12
ENDBRANCH   7  10
ENDBRANCH   5   6
BRANCH   5  31
ATOM     31  C   UNL A   1      39.761  30.143  34.749  1.00  0.00     0.074 C 
BRANCH  31  32
ATOM     32  C   UNL A   1      41.001  30.109  35.604  1.00  0.00    -0.020 A 
ATOM     33  C   UNL A   1      41.557  31.193  36.257  1.00  0.00     0.087 A 
ATOM     34  C   UNL A   1      41.872  28.995  35.845  1.00  0.00     0.003 A 
ATOM     35  N   UNL A   1      42.746  30.803  36.807  1.00  0.00    -0.361 N 
ATOM     36  C   UNL A   1      42.975  29.473  36.549  1.00  0.00     0.046 A 
ATOM     37  C   UNL A   1      41.860  27.632  35.474  1.00  0.00     0.010 A 
ATOM     38  H   UNL A   1      43.351  31.391  37.315  1.00  0.00     0.166 HD
ATOM     39  C   UNL A   1      44.076  28.670  36.868  1.00  0.00     0.026 A 
ATOM     40  C   UNL A   1      42.975  26.832  35.736  1.00  0.00     0.001 A 
ATOM     41  C   UNL A   1      44.069  27.347  36.423  1.00  0.00     0.002 A 
ENDBRANCH  31  32
ENDBRANCH   5  31
ENDBRANCH   3   5
ENDBRANCH   2   3
ENDBRANCH   1   2
BRANCH   1  42
ATOM     42  C   UNL A   1      35.307  32.790  32.674  1.00  0.00     0.202 C 
BRANCH  42  43
ATOM     43  O   UNL A   1      35.197  33.694  31.594  1.00  0.00    -0.374 OA
BRANCH  43  44
ATOM     44  C   UNL A   1      34.781  33.075  30.384  1.00  0.00     0.202 C 
BRANCH  44  45
ATOM     45  C   UNL A   1      35.689  33.409  29.190  1.00  0.00     0.261 C 
BRANCH  45  46
ATOM     46  O   UNL A   1      36.559  32.288  28.938  1.00  0.00    -0.460 OA
BRANCH  46  47
ATOM     47  C   UNL A   1      36.110  31.384  28.025  1.00  0.00     0.338 C 
ATOM     48  O   UNL A   1      35.057  31.453  27.419  1.00  0.00    -0.246 OA
BRANCH  47  49
ATOM     49  C   UNL A   1      36.930  30.141  28.116  1.00  0.00     0.060 A 
ATOM     50  C   UNL A   1      37.011  29.457  29.340  1.00  0.00     0.016 A 
ATOM     51  C   UNL A   1      37.867  29.885  27.119  1.00  0.00     0.016 A 
ATOM     52  C   UNL A   1      38.144  28.690  29.643  1.00  0.00     0.010 A 
ATOM     53  C   UNL A   1      39.018  29.205  27.455  1.00  0.00     0.010 A 
ATOM     54  C   UNL A   1      39.199  28.671  28.743  1.00  0.00    -0.014 A 
BRANCH  54  55
ATOM     55  C   UNL A   1      40.561  28.203  29.013  1.00  0.00     0.031 A 
ATOM     56  C   UNL A   1      40.817  26.752  28.818  1.00  0.00     0.074 A 
ATOM     57  C   UNL A   1      41.604  29.073  29.125  1.00  0.00     0.049 A 
ATOM     58  N   UNL A   1      41.973  26.212  28.951  1.00  0.00    -0.248 NA
ATOM     59  C   UNL A   1      39.793  25.769  28.453  1.00  0.00     0.031 C 
ATOM     60  C   UNL A   1      43.027  28.790  28.920  1.00  0.00     0.029 A 
ATOM     61  N   UNL A   1      41.634  30.423  29.540  1.00  0.00    -0.354 N 
ATOM     62  C   UNL A   1      41.936  24.967  28.380  1.00  0.00     0.074 A 
ATOM     63  C   UNL A   1      40.539  24.691  28.186  1.00  0.00     0.031 C 
ATOM     64  C   UNL A   1      43.763  29.717  29.551  1.00  0.00     0.029 A 
ATOM     65  C   UNL A   1      42.834  30.581  30.250  1.00  0.00     0.049 A 
ATOM     66  H   UNL A   1      40.952  31.111  29.367  1.00  0.00     0.167 HD
ATOM     67  C   UNL A   1      43.128  24.399  28.053  1.00  0.00     0.037 A 
ATOM     68  C   UNL A   1      42.835  30.904  31.565  1.00  0.00     0.037 A 
ATOM     69  C   UNL A   1      44.226  25.120  28.724  1.00  0.00     0.049 A 
ATOM     70  C   UNL A   1      43.549  29.805  32.281  1.00  0.00     0.074 A 
ATOM     71  C   UNL A   1      45.274  25.917  28.300  1.00  0.00     0.029 A 
ATOM     72  N   UNL A   1      44.127  25.324  30.109  1.00  0.00    -0.354 N 
ATOM     73  N   UNL A   1      43.487  28.556  31.886  1.00  0.00    -0.248 NA
ATOM     74  C   UNL A   1      44.604  30.062  33.251  1.00  0.00     0.031 C 
ATOM     75  C   UNL A   1      45.711  26.691  29.425  1.00  0.00     0.029 A 
ATOM     76  C   UNL A   1      44.960  26.339  30.542  1.00  0.00     0.049 A 
ATOM     77  H   UNL A   1      43.535  24.807  30.702  1.00  0.00     0.167 HD
ATOM     78  C   UNL A   1      44.582  27.906  32.377  1.00  0.00     0.074 A 
ATOM     79  C   UNL A   1      45.220  28.869  33.268  1.00  0.00     0.031 C 
ATOM     80  C   UNL A   1      45.042  26.691  31.960  1.00  0.00     0.037 A 
BRANCH  67  81
ATOM     81  C   UNL A   1      43.307  23.275  27.050  1.00  0.00     0.064 A 
ATOM     82  C   UNL A   1      42.792  21.988  27.313  1.00  0.00     0.173 A 
ATOM     83  C   UNL A   1      44.051  23.367  25.848  1.00  0.00     0.173 A 
ATOM     84  F   UNL A   1      42.118  21.734  28.443  1.00  0.00    -0.203 F 
ATOM     85  C   UNL A   1      42.969  20.909  26.434  1.00  0.00     0.198 A 
ATOM     86  C   UNL A   1      44.179  22.306  24.945  1.00  0.00     0.198 A 
ATOM     87  F   UNL A   1      44.741  24.464  25.521  1.00  0.00    -0.203 F 
ATOM     88  F   UNL A   1      42.487  19.700  26.756  1.00  0.00    -0.200 F 
ATOM     89  C   UNL A   1      43.640  21.074  25.238  1.00  0.00     0.200 A 
ATOM     90  F   UNL A   1      44.851  22.486  23.798  1.00  0.00    -0.200 F 
ATOM     91  F   UNL A   1      43.789  20.050  24.387  1.00  0.00    -0.200 F 
ENDBRANCH  67  81
BRANCH  68  92
ATOM     92  C   UNL A   1      41.715  31.826  31.915  1.00  0.00     0.064 A 
ATOM     93  C   UNL A   1      42.036  33.194  31.770  1.00  0.00     0.173 A 
ATOM     94  C   UNL A   1      40.371  31.476  31.724  1.00  0.00     0.173 A 
ATOM     95  F   UNL A   1      43.292  33.597  32.020  1.00  0.00    -0.203 F 
ATOM     96  C   UNL A   1      41.137  34.105  31.211  1.00  0.00     0.198 A 
ATOM     97  C   UNL A   1      39.455  32.411  31.212  1.00  0.00     0.198 A 
ATOM     98  F   UNL A   1      39.974  30.205  31.874  1.00  0.00    -0.203 F 
ATOM     99  F   UNL A   1      41.534  35.350  30.915  1.00  0.00    -0.200 F 
ATOM    100  C   UNL A   1      39.861  33.695  30.881  1.00  0.00     0.200 A 
ATOM    101  F   UNL A   1      38.194  32.039  30.949  1.00  0.00    -0.200 F 
ATOM    102  F   UNL A   1      39.039  34.522  30.218  1.00  0.00    -0.200 F 
ENDBRANCH  68  92
BRANCH  80 103
ATOM    103  C   UNL A   1      45.644  25.723  32.946  1.00  0.00     0.064 A 
ATOM    104  C   UNL A   1      44.887  24.750  33.630  1.00  0.00     0.173 A 
ATOM    105  C   UNL A   1      47.046  25.603  33.075  1.00  0.00     0.173 A 
ATOM    106  F   UNL A   1      43.554  24.671  33.506  1.00  0.00    -0.203 F 
ATOM    107  C   UNL A   1      45.479  23.776  34.426  1.00  0.00     0.198 A 
ATOM    108  C   UNL A   1      47.636  24.582  33.814  1.00  0.00     0.198 A 
ATOM    109  F   UNL A   1      47.888  26.439  32.454  1.00  0.00    -0.203 F 
ATOM    110  F   UNL A   1      44.705  22.906  35.088  1.00  0.00    -0.200 F 
ATOM    111  C   UNL A   1      46.853  23.679  34.503  1.00  0.00     0.200 A 
ATOM    112  F   UNL A   1      48.970  24.460  33.827  1.00  0.00    -0.200 F 
ATOM    113  F   UNL A   1      47.421  22.703  35.222  1.00  0.00    -0.200 F 
ENDBRANCH  80 103
ENDBRANCH  54  55
ENDBRANCH  47  49
ENDBRANCH  46  47
ENDBRANCH  45  46
ENDBRANCH  44  45
ENDBRANCH  43  44
ENDBRANCH  42  43
ENDBRANCH   1  42
TORSDOF 21
ENDMDL
MODEL 2
REMARK VINA RESULT:      -9.6      5.221     12.317
REMARK SMILES Cc1ccc(S(=O)(=O)n2cc(C(=O)C(=O)N[C@@H](Cc3c[nH]c4ccccc34)C(=O)OCCOCCOC(=O)c3ccc(-c4c5nc(c(-c6c(F)c(F)c(F)c(F)c6F)c6ccc([nH]6)c(-c6c(F)c(F)c(F)c(F)c6F)c6nc(c(-c7c(F)c(F)c(F)c(F)c7F)c7ccc4[nH]7)C=C6)C=C5)cc3)c3ccccc32)cc1
REMARK SMILES IDX 31 1 30 2 28 3 29 4 17 5 16 6 14 7 15 8 12 10 13 11 11 12
REMARK SMILES IDX 9 13 10 14 107 15 102 16 106 17 103 18 105 19 104 20 6 21
REMARK SMILES IDX 7 22 8 23 5 24 1 25 2 26 3 27 109 28 4 29 108 30 18 31 19 32
REMARK SMILES IDX 20 33 27 34 21 35 22 36 26 37 23 39 25 40 24 41 32 42 33 43
REMARK SMILES IDX 34 44 35 45 36 46 37 47 38 48 39 49 40 50 101 51 41 52
REMARK SMILES IDX 100 53 42 54 43 55 44 56 94 57 45 58 99 59 93 60 95 61 46 62
REMARK SMILES IDX 98 63 92 64 91 65 47 67 79 68 59 69 78 70 60 71 63 72 77 73
REMARK SMILES IDX 96 74 61 75 62 76 76 78 97 79 64 80 48 81 49 82 57 83 50 84
REMARK SMILES IDX 51 85 55 86 58 87 52 88 53 89 56 90 54 91 80 92 81 93 89 94
REMARK SMILES IDX 82 95 83 96 87 97 90 98 84 99 85 100 88 101 86 102 65 103
REMARK SMILES IDX 66 104 74 105 67 106 68 107 72 108 75 109 69 110 70 111
REMARK SMILES IDX 73 112 71 113
REMARK H PARENT 16 9 21 38 95 66 63 77
REMARK Flexibility Score: inf
ROOT
ATOM      1  C   UNL A   1      44.227  28.343  25.956  1.00  0.00     0.261 C 
ENDROOT
BRANCH   1   2
ATOM      2  O   UNL A   1      45.594  28.595  25.656  1.00  0.00    -0.462 OA
BRANCH   2   3
ATOM      3  C   UNL A   1      46.035  29.821  26.066  1.00  0.00     0.329 C 
ATOM      4  O   UNL A   1      46.022  30.837  25.378  1.00  0.00    -0.250 OA
BRANCH   3   5
ATOM      5  C   UNL A   1      46.666  29.721  27.454  1.00  0.00     0.197 C 
BRANCH   5   6
ATOM      6  N   UNL A   1      47.901  28.902  27.413  1.00  0.00    -0.335 N 
ATOM      7  C   UNL A   1      48.132  27.637  27.901  1.00  0.00     0.293 C 
ATOM      8  O   UNL A   1      49.211  27.074  27.770  1.00  0.00    -0.265 OA
ATOM      9  H   UNL A   1      48.670  29.328  26.969  1.00  0.00     0.164 HD
BRANCH   7  10
ATOM     10  C   UNL A   1      46.969  26.894  28.523  1.00  0.00     0.252 C 
ATOM     11  O   UNL A   1      46.566  27.366  29.586  1.00  0.00    -0.283 OA
BRANCH  10  12
ATOM     12  C   UNL A   1      46.501  25.609  28.028  1.00  0.00     0.054 A 
ATOM     13  N   UNL A   1      46.213  23.576  27.108  1.00  0.00    -0.240 N 
ATOM     14  C   UNL A   1      47.048  24.694  27.124  1.00  0.00     0.117 A 
ATOM     15  C   UNL A   1      45.330  23.707  28.199  1.00  0.00     0.065 A 
ATOM     16  C   UNL A   1      45.245  25.074  28.423  1.00  0.00     0.012 A 
ATOM     17  C   UNL A   1      44.373  22.817  28.719  1.00  0.00     0.028 A 
ATOM     18  C   UNL A   1      44.074  25.599  29.006  1.00  0.00     0.011 A 
ATOM     19  C   UNL A   1      43.187  23.365  29.210  1.00  0.00     0.002 A 
ATOM     20  C   UNL A   1      43.020  24.740  29.311  1.00  0.00     0.001 A 
BRANCH  13  21
ATOM     21  S   UNL A   1      45.352  22.952  25.728  1.00  0.00     0.268 S 
ATOM     22  O   UNL A   1      46.402  22.335  24.935  1.00  0.00    -0.201 OA
ATOM     23  O   UNL A   1      44.651  24.143  25.263  1.00  0.00    -0.201 OA
BRANCH  21  24
ATOM     24  C   UNL A   1      44.049  21.785  25.727  1.00  0.00     0.088 A 
ATOM     25  C   UNL A   1      40.253  19.808  26.242  1.00  0.00     0.044 C 
ATOM     26  C   UNL A   1      41.585  20.453  25.990  1.00  0.00    -0.051 A 
ATOM     27  C   UNL A   1      41.605  21.837  25.928  1.00  0.00     0.005 A 
ATOM     28  C   UNL A   1      42.802  19.741  25.877  1.00  0.00     0.005 A 
ATOM     29  C   UNL A   1      42.815  22.481  25.781  1.00  0.00     0.022 A 
ATOM     30  C   UNL A   1      44.051  20.403  25.750  1.00  0.00     0.022 A 
ENDBRANCH  21  24
ENDBRANCH  13  21
ENDBRANCH  10  12
ENDBRANCH   7  10
ENDBRANCH   5   6
BRANCH   5  31
ATOM     31  C   UNL A   1      46.945  31.143  27.988  1.00  0.00     0.074 C 
BRANCH  31  32
ATOM     32  C   UNL A   1      46.296  31.434  29.317  1.00  0.00    -0.020 A 
ATOM     33  C   UNL A   1      46.718  30.950  30.541  1.00  0.00     0.087 A 
ATOM     34  C   UNL A   1      45.102  32.190  29.564  1.00  0.00     0.003 A 
ATOM     35  N   UNL A   1      45.800  31.310  31.487  1.00  0.00    -0.361 N 
ATOM     36  C   UNL A   1      44.791  32.045  30.914  1.00  0.00     0.046 A 
ATOM     37  C   UNL A   1      44.214  32.931  28.754  1.00  0.00     0.010 A 
ATOM     38  H   UNL A   1      45.855  31.077  32.442  1.00  0.00     0.166 HD
ATOM     39  C   UNL A   1      43.626  32.572  31.484  1.00  0.00     0.026 A 
ATOM     40  C   UNL A   1      43.020  33.416  29.294  1.00  0.00     0.001 A 
ATOM     41  C   UNL A   1      42.731  33.236  30.642  1.00  0.00     0.002 A 
ENDBRANCH  31  32
ENDBRANCH   5  31
ENDBRANCH   3   5
ENDBRANCH   2   3
ENDBRANCH   1   2
BRANCH   1  42
ATOM     42  C   UNL A   1      43.798  27.051  25.324  1.00  0.00     0.202 C 
BRANCH  42  43
ATOM     43  O   UNL A   1      42.451  27.206  24.924  1.00  0.00    -0.374 OA
BRANCH  43  44
ATOM     44  C   UNL A   1      41.614  26.137  25.345  1.00  0.00     0.202 C 
BRANCH  44  45
ATOM     45  C   UNL A   1      41.287  26.181  26.846  1.00  0.00     0.261 C 
BRANCH  45  46
ATOM     46  O   UNL A   1      39.998  26.800  27.025  1.00  0.00    -0.460 OA
BRANCH  46  47
ATOM     47  C   UNL A   1      40.017  28.130  27.315  1.00  0.00     0.338 C 
ATOM     48  O   UNL A   1      39.995  29.034  26.501  1.00  0.00    -0.246 OA
BRANCH  47  49
ATOM     49  C   UNL A   1      40.395  28.317  28.747  1.00  0.00     0.060 A 
ATOM     50  C   UNL A   1      39.500  27.917  29.754  1.00  0.00     0.016 A 
ATOM     51  C   UNL A   1      41.434  29.189  29.055  1.00  0.00     0.016 A 
ATOM     52  C   UNL A   1      39.514  28.555  31.001  1.00  0.00     0.010 A 
ATOM     53  C   UNL A   1      41.387  29.876  30.249  1.00  0.00     0.010 A 
ATOM     54  C   UNL A   1      40.381  29.620  31.197  1.00  0.00    -0.014 A 
BRANCH  54  55
ATOM     55  C   UNL A   1      40.324  30.594  32.290  1.00  0.00     0.031 A 
ATOM     56  C   UNL A   1      41.205  30.339  33.458  1.00  0.00     0.074 A 
ATOM     57  C   UNL A   1      39.748  31.819  32.121  1.00  0.00     0.049 A 
ATOM     58  N   UNL A   1      41.311  31.138  34.455  1.00  0.00    -0.248 NA
ATOM     59  C   UNL A   1      42.055  29.154  33.614  1.00  0.00     0.031 C 
ATOM     60  C   UNL A   1      40.007  33.038  32.892  1.00  0.00     0.029 A 
ATOM     61  N   UNL A   1      38.714  32.237  31.255  1.00  0.00    -0.354 N 
ATOM     62  C   UNL A   1      42.428  30.792  35.170  1.00  0.00     0.074 A 
ATOM     63  C   UNL A   1      42.793  29.492  34.678  1.00  0.00     0.031 C 
ATOM     64  C   UNL A   1      38.967  33.876  32.765  1.00  0.00     0.029 A 
ATOM     65  C   UNL A   1      37.969  33.186  31.973  1.00  0.00     0.049 A 
ATOM     66  H   UNL A   1      38.549  31.926  30.336  1.00  0.00     0.167 HD
ATOM     67  C   UNL A   1      42.944  31.732  36.007  1.00  0.00     0.037 A 
ATOM     68  C   UNL A   1      36.670  32.968  32.286  1.00  0.00     0.037 A 
ATOM     69  C   UNL A   1      41.957  32.806  36.221  1.00  0.00     0.049 A 
ATOM     70  C   UNL A   1      36.568  33.017  33.775  1.00  0.00     0.074 A 
ATOM     71  C   UNL A   1      41.881  34.145  35.883  1.00  0.00     0.029 A 
ATOM     72  N   UNL A   1      40.661  32.439  36.613  1.00  0.00    -0.354 N 
ATOM     73  N   UNL A   1      37.536  32.603  34.557  1.00  0.00    -0.248 NA
ATOM     74  C   UNL A   1      35.556  33.805  34.463  1.00  0.00     0.031 C 
ATOM     75  C   UNL A   1      40.502  34.533  35.955  1.00  0.00     0.029 A 
ATOM     76  C   UNL A   1      39.744  33.446  36.376  1.00  0.00     0.049 A 
ATOM     77  H   UNL A   1      40.431  31.566  37.009  1.00  0.00     0.167 HD
ATOM     78  C   UNL A   1      37.389  33.215  35.768  1.00  0.00     0.074 A 
ATOM     79  C   UNL A   1      36.111  33.912  35.682  1.00  0.00     0.031 C 
ATOM     80  C   UNL A   1      38.338  33.285  36.747  1.00  0.00     0.037 A 
BRANCH  67  81
ATOM     81  C   UNL A   1      44.366  31.735  36.537  1.00  0.00     0.064 A 
ATOM     82  C   UNL A   1      45.459  31.911  35.662  1.00  0.00     0.173 A 
ATOM     83  C   UNL A   1      44.734  31.479  37.880  1.00  0.00     0.173 A 
ATOM     84  F   UNL A   1      45.265  32.101  34.349  1.00  0.00    -0.203 F 
ATOM     85  C   UNL A   1      46.791  31.880  36.100  1.00  0.00     0.198 A 
ATOM     86  C   UNL A   1      46.060  31.504  38.327  1.00  0.00     0.198 A 
ATOM     87  F   UNL A   1      43.839  31.132  38.810  1.00  0.00    -0.203 F 
ATOM     88  F   UNL A   1      47.788  32.019  35.215  1.00  0.00    -0.200 F 
ATOM     89  C   UNL A   1      47.091  31.702  37.436  1.00  0.00     0.200 A 
ATOM     90  F   UNL A   1      46.328  31.311  39.627  1.00  0.00    -0.200 F 
ATOM     91  F   UNL A   1      48.362  31.695  37.859  1.00  0.00    -0.200 F 
ENDBRANCH  67  81
BRANCH  68  92
ATOM     92  C   UNL A   1      35.955  32.218  31.213  1.00  0.00     0.064 A 
ATOM     93  C   UNL A   1      35.593  33.015  30.104  1.00  0.00     0.173 A 
ATOM     94  C   UNL A   1      36.204  30.863  30.954  1.00  0.00     0.173 A 
ATOM     95  F   UNL A   1      35.264  34.300  30.306  1.00  0.00    -0.203 F 
ATOM     96  C   UNL A   1      35.734  32.556  28.792  1.00  0.00     0.198 A 
ATOM     97  C   UNL A   1      36.292  30.392  29.633  1.00  0.00     0.198 A 
ATOM     98  F   UNL A   1      36.521  30.029  31.954  1.00  0.00    -0.203 F 
ATOM     99  F   UNL A   1      35.562  33.395  27.762  1.00  0.00    -0.200 F 
ATOM    100  C   UNL A   1      36.138  31.257  28.560  1.00  0.00     0.200 A 
ATOM    101  F   UNL A   1      36.621  29.114  29.397  1.00  0.00    -0.200 F 
ATOM    102  F   UNL A   1      36.410  30.850  27.310  1.00  0.00    -0.200 F 
ENDBRANCH  68  92
BRANCH  80 103
ATOM    103  C   UNL A   1      37.941  33.213  38.200  1.00  0.00     0.064 A 
ATOM    104  C   UNL A   1      37.418  32.049  38.797  1.00  0.00     0.173 A 
ATOM    105  C   UNL A   1      38.277  34.256  39.091  1.00  0.00     0.173 A 
ATOM    106  F   UNL A   1      37.162  30.939  38.089  1.00  0.00    -0.203 F 
ATOM    107  C   UNL A   1      37.192  31.957  40.167  1.00  0.00     0.198 A 
ATOM    108  C   UNL A   1      38.117  34.132  40.468  1.00  0.00     0.198 A 
ATOM    109  F   UNL A   1      38.813  35.407  38.665  1.00  0.00    -0.203 F 
ATOM    110  F   UNL A   1      36.649  30.841  40.672  1.00  0.00    -0.200 F 
ATOM    111  C   UNL A   1      37.558  32.990  41.004  1.00  0.00     0.200 A 
ATOM    112  F   UNL A   1      38.537  35.116  41.274  1.00  0.00    -0.200 F 
ATOM    113  F   UNL A   1      37.395  32.875  42.328  1.00  0.00    -0.200 F 
ENDBRANCH  80 103
ENDBRANCH  54  55
ENDBRANCH  47  49
ENDBRANCH  46  47
ENDBRANCH  45  46
ENDBRANCH  44  45
ENDBRANCH  43  44
ENDBRANCH  42  43
ENDBRANCH   1  42
TORSDOF 21
ENDMDL
MODEL 3
REMARK VINA RESULT:      -9.5      5.987     11.541
REMARK SMILES Cc1ccc(S(=O)(=O)n2cc(C(=O)C(=O)N[C@@H](Cc3c[nH]c4ccccc34)C(=O)OCCOCCOC(=O)c3ccc(-c4c5nc(c(-c6c(F)c(F)c(F)c(F)c6F)c6ccc([nH]6)c(-c6c(F)c(F)c(F)c(F)c6F)c6nc(c(-c7c(F)c(F)c(F)c(F)c7F)c7ccc4[nH]7)C=C6)C=C5)cc3)c3ccccc32)cc1
REMARK SMILES IDX 31 1 30 2 28 3 29 4 17 5 16 6 14 7 15 8 12 10 13 11 11 12
REMARK SMILES IDX 9 13 10 14 107 15 102 16 106 17 103 18 105 19 104 20 6 21
REMARK SMILES IDX 7 22 8 23 5 24 1 25 2 26 3 27 109 28 4 29 108 30 18 31 19 32
REMARK SMILES IDX 20 33 27 34 21 35 22 36 26 37 23 39 25 40 24 41 32 42 33 43
REMARK SMILES IDX 34 44 35 45 36 46 37 47 38 48 39 49 40 50 101 51 41 52
REMARK SMILES IDX 100 53 42 54 43 55 44 56 94 57 45 58 99 59 93 60 95 61 46 62
REMARK SMILES IDX 98 63 92 64 91 65 47 67 79 68 59 69 78 70 60 71 63 72 77 73
REMARK SMILES IDX 96 74 61 75 62 76 76 78 97 79 64 80 48 81 49 82 57 83 50 84
REMARK SMILES IDX 51 85 55 86 58 87 52 88 53 89 56 90 54 91 80 92 81 93 89 94
REMARK SMILES IDX 82 95 83 96 87 97 90 98 84 99 85 100 88 101 86 102 65 103
REMARK SMILES IDX 66 104 74 105 67 106 68 107 72 108 75 109 69 110 70 111
REMARK SMILES IDX 73 112 71 113
REMARK H PARENT 16 9 21 38 95 66 63 77
REMARK Flexibility Score: inf
ROOT
ATOM      1  C   UNL A   1      41.241  26.976  26.665  1.00  0.00     0.261 C 
ENDROOT
BRANCH   1   2
ATOM      2  O   UNL A   1      40.425  25.894  26.232  1.00  0.00    -0.462 OA
BRANCH   2   3
ATOM      3  C   UNL A   1      40.149  24.982  27.210  1.00  0.00     0.329 C 
ATOM      4  O   UNL A   1      40.453  25.107  28.393  1.00  0.00    -0.250 OA
BRANCH   3   5
ATOM      5  C   UNL A   1      39.526  23.725  26.604  1.00  0.00     0.197 C 
BRANCH   5   6
ATOM      6  N   UNL A   1      39.746  22.552  27.484  1.00  0.00    -0.335 N 
ATOM      7  C   UNL A   1      40.734  21.595  27.441  1.00  0.00     0.293 C 
ATOM      8  O   UNL A   1      40.799  20.687  28.259  1.00  0.00    -0.265 OA
ATOM      9  H   UNL A   1      39.087  22.443  28.207  1.00  0.00     0.164 HD
BRANCH   7  10
ATOM     10  C   UNL A   1      41.824  21.750  26.403  1.00  0.00     0.252 C 
ATOM     11  O   UNL A   1      41.814  20.897  25.515  1.00  0.00    -0.283 OA
BRANCH  10  12
ATOM     12  C   UNL A   1      42.925  22.689  26.552  1.00  0.00     0.054 A 
ATOM     13  N   UNL A   1      44.600  24.173  26.318  1.00  0.00    -0.240 N 
ATOM     14  C   UNL A   1      43.816  23.246  25.630  1.00  0.00     0.117 A 
ATOM     15  C   UNL A   1      43.995  24.369  27.576  1.00  0.00     0.065 A 
ATOM     16  C   UNL A   1      43.307  23.190  27.826  1.00  0.00     0.012 A 
ATOM     17  C   UNL A   1      44.294  25.277  28.608  1.00  0.00     0.028 A 
ATOM     18  C   UNL A   1      43.083  22.799  29.161  1.00  0.00     0.011 A 
ATOM     19  C   UNL A   1      44.143  24.829  29.921  1.00  0.00     0.002 A 
ATOM     20  C   UNL A   1      43.587  23.587  30.195  1.00  0.00     0.001 A 
BRANCH  13  21
ATOM     21  S   UNL A   1      46.332  24.124  26.502  1.00  0.00     0.268 S 
ATOM     22  O   UNL A   1      46.718  22.986  25.684  1.00  0.00    -0.201 OA
ATOM     23  O   UNL A   1      46.467  24.095  27.954  1.00  0.00    -0.201 OA
BRANCH  21  24
ATOM     24  C   UNL A   1      47.480  25.377  26.091  1.00  0.00     0.088 A 
ATOM     25  C   UNL A   1      50.399  27.829  24.076  1.00  0.00     0.044 C 
ATOM     26  C   UNL A   1      49.350  27.046  24.812  1.00  0.00    -0.051 A 
ATOM     27  C   UNL A   1      48.510  26.255  24.045  1.00  0.00     0.005 A 
ATOM     28  C   UNL A   1      49.218  27.026  26.220  1.00  0.00     0.005 A 
ATOM     29  C   UNL A   1      47.585  25.454  24.679  1.00  0.00     0.022 A 
ATOM     30  C   UNL A   1      48.282  26.184  26.876  1.00  0.00     0.022 A 
ENDBRANCH  21  24
ENDBRANCH  13  21
ENDBRANCH  10  12
ENDBRANCH   7  10
ENDBRANCH   5   6
BRANCH   5  31
ATOM     31  C   UNL A   1      38.022  23.973  26.355  1.00  0.00     0.074 C 
BRANCH  31  32
ATOM     32  C   UNL A   1      37.280  22.764  25.849  1.00  0.00    -0.020 A 
ATOM     33  C   UNL A   1      37.831  21.731  25.114  1.00  0.00     0.087 A 
ATOM     34  C   UNL A   1      35.876  22.484  25.960  1.00  0.00     0.003 A 
ATOM     35  N   UNL A   1      36.823  20.897  24.718  1.00  0.00    -0.361 N 
ATOM     36  C   UNL A   1      35.618  21.347  25.199  1.00  0.00     0.046 A 
ATOM     37  C   UNL A   1      34.786  23.129  26.582  1.00  0.00     0.010 A 
ATOM     38  H   UNL A   1      36.945  20.089  24.168  1.00  0.00     0.166 HD
ATOM     39  C   UNL A   1      34.326  20.845  25.002  1.00  0.00     0.026 A 
ATOM     40  C   UNL A   1      33.485  22.675  26.351  1.00  0.00     0.001 A 
ATOM     41  C   UNL A   1      33.260  21.547  25.568  1.00  0.00     0.002 A 
ENDBRANCH  31  32
ENDBRANCH   5  31
ENDBRANCH   3   5
ENDBRANCH   2   3
ENDBRANCH   1   2
BRANCH   1  42
ATOM     42  C   UNL A   1      41.169  28.096  25.669  1.00  0.00     0.202 C 
BRANCH  42  43
ATOM     43  O   UNL A   1      42.271  27.953  24.796  1.00  0.00    -0.374 OA
BRANCH  43  44
ATOM     44  C   UNL A   1      43.470  27.583  25.463  1.00  0.00     0.202 C 
BRANCH  44  45
ATOM     45  C   UNL A   1      44.217  28.779  26.073  1.00  0.00     0.261 C 
BRANCH  45  46
ATOM     46  O   UNL A   1      45.609  28.436  26.219  1.00  0.00    -0.460 OA
BRANCH  46  47
ATOM     47  C   UNL A   1      46.425  29.442  26.637  1.00  0.00     0.338 C 
ATOM     48  O   UNL A   1      47.240  30.028  25.947  1.00  0.00    -0.246 OA
BRANCH  47  49
ATOM     49  C   UNL A   1      46.412  29.501  28.128  1.00  0.00     0.060 A 
ATOM     50  C   UNL A   1      47.557  29.947  28.810  1.00  0.00     0.016 A 
ATOM     51  C   UNL A   1      45.432  28.793  28.816  1.00  0.00     0.016 A 
ATOM     52  C   UNL A   1      47.820  29.499  30.111  1.00  0.00     0.010 A 
ATOM     53  C   UNL A   1      45.737  28.283  30.060  1.00  0.00     0.010 A 
ATOM     54  C   UNL A   1      46.965  28.568  30.682  1.00  0.00    -0.014 A 
BRANCH  54  55
ATOM     55  C   UNL A   1      47.236  27.759  31.873  1.00  0.00     0.031 A 
ATOM     56  C   UNL A   1      48.146  26.598  31.698  1.00  0.00     0.074 A 
ATOM     57  C   UNL A   1      46.938  28.212  33.124  1.00  0.00     0.049 A 
ATOM     58  N   UNL A   1      48.527  25.842  32.661  1.00  0.00    -0.248 NA
ATOM     59  C   UNL A   1      48.718  26.177  30.415  1.00  0.00     0.031 C 
ATOM     60  C   UNL A   1      47.540  27.789  34.392  1.00  0.00     0.029 A 
ATOM     61  N   UNL A   1      45.946  29.117  33.561  1.00  0.00    -0.354 N 
ATOM     62  C   UNL A   1      49.601  25.106  32.236  1.00  0.00     0.074 A 
ATOM     63  C   UNL A   1      49.613  25.263  30.808  1.00  0.00     0.031 C 
ATOM     64  C   UNL A   1      46.708  28.086  35.402  1.00  0.00     0.029 A 
ATOM     65  C   UNL A   1      45.508  28.638  34.806  1.00  0.00     0.049 A 
ATOM     66  H   UNL A   1      45.626  29.919  33.089  1.00  0.00     0.167 HD
ATOM     67  C   UNL A   1      50.395  24.556  33.194  1.00  0.00     0.037 A 
ATOM     68  C   UNL A   1      44.230  28.230  34.993  1.00  0.00     0.037 A 
ATOM     69  C   UNL A   1      49.702  24.587  34.495  1.00  0.00     0.049 A 
ATOM     70  C   UNL A   1      44.288  26.801  35.419  1.00  0.00     0.074 A 
ATOM     71  C   UNL A   1      49.898  25.253  35.691  1.00  0.00     0.029 A 
ATOM     72  N   UNL A   1      48.401  24.066  34.558  1.00  0.00    -0.354 N 
ATOM     73  N   UNL A   1      45.209  25.976  34.981  1.00  0.00    -0.248 NA
ATOM     74  C   UNL A   1      43.552  26.299  36.571  1.00  0.00     0.031 C 
ATOM     75  C   UNL A   1      48.657  25.230  36.408  1.00  0.00     0.029 A 
ATOM     76  C   UNL A   1      47.717  24.518  35.672  1.00  0.00     0.049 A 
ATOM     77  H   UNL A   1      48.020  23.452  33.889  1.00  0.00     0.167 HD
ATOM     78  C   UNL A   1      45.324  24.957  35.882  1.00  0.00     0.074 A 
ATOM     79  C   UNL A   1      44.233  25.170  36.828  1.00  0.00     0.031 C 
ATOM     80  C   UNL A   1      46.354  24.065  35.951  1.00  0.00     0.037 A 
BRANCH  67  81
ATOM     81  C   UNL A   1      51.826  24.099  32.977  1.00  0.00     0.064 A 
ATOM     82  C   UNL A   1      52.165  22.733  33.069  1.00  0.00     0.173 A 
ATOM     83  C   UNL A   1      52.931  24.958  32.763  1.00  0.00     0.173 A 
ATOM     84  F   UNL A   1      51.231  21.807  33.329  1.00  0.00    -0.203 F 
ATOM     85  C   UNL A   1      53.481  22.269  32.917  1.00  0.00     0.198 A 
ATOM     86  C   UNL A   1      54.233  24.491  32.556  1.00  0.00     0.198 A 
ATOM     87  F   UNL A   1      52.817  26.289  32.808  1.00  0.00    -0.203 F 
ATOM     88  F   UNL A   1      53.747  20.962  33.050  1.00  0.00    -0.200 F 
ATOM     89  C   UNL A   1      54.511  23.144  32.635  1.00  0.00     0.200 A 
ATOM     90  F   UNL A   1      55.221  25.362  32.301  1.00  0.00    -0.200 F 
ATOM     91  F   UNL A   1      55.763  22.700  32.466  1.00  0.00    -0.200 F 
ENDBRANCH  67  81
BRANCH  68  92
ATOM     92  C   UNL A   1      43.263  29.048  34.205  1.00  0.00     0.064 A 
ATOM     93  C   UNL A   1      42.686  28.357  33.117  1.00  0.00     0.173 A 
ATOM     94  C   UNL A   1      42.482  30.055  34.791  1.00  0.00     0.173 A 
ATOM     95  F   UNL A   1      43.419  27.439  32.466  1.00  0.00    -0.203 F 
ATOM     96  C   UNL A   1      41.329  28.473  32.808  1.00  0.00     0.198 A 
ATOM     97  C   UNL A   1      41.130  30.205  34.440  1.00  0.00     0.198 A 
ATOM     98  F   UNL A   1      42.965  30.782  35.807  1.00  0.00    -0.203 F 
ATOM     99  F   UNL A   1      40.772  27.667  31.894  1.00  0.00    -0.200 F 
ATOM    100  C   UNL A   1      40.539  29.361  33.511  1.00  0.00     0.200 A 
ATOM    101  F   UNL A   1      40.369  31.111  35.072  1.00  0.00    -0.200 F 
ATOM    102  F   UNL A   1      39.211  29.380  33.318  1.00  0.00    -0.200 F 
ENDBRANCH  68  92
BRANCH  80 103
ATOM    103  C   UNL A   1      46.096  22.628  36.328  1.00  0.00     0.064 A 
ATOM    104  C   UNL A   1      45.732  21.641  35.389  1.00  0.00     0.173 A 
ATOM    105  C   UNL A   1      46.415  22.152  37.618  1.00  0.00     0.173 A 
ATOM    106  F   UNL A   1      45.514  21.933  34.099  1.00  0.00    -0.203 F 
ATOM    107  C   UNL A   1      45.637  20.295  35.729  1.00  0.00     0.198 A 
ATOM    108  C   UNL A   1      46.389  20.797  37.934  1.00  0.00     0.198 A 
ATOM    109  F   UNL A   1      46.807  22.975  38.600  1.00  0.00    -0.203 F 
ATOM    110  F   UNL A   1      45.243  19.409  34.806  1.00  0.00    -0.200 F 
ATOM    111  C   UNL A   1      45.984  19.870  36.995  1.00  0.00     0.200 A 
ATOM    112  F   UNL A   1      46.790  20.392  39.147  1.00  0.00    -0.200 F 
ATOM    113  F   UNL A   1      45.949  18.568  37.302  1.00  0.00    -0.200 F 
ENDBRANCH  80 103
ENDBRANCH  54  55
ENDBRANCH  47  49
ENDBRANCH  46  47
ENDBRANCH  45  46
ENDBRANCH  44  45
ENDBRANCH  43  44
ENDBRANCH  42  43
ENDBRANCH   1  42
TORSDOF 21
ENDMDL
