MODEL 1
REMARK VINA RESULT:     -11.1      0.000      0.000
REMARK SMILES C[C@@H]([NH3+])CCC(=O)N1CC(n2cc(C(=O)OCCOCCOC(=O)c3ccc(-c4c5nc(c(-c6c(F)c(F)c(F)c(F)c6F)c6ccc([nH]6)c(-c6c(F)c(F)c(F)c(F)c6F)c6nc(c(-c7c(F)c(F)c(F)c(F)c7F)c7ccc4[nH]7)C=C6)C=C5)cc3)nn2)C1
REMARK SMILES IDX 17 1 16 2 14 3 15 4 13 5 11 6 12 7 89 8 88 9 10 10 6 11 7 12
REMARK SMILES IDX 8 13 9 14 90 15 5 16 4 17 2 18 1 19 3 20 18 24 19 25 20 26
REMARK SMILES IDX 21 27 22 28 23 29 24 30 25 31 26 32 87 33 27 34 86 35 28 36
REMARK SMILES IDX 29 37 30 38 80 39 31 40 85 41 79 42 81 43 32 44 84 45 78 46
REMARK SMILES IDX 77 47 33 49 65 50 45 51 64 52 46 53 49 54 63 55 82 56 47 57
REMARK SMILES IDX 48 58 62 60 83 61 50 62 34 63 35 64 43 65 36 66 37 67 41 68
REMARK SMILES IDX 44 69 38 70 39 71 42 72 40 73 66 74 67 75 75 76 68 77 69 78
REMARK SMILES IDX 73 79 76 80 70 81 71 82 74 83 72 84 51 85 52 86 60 87 53 88
REMARK SMILES IDX 54 89 58 90 61 91 55 92 56 93 59 94 57 95
REMARK H PARENT 3 21 3 22 3 23 81 48 49 59
REMARK Flexibility Score: inf
ROOT
ATOM      1  C   UNL A   1      39.299  21.668  26.507  1.00  0.00     0.261 C 
ENDROOT
BRANCH   1   2
ATOM      2  O   UNL A   1      38.473  22.470  25.646  1.00  0.00    -0.458 OA
BRANCH   2   3
ATOM      3  C   UNL A   1      37.356  21.830  25.173  1.00  0.00     0.360 C 
ATOM      4  O   UNL A   1      37.289  20.632  24.957  1.00  0.00    -0.244 OA
BRANCH   3   5
ATOM      5  C   UNL A   1      36.208  22.720  25.052  1.00  0.00     0.190 A 
ATOM      6  N   UNL A   1      34.569  23.986  24.414  1.00  0.00    -0.245 N 
ATOM      7  C   UNL A   1      35.730  23.415  23.958  1.00  0.00     0.147 A 
ATOM      8  N   UNL A   1      34.411  23.778  25.727  1.00  0.00    -0.066 NA
ATOM      9  N   UNL A   1      35.400  22.996  26.130  1.00  0.00    -0.123 NA
BRANCH   6  10
ATOM     10  C   UNL A   1      33.548  24.519  23.562  1.00  0.00     0.148 C 
ATOM     11  C   UNL A   1      31.350  26.863  23.061  1.00  0.00     0.222 C 
ATOM     12  O   UNL A   1      31.224  26.857  21.837  1.00  0.00    -0.275 OA
ATOM     13  N   UNL A   1      32.429  26.278  23.686  1.00  0.00    -0.338 N 
ATOM     14  C   UNL A   1      33.725  25.949  23.056  1.00  0.00     0.148 C 
ATOM     15  C   UNL A   1      32.388  25.015  24.412  1.00  0.00     0.148 C 
BRANCH  11  16
ATOM     16  C   UNL A   1      30.414  27.679  23.952  1.00  0.00     0.106 C 
BRANCH  16  17
ATOM     17  C   UNL A   1      30.269  29.187  23.717  1.00  0.00     0.074 C 
BRANCH  17  18
ATOM     18  C   UNL A   1      29.696  29.646  22.368  1.00  0.00     0.178 C 
ATOM     19  C   UNL A   1      28.633  30.735  22.461  1.00  0.00     0.075 C 
BRANCH  18  20
ATOM     20  N   UNL A   1      30.767  30.080  21.469  1.00  0.00    -0.355 N 
ATOM     21  H   UNL A   1      30.932  29.361  20.764  1.00  0.00     0.344 HD
ATOM     22  H   UNL A   1      31.621  30.232  22.006  1.00  0.00     0.344 HD
ATOM     23  H   UNL A   1      30.494  30.950  21.011  1.00  0.00     0.344 HD
ENDBRANCH  18  20
ENDBRANCH  17  18
ENDBRANCH  16  17
ENDBRANCH  11  16
ENDBRANCH   6  10
ENDBRANCH   3   5
ENDBRANCH   2   3
ENDBRANCH   1   2
BRANCH   1  24
ATOM     24  C   UNL A   1      40.683  21.403  25.911  1.00  0.00     0.202 C 
BRANCH  24  25
ATOM     25  O   UNL A   1      41.665  20.785  26.739  1.00  0.00    -0.374 OA
BRANCH  25  26
ATOM     26  C   UNL A   1      41.961  19.401  26.595  1.00  0.00     0.202 C 
BRANCH  26  27
ATOM     27  C   UNL A   1      43.213  19.000  25.830  1.00  0.00     0.261 C 
BRANCH  27  28
ATOM     28  O   UNL A   1      43.398  19.755  24.644  1.00  0.00    -0.460 OA
BRANCH  28  29
ATOM     29  C   UNL A   1      44.694  20.070  24.406  1.00  0.00     0.338 C 
ATOM     30  O   UNL A   1      45.606  19.307  24.151  1.00  0.00    -0.246 OA
BRANCH  29  31
ATOM     31  C   UNL A   1      44.885  21.492  24.702  1.00  0.00     0.060 A 
ATOM     32  C   UNL A   1      45.792  21.793  25.720  1.00  0.00     0.016 A 
ATOM     33  C   UNL A   1      43.948  22.424  24.234  1.00  0.00     0.016 A 
ATOM     34  C   UNL A   1      45.602  22.954  26.431  1.00  0.00     0.010 A 
ATOM     35  C   UNL A   1      43.741  23.567  24.962  1.00  0.00     0.010 A 
ATOM     36  C   UNL A   1      44.516  23.771  26.100  1.00  0.00    -0.014 A 
BRANCH  36  37
ATOM     37  C   UNL A   1      44.296  24.962  26.887  1.00  0.00     0.031 A 
ATOM     38  C   UNL A   1      45.385  25.941  26.690  1.00  0.00     0.074 A 
ATOM     39  C   UNL A   1      43.180  25.158  27.615  1.00  0.00     0.049 A 
ATOM     40  N   UNL A   1      46.305  26.263  27.534  1.00  0.00    -0.248 NA
ATOM     41  C   UNL A   1      45.617  26.443  25.325  1.00  0.00     0.031 C 
ATOM     42  C   UNL A   1      41.959  24.352  27.643  1.00  0.00     0.029 A 
ATOM     43  N   UNL A   1      42.879  26.196  28.440  1.00  0.00    -0.354 N 
ATOM     44  C   UNL A   1      47.105  27.185  26.869  1.00  0.00     0.074 A 
ATOM     45  C   UNL A   1      46.785  27.066  25.474  1.00  0.00     0.031 C 
ATOM     46  C   UNL A   1      40.978  25.047  28.266  1.00  0.00     0.029 A 
ATOM     47  C   UNL A   1      41.535  26.280  28.793  1.00  0.00     0.049 A 
ATOM     48  H   UNL A   1      43.555  26.837  28.761  1.00  0.00     0.167 HD
ATOM     49  C   UNL A   1      47.718  28.179  27.564  1.00  0.00     0.037 A 
ATOM     50  C   UNL A   1      40.945  27.338  29.411  1.00  0.00     0.037 A 
ATOM     51  C   UNL A   1      47.798  27.836  28.964  1.00  0.00     0.049 A 
ATOM     52  C   UNL A   1      42.029  28.133  30.046  1.00  0.00     0.074 A 
ATOM     53  C   UNL A   1      48.400  26.826  29.687  1.00  0.00     0.029 A 
ATOM     54  N   UNL A   1      46.852  28.383  29.796  1.00  0.00    -0.354 N 
ATOM     55  N   UNL A   1      42.733  27.714  31.060  1.00  0.00    -0.248 NA
ATOM     56  C   UNL A   1      42.640  29.189  29.254  1.00  0.00     0.031 C 
ATOM     57  C   UNL A   1      47.493  26.530  30.747  1.00  0.00     0.029 A 
ATOM     58  C   UNL A   1      46.421  27.419  30.666  1.00  0.00     0.049 A 
ATOM     59  H   UNL A   1      46.535  29.316  29.771  1.00  0.00     0.167 HD
ATOM     60  C   UNL A   1      44.030  28.118  30.777  1.00  0.00     0.074 A 
ATOM     61  C   UNL A   1      43.897  29.095  29.698  1.00  0.00     0.031 C 
ATOM     62  C   UNL A   1      45.095  27.400  31.239  1.00  0.00     0.037 A 
BRANCH  49  63
ATOM     63  C   UNL A   1      47.811  29.610  27.074  1.00  0.00     0.064 A 
ATOM     64  C   UNL A   1      49.051  30.271  27.179  1.00  0.00     0.173 A 
ATOM     65  C   UNL A   1      46.705  30.449  26.803  1.00  0.00     0.173 A 
ATOM     66  F   UNL A   1      50.174  29.582  27.434  1.00  0.00    -0.203 F 
ATOM     67  C   UNL A   1      49.155  31.664  27.130  1.00  0.00     0.198 A 
ATOM     68  C   UNL A   1      46.821  31.833  26.705  1.00  0.00     0.198 A 
ATOM     69  F   UNL A   1      45.449  29.999  26.728  1.00  0.00    -0.203 F 
ATOM     70  F   UNL A   1      50.334  32.249  27.378  1.00  0.00    -0.200 F 
ATOM     71  C   UNL A   1      48.038  32.444  26.905  1.00  0.00     0.200 A 
ATOM     72  F   UNL A   1      45.720  32.571  26.500  1.00  0.00    -0.200 F 
ATOM     73  F   UNL A   1      48.121  33.780  26.926  1.00  0.00    -0.200 F 
ENDBRANCH  49  63
BRANCH  50  74
ATOM     74  C   UNL A   1      39.585  27.898  29.212  1.00  0.00     0.064 A 
ATOM     75  C   UNL A   1      38.695  28.034  30.292  1.00  0.00     0.173 A 
ATOM     76  C   UNL A   1      39.241  28.585  28.033  1.00  0.00     0.173 A 
ATOM     77  F   UNL A   1      38.968  27.452  31.470  1.00  0.00    -0.203 F 
ATOM     78  C   UNL A   1      37.549  28.836  30.207  1.00  0.00     0.198 A 
ATOM     79  C   UNL A   1      38.097  29.381  27.948  1.00  0.00     0.198 A 
ATOM     80  F   UNL A   1      40.062  28.583  26.973  1.00  0.00    -0.203 F 
ATOM     81  F   UNL A   1      36.764  28.996  31.281  1.00  0.00    -0.200 F 
ATOM     82  C   UNL A   1      37.259  29.518  29.038  1.00  0.00     0.200 A 
ATOM     83  F   UNL A   1      37.849  30.068  26.823  1.00  0.00    -0.200 F 
ATOM     84  F   UNL A   1      36.201  30.339  28.976  1.00  0.00    -0.200 F 
ENDBRANCH  50  74
BRANCH  62  85
ATOM     85  C   UNL A   1      44.831  26.364  32.296  1.00  0.00     0.064 A 
ATOM     86  C   UNL A   1      44.536  25.014  32.033  1.00  0.00     0.173 A 
ATOM     87  C   UNL A   1      45.020  26.733  33.635  1.00  0.00     0.173 A 
ATOM     88  F   UNL A   1      44.433  24.563  30.776  1.00  0.00    -0.203 F 
ATOM     89  C   UNL A   1      44.401  24.090  33.069  1.00  0.00     0.198 A 
ATOM     90  C   UNL A   1      44.924  25.801  34.663  1.00  0.00     0.198 A 
ATOM     91  F   UNL A   1      45.352  27.997  33.941  1.00  0.00    -0.203 F 
ATOM     92  F   UNL A   1      44.107  22.810  32.796  1.00  0.00    -0.200 F 
ATOM     93  C   UNL A   1      44.605  24.483  34.382  1.00  0.00     0.200 A 
ATOM     94  F   UNL A   1      45.172  26.176  35.926  1.00  0.00    -0.200 F 
ATOM     95  F   UNL A   1      44.519  23.586  35.375  1.00  0.00    -0.200 F 
ENDBRANCH  62  85
ENDBRANCH  36  37
ENDBRANCH  29  31
ENDBRANCH  28  29
ENDBRANCH  27  28
ENDBRANCH  26  27
ENDBRANCH  25  26
ENDBRANCH  24  25
ENDBRANCH   1  24
TORSDOF 19
ENDMDL
MODEL 2
REMARK VINA RESULT:     -11.0      5.007     10.555
REMARK SMILES C[C@@H]([NH3+])CCC(=O)N1CC(n2cc(C(=O)OCCOCCOC(=O)c3ccc(-c4c5nc(c(-c6c(F)c(F)c(F)c(F)c6F)c6ccc([nH]6)c(-c6c(F)c(F)c(F)c(F)c6F)c6nc(c(-c7c(F)c(F)c(F)c(F)c7F)c7ccc4[nH]7)C=C6)C=C5)cc3)nn2)C1
REMARK SMILES IDX 17 1 16 2 14 3 15 4 13 5 11 6 12 7 89 8 88 9 10 10 6 11 7 12
REMARK SMILES IDX 8 13 9 14 90 15 5 16 4 17 2 18 1 19 3 20 18 24 19 25 20 26
REMARK SMILES IDX 21 27 22 28 23 29 24 30 25 31 26 32 87 33 27 34 86 35 28 36
REMARK SMILES IDX 29 37 30 38 80 39 31 40 85 41 79 42 81 43 32 44 84 45 78 46
REMARK SMILES IDX 77 47 33 49 65 50 45 51 64 52 46 53 49 54 63 55 82 56 47 57
REMARK SMILES IDX 48 58 62 60 83 61 50 62 34 63 35 64 43 65 36 66 37 67 41 68
REMARK SMILES IDX 44 69 38 70 39 71 42 72 40 73 66 74 67 75 75 76 68 77 69 78
REMARK SMILES IDX 73 79 76 80 70 81 71 82 74 83 72 84 51 85 52 86 60 87 53 88
REMARK SMILES IDX 54 89 58 90 61 91 55 92 56 93 59 94 57 95
REMARK H PARENT 3 21 3 22 3 23 81 48 49 59
REMARK Flexibility Score: inf
ROOT
ATOM      1  C   UNL A   1      34.428  31.807  27.650  1.00  0.00     0.261 C 
ENDROOT
BRANCH   1   2
ATOM      2  O   UNL A   1      33.555  30.700  27.363  1.00  0.00    -0.458 OA
BRANCH   2   3
ATOM      3  C   UNL A   1      34.181  29.480  27.324  1.00  0.00     0.360 C 
ATOM      4  O   UNL A   1      35.350  29.297  27.615  1.00  0.00    -0.244 OA
BRANCH   3   5
ATOM      5  C   UNL A   1      33.269  28.393  26.993  1.00  0.00     0.190 A 
ATOM      6  N   UNL A   1      32.274  26.613  26.259  1.00  0.00    -0.245 N 
ATOM      7  C   UNL A   1      33.356  27.422  26.015  1.00  0.00     0.147 A 
ATOM      8  N   UNL A   1      31.498  27.121  27.224  1.00  0.00    -0.066 NA
ATOM      9  N   UNL A   1      32.098  28.205  27.692  1.00  0.00    -0.123 NA
BRANCH   6  10
ATOM     10  C   UNL A   1      32.124  25.291  25.728  1.00  0.00     0.148 C 
ATOM     11  C   UNL A   1      32.887  22.139  25.974  1.00  0.00     0.222 C 
ATOM     12  O   UNL A   1      31.940  21.588  25.414  1.00  0.00    -0.275 OA
ATOM     13  N   UNL A   1      32.817  23.443  26.411  1.00  0.00    -0.338 N 
ATOM     14  C   UNL A   1      31.580  24.211  26.660  1.00  0.00     0.148 C 
ATOM     15  C   UNL A   1      33.467  24.576  25.764  1.00  0.00     0.148 C 
BRANCH  11  16
ATOM     16  C   UNL A   1      34.134  21.355  26.384  1.00  0.00     0.106 C 
BRANCH  16  17
ATOM     17  C   UNL A   1      35.115  20.878  25.307  1.00  0.00     0.074 C 
BRANCH  17  18
ATOM     18  C   UNL A   1      36.330  21.768  25.007  1.00  0.00     0.178 C 
ATOM     19  C   UNL A   1      36.188  22.647  23.768  1.00  0.00     0.075 C 
BRANCH  18  20
ATOM     20  N   UNL A   1      36.665  22.599  26.164  1.00  0.00    -0.355 N 
ATOM     21  H   UNL A   1      37.080  22.018  26.893  1.00  0.00     0.344 HD
ATOM     22  H   UNL A   1      35.817  23.040  26.523  1.00  0.00     0.344 HD
ATOM     23  H   UNL A   1      37.330  23.320  25.883  1.00  0.00     0.344 HD
ENDBRANCH  18  20
ENDBRANCH  17  18
ENDBRANCH  16  17
ENDBRANCH  11  16
ENDBRANCH   6  10
ENDBRANCH   3   5
ENDBRANCH   2   3
ENDBRANCH   1   2
BRANCH   1  24
ATOM     24  C   UNL A   1      34.071  32.509  28.962  1.00  0.00     0.202 C 
BRANCH  24  25
ATOM     25  O   UNL A   1      34.509  33.853  29.147  1.00  0.00    -0.374 OA
BRANCH  25  26
ATOM     26  C   UNL A   1      33.606  34.937  28.965  1.00  0.00     0.202 C 
BRANCH  26  27
ATOM     27  C   UNL A   1      33.072  35.654  30.196  1.00  0.00     0.261 C 
BRANCH  27  28
ATOM     28  O   UNL A   1      32.915  34.790  31.309  1.00  0.00    -0.460 OA
BRANCH  28  29
ATOM     29  C   UNL A   1      33.427  35.297  32.457  1.00  0.00     0.338 C 
ATOM     30  O   UNL A   1      33.121  36.338  33.007  1.00  0.00    -0.246 OA
BRANCH  29  31
ATOM     31  C   UNL A   1      34.578  34.480  32.849  1.00  0.00     0.060 A 
ATOM     32  C   UNL A   1      35.783  35.161  33.033  1.00  0.00     0.016 A 
ATOM     33  C   UNL A   1      34.521  33.089  32.686  1.00  0.00     0.016 A 
ATOM     34  C   UNL A   1      36.953  34.472  32.818  1.00  0.00     0.010 A 
ATOM     35  C   UNL A   1      35.687  32.410  32.443  1.00  0.00     0.010 A 
ATOM     36  C   UNL A   1      36.877  33.130  32.428  1.00  0.00    -0.014 A 
BRANCH  36  37
ATOM     37  C   UNL A   1      38.111  32.431  32.155  1.00  0.00     0.031 A 
ATOM     38  C   UNL A   1      38.923  32.281  33.381  1.00  0.00     0.074 A 
ATOM     39  C   UNL A   1      38.401  31.910  30.948  1.00  0.00     0.049 A 
ATOM     40  N   UNL A   1      40.019  32.895  33.668  1.00  0.00    -0.248 NA
ATOM     41  C   UNL A   1      38.329  31.547  34.511  1.00  0.00     0.031 C 
ATOM     42  C   UNL A   1      37.533  31.794  29.774  1.00  0.00     0.029 A 
ATOM     43  N   UNL A   1      39.541  31.287  30.546  1.00  0.00    -0.354 N 
ATOM     44  C   UNL A   1      40.368  32.446  34.937  1.00  0.00     0.074 A 
ATOM     45  C   UNL A   1      39.193  31.830  35.485  1.00  0.00     0.031 C 
ATOM     46  C   UNL A   1      38.100  30.951  28.879  1.00  0.00     0.029 A 
ATOM     47  C   UNL A   1      39.420  30.576  29.356  1.00  0.00     0.049 A 
ATOM     48  H   UNL A   1      40.383  31.335  31.055  1.00  0.00     0.167 HD
ATOM     49  C   UNL A   1      41.678  32.338  35.283  1.00  0.00     0.037 A 
ATOM     50  C   UNL A   1      40.332  29.696  28.865  1.00  0.00     0.037 A 
ATOM     51  C   UNL A   1      42.495  33.152  34.413  1.00  0.00     0.049 A 
ATOM     52  C   UNL A   1      41.625  29.984  29.540  1.00  0.00     0.074 A 
ATOM     53  C   UNL A   1      42.577  34.502  34.135  1.00  0.00     0.029 A 
ATOM     54  N   UNL A   1      43.131  32.513  33.377  1.00  0.00    -0.354 N 
ATOM     55  N   UNL A   1      42.315  31.073  29.344  1.00  0.00    -0.248 NA
ATOM     56  C   UNL A   1      41.906  29.281  30.782  1.00  0.00     0.031 C 
ATOM     57  C   UNL A   1      42.866  34.581  32.741  1.00  0.00     0.029 A 
ATOM     58  C   UNL A   1      43.019  33.284  32.251  1.00  0.00     0.049 A 
ATOM     59  H   UNL A   1      43.591  31.645  33.434  1.00  0.00     0.167 HD
ATOM     60  C   UNL A   1      42.775  31.429  30.604  1.00  0.00     0.074 A 
ATOM     61  C   UNL A   1      42.565  30.244  31.433  1.00  0.00     0.031 C 
ATOM     62  C   UNL A   1      42.999  32.739  30.914  1.00  0.00     0.037 A 
BRANCH  49  63
ATOM     63  C   UNL A   1      42.244  31.174  36.070  1.00  0.00     0.064 A 
ATOM     64  C   UNL A   1      43.133  31.454  37.127  1.00  0.00     0.173 A 
ATOM     65  C   UNL A   1      42.210  29.822  35.658  1.00  0.00     0.173 A 
ATOM     66  F   UNL A   1      43.255  32.701  37.606  1.00  0.00    -0.203 F 
ATOM     67  C   UNL A   1      43.994  30.484  37.648  1.00  0.00     0.198 A 
ATOM     68  C   UNL A   1      43.034  28.847  36.214  1.00  0.00     0.198 A 
ATOM     69  F   UNL A   1      41.467  29.390  34.634  1.00  0.00    -0.203 F 
ATOM     70  F   UNL A   1      44.919  30.836  38.552  1.00  0.00    -0.200 F 
ATOM     71  C   UNL A   1      43.952  29.185  37.183  1.00  0.00     0.200 A 
ATOM     72  F   UNL A   1      42.985  27.595  35.737  1.00  0.00    -0.200 F 
ATOM     73  F   UNL A   1      44.822  28.270  37.629  1.00  0.00    -0.200 F 
ENDBRANCH  49  63
BRANCH  50  74
ATOM     74  C   UNL A   1      40.106  28.426  28.130  1.00  0.00     0.064 A 
ATOM     75  C   UNL A   1      40.757  28.171  26.910  1.00  0.00     0.173 A 
ATOM     76  C   UNL A   1      39.491  27.322  28.750  1.00  0.00     0.173 A 
ATOM     77  F   UNL A   1      41.411  29.155  26.275  1.00  0.00    -0.203 F 
ATOM     78  C   UNL A   1      40.818  26.883  26.362  1.00  0.00     0.198 A 
ATOM     79  C   UNL A   1      39.549  26.039  28.201  1.00  0.00     0.198 A 
ATOM     80  F   UNL A   1      38.912  27.443  29.953  1.00  0.00    -0.203 F 
ATOM     81  F   UNL A   1      41.509  26.668  25.234  1.00  0.00    -0.200 F 
ATOM     82  C   UNL A   1      40.224  25.817  27.015  1.00  0.00     0.200 A 
ATOM     83  F   UNL A   1      39.004  25.008  28.863  1.00  0.00    -0.200 F 
ATOM     84  F   UNL A   1      40.339  24.573  26.528  1.00  0.00    -0.200 F 
ENDBRANCH  50  74
BRANCH  62  85
ATOM     85  C   UNL A   1      43.030  33.728  29.781  1.00  0.00     0.064 A 
ATOM     86  C   UNL A   1      41.911  34.445  29.318  1.00  0.00     0.173 A 
ATOM     87  C   UNL A   1      44.278  34.058  29.236  1.00  0.00     0.173 A 
ATOM     88  F   UNL A   1      40.699  34.254  29.854  1.00  0.00    -0.203 F 
ATOM     89  C   UNL A   1      42.039  35.418  28.328  1.00  0.00     0.198 A 
ATOM     90  C   UNL A   1      44.407  35.058  28.278  1.00  0.00     0.198 A 
ATOM     91  F   UNL A   1      45.385  33.442  29.676  1.00  0.00    -0.203 F 
ATOM     92  F   UNL A   1      40.956  36.081  27.892  1.00  0.00    -0.200 F 
ATOM     93  C   UNL A   1      43.287  35.730  27.816  1.00  0.00     0.200 A 
ATOM     94  F   UNL A   1      45.623  35.390  27.823  1.00  0.00    -0.200 F 
ATOM     95  F   UNL A   1      43.417  36.697  26.897  1.00  0.00    -0.200 F 
ENDBRANCH  62  85
ENDBRANCH  36  37
ENDBRANCH  29  31
ENDBRANCH  28  29
ENDBRANCH  27  28
ENDBRANCH  26  27
ENDBRANCH  25  26
ENDBRANCH  24  25
ENDBRANCH   1  24
TORSDOF 19
ENDMDL
MODEL 3
REMARK VINA RESULT:     -10.5      2.928      4.360
REMARK SMILES C[C@@H]([NH3+])CCC(=O)N1CC(n2cc(C(=O)OCCOCCOC(=O)c3ccc(-c4c5nc(c(-c6c(F)c(F)c(F)c(F)c6F)c6ccc([nH]6)c(-c6c(F)c(F)c(F)c(F)c6F)c6nc(c(-c7c(F)c(F)c(F)c(F)c7F)c7ccc4[nH]7)C=C6)C=C5)cc3)nn2)C1
REMARK SMILES IDX 17 1 16 2 14 3 15 4 13 5 11 6 12 7 89 8 88 9 10 10 6 11 7 12
REMARK SMILES IDX 8 13 9 14 90 15 5 16 4 17 2 18 1 19 3 20 18 24 19 25 20 26
REMARK SMILES IDX 21 27 22 28 23 29 24 30 25 31 26 32 87 33 27 34 86 35 28 36
REMARK SMILES IDX 29 37 30 38 80 39 31 40 85 41 79 42 81 43 32 44 84 45 78 46
REMARK SMILES IDX 77 47 33 49 65 50 45 51 64 52 46 53 49 54 63 55 82 56 47 57
REMARK SMILES IDX 48 58 62 60 83 61 50 62 34 63 35 64 43 65 36 66 37 67 41 68
REMARK SMILES IDX 44 69 38 70 39 71 42 72 40 73 66 74 67 75 75 76 68 77 69 78
REMARK SMILES IDX 73 79 76 80 70 81 71 82 74 83 72 84 51 85 52 86 60 87 53 88
REMARK SMILES IDX 54 89 58 90 61 91 55 92 56 93 59 94 57 95
REMARK H PARENT 3 21 3 22 3 23 81 48 49 59
REMARK Flexibility Score: inf
ROOT
ATOM      1  C   UNL A   1      34.741  22.552  23.802  1.00  0.00     0.261 C 
ENDROOT
BRANCH   1   2
ATOM      2  O   UNL A   1      34.042  22.031  24.946  1.00  0.00    -0.458 OA
BRANCH   2   3
ATOM      3  C   UNL A   1      33.453  22.986  25.735  1.00  0.00     0.360 C 
ATOM      4  O   UNL A   1      33.837  23.289  26.851  1.00  0.00    -0.244 OA
BRANCH   3   5
ATOM      5  C   UNL A   1      32.370  23.685  25.054  1.00  0.00     0.190 A 
ATOM      6  N   UNL A   1      31.081  25.054  23.977  1.00  0.00    -0.245 N 
ATOM      7  C   UNL A   1      32.261  25.009  24.676  1.00  0.00     0.147 A 
ATOM      8  N   UNL A   1      30.438  23.882  24.038  1.00  0.00    -0.066 NA
ATOM      9  N   UNL A   1      31.218  23.029  24.684  1.00  0.00    -0.123 NA
BRANCH   6  10
ATOM     10  C   UNL A   1      30.705  26.126  23.105  1.00  0.00     0.148 C 
ATOM     11  C   UNL A   1      30.056  29.297  22.787  1.00  0.00     0.222 C 
ATOM     12  O   UNL A   1      30.297  29.504  21.599  1.00  0.00    -0.275 OA
ATOM     13  N   UNL A   1      30.522  28.179  23.442  1.00  0.00    -0.338 N 
ATOM     14  C   UNL A   1      31.647  27.324  23.010  1.00  0.00     0.148 C 
ATOM     15  C   UNL A   1      29.707  27.029  23.814  1.00  0.00     0.148 C 
BRANCH  11  16
ATOM     16  C   UNL A   1      29.380  30.357  23.657  1.00  0.00     0.106 C 
BRANCH  16  17
ATOM     17  C   UNL A   1      28.068  30.997  23.187  1.00  0.00     0.074 C 
BRANCH  17  18
ATOM     18  C   UNL A   1      28.163  32.289  22.361  1.00  0.00     0.178 C 
ATOM     19  C   UNL A   1      28.959  33.412  23.019  1.00  0.00     0.075 C 
BRANCH  18  20
ATOM     20  N   UNL A   1      28.705  32.017  21.030  1.00  0.00    -0.355 N 
ATOM     21  H   UNL A   1      27.946  31.767  20.396  1.00  0.00     0.344 HD
ATOM     22  H   UNL A   1      29.370  31.244  21.084  1.00  0.00     0.344 HD
ATOM     23  H   UNL A   1      29.180  32.849  20.680  1.00  0.00     0.344 HD
ENDBRANCH  18  20
ENDBRANCH  17  18
ENDBRANCH  16  17
ENDBRANCH  11  16
ENDBRANCH   6  10
ENDBRANCH   3   5
ENDBRANCH   2   3
ENDBRANCH   1   2
BRANCH   1  24
ATOM     24  C   UNL A   1      36.246  22.276  23.860  1.00  0.00     0.202 C 
BRANCH  24  25
ATOM     25  O   UNL A   1      37.043  23.074  24.733  1.00  0.00    -0.374 OA
BRANCH  25  26
ATOM     26  C   UNL A   1      37.534  22.535  25.954  1.00  0.00     0.202 C 
BRANCH  26  27
ATOM     27  C   UNL A   1      38.949  21.979  25.987  1.00  0.00     0.261 C 
BRANCH  27  28
ATOM     28  O   UNL A   1      39.780  22.647  26.922  1.00  0.00    -0.460 OA
BRANCH  28  29
ATOM     29  C   UNL A   1      41.068  22.750  26.516  1.00  0.00     0.338 C 
ATOM     30  O   UNL A   1      41.814  21.848  26.186  1.00  0.00    -0.246 OA
BRANCH  29  31
ATOM     31  C   UNL A   1      41.509  24.132  26.725  1.00  0.00     0.060 A 
ATOM     32  C   UNL A   1      42.361  24.350  27.809  1.00  0.00     0.016 A 
ATOM     33  C   UNL A   1      40.820  25.176  26.091  1.00  0.00     0.016 A 
ATOM     34  C   UNL A   1      42.340  25.587  28.408  1.00  0.00     0.010 A 
ATOM     35  C   UNL A   1      40.778  26.400  26.706  1.00  0.00     0.010 A 
ATOM     36  C   UNL A   1      41.471  26.560  27.902  1.00  0.00    -0.014 A 
BRANCH  36  37
ATOM     37  C   UNL A   1      41.420  27.840  28.571  1.00  0.00     0.031 A 
ATOM     38  C   UNL A   1      42.594  28.669  28.228  1.00  0.00     0.074 A 
ATOM     39  C   UNL A   1      40.372  28.228  29.321  1.00  0.00     0.049 A 
ATOM     40  N   UNL A   1      43.587  28.968  28.995  1.00  0.00    -0.248 NA
ATOM     41  C   UNL A   1      42.806  29.006  26.810  1.00  0.00     0.031 C 
ATOM     42  C   UNL A   1      39.075  27.568  29.484  1.00  0.00     0.029 A 
ATOM     43  N   UNL A   1      40.226  29.369  30.046  1.00  0.00    -0.354 N 
ATOM     44  C   UNL A   1      44.443  29.726  28.205  1.00  0.00     0.074 A 
ATOM     45  C   UNL A   1      44.039  29.508  26.845  1.00  0.00     0.031 C 
ATOM     46  C   UNL A   1      38.207  28.425  30.072  1.00  0.00     0.029 A 
ATOM     47  C   UNL A   1      38.919  29.635  30.445  1.00  0.00     0.049 A 
ATOM     48  H   UNL A   1      40.982  29.959  30.271  1.00  0.00     0.167 HD
ATOM     49  C   UNL A   1      45.194  30.711  28.767  1.00  0.00     0.037 A 
ATOM     50  C   UNL A   1      38.478  30.806  30.975  1.00  0.00     0.037 A 
ATOM     51  C   UNL A   1      45.311  30.500  30.191  1.00  0.00     0.049 A 
ATOM     52  C   UNL A   1      39.671  31.536  31.478  1.00  0.00     0.074 A 
ATOM     53  C   UNL A   1      45.841  29.505  30.988  1.00  0.00     0.029 A 
ATOM     54  N   UNL A   1      44.474  31.227  31.000  1.00  0.00    -0.354 N 
ATOM     55  N   UNL A   1      40.380  31.142  32.499  1.00  0.00    -0.248 NA
ATOM     56  C   UNL A   1      40.348  32.435  30.556  1.00  0.00     0.031 C 
ATOM     57  C   UNL A   1      44.965  29.416  32.110  1.00  0.00     0.029 A 
ATOM     58  C   UNL A   1      43.990  30.405  31.983  1.00  0.00     0.049 A 
ATOM     59  H   UNL A   1      44.257  32.181  30.893  1.00  0.00     0.167 HD
ATOM     60  C   UNL A   1      41.696  31.372  32.122  1.00  0.00     0.074 A 
ATOM     61  C   UNL A   1      41.609  32.247  30.954  1.00  0.00     0.031 C 
ATOM     62  C   UNL A   1      42.702  30.590  32.611  1.00  0.00     0.037 A 
BRANCH  49  63
ATOM     63  C   UNL A   1      45.410  32.067  28.128  1.00  0.00     0.064 A 
ATOM     64  C   UNL A   1      44.278  32.853  27.833  1.00  0.00     0.173 A 
ATOM     65  C   UNL A   1      46.613  32.495  27.519  1.00  0.00     0.173 A 
ATOM     66  F   UNL A   1      43.079  32.547  28.351  1.00  0.00    -0.203 F 
ATOM     67  C   UNL A   1      44.326  33.907  26.917  1.00  0.00     0.198 A 
ATOM     68  C   UNL A   1      46.666  33.579  26.646  1.00  0.00     0.198 A 
ATOM     69  F   UNL A   1      47.768  31.837  27.644  1.00  0.00    -0.203 F 
ATOM     70  F   UNL A   1      43.194  34.530  26.564  1.00  0.00    -0.200 F 
ATOM     71  C   UNL A   1      45.517  34.262  26.316  1.00  0.00     0.200 A 
ATOM     72  F   UNL A   1      47.832  33.895  26.063  1.00  0.00    -0.200 F 
ATOM     73  F   UNL A   1      45.555  35.225  25.387  1.00  0.00    -0.200 F 
ENDBRANCH  49  63
BRANCH  50  74
ATOM     74  C   UNL A   1      37.175  31.491  30.777  1.00  0.00     0.064 A 
ATOM     75  C   UNL A   1      36.263  31.629  31.839  1.00  0.00     0.173 A 
ATOM     76  C   UNL A   1      36.930  32.281  29.639  1.00  0.00     0.173 A 
ATOM     77  F   UNL A   1      36.448  30.950  32.980  1.00  0.00    -0.203 F 
ATOM     78  C   UNL A   1      35.191  32.528  31.777  1.00  0.00     0.198 A 
ATOM     79  C   UNL A   1      35.858  33.174  29.576  1.00  0.00     0.198 A 
ATOM     80  F   UNL A   1      37.783  32.281  28.605  1.00  0.00    -0.203 F 
ATOM     81  F   UNL A   1      34.385  32.683  32.837  1.00  0.00    -0.200 F 
ATOM     82  C   UNL A   1      34.998  33.309  30.650  1.00  0.00     0.200 A 
ATOM     83  F   UNL A   1      35.705  33.953  28.496  1.00  0.00    -0.200 F 
ATOM     84  F   UNL A   1      34.013  34.218  30.615  1.00  0.00    -0.200 F 
ENDBRANCH  50  74
BRANCH  62  85
ATOM     85  C   UNL A   1      42.386  29.698  33.779  1.00  0.00     0.064 A 
ATOM     86  C   UNL A   1      41.900  28.382  33.669  1.00  0.00     0.173 A 
ATOM     87  C   UNL A   1      42.723  30.155  35.060  1.00  0.00     0.173 A 
ATOM     88  F   UNL A   1      41.644  27.839  32.472  1.00  0.00    -0.203 F 
ATOM     89  C   UNL A   1      41.725  27.582  34.798  1.00  0.00     0.198 A 
ATOM     90  C   UNL A   1      42.585  29.340  36.179  1.00  0.00     0.198 A 
ATOM     91  F   UNL A   1      43.238  31.384  35.219  1.00  0.00    -0.203 F 
ATOM     92  F   UNL A   1      41.248  26.334  34.671  1.00  0.00    -0.200 F 
ATOM     93  C   UNL A   1      42.077  28.058  36.049  1.00  0.00     0.200 A 
ATOM     94  F   UNL A   1      42.975  29.789  37.380  1.00  0.00    -0.200 F 
ATOM     95  F   UNL A   1      41.951  27.274  37.129  1.00  0.00    -0.200 F 
ENDBRANCH  62  85
ENDBRANCH  36  37
ENDBRANCH  29  31
ENDBRANCH  28  29
ENDBRANCH  27  28
ENDBRANCH  26  27
ENDBRANCH  25  26
ENDBRANCH  24  25
ENDBRANCH   1  24
TORSDOF 19
ENDMDL
