MODEL 1
REMARK VINA RESULT:     -11.7      0.000      0.000
REMARK SMILES C[C@@H]1CCC[C@](CCSc2ccccc2)(C(=O)OCCOCCOC(=O)c2ccc(-c3c4nc(c(-c5c(F)c(F)c(F)c(F)c5F)c5ccc([nH]5)c(-c5c(F)c(F)c(F)c(F)c5F)c5nc(c(-c6c(F)c(F)c(F)c(F)c6F)c6ccc3[nH]6)C=C5)C=C4)cc2)C1
REMARK SMILES IDX 20 1 19 2 18 3 16 4 17 5 6 6 1 7 2 8 3 9 90 10 4 11 5 12
REMARK SMILES IDX 7 13 8 14 9 15 10 16 11 17 15 18 12 19 14 20 13 21 21 22
REMARK SMILES IDX 22 23 23 24 24 25 25 26 26 27 27 28 28 29 89 30 29 31 88 32
REMARK SMILES IDX 30 33 31 34 32 35 82 36 33 37 87 38 81 39 83 40 34 41 86 42
REMARK SMILES IDX 80 43 79 44 35 46 67 47 47 48 66 49 48 50 51 51 65 52 84 53
REMARK SMILES IDX 49 54 50 55 64 57 85 58 52 59 36 60 37 61 45 62 38 63 39 64
REMARK SMILES IDX 43 65 46 66 40 67 41 68 44 69 42 70 68 71 69 72 77 73 70 74
REMARK SMILES IDX 71 75 75 76 78 77 72 78 73 79 76 80 74 81 53 82 54 83 62 84
REMARK SMILES IDX 55 85 56 86 60 87 63 88 57 89 58 90 61 91 59 92
REMARK H PARENT 83 45 51 56
REMARK Flexibility Score: inf
ROOT
ATOM      1  C   UNL A   1      33.495  26.893  25.997  1.00  0.00     0.202 C 
ENDROOT
BRANCH   1   2
ATOM      2  C   UNL A   1      33.176  25.398  25.730  1.00  0.00     0.261 C 
BRANCH   2   3
ATOM      3  O   UNL A   1      34.238  24.505  25.378  1.00  0.00    -0.463 OA
BRANCH   3   4
ATOM      4  C   UNL A   1      34.116  23.320  26.015  1.00  0.00     0.312 C 
ATOM      5  O   UNL A   1      33.588  23.261  27.112  1.00  0.00    -0.252 OA
BRANCH   4   6
ATOM      6  C   UNL A   1      34.550  22.082  25.237  1.00  0.00     0.069 C 
ATOM      7  C   UNL A   1      37.400  23.666  25.832  1.00  0.00     0.007 C 
ATOM      8  C   UNL A   1      37.148  22.379  25.041  1.00  0.00    -0.013 C 
ATOM      9  C   UNL A   1      37.017  22.628  23.536  1.00  0.00     0.003 C 
ATOM     10  C   UNL A   1      35.960  21.565  25.575  1.00  0.00     0.022 C 
ATOM     11  C   UNL A   1      35.649  23.167  23.130  1.00  0.00     0.001 C 
ATOM     12  C   UNL A   1      34.485  22.342  23.701  1.00  0.00     0.019 C 
BRANCH   6  13
ATOM     13  C   UNL A   1      33.475  20.983  25.624  1.00  0.00     0.030 C 
BRANCH  13  14
ATOM     14  C   UNL A   1      32.216  20.732  24.731  1.00  0.00     0.076 C 
BRANCH  14  15
ATOM     15  S   UNL A   1      32.157  19.594  23.260  1.00  0.00    -0.126 SA
BRANCH  15  16
ATOM     16  C   UNL A   1      32.828  18.046  23.879  1.00  0.00     0.007 A 
ATOM     17  C   UNL A   1      32.484  17.597  25.166  1.00  0.00     0.015 A 
ATOM     18  C   UNL A   1      33.741  17.299  23.137  1.00  0.00     0.015 A 
ATOM     19  C   UNL A   1      33.148  16.510  25.747  1.00  0.00     0.001 A 
ATOM     20  C   UNL A   1      34.405  16.213  23.715  1.00  0.00     0.001 A 
ATOM     21  C   UNL A   1      34.128  15.834  25.028  1.00  0.00     0.000 A 
ENDBRANCH  15  16
ENDBRANCH  14  15
ENDBRANCH  13  14
ENDBRANCH   6  13
ENDBRANCH   4   6
ENDBRANCH   3   4
ENDBRANCH   2   3
ENDBRANCH   1   2
BRANCH   1  22
ATOM     22  O   UNL A   1      33.120  27.954  25.137  1.00  0.00    -0.374 OA
BRANCH  22  23
ATOM     23  C   UNL A   1      31.877  28.623  25.272  1.00  0.00     0.202 C 
BRANCH  23  24
ATOM     24  C   UNL A   1      31.839  30.052  25.812  1.00  0.00     0.261 C 
BRANCH  24  25
ATOM     25  O   UNL A   1      32.483  30.189  27.086  1.00  0.00    -0.460 OA
BRANCH  25  26
ATOM     26  C   UNL A   1      33.151  31.354  27.249  1.00  0.00     0.338 C 
ATOM     27  O   UNL A   1      32.693  32.487  27.225  1.00  0.00    -0.246 OA
BRANCH  26  28
ATOM     28  C   UNL A   1      34.539  31.086  27.650  1.00  0.00     0.060 A 
ATOM     29  C   UNL A   1      34.938  29.747  27.767  1.00  0.00     0.016 A 
ATOM     30  C   UNL A   1      35.398  32.123  28.011  1.00  0.00     0.016 A 
ATOM     31  C   UNL A   1      36.185  29.436  28.292  1.00  0.00     0.010 A 
ATOM     32  C   UNL A   1      36.638  31.810  28.571  1.00  0.00     0.010 A 
ATOM     33  C   UNL A   1      37.012  30.465  28.753  1.00  0.00    -0.014 A 
BRANCH  33  34
ATOM     34  C   UNL A   1      38.152  30.126  29.633  1.00  0.00     0.031 A 
ATOM     35  C   UNL A   1      39.181  29.159  29.116  1.00  0.00     0.074 A 
ATOM     36  C   UNL A   1      38.290  30.698  30.839  1.00  0.00     0.049 A 
ATOM     37  N   UNL A   1      40.226  28.655  29.719  1.00  0.00    -0.248 NA
ATOM     38  C   UNL A   1      39.007  28.696  27.727  1.00  0.00     0.031 C 
ATOM     39  C   UNL A   1      37.390  31.696  31.410  1.00  0.00     0.029 A 
ATOM     40  N   UNL A   1      39.242  30.506  31.807  1.00  0.00    -0.354 N 
ATOM     41  C   UNL A   1      40.828  27.817  28.788  1.00  0.00     0.074 A 
ATOM     42  C   UNL A   1      40.018  27.853  27.592  1.00  0.00     0.031 C 
ATOM     43  C   UNL A   1      37.822  32.016  32.642  1.00  0.00     0.029 A 
ATOM     44  C   UNL A   1      39.005  31.217  32.957  1.00  0.00     0.049 A 
ATOM     45  H   UNL A   1      40.022  29.917  31.688  1.00  0.00     0.167 HD
ATOM     46  C   UNL A   1      41.961  27.090  28.922  1.00  0.00     0.037 A 
ATOM     47  C   UNL A   1      39.655  31.191  34.137  1.00  0.00     0.037 A 
ATOM     48  C   UNL A   1      42.759  27.057  30.119  1.00  0.00     0.049 A 
ATOM     49  C   UNL A   1      40.861  30.296  34.288  1.00  0.00     0.074 A 
ATOM     50  C   UNL A   1      43.922  26.350  30.362  1.00  0.00     0.029 A 
ATOM     51  N   UNL A   1      42.469  27.764  31.277  1.00  0.00    -0.354 N 
ATOM     52  N   UNL A   1      41.430  29.512  33.406  1.00  0.00    -0.248 NA
ATOM     53  C   UNL A   1      41.516  30.287  35.605  1.00  0.00     0.031 C 
ATOM     54  C   UNL A   1      44.306  26.586  31.685  1.00  0.00     0.029 A 
ATOM     55  C   UNL A   1      43.419  27.491  32.245  1.00  0.00     0.049 A 
ATOM     56  H   UNL A   1      41.701  28.371  31.393  1.00  0.00     0.167 HD
ATOM     57  C   UNL A   1      42.530  28.949  34.044  1.00  0.00     0.074 A 
ATOM     58  C   UNL A   1      42.554  29.493  35.386  1.00  0.00     0.031 C 
ATOM     59  C   UNL A   1      43.437  28.061  33.568  1.00  0.00     0.037 A 
BRANCH  46  60
ATOM     60  C   UNL A   1      42.394  26.250  27.757  1.00  0.00     0.064 A 
ATOM     61  C   UNL A   1      43.399  26.674  26.875  1.00  0.00     0.173 A 
ATOM     62  C   UNL A   1      41.833  24.980  27.550  1.00  0.00     0.173 A 
ATOM     63  F   UNL A   1      43.956  27.887  27.019  1.00  0.00    -0.203 F 
ATOM     64  C   UNL A   1      43.817  25.864  25.822  1.00  0.00     0.198 A 
ATOM     65  C   UNL A   1      42.274  24.161  26.515  1.00  0.00     0.198 A 
ATOM     66  F   UNL A   1      40.868  24.526  28.365  1.00  0.00    -0.203 F 
ATOM     67  F   UNL A   1      44.753  26.305  24.971  1.00  0.00    -0.200 F 
ATOM     68  C   UNL A   1      43.262  24.605  25.650  1.00  0.00     0.200 A 
ATOM     69  F   UNL A   1      41.745  22.939  26.358  1.00  0.00    -0.200 F 
ATOM     70  F   UNL A   1      43.678  23.820  24.646  1.00  0.00    -0.200 F 
ENDBRANCH  46  60
BRANCH  47  71
ATOM     71  C   UNL A   1      39.170  32.009  35.281  1.00  0.00     0.064 A 
ATOM     72  C   UNL A   1      39.520  33.361  35.406  1.00  0.00     0.173 A 
ATOM     73  C   UNL A   1      38.395  31.441  36.303  1.00  0.00     0.173 A 
ATOM     74  F   UNL A   1      40.281  33.945  34.469  1.00  0.00    -0.203 F 
ATOM     75  C   UNL A   1      39.144  34.101  36.525  1.00  0.00     0.198 A 
ATOM     76  C   UNL A   1      37.989  32.193  37.404  1.00  0.00     0.198 A 
ATOM     77  F   UNL A   1      38.032  30.151  36.234  1.00  0.00    -0.203 F 
ATOM     78  F   UNL A   1      39.552  35.372  36.652  1.00  0.00    -0.200 F 
ATOM     79  C   UNL A   1      38.376  33.518  37.521  1.00  0.00     0.200 A 
ATOM     80  F   UNL A   1      37.234  31.628  38.356  1.00  0.00    -0.200 F 
ATOM     81  F   UNL A   1      38.021  34.229  38.600  1.00  0.00    -0.200 F 
ENDBRANCH  47  71
BRANCH  59  82
ATOM     82  C   UNL A   1      44.564  27.667  34.480  1.00  0.00     0.064 A 
ATOM     83  C   UNL A   1      45.737  28.428  34.581  1.00  0.00     0.173 A 
ATOM     84  C   UNL A   1      44.446  26.530  35.297  1.00  0.00     0.173 A 
ATOM     85  F   UNL A   1      45.905  29.515  33.814  1.00  0.00    -0.203 F 
ATOM     86  C   UNL A   1      46.763  28.050  35.443  1.00  0.00     0.198 A 
ATOM     87  C   UNL A   1      45.458  26.176  36.183  1.00  0.00     0.198 A 
ATOM     88  F   UNL A   1      43.340  25.773  35.246  1.00  0.00    -0.203 F 
ATOM     89  F   UNL A   1      47.898  28.761  35.484  1.00  0.00    -0.200 F 
ATOM     90  C   UNL A   1      46.619  26.930  36.249  1.00  0.00     0.200 A 
ATOM     91  F   UNL A   1      45.309  25.104  36.975  1.00  0.00    -0.200 F 
ATOM     92  F   UNL A   1      47.605  26.573  37.085  1.00  0.00    -0.200 F 
ENDBRANCH  59  82
ENDBRANCH  33  34
ENDBRANCH  26  28
ENDBRANCH  25  26
ENDBRANCH  24  25
ENDBRANCH  23  24
ENDBRANCH  22  23
ENDBRANCH   1  22
TORSDOF 18
ENDMDL
MODEL 2
REMARK VINA RESULT:     -11.4      4.302      9.594
REMARK SMILES C[C@@H]1CCC[C@](CCSc2ccccc2)(C(=O)OCCOCCOC(=O)c2ccc(-c3c4nc(c(-c5c(F)c(F)c(F)c(F)c5F)c5ccc([nH]5)c(-c5c(F)c(F)c(F)c(F)c5F)c5nc(c(-c6c(F)c(F)c(F)c(F)c6F)c6ccc3[nH]6)C=C5)C=C4)cc2)C1
REMARK SMILES IDX 20 1 19 2 18 3 16 4 17 5 6 6 1 7 2 8 3 9 90 10 4 11 5 12
REMARK SMILES IDX 7 13 8 14 9 15 10 16 11 17 15 18 12 19 14 20 13 21 21 22
REMARK SMILES IDX 22 23 23 24 24 25 25 26 26 27 27 28 28 29 89 30 29 31 88 32
REMARK SMILES IDX 30 33 31 34 32 35 82 36 33 37 87 38 81 39 83 40 34 41 86 42
REMARK SMILES IDX 80 43 79 44 35 46 67 47 47 48 66 49 48 50 51 51 65 52 84 53
REMARK SMILES IDX 49 54 50 55 64 57 85 58 52 59 36 60 37 61 45 62 38 63 39 64
REMARK SMILES IDX 43 65 46 66 40 67 41 68 44 69 42 70 68 71 69 72 77 73 70 74
REMARK SMILES IDX 71 75 75 76 78 77 72 78 73 79 76 80 74 81 53 82 54 83 62 84
REMARK SMILES IDX 55 85 56 86 60 87 63 88 57 89 58 90 61 91 59 92
REMARK H PARENT 83 45 51 56
REMARK Flexibility Score: inf
ROOT
ATOM      1  C   UNL A   1      36.868  23.426  24.520  1.00  0.00     0.202 C 
ENDROOT
BRANCH   1   2
ATOM      2  C   UNL A   1      35.587  24.076  25.107  1.00  0.00     0.261 C 
BRANCH   2   3
ATOM      3  O   UNL A   1      34.504  24.410  24.233  1.00  0.00    -0.463 OA
BRANCH   3   4
ATOM      4  C   UNL A   1      33.361  24.617  24.923  1.00  0.00     0.312 C 
ATOM      5  O   UNL A   1      33.400  24.936  26.099  1.00  0.00    -0.252 OA
BRANCH   4   6
ATOM      6  C   UNL A   1      32.063  24.556  24.123  1.00  0.00     0.069 C 
ATOM      7  C   UNL A   1      32.974  27.733  23.885  1.00  0.00     0.007 C 
ATOM      8  C   UNL A   1      31.722  27.036  23.345  1.00  0.00    -0.013 C 
ATOM      9  C   UNL A   1      30.519  27.176  24.280  1.00  0.00     0.003 C 
ATOM     10  C   UNL A   1      31.965  25.567  22.968  1.00  0.00     0.022 C 
ATOM     11  C   UNL A   1      30.561  26.218  25.466  1.00  0.00     0.001 C 
ATOM     12  C   UNL A   1      30.830  24.762  25.054  1.00  0.00     0.019 C 
BRANCH   6  13
ATOM     13  C   UNL A   1      32.035  23.081  23.542  1.00  0.00     0.030 C 
BRANCH  13  14
ATOM     14  C   UNL A   1      31.768  21.850  24.470  1.00  0.00     0.076 C 
BRANCH  14  15
ATOM     15  S   UNL A   1      33.076  20.904  25.394  1.00  0.00    -0.126 SA
BRANCH  15  16
ATOM     16  C   UNL A   1      33.353  19.443  24.385  1.00  0.00     0.007 A 
ATOM     17  C   UNL A   1      32.453  19.121  23.355  1.00  0.00     0.015 A 
ATOM     18  C   UNL A   1      34.412  18.573  24.638  1.00  0.00     0.015 A 
ATOM     19  C   UNL A   1      32.531  17.889  22.694  1.00  0.00     0.001 A 
ATOM     20  C   UNL A   1      34.492  17.342  23.980  1.00  0.00     0.001 A 
ATOM     21  C   UNL A   1      33.537  16.988  23.027  1.00  0.00     0.000 A 
ENDBRANCH  15  16
ENDBRANCH  14  15
ENDBRANCH  13  14
ENDBRANCH   6  13
ENDBRANCH   4   6
ENDBRANCH   3   4
ENDBRANCH   2   3
ENDBRANCH   1   2
BRANCH   1  22
ATOM     22  O   UNL A   1      36.946  22.084  24.072  1.00  0.00    -0.374 OA
BRANCH  22  23
ATOM     23  C   UNL A   1      36.856  20.990  24.969  1.00  0.00     0.202 C 
BRANCH  23  24
ATOM     24  C   UNL A   1      38.120  20.234  25.374  1.00  0.00     0.261 C 
BRANCH  24  25
ATOM     25  O   UNL A   1      39.282  21.073  25.435  1.00  0.00    -0.460 OA
BRANCH  25  26
ATOM     26  C   UNL A   1      40.035  20.902  26.545  1.00  0.00     0.338 C 
ATOM     27  O   UNL A   1      40.497  19.857  26.979  1.00  0.00    -0.246 OA
BRANCH  26  28
ATOM     28  C   UNL A   1      40.398  22.207  27.113  1.00  0.00     0.060 A 
ATOM     29  C   UNL A   1      39.828  23.352  26.536  1.00  0.00     0.016 A 
ATOM     30  C   UNL A   1      41.362  22.315  28.114  1.00  0.00     0.016 A 
ATOM     31  C   UNL A   1      40.255  24.614  26.927  1.00  0.00     0.010 A 
ATOM     32  C   UNL A   1      41.816  23.583  28.482  1.00  0.00     0.010 A 
ATOM     33  C   UNL A   1      41.294  24.730  27.855  1.00  0.00    -0.014 A 
BRANCH  33  34
ATOM     34  C   UNL A   1      41.989  26.029  27.991  1.00  0.00     0.031 A 
ATOM     35  C   UNL A   1      41.280  27.139  28.717  1.00  0.00     0.074 A 
ATOM     36  C   UNL A   1      43.234  26.202  27.520  1.00  0.00     0.049 A 
ATOM     37  N   UNL A   1      41.649  28.379  28.906  1.00  0.00    -0.248 NA
ATOM     38  C   UNL A   1      39.975  26.802  29.314  1.00  0.00     0.031 C 
ATOM     39  C   UNL A   1      44.039  25.176  26.861  1.00  0.00     0.029 A 
ATOM     40  N   UNL A   1      44.035  27.314  27.517  1.00  0.00    -0.354 N 
ATOM     41  C   UNL A   1      40.623  28.968  29.635  1.00  0.00     0.074 A 
ATOM     42  C   UNL A   1      39.603  27.963  29.830  1.00  0.00     0.031 C 
ATOM     43  C   UNL A   1      45.215  25.715  26.496  1.00  0.00     0.029 A 
ATOM     44  C   UNL A   1      45.228  27.130  26.864  1.00  0.00     0.049 A 
ATOM     45  H   UNL A   1      43.780  28.164  27.944  1.00  0.00     0.167 HD
ATOM     46  C   UNL A   1      40.547  30.234  30.105  1.00  0.00     0.037 A 
ATOM     47  C   UNL A   1      46.197  28.018  26.570  1.00  0.00     0.037 A 
ATOM     48  C   UNL A   1      41.567  31.229  29.903  1.00  0.00     0.049 A 
ATOM     49  C   UNL A   1      46.041  29.448  27.025  1.00  0.00     0.074 A 
ATOM     50  C   UNL A   1      41.587  32.544  30.332  1.00  0.00     0.029 A 
ATOM     51  N   UNL A   1      42.747  31.016  29.206  1.00  0.00    -0.354 N 
ATOM     52  N   UNL A   1      45.076  29.999  27.720  1.00  0.00    -0.248 NA
ATOM     53  C   UNL A   1      47.116  30.381  26.656  1.00  0.00     0.031 C 
ATOM     54  C   UNL A   1      42.754  33.141  29.850  1.00  0.00     0.029 A 
ATOM     55  C   UNL A   1      43.493  32.182  29.175  1.00  0.00     0.049 A 
ATOM     56  H   UNL A   1      43.016  30.161  28.796  1.00  0.00     0.167 HD
ATOM     57  C   UNL A   1      45.444  31.327  27.904  1.00  0.00     0.074 A 
ATOM     58  C   UNL A   1      46.729  31.495  27.259  1.00  0.00     0.031 C 
ATOM     59  C   UNL A   1      44.781  32.321  28.546  1.00  0.00     0.037 A 
BRANCH  46  60
ATOM     60  C   UNL A   1      39.313  30.626  30.863  1.00  0.00     0.064 A 
ATOM     61  C   UNL A   1      38.190  31.163  30.217  1.00  0.00     0.173 A 
ATOM     62  C   UNL A   1      39.234  30.413  32.248  1.00  0.00     0.173 A 
ATOM     63  F   UNL A   1      38.220  31.402  28.897  1.00  0.00    -0.203 F 
ATOM     64  C   UNL A   1      37.038  31.483  30.932  1.00  0.00     0.198 A 
ATOM     65  C   UNL A   1      38.071  30.707  32.954  1.00  0.00     0.198 A 
ATOM     66  F   UNL A   1      40.281  29.901  32.914  1.00  0.00    -0.203 F 
ATOM     67  F   UNL A   1      35.990  32.029  30.299  1.00  0.00    -0.200 F 
ATOM     68  C   UNL A   1      36.976  31.245  32.297  1.00  0.00     0.200 A 
ATOM     69  F   UNL A   1      38.009  30.463  34.271  1.00  0.00    -0.200 F 
ATOM     70  F   UNL A   1      35.861  31.539  32.980  1.00  0.00    -0.200 F 
ENDBRANCH  46  60
BRANCH  47  71
ATOM     71  C   UNL A   1      47.388  27.599  25.783  1.00  0.00     0.064 A 
ATOM     72  C   UNL A   1      48.552  27.140  26.415  1.00  0.00     0.173 A 
ATOM     73  C   UNL A   1      47.407  27.704  24.384  1.00  0.00     0.173 A 
ATOM     74  F   UNL A   1      48.594  27.045  27.753  1.00  0.00    -0.203 F 
ATOM     75  C   UNL A   1      49.698  26.837  25.683  1.00  0.00     0.198 A 
ATOM     76  C   UNL A   1      48.542  27.366  23.650  1.00  0.00     0.198 A 
ATOM     77  F   UNL A   1      46.321  28.137  23.727  1.00  0.00    -0.203 F 
ATOM     78  F   UNL A   1      50.818  26.468  26.320  1.00  0.00    -0.200 F 
ATOM     79  C   UNL A   1      49.691  26.947  24.301  1.00  0.00     0.200 A 
ATOM     80  F   UNL A   1      48.525  27.459  22.314  1.00  0.00    -0.200 F 
ATOM     81  F   UNL A   1      50.796  26.662  23.598  1.00  0.00    -0.200 F 
ENDBRANCH  47  71
BRANCH  59  82
ATOM     82  C   UNL A   1      45.456  33.660  28.634  1.00  0.00     0.064 A 
ATOM     83  C   UNL A   1      45.267  34.651  27.661  1.00  0.00     0.173 A 
ATOM     84  C   UNL A   1      46.272  33.968  29.736  1.00  0.00     0.173 A 
ATOM     85  F   UNL A   1      44.507  34.404  26.584  1.00  0.00    -0.203 F 
ATOM     86  C   UNL A   1      45.893  35.890  27.771  1.00  0.00     0.198 A 
ATOM     87  C   UNL A   1      46.867  35.219  29.860  1.00  0.00     0.198 A 
ATOM     88  F   UNL A   1      46.477  33.059  30.700  1.00  0.00    -0.203 F 
ATOM     89  F   UNL A   1      45.742  36.803  26.802  1.00  0.00    -0.200 F 
ATOM     90  C   UNL A   1      46.685  36.176  28.873  1.00  0.00     0.200 A 
ATOM     91  F   UNL A   1      47.616  35.499  30.935  1.00  0.00    -0.200 F 
ATOM     92  F   UNL A   1      47.279  37.373  28.981  1.00  0.00    -0.200 F 
ENDBRANCH  59  82
ENDBRANCH  33  34
ENDBRANCH  26  28
ENDBRANCH  25  26
ENDBRANCH  24  25
ENDBRANCH  23  24
ENDBRANCH  22  23
ENDBRANCH   1  22
TORSDOF 18
ENDMDL
MODEL 3
REMARK VINA RESULT:     -11.3      4.335      7.984
REMARK SMILES C[C@@H]1CCC[C@](CCSc2ccccc2)(C(=O)OCCOCCOC(=O)c2ccc(-c3c4nc(c(-c5c(F)c(F)c(F)c(F)c5F)c5ccc([nH]5)c(-c5c(F)c(F)c(F)c(F)c5F)c5nc(c(-c6c(F)c(F)c(F)c(F)c6F)c6ccc3[nH]6)C=C5)C=C4)cc2)C1
REMARK SMILES IDX 20 1 19 2 18 3 16 4 17 5 6 6 1 7 2 8 3 9 90 10 4 11 5 12
REMARK SMILES IDX 7 13 8 14 9 15 10 16 11 17 15 18 12 19 14 20 13 21 21 22
REMARK SMILES IDX 22 23 23 24 24 25 25 26 26 27 27 28 28 29 89 30 29 31 88 32
REMARK SMILES IDX 30 33 31 34 32 35 82 36 33 37 87 38 81 39 83 40 34 41 86 42
REMARK SMILES IDX 80 43 79 44 35 46 67 47 47 48 66 49 48 50 51 51 65 52 84 53
REMARK SMILES IDX 49 54 50 55 64 57 85 58 52 59 36 60 37 61 45 62 38 63 39 64
REMARK SMILES IDX 43 65 46 66 40 67 41 68 44 69 42 70 68 71 69 72 77 73 70 74
REMARK SMILES IDX 71 75 75 76 78 77 72 78 73 79 76 80 74 81 53 82 54 83 62 84
REMARK SMILES IDX 55 85 56 86 60 87 63 88 57 89 58 90 61 91 59 92
REMARK H PARENT 83 45 51 56
REMARK Flexibility Score: inf
ROOT
ATOM      1  C   UNL A   1      36.727  21.556  24.445  1.00  0.00     0.202 C 
ENDROOT
BRANCH   1   2
ATOM      2  C   UNL A   1      36.664  22.829  23.560  1.00  0.00     0.261 C 
BRANCH   2   3
ATOM      3  O   UNL A   1      35.392  23.320  23.125  1.00  0.00    -0.463 OA
BRANCH   3   4
ATOM      4  C   UNL A   1      34.652  23.760  24.166  1.00  0.00     0.312 C 
ATOM      5  O   UNL A   1      35.184  24.327  25.105  1.00  0.00    -0.252 OA
BRANCH   4   6
ATOM      6  C   UNL A   1      33.139  23.622  24.031  1.00  0.00     0.069 C 
ATOM      7  C   UNL A   1      33.850  21.815  26.716  1.00  0.00     0.007 C 
ATOM      8  C   UNL A   1      32.505  22.034  26.019  1.00  0.00    -0.013 C 
ATOM      9  C   UNL A   1      32.162  20.916  25.031  1.00  0.00     0.003 C 
ATOM     10  C   UNL A   1      32.386  23.415  25.358  1.00  0.00     0.022 C 
ATOM     11  C   UNL A   1      32.893  21.043  23.699  1.00  0.00     0.001 C 
ATOM     12  C   UNL A   1      32.774  22.443  23.078  1.00  0.00     0.019 C 
BRANCH   6  13
ATOM     13  C   UNL A   1      32.682  24.987  23.368  1.00  0.00     0.030 C 
BRANCH  13  14
ATOM     14  C   UNL A   1      32.519  26.288  24.221  1.00  0.00     0.076 C 
BRANCH  14  15
ATOM     15  S   UNL A   1      33.120  27.976  23.722  1.00  0.00    -0.126 SA
BRANCH  15  16
ATOM     16  C   UNL A   1      33.136  28.906  25.260  1.00  0.00     0.007 A 
ATOM     17  C   UNL A   1      32.081  29.786  25.558  1.00  0.00     0.015 A 
ATOM     18  C   UNL A   1      34.207  28.829  26.148  1.00  0.00     0.015 A 
ATOM     19  C   UNL A   1      32.168  30.669  26.641  1.00  0.00     0.001 A 
ATOM     20  C   UNL A   1      34.296  29.710  27.230  1.00  0.00     0.001 A 
ATOM     21  C   UNL A   1      33.290  30.647  27.463  1.00  0.00     0.000 A 
ENDBRANCH  15  16
ENDBRANCH  14  15
ENDBRANCH  13  14
ENDBRANCH   6  13
ENDBRANCH   4   6
ENDBRANCH   3   4
ENDBRANCH   2   3
ENDBRANCH   1   2
BRANCH   1  22
ATOM     22  O   UNL A   1      37.908  21.067  25.056  1.00  0.00    -0.374 OA
BRANCH  22  23
ATOM     23  C   UNL A   1      38.255  19.693  25.020  1.00  0.00     0.202 C 
BRANCH  23  24
ATOM     24  C   UNL A   1      39.573  19.226  25.634  1.00  0.00     0.261 C 
BRANCH  24  25
ATOM     25  O   UNL A   1      39.939  19.964  26.809  1.00  0.00    -0.460 OA
BRANCH  25  26
ATOM     26  C   UNL A   1      41.206  20.437  26.796  1.00  0.00     0.338 C 
ATOM     27  O   UNL A   1      42.195  19.909  26.311  1.00  0.00    -0.246 OA
BRANCH  26  28
ATOM     28  C   UNL A   1      41.233  21.814  27.309  1.00  0.00     0.060 A 
ATOM     29  C   UNL A   1      40.498  22.786  26.612  1.00  0.00     0.016 A 
ATOM     30  C   UNL A   1      42.049  22.168  28.382  1.00  0.00     0.016 A 
ATOM     31  C   UNL A   1      40.614  24.125  26.957  1.00  0.00     0.010 A 
ATOM     32  C   UNL A   1      42.192  23.518  28.706  1.00  0.00     0.010 A 
ATOM     33  C   UNL A   1      41.509  24.499  27.964  1.00  0.00    -0.014 A 
BRANCH  33  34
ATOM     34  C   UNL A   1      41.903  25.922  28.077  1.00  0.00     0.031 A 
ATOM     35  C   UNL A   1      43.241  26.331  27.527  1.00  0.00     0.074 A 
ATOM     36  C   UNL A   1      41.072  26.830  28.612  1.00  0.00     0.049 A 
ATOM     37  N   UNL A   1      43.836  27.495  27.566  1.00  0.00    -0.248 NA
ATOM     38  C   UNL A   1      44.015  25.283  26.838  1.00  0.00     0.031 C 
ATOM     39  C   UNL A   1      39.728  26.555  29.113  1.00  0.00     0.029 A 
ATOM     40  N   UNL A   1      41.249  28.171  28.832  1.00  0.00    -0.354 N 
ATOM     41  C   UNL A   1      45.050  27.317  26.914  1.00  0.00     0.074 A 
ATOM     42  C   UNL A   1      45.124  25.930  26.516  1.00  0.00     0.031 C 
ATOM     43  C   UNL A   1      39.207  27.693  29.605  1.00  0.00     0.029 A 
ATOM     44  C   UNL A   1      40.196  28.763  29.484  1.00  0.00     0.049 A 
ATOM     45  H   UNL A   1      42.053  28.664  28.548  1.00  0.00     0.167 HD
ATOM     46  C   UNL A   1      46.012  28.235  26.665  1.00  0.00     0.037 A 
ATOM     47  C   UNL A   1      40.070  30.018  29.958  1.00  0.00     0.037 A 
ATOM     48  C   UNL A   1      45.931  29.614  27.069  1.00  0.00     0.049 A 
ATOM     49  C   UNL A   1      41.200  30.996  29.750  1.00  0.00     0.074 A 
ATOM     50  C   UNL A   1      46.852  30.627  26.872  1.00  0.00     0.029 A 
ATOM     51  N   UNL A   1      44.864  30.170  27.758  1.00  0.00    -0.354 N 
ATOM     52  N   UNL A   1      42.341  30.827  29.127  1.00  0.00    -0.248 NA
ATOM     53  C   UNL A   1      41.021  32.344  30.309  1.00  0.00     0.031 C 
ATOM     54  C   UNL A   1      46.366  31.783  27.488  1.00  0.00     0.029 A 
ATOM     55  C   UNL A   1      45.113  31.507  28.014  1.00  0.00     0.049 A 
ATOM     56  H   UNL A   1      44.048  29.686  28.025  1.00  0.00     0.167 HD
ATOM     57  C   UNL A   1      42.996  32.052  29.185  1.00  0.00     0.074 A 
ATOM     58  C   UNL A   1      42.117  32.959  29.893  1.00  0.00     0.031 C 
ATOM     59  C   UNL A   1      44.214  32.399  28.700  1.00  0.00     0.037 A 
BRANCH  46  60
ATOM     60  C   UNL A   1      47.245  27.778  25.944  1.00  0.00     0.064 A 
ATOM     61  C   UNL A   1      48.376  27.318  26.634  1.00  0.00     0.173 A 
ATOM     62  C   UNL A   1      47.278  27.751  24.541  1.00  0.00     0.173 A 
ATOM     63  F   UNL A   1      48.402  27.339  27.976  1.00  0.00    -0.203 F 
ATOM     64  C   UNL A   1      49.498  26.860  25.947  1.00  0.00     0.198 A 
ATOM     65  C   UNL A   1      48.389  27.265  23.858  1.00  0.00     0.198 A 
ATOM     66  F   UNL A   1      46.222  28.181  23.832  1.00  0.00    -0.203 F 
ATOM     67  F   UNL A   1      50.580  26.459  26.628  1.00  0.00    -0.200 F 
ATOM     68  C   UNL A   1      49.499  26.824  24.561  1.00  0.00     0.200 A 
ATOM     69  F   UNL A   1      48.382  27.219  22.518  1.00  0.00    -0.200 F 
ATOM     70  F   UNL A   1      50.573  26.367  23.902  1.00  0.00    -0.200 F 
ENDBRANCH  46  60
BRANCH  47  71
ATOM     71  C   UNL A   1      38.847  30.422  30.702  1.00  0.00     0.064 A 
ATOM     72  C   UNL A   1      37.728  30.940  30.034  1.00  0.00     0.173 A 
ATOM     73  C   UNL A   1      38.792  30.351  32.103  1.00  0.00     0.173 A 
ATOM     74  F   UNL A   1      37.739  31.052  28.698  1.00  0.00    -0.203 F 
ATOM     75  C   UNL A   1      36.620  31.405  30.739  1.00  0.00     0.198 A 
ATOM     76  C   UNL A   1      37.668  30.783  32.804  1.00  0.00     0.198 A 
ATOM     77  F   UNL A   1      39.834  29.864  32.793  1.00  0.00    -0.203 F 
ATOM     78  F   UNL A   1      35.594  31.960  30.078  1.00  0.00    -0.200 F 
ATOM     79  C   UNL A   1      36.589  31.323  32.123  1.00  0.00     0.200 A 
ATOM     80  F   UNL A   1      37.638  30.688  34.140  1.00  0.00    -0.200 F 
ATOM     81  F   UNL A   1      35.525  31.777  32.800  1.00  0.00    -0.200 F 
ENDBRANCH  47  71
BRANCH  59  82
ATOM     82  C   UNL A   1      44.644  33.829  28.866  1.00  0.00     0.064 A 
ATOM     83  C   UNL A   1      44.316  34.815  27.925  1.00  0.00     0.173 A 
ATOM     84  C   UNL A   1      45.359  34.223  30.009  1.00  0.00     0.173 A 
ATOM     85  F   UNL A   1      43.646  34.489  26.811  1.00  0.00    -0.203 F 
ATOM     86  C   UNL A   1      44.715  36.137  28.107  1.00  0.00     0.198 A 
ATOM     87  C   UNL A   1      45.724  35.551  30.205  1.00  0.00     0.198 A 
ATOM     88  F   UNL A   1      45.689  33.320  30.945  1.00  0.00    -0.203 F 
ATOM     89  F   UNL A   1      44.439  37.053  27.168  1.00  0.00    -0.200 F 
ATOM     90  C   UNL A   1      45.410  36.505  29.249  1.00  0.00     0.200 A 
ATOM     91  F   UNL A   1      46.379  35.908  31.318  1.00  0.00    -0.200 F 
ATOM     92  F   UNL A   1      45.784  37.780  29.426  1.00  0.00    -0.200 F 
ENDBRANCH  59  82
ENDBRANCH  33  34
ENDBRANCH  26  28
ENDBRANCH  25  26
ENDBRANCH  24  25
ENDBRANCH  23  24
ENDBRANCH  22  23
ENDBRANCH   1  22
TORSDOF 18
ENDMDL
