MODEL 1
REMARK VINA RESULT:     -12.9      0.000      0.000
REMARK SMILES O=C(OCCOCCOC(=O)[C@H]1CC2(CC[NH+](C(=O)c3cccc(O)c3)CC2)CN1C(=O)C1CC1)c1ccc(-c2c3nc(c(-c4c(F)c(F)c(F)c(F)c4F)c4ccc([nH]4)c(-c4c(F)c(F)c(F)c(F)c4F)c4nc(c(-c5c(F)c(F)c(F)c(F)c5F)c5ccc2[nH]5)C=C4)C=C3)cc1
REMARK SMILES IDX 7 1 6 2 5 3 4 4 3 5 2 6 1 7 36 8 37 9 98 10 38 11 97 12
REMARK SMILES IDX 39 13 40 14 41 15 91 16 42 17 96 18 90 19 92 20 43 21 95 22
REMARK SMILES IDX 89 23 88 24 44 26 76 27 56 28 75 29 57 30 60 31 74 32 93 33
REMARK SMILES IDX 58 34 59 35 73 37 94 38 61 39 45 40 46 41 54 42 47 43 48 44
REMARK SMILES IDX 52 45 55 46 49 47 50 48 53 49 51 50 77 51 78 52 86 53 79 54
REMARK SMILES IDX 80 55 84 56 87 57 81 58 82 59 85 60 83 61 62 62 63 63 71 64
REMARK SMILES IDX 64 65 65 66 69 67 72 68 66 69 67 70 70 71 68 72 8 73 9 74
REMARK SMILES IDX 10 75 11 76 12 77 13 78 30 79 14 80 29 81 15 82 28 83 16 84
REMARK SMILES IDX 27 85 17 86 31 88 32 89 33 90 34 91 35 92 18 93 19 94 20 95
REMARK SMILES IDX 21 96 26 97 22 98 24 99 23 100 25 101
REMARK H PARENT 92 25 60 36 17 87 25 102
REMARK Flexibility Score: inf
ROOT
ATOM      1  C   UNL A   1      38.953  21.445  26.139  1.00  0.00     0.202 C 
ENDROOT
BRANCH   1   2
ATOM      2  O   UNL A   1      40.199  21.099  25.523  1.00  0.00    -0.374 OA
BRANCH   2   3
ATOM      3  C   UNL A   1      41.270  20.710  26.389  1.00  0.00     0.202 C 
BRANCH   3   4
ATOM      4  C   UNL A   1      42.659  21.149  25.930  1.00  0.00     0.261 C 
BRANCH   4   5
ATOM      5  O   UNL A   1      42.547  22.256  25.033  1.00  0.00    -0.460 OA
BRANCH   5   6
ATOM      6  C   UNL A   1      43.091  23.481  25.186  1.00  0.00     0.338 C 
ATOM      7  O   UNL A   1      44.050  23.793  24.483  1.00  0.00    -0.246 OA
BRANCH   6   8
ATOM      8  C   UNL A   1      42.564  24.508  26.132  1.00  0.00     0.060 A 
ATOM      9  C   UNL A   1      41.622  24.285  27.142  1.00  0.00     0.016 A 
ATOM     10  C   UNL A   1      43.194  25.760  26.077  1.00  0.00     0.016 A 
ATOM     11  C   UNL A   1      41.326  25.258  28.086  1.00  0.00     0.010 A 
ATOM     12  C   UNL A   1      42.922  26.737  27.033  1.00  0.00     0.010 A 
ATOM     13  C   UNL A   1      41.999  26.475  28.050  1.00  0.00    -0.014 A 
BRANCH  13  14
ATOM     14  C   UNL A   1      41.700  27.485  29.074  1.00  0.00     0.031 A 
ATOM     15  C   UNL A   1      42.560  27.530  30.292  1.00  0.00     0.074 A 
ATOM     16  C   UNL A   1      40.688  28.347  28.873  1.00  0.00     0.049 A 
ATOM     17  N   UNL A   1      42.402  28.219  31.388  1.00  0.00    -0.248 NA
ATOM     18  C   UNL A   1      43.766  26.685  30.274  1.00  0.00     0.031 C 
ATOM     19  C   UNL A   1      39.872  28.421  27.658  1.00  0.00     0.029 A 
ATOM     20  N   UNL A   1      40.167  29.319  29.685  1.00  0.00    -0.354 N 
ATOM     21  C   UNL A   1      43.463  27.862  32.204  1.00  0.00     0.074 A 
ATOM     22  C   UNL A   1      44.269  26.907  31.478  1.00  0.00     0.031 C 
ATOM     23  C   UNL A   1      38.941  29.377  27.813  1.00  0.00     0.029 A 
ATOM     24  C   UNL A   1      39.051  29.925  29.159  1.00  0.00     0.049 A 
ATOM     25  H   UNL A   1      40.553  29.560  30.558  1.00  0.00     0.167 HD
ATOM     26  C   UNL A   1      43.714  28.292  33.459  1.00  0.00     0.037 A 
ATOM     27  C   UNL A   1      38.187  30.779  29.740  1.00  0.00     0.037 A 
ATOM     28  C   UNL A   1      42.887  29.251  34.140  1.00  0.00     0.049 A 
ATOM     29  C   UNL A   1      38.448  31.172  31.172  1.00  0.00     0.074 A 
ATOM     30  C   UNL A   1      43.038  29.774  35.410  1.00  0.00     0.029 A 
ATOM     31  N   UNL A   1      41.743  29.822  33.598  1.00  0.00    -0.354 N 
ATOM     32  N   UNL A   1      39.449  30.835  31.952  1.00  0.00    -0.248 NA
ATOM     33  C   UNL A   1      37.456  32.041  31.815  1.00  0.00     0.031 C 
ATOM     34  C   UNL A   1      41.948  30.612  35.659  1.00  0.00     0.029 A 
ATOM     35  C   UNL A   1      41.151  30.658  34.525  1.00  0.00     0.049 A 
ATOM     36  H   UNL A   1      41.404  29.655  32.688  1.00  0.00     0.167 HD
ATOM     37  C   UNL A   1      39.215  31.457  33.169  1.00  0.00     0.074 A 
ATOM     38  C   UNL A   1      37.991  32.218  33.015  1.00  0.00     0.031 C 
ATOM     39  C   UNL A   1      39.933  31.401  34.318  1.00  0.00     0.037 A 
BRANCH  26  40
ATOM     40  C   UNL A   1      44.868  27.679  34.191  1.00  0.00     0.064 A 
ATOM     41  C   UNL A   1      44.746  26.490  34.921  1.00  0.00     0.173 A 
ATOM     42  C   UNL A   1      46.129  28.295  34.141  1.00  0.00     0.173 A 
ATOM     43  F   UNL A   1      43.556  25.878  35.023  1.00  0.00    -0.203 F 
ATOM     44  C   UNL A   1      45.843  25.942  35.583  1.00  0.00     0.198 A 
ATOM     45  C   UNL A   1      47.228  27.731  34.783  1.00  0.00     0.198 A 
ATOM     46  F   UNL A   1      46.295  29.442  33.467  1.00  0.00    -0.203 F 
ATOM     47  F   UNL A   1      45.696  24.825  36.309  1.00  0.00    -0.200 F 
ATOM     48  C   UNL A   1      47.084  26.557  35.506  1.00  0.00     0.200 A 
ATOM     49  F   UNL A   1      48.425  28.327  34.703  1.00  0.00    -0.200 F 
ATOM     50  F   UNL A   1      48.139  26.026  36.137  1.00  0.00    -0.200 F 
ENDBRANCH  26  40
BRANCH  27  51
ATOM     51  C   UNL A   1      36.968  31.243  29.020  1.00  0.00     0.064 A 
ATOM     52  C   UNL A   1      36.840  32.568  28.581  1.00  0.00     0.173 A 
ATOM     53  C   UNL A   1      35.878  30.384  28.803  1.00  0.00     0.173 A 
ATOM     54  F   UNL A   1      37.839  33.439  28.780  1.00  0.00    -0.203 F 
ATOM     55  C   UNL A   1      35.660  33.023  27.988  1.00  0.00     0.198 A 
ATOM     56  C   UNL A   1      34.715  30.828  28.177  1.00  0.00     0.198 A 
ATOM     57  F   UNL A   1      35.939  29.105  29.203  1.00  0.00    -0.203 F 
ATOM     58  F   UNL A   1      35.542  34.312  27.643  1.00  0.00    -0.200 F 
ATOM     59  C   UNL A   1      34.601  32.152  27.784  1.00  0.00     0.200 A 
ATOM     60  F   UNL A   1      33.702  29.977  27.969  1.00  0.00    -0.200 F 
ATOM     61  F   UNL A   1      33.466  32.591  27.223  1.00  0.00    -0.200 F 
ENDBRANCH  27  51
BRANCH  39  62
ATOM     62  C   UNL A   1      39.417  32.193  35.480  1.00  0.00     0.064 A 
ATOM     63  C   UNL A   1      39.674  33.567  35.598  1.00  0.00     0.173 A 
ATOM     64  C   UNL A   1      38.592  31.588  36.440  1.00  0.00     0.173 A 
ATOM     65  F   UNL A   1      40.471  34.183  34.713  1.00  0.00    -0.203 F 
ATOM     66  C   UNL A   1      39.134  34.304  36.647  1.00  0.00     0.198 A 
ATOM     67  C   UNL A   1      38.026  32.336  37.466  1.00  0.00     0.198 A 
ATOM     68  F   UNL A   1      38.311  30.278  36.362  1.00  0.00    -0.203 F 
ATOM     69  F   UNL A   1      39.422  35.607  36.764  1.00  0.00    -0.200 F 
ATOM     70  C   UNL A   1      38.301  33.691  37.571  1.00  0.00     0.200 A 
ATOM     71  F   UNL A   1      37.205  31.747  38.347  1.00  0.00    -0.200 F 
ATOM     72  F   UNL A   1      37.763  34.408  38.567  1.00  0.00    -0.200 F 
ENDBRANCH  39  62
ENDBRANCH  13  14
ENDBRANCH   6   8
ENDBRANCH   5   6
ENDBRANCH   4   5
ENDBRANCH   3   4
ENDBRANCH   2   3
ENDBRANCH   1   2
BRANCH   1  73
ATOM     73  C   UNL A   1      37.887  21.630  25.046  1.00  0.00     0.261 C 
BRANCH  73  74
ATOM     74  O   UNL A   1      36.597  21.534  25.666  1.00  0.00    -0.462 OA
BRANCH  74  75
ATOM     75  C   UNL A   1      35.759  20.547  25.201  1.00  0.00     0.328 C 
ATOM     76  O   UNL A   1      36.139  19.532  24.636  1.00  0.00    -0.250 OA
BRANCH  75  77
ATOM     77  C   UNL A   1      34.338  20.843  25.728  1.00  0.00     0.195 C 
ATOM     78  C   UNL A   1      34.193  22.367  25.876  1.00  0.00     0.046 C 
ATOM     79  N   UNL A   1      33.095  20.392  25.118  1.00  0.00    -0.328 N 
ATOM     80  C   UNL A   1      32.817  22.771  25.337  1.00  0.00     0.001 C 
ATOM     81  C   UNL A   1      32.088  21.442  25.155  1.00  0.00     0.128 C 
ATOM     82  C   UNL A   1      32.945  23.508  23.987  1.00  0.00     0.071 C 
ATOM     83  C   UNL A   1      32.095  23.693  26.346  1.00  0.00     0.071 C 
ATOM     84  C   UNL A   1      33.625  24.866  24.148  1.00  0.00     0.271 C 
ATOM     85  C   UNL A   1      32.761  25.067  26.455  1.00  0.00     0.271 C 
ATOM     86  N   UNL A   1      32.915  25.676  25.139  1.00  0.00    -0.267 N 
ATOM     87  H   UNL A   1      33.653  26.298  25.337  1.00  0.00     0.357 HD
BRANCH  79  88
ATOM     88  C   UNL A   1      32.600  19.090  25.061  1.00  0.00     0.226 C 
ATOM     89  O   UNL A   1      32.500  18.414  26.085  1.00  0.00    -0.275 OA
BRANCH  88  90
ATOM     90  C   UNL A   1      32.135  18.439  23.807  1.00  0.00     0.079 C 
ATOM     91  C   UNL A   1      32.513  18.637  22.370  1.00  0.00     0.014 C 
ATOM     92  C   UNL A   1      33.142  17.516  23.122  1.00  0.00     0.014 C 
ENDBRANCH  88  90
ENDBRANCH  79  88
BRANCH  86  93
ATOM     93  C   UNL A   1      32.554  27.009  24.966  1.00  0.00     0.344 C 
ATOM     94  O   UNL A   1      33.206  27.958  25.392  1.00  0.00    -0.226 OA
BRANCH  93  95
ATOM     95  C   UNL A   1      31.315  27.299  24.216  1.00  0.00     0.083 A 
ATOM     96  C   UNL A   1      31.272  28.370  23.313  1.00  0.00     0.018 A 
ATOM     97  C   UNL A   1      30.187  26.515  24.449  1.00  0.00     0.064 A 
ATOM     98  C   UNL A   1      30.067  28.701  22.696  1.00  0.00     0.005 A 
ATOM     99  C   UNL A   1      28.997  26.849  23.814  1.00  0.00     0.116 A 
ATOM    100  C   UNL A   1      28.923  27.942  22.952  1.00  0.00     0.046 A 
BRANCH  99 101
ATOM    101  O   UNL A   1      27.903  26.079  24.077  1.00  0.00    -0.508 OA
ATOM    102  H   UNL A   1      27.693  25.851  24.961  1.00  0.00     0.293 HD
ENDBRANCH  99 101
ENDBRANCH  93  95
ENDBRANCH  86  93
ENDBRANCH  75  77
ENDBRANCH  74  75
ENDBRANCH  73  74
ENDBRANCH   1  73
TORSDOF 19
ENDMDL
MODEL 2
REMARK VINA RESULT:     -12.8      4.342      8.669
REMARK SMILES O=C(OCCOCCOC(=O)[C@H]1CC2(CC[NH+](C(=O)c3cccc(O)c3)CC2)CN1C(=O)C1CC1)c1ccc(-c2c3nc(c(-c4c(F)c(F)c(F)c(F)c4F)c4ccc([nH]4)c(-c4c(F)c(F)c(F)c(F)c4F)c4nc(c(-c5c(F)c(F)c(F)c(F)c5F)c5ccc2[nH]5)C=C4)C=C3)cc1
REMARK SMILES IDX 7 1 6 2 5 3 4 4 3 5 2 6 1 7 36 8 37 9 98 10 38 11 97 12
REMARK SMILES IDX 39 13 40 14 41 15 91 16 42 17 96 18 90 19 92 20 43 21 95 22
REMARK SMILES IDX 89 23 88 24 44 26 76 27 56 28 75 29 57 30 60 31 74 32 93 33
REMARK SMILES IDX 58 34 59 35 73 37 94 38 61 39 45 40 46 41 54 42 47 43 48 44
REMARK SMILES IDX 52 45 55 46 49 47 50 48 53 49 51 50 77 51 78 52 86 53 79 54
REMARK SMILES IDX 80 55 84 56 87 57 81 58 82 59 85 60 83 61 62 62 63 63 71 64
REMARK SMILES IDX 64 65 65 66 69 67 72 68 66 69 67 70 70 71 68 72 8 73 9 74
REMARK SMILES IDX 10 75 11 76 12 77 13 78 30 79 14 80 29 81 15 82 28 83 16 84
REMARK SMILES IDX 27 85 17 86 31 88 32 89 33 90 34 91 35 92 18 93 19 94 20 95
REMARK SMILES IDX 21 96 26 97 22 98 24 99 23 100 25 101
REMARK H PARENT 92 25 60 36 17 87 25 102
REMARK Flexibility Score: inf
ROOT
ATOM      1  C   UNL A   1      37.427  22.303  25.344  1.00  0.00     0.202 C 
ENDROOT
BRANCH   1   2
ATOM      2  O   UNL A   1      37.443  21.142  24.505  1.00  0.00    -0.374 OA
BRANCH   2   3
ATOM      3  C   UNL A   1      38.218  20.024  24.951  1.00  0.00     0.202 C 
BRANCH   3   4
ATOM      4  C   UNL A   1      39.382  20.377  25.873  1.00  0.00     0.261 C 
BRANCH   4   5
ATOM      5  O   UNL A   1      40.351  19.327  25.856  1.00  0.00    -0.460 OA
BRANCH   5   6
ATOM      6  C   UNL A   1      41.689  19.458  25.964  1.00  0.00     0.338 C 
ATOM      7  O   UNL A   1      42.399  18.485  25.716  1.00  0.00    -0.246 OA
BRANCH   6   8
ATOM      8  C   UNL A   1      42.369  20.736  26.322  1.00  0.00     0.060 A 
ATOM      9  C   UNL A   1      42.858  21.686  25.418  1.00  0.00     0.016 A 
ATOM     10  C   UNL A   1      42.369  21.059  27.688  1.00  0.00     0.016 A 
ATOM     11  C   UNL A   1      43.313  22.926  25.844  1.00  0.00     0.010 A 
ATOM     12  C   UNL A   1      42.803  22.309  28.124  1.00  0.00     0.010 A 
ATOM     13  C   UNL A   1      43.258  23.250  27.195  1.00  0.00    -0.014 A 
BRANCH  13  14
ATOM     14  C   UNL A   1      43.712  24.578  27.629  1.00  0.00     0.031 A 
ATOM     15  C   UNL A   1      42.683  25.577  28.039  1.00  0.00     0.074 A 
ATOM     16  C   UNL A   1      45.030  24.842  27.667  1.00  0.00     0.049 A 
ATOM     17  N   UNL A   1      42.826  26.844  28.308  1.00  0.00    -0.248 NA
ATOM     18  C   UNL A   1      41.303  25.079  28.168  1.00  0.00     0.031 C 
ATOM     19  C   UNL A   1      46.093  23.877  27.374  1.00  0.00     0.029 A 
ATOM     20  N   UNL A   1      45.701  25.999  27.961  1.00  0.00    -0.354 N 
ATOM     21  C   UNL A   1      41.552  27.306  28.598  1.00  0.00     0.074 A 
ATOM     22  C   UNL A   1      40.647  26.184  28.487  1.00  0.00     0.031 C 
ATOM     23  C   UNL A   1      47.284  24.488  27.486  1.00  0.00     0.029 A 
ATOM     24  C   UNL A   1      47.061  25.898  27.784  1.00  0.00     0.049 A 
ATOM     25  H   UNL A   1      45.255  26.822  28.266  1.00  0.00     0.167 HD
ATOM     26  C   UNL A   1      41.186  28.568  28.908  1.00  0.00     0.037 A 
ATOM     27  C   UNL A   1      48.001  26.862  27.802  1.00  0.00     0.037 A 
ATOM     28  C   UNL A   1      42.123  29.652  29.016  1.00  0.00     0.049 A 
ATOM     29  C   UNL A   1      47.546  28.276  28.066  1.00  0.00     0.074 A 
ATOM     30  C   UNL A   1      41.881  30.975  29.331  1.00  0.00     0.029 A 
ATOM     31  N   UNL A   1      43.489  29.529  28.797  1.00  0.00    -0.354 N 
ATOM     32  N   UNL A   1      46.341  28.720  28.338  1.00  0.00    -0.248 NA
ATOM     33  C   UNL A   1      48.570  29.326  28.004  1.00  0.00     0.031 C 
ATOM     34  C   UNL A   1      43.093  31.665  29.239  1.00  0.00     0.029 A 
ATOM     35  C   UNL A   1      44.099  30.763  28.926  1.00  0.00     0.049 A 
ATOM     36  H   UNL A   1      43.955  28.688  28.583  1.00  0.00     0.167 HD
ATOM     37  C   UNL A   1      46.462  30.093  28.491  1.00  0.00     0.074 A 
ATOM     38  C   UNL A   1      47.866  30.406  28.312  1.00  0.00     0.031 C 
ATOM     39  C   UNL A   1      45.506  31.020  28.744  1.00  0.00     0.037 A 
BRANCH  26  40
ATOM     40  C   UNL A   1      39.725  28.852  29.075  1.00  0.00     0.064 A 
ATOM     41  C   UNL A   1      39.074  28.731  30.309  1.00  0.00     0.173 A 
ATOM     42  C   UNL A   1      38.968  29.273  27.970  1.00  0.00     0.173 A 
ATOM     43  F   UNL A   1      39.746  28.304  31.389  1.00  0.00    -0.203 F 
ATOM     44  C   UNL A   1      37.714  29.011  30.431  1.00  0.00     0.198 A 
ATOM     45  C   UNL A   1      37.616  29.578  28.100  1.00  0.00     0.198 A 
ATOM     46  F   UNL A   1      39.542  29.393  26.764  1.00  0.00    -0.203 F 
ATOM     47  F   UNL A   1      37.101  28.850  31.612  1.00  0.00    -0.200 F 
ATOM     48  C   UNL A   1      36.989  29.443  29.330  1.00  0.00     0.200 A 
ATOM     49  F   UNL A   1      36.921  29.998  27.036  1.00  0.00    -0.200 F 
ATOM     50  F   UNL A   1      35.684  29.720  29.450  1.00  0.00    -0.200 F 
ENDBRANCH  26  40
BRANCH  27  51
ATOM     51  C   UNL A   1      49.422  26.553  27.479  1.00  0.00     0.064 A 
ATOM     52  C   UNL A   1      50.372  26.355  28.490  1.00  0.00     0.173 A 
ATOM     53  C   UNL A   1      49.873  26.502  26.150  1.00  0.00     0.173 A 
ATOM     54  F   UNL A   1      50.004  26.414  29.778  1.00  0.00    -0.203 F 
ATOM     55  C   UNL A   1      51.721  26.156  28.186  1.00  0.00     0.198 A 
ATOM     56  C   UNL A   1      51.212  26.265  25.846  1.00  0.00     0.198 A 
ATOM     57  F   UNL A   1      49.011  26.686  25.139  1.00  0.00    -0.203 F 
ATOM     58  F   UNL A   1      52.617  26.041  29.175  1.00  0.00    -0.200 F 
ATOM     59  C   UNL A   1      52.138  26.108  26.865  1.00  0.00     0.200 A 
ATOM     60  F   UNL A   1      51.606  26.205  24.567  1.00  0.00    -0.200 F 
ATOM     61  F   UNL A   1      53.433  25.926  26.574  1.00  0.00    -0.200 F 
ENDBRANCH  27  51
BRANCH  39  62
ATOM     62  C   UNL A   1      45.954  32.445  28.854  1.00  0.00     0.064 A 
ATOM     63  C   UNL A   1      45.905  33.311  27.752  1.00  0.00     0.173 A 
ATOM     64  C   UNL A   1      46.359  32.967  30.091  1.00  0.00     0.173 A 
ATOM     65  F   UNL A   1      45.540  32.851  26.547  1.00  0.00    -0.203 F 
ATOM     66  C   UNL A   1      46.261  34.650  27.884  1.00  0.00     0.198 A 
ATOM     67  C   UNL A   1      46.680  34.314  30.226  1.00  0.00     0.198 A 
ATOM     68  F   UNL A   1      46.412  32.177  31.174  1.00  0.00    -0.203 F 
ATOM     69  F   UNL A   1      46.244  35.453  26.812  1.00  0.00    -0.200 F 
ATOM     70  C   UNL A   1      46.635  35.151  29.122  1.00  0.00     0.200 A 
ATOM     71  F   UNL A   1      47.023  34.802  31.426  1.00  0.00    -0.200 F 
ATOM     72  F   UNL A   1      46.955  36.446  29.251  1.00  0.00    -0.200 F 
ENDBRANCH  39  62
ENDBRANCH  13  14
ENDBRANCH   6   8
ENDBRANCH   5   6
ENDBRANCH   4   5
ENDBRANCH   3   4
ENDBRANCH   2   3
ENDBRANCH   1   2
BRANCH   1  73
ATOM     73  C   UNL A   1      35.977  22.608  25.751  1.00  0.00     0.261 C 
BRANCH  73  74
ATOM     74  O   UNL A   1      35.346  21.368  26.103  1.00  0.00    -0.462 OA
BRANCH  74  75
ATOM     75  C   UNL A   1      34.199  21.449  26.857  1.00  0.00     0.328 C 
ATOM     76  O   UNL A   1      34.162  21.843  28.014  1.00  0.00    -0.250 OA
BRANCH  75  77
ATOM     77  C   UNL A   1      32.996  21.192  25.923  1.00  0.00     0.195 C 
ATOM     78  C   UNL A   1      32.521  22.548  25.375  1.00  0.00     0.046 C 
ATOM     79  N   UNL A   1      32.985  20.286  24.783  1.00  0.00    -0.328 N 
ATOM     80  C   UNL A   1      32.228  22.383  23.880  1.00  0.00     0.001 C 
ATOM     81  C   UNL A   1      32.266  20.872  23.661  1.00  0.00     0.128 C 
ATOM     82  C   UNL A   1      33.304  23.082  23.023  1.00  0.00     0.071 C 
ATOM     83  C   UNL A   1      30.845  22.982  23.535  1.00  0.00     0.071 C 
ATOM     84  C   UNL A   1      33.254  24.600  23.183  1.00  0.00     0.271 C 
ATOM     85  C   UNL A   1      30.829  24.508  23.651  1.00  0.00     0.271 C 
ATOM     86  N   UNL A   1      31.914  25.100  22.876  1.00  0.00    -0.267 N 
ATOM     87  H   UNL A   1      31.995  25.961  23.348  1.00  0.00     0.357 HD
BRANCH  79  88
ATOM     88  C   UNL A   1      33.028  18.893  24.804  1.00  0.00     0.226 C 
ATOM     89  O   UNL A   1      32.225  18.253  25.483  1.00  0.00    -0.275 OA
BRANCH  88  90
ATOM     90  C   UNL A   1      33.992  18.086  24.009  1.00  0.00     0.079 C 
ATOM     91  C   UNL A   1      34.153  16.607  23.825  1.00  0.00     0.014 C 
ATOM     92  C   UNL A   1      33.416  17.376  22.785  1.00  0.00     0.014 C 
ENDBRANCH  88  90
ENDBRANCH  79  88
BRANCH  86  93
ATOM     93  C   UNL A   1      31.639  26.189  22.054  1.00  0.00     0.344 C 
ATOM     94  O   UNL A   1      31.651  26.144  20.827  1.00  0.00    -0.226 OA
BRANCH  93  95
ATOM     95  C   UNL A   1      31.301  27.474  22.698  1.00  0.00     0.083 A 
ATOM     96  C   UNL A   1      32.241  28.126  23.508  1.00  0.00     0.018 A 
ATOM     97  C   UNL A   1      30.025  28.005  22.516  1.00  0.00     0.064 A 
ATOM     98  C   UNL A   1      31.872  29.279  24.199  1.00  0.00     0.005 A 
ATOM     99  C   UNL A   1      29.678  29.164  23.199  1.00  0.00     0.116 A 
ATOM    100  C   UNL A   1      30.584  29.796  24.050  1.00  0.00     0.046 A 
BRANCH  99 101
ATOM    101  O   UNL A   1      28.416  29.649  23.021  1.00  0.00    -0.508 OA
ATOM    102  H   UNL A   1      27.778  29.552  23.700  1.00  0.00     0.293 HD
ENDBRANCH  99 101
ENDBRANCH  93  95
ENDBRANCH  86  93
ENDBRANCH  75  77
ENDBRANCH  74  75
ENDBRANCH  73  74
ENDBRANCH   1  73
TORSDOF 19
ENDMDL
MODEL 3
REMARK VINA RESULT:     -12.8      2.856      9.234
REMARK SMILES O=C(OCCOCCOC(=O)[C@H]1CC2(CC[NH+](C(=O)c3cccc(O)c3)CC2)CN1C(=O)C1CC1)c1ccc(-c2c3nc(c(-c4c(F)c(F)c(F)c(F)c4F)c4ccc([nH]4)c(-c4c(F)c(F)c(F)c(F)c4F)c4nc(c(-c5c(F)c(F)c(F)c(F)c5F)c5ccc2[nH]5)C=C4)C=C3)cc1
REMARK SMILES IDX 7 1 6 2 5 3 4 4 3 5 2 6 1 7 36 8 37 9 98 10 38 11 97 12
REMARK SMILES IDX 39 13 40 14 41 15 91 16 42 17 96 18 90 19 92 20 43 21 95 22
REMARK SMILES IDX 89 23 88 24 44 26 76 27 56 28 75 29 57 30 60 31 74 32 93 33
REMARK SMILES IDX 58 34 59 35 73 37 94 38 61 39 45 40 46 41 54 42 47 43 48 44
REMARK SMILES IDX 52 45 55 46 49 47 50 48 53 49 51 50 77 51 78 52 86 53 79 54
REMARK SMILES IDX 80 55 84 56 87 57 81 58 82 59 85 60 83 61 62 62 63 63 71 64
REMARK SMILES IDX 64 65 65 66 69 67 72 68 66 69 67 70 70 71 68 72 8 73 9 74
REMARK SMILES IDX 10 75 11 76 12 77 13 78 30 79 14 80 29 81 15 82 28 83 16 84
REMARK SMILES IDX 27 85 17 86 31 88 32 89 33 90 34 91 35 92 18 93 19 94 20 95
REMARK SMILES IDX 21 96 26 97 22 98 24 99 23 100 25 101
REMARK H PARENT 92 25 60 36 17 87 25 102
REMARK Flexibility Score: inf
ROOT
ATOM      1  C   UNL A   1      34.688  29.934  27.779  1.00  0.00     0.202 C 
ENDROOT
BRANCH   1   2
ATOM      2  O   UNL A   1      34.502  31.309  27.422  1.00  0.00    -0.374 OA
BRANCH   2   3
ATOM      3  C   UNL A   1      33.363  31.978  27.972  1.00  0.00     0.202 C 
BRANCH   3   4
ATOM      4  C   UNL A   1      32.908  33.213  27.197  1.00  0.00     0.261 C 
BRANCH   4   5
ATOM      5  O   UNL A   1      32.356  34.175  28.098  1.00  0.00    -0.460 OA
BRANCH   5   6
ATOM      6  C   UNL A   1      33.038  34.989  28.930  1.00  0.00     0.338 C 
ATOM      7  O   UNL A   1      32.651  36.148  29.071  1.00  0.00    -0.246 OA
BRANCH   6   8
ATOM      8  C   UNL A   1      34.214  34.551  29.736  1.00  0.00     0.060 A 
ATOM      9  C   UNL A   1      34.164  33.934  30.991  1.00  0.00     0.016 A 
ATOM     10  C   UNL A   1      35.457  34.641  29.090  1.00  0.00     0.016 A 
ATOM     11  C   UNL A   1      35.300  33.400  31.583  1.00  0.00     0.010 A 
ATOM     12  C   UNL A   1      36.600  34.088  29.665  1.00  0.00     0.010 A 
ATOM     13  C   UNL A   1      36.514  33.450  30.906  1.00  0.00    -0.014 A 
BRANCH  13  14
ATOM     14  C   UNL A   1      37.703  32.853  31.529  1.00  0.00     0.031 A 
ATOM     15  C   UNL A   1      38.361  31.706  30.838  1.00  0.00     0.074 A 
ATOM     16  C   UNL A   1      38.173  33.369  32.678  1.00  0.00     0.049 A 
ATOM     17  N   UNL A   1      39.315  30.926  31.262  1.00  0.00    -0.248 NA
ATOM     18  C   UNL A   1      37.880  31.397  29.481  1.00  0.00     0.031 C 
ATOM     19  C   UNL A   1      37.635  34.553  33.354  1.00  0.00     0.029 A 
ATOM     20  N   UNL A   1      39.202  32.963  33.486  1.00  0.00    -0.354 N 
ATOM     21  C   UNL A   1      39.522  30.010  30.244  1.00  0.00     0.074 A 
ATOM     22  C   UNL A   1      38.607  30.334  29.173  1.00  0.00     0.031 C 
ATOM     23  C   UNL A   1      38.330  34.767  34.484  1.00  0.00     0.029 A 
ATOM     24  C   UNL A   1      39.305  33.695  34.644  1.00  0.00     0.049 A 
ATOM     25  H   UNL A   1      39.807  32.219  33.259  1.00  0.00     0.167 HD
ATOM     26  C   UNL A   1      40.394  28.979  30.231  1.00  0.00     0.037 A 
ATOM     27  C   UNL A   1      40.066  33.473  35.733  1.00  0.00     0.037 A 
ATOM     28  C   UNL A   1      41.293  28.698  31.318  1.00  0.00     0.049 A 
ATOM     29  C   UNL A   1      40.965  32.263  35.721  1.00  0.00     0.074 A 
ATOM     30  C   UNL A   1      42.229  27.689  31.424  1.00  0.00     0.029 A 
ATOM     31  N   UNL A   1      41.352  29.435  32.493  1.00  0.00    -0.354 N 
ATOM     32  N   UNL A   1      41.164  31.389  34.762  1.00  0.00    -0.248 NA
ATOM     33  C   UNL A   1      41.729  31.990  36.945  1.00  0.00     0.031 C 
ATOM     34  C   UNL A   1      42.810  27.777  32.693  1.00  0.00     0.029 A 
ATOM     35  C   UNL A   1      42.278  28.875  33.353  1.00  0.00     0.049 A 
ATOM     36  H   UNL A   1      40.814  30.237  32.687  1.00  0.00     0.167 HD
ATOM     37  C   UNL A   1      42.080  30.473  35.258  1.00  0.00     0.074 A 
ATOM     38  C   UNL A   1      42.422  30.915  36.595  1.00  0.00     0.031 C 
ATOM     39  C   UNL A   1      42.588  29.360  34.675  1.00  0.00     0.037 A 
BRANCH  26  40
ATOM     40  C   UNL A   1      40.362  28.050  29.057  1.00  0.00     0.064 A 
ATOM     41  C   UNL A   1      41.078  28.305  27.880  1.00  0.00     0.173 A 
ATOM     42  C   UNL A   1      39.608  26.868  29.126  1.00  0.00     0.173 A 
ATOM     43  F   UNL A   1      41.791  29.435  27.754  1.00  0.00    -0.203 F 
ATOM     44  C   UNL A   1      41.034  27.415  26.809  1.00  0.00     0.198 A 
ATOM     45  C   UNL A   1      39.586  25.968  28.064  1.00  0.00     0.198 A 
ATOM     46  F   UNL A   1      38.895  26.584  30.225  1.00  0.00    -0.203 F 
ATOM     47  F   UNL A   1      41.693  27.697  25.677  1.00  0.00    -0.200 F 
ATOM     48  C   UNL A   1      40.296  26.244  26.905  1.00  0.00     0.200 A 
ATOM     49  F   UNL A   1      38.875  24.837  28.162  1.00  0.00    -0.200 F 
ATOM     50  F   UNL A   1      40.260  25.385  25.877  1.00  0.00    -0.200 F 
ENDBRANCH  26  40
BRANCH  27  51
ATOM     51  C   UNL A   1      39.950  34.340  36.939  1.00  0.00     0.064 A 
ATOM     52  C   UNL A   1      40.739  35.488  37.090  1.00  0.00     0.173 A 
ATOM     53  C   UNL A   1      39.084  34.009  37.994  1.00  0.00     0.173 A 
ATOM     54  F   UNL A   1      41.600  35.841  36.124  1.00  0.00    -0.203 F 
ATOM     55  C   UNL A   1      40.694  36.248  38.260  1.00  0.00     0.198 A 
ATOM     56  C   UNL A   1      39.011  34.790  39.146  1.00  0.00     0.198 A 
ATOM     57  F   UNL A   1      38.305  32.920  37.909  1.00  0.00    -0.203 F 
ATOM     58  F   UNL A   1      41.513  37.299  38.405  1.00  0.00    -0.200 F 
ATOM     59  C   UNL A   1      39.828  35.900  39.285  1.00  0.00     0.200 A 
ATOM     60  F   UNL A   1      38.161  34.456  40.126  1.00  0.00    -0.200 F 
ATOM     61  F   UNL A   1      39.792  36.624  40.412  1.00  0.00    -0.200 F 
ENDBRANCH  27  51
BRANCH  39  62
ATOM     62  C   UNL A   1      43.571  28.562  35.476  1.00  0.00     0.064 A 
ATOM     63  C   UNL A   1      43.146  27.567  36.368  1.00  0.00     0.173 A 
ATOM     64  C   UNL A   1      44.949  28.742  35.289  1.00  0.00     0.173 A 
ATOM     65  F   UNL A   1      41.838  27.372  36.589  1.00  0.00    -0.203 F 
ATOM     66  C   UNL A   1      44.071  26.788  37.056  1.00  0.00     0.198 A 
ATOM     67  C   UNL A   1      45.869  27.938  35.953  1.00  0.00     0.198 A 
ATOM     68  F   UNL A   1      45.401  29.677  34.440  1.00  0.00    -0.203 F 
ATOM     69  F   UNL A   1      43.646  25.867  37.932  1.00  0.00    -0.200 F 
ATOM     70  C   UNL A   1      45.429  26.965  36.838  1.00  0.00     0.200 A 
ATOM     71  F   UNL A   1      47.180  28.097  35.727  1.00  0.00    -0.200 F 
ATOM     72  F   UNL A   1      46.317  26.198  37.485  1.00  0.00    -0.200 F 
ENDBRANCH  39  62
ENDBRANCH  13  14
ENDBRANCH   6   8
ENDBRANCH   5   6
ENDBRANCH   4   5
ENDBRANCH   3   4
ENDBRANCH   2   3
ENDBRANCH   1   2
BRANCH   1  73
ATOM     73  C   UNL A   1      33.520  29.107  27.217  1.00  0.00     0.261 C 
BRANCH  73  74
ATOM     74  O   UNL A   1      33.501  29.279  25.793  1.00  0.00    -0.462 OA
BRANCH  74  75
ATOM     75  C   UNL A   1      32.281  29.549  25.218  1.00  0.00     0.328 C 
ATOM     76  O   UNL A   1      31.533  30.445  25.580  1.00  0.00    -0.250 OA
BRANCH  75  77
ATOM     77  C   UNL A   1      32.161  28.698  23.934  1.00  0.00     0.195 C 
ATOM     78  C   UNL A   1      33.070  27.467  24.094  1.00  0.00     0.046 C 
ATOM     79  N   UNL A   1      30.921  28.195  23.361  1.00  0.00    -0.328 N 
ATOM     80  C   UNL A   1      32.307  26.241  23.581  1.00  0.00     0.001 C 
ATOM     81  C   UNL A   1      31.089  26.833  22.876  1.00  0.00     0.128 C 
ATOM     82  C   UNL A   1      31.868  25.333  24.750  1.00  0.00     0.071 C 
ATOM     83  C   UNL A   1      33.194  25.423  22.615  1.00  0.00     0.071 C 
ATOM     84  C   UNL A   1      33.066  24.685  25.441  1.00  0.00     0.271 C 
ATOM     85  C   UNL A   1      34.359  24.739  23.335  1.00  0.00     0.271 C 
ATOM     86  N   UNL A   1      33.882  23.956  24.469  1.00  0.00    -0.267 N 
ATOM     87  H   UNL A   1      34.709  23.929  25.003  1.00  0.00     0.357 HD
BRANCH  79  88
ATOM     88  C   UNL A   1      29.911  28.930  22.744  1.00  0.00     0.226 C 
ATOM     89  O   UNL A   1      29.949  29.151  21.533  1.00  0.00    -0.275 OA
BRANCH  88  90
ATOM     90  C   UNL A   1      28.723  29.464  23.462  1.00  0.00     0.079 C 
ATOM     91  C   UNL A   1      27.605  30.362  23.027  1.00  0.00     0.014 C 
ATOM     92  C   UNL A   1      27.373  28.891  23.033  1.00  0.00     0.014 C 
ENDBRANCH  88  90
ENDBRANCH  79  88
BRANCH  86  93
ATOM     93  C   UNL A   1      34.363  22.662  24.645  1.00  0.00     0.344 C 
ATOM     94  O   UNL A   1      35.419  22.393  25.210  1.00  0.00    -0.226 OA
BRANCH  93  95
ATOM     95  C   UNL A   1      33.548  21.544  24.130  1.00  0.00     0.083 A 
ATOM     96  C   UNL A   1      33.595  20.290  24.754  1.00  0.00     0.018 A 
ATOM     97  C   UNL A   1      32.765  21.748  22.995  1.00  0.00     0.064 A 
ATOM     98  C   UNL A   1      32.908  19.215  24.191  1.00  0.00     0.005 A 
ATOM     99  C   UNL A   1      32.074  20.671  22.455  1.00  0.00     0.116 A 
ATOM    100  C   UNL A   1      32.150  19.404  23.034  1.00  0.00     0.046 A 
BRANCH  99 101
ATOM    101  O   UNL A   1      31.334  20.892  21.332  1.00  0.00    -0.508 OA
ATOM    102  H   UNL A   1      31.082  21.765  21.102  1.00  0.00     0.293 HD
ENDBRANCH  99 101
ENDBRANCH  93  95
ENDBRANCH  86  93
ENDBRANCH  75  77
ENDBRANCH  74  75
ENDBRANCH  73  74
ENDBRANCH   1  73
TORSDOF 19
ENDMDL
