MODEL 1
REMARK VINA RESULT:     -10.3      0.000      0.000
REMARK SMILES Cc1cc(C)cc(Oc2nc3ccccn3c(=O)c2/C=C2\SC(=S)N(CCC(=O)OCCOCCOC(=O)c3ccc(-c4c5nc(c(-c6c(F)c(F)c(F)c(F)c6F)c6ccc([nH]6)c(-c6c(F)c(F)c(F)c(F)c6F)c6nc(c(-c7c(F)c(F)c(F)c(F)c7F)c7ccc4[nH]7)C=C6)C=C5)cc3)C2=O)c1
REMARK SMILES IDX 31 1 30 2 28 3 29 4 27 5 26 6 25 7 20 8 21 9 22 10 102 11
REMARK SMILES IDX 23 12 103 13 24 14 19 15 9 16 10 17 11 18 17 19 12 20 16 21
REMARK SMILES IDX 18 22 13 23 15 24 14 25 8 26 7 27 1 28 2 29 3 30 104 31 4 32
REMARK SMILES IDX 5 33 6 34 32 35 33 36 34 37 35 38 36 39 37 40 38 41 39 42
REMARK SMILES IDX 40 43 101 44 41 45 100 46 42 47 43 48 44 49 94 50 45 51
REMARK SMILES IDX 99 52 93 53 95 54 46 55 98 56 92 57 91 58 47 60 79 61 59 62
REMARK SMILES IDX 78 63 60 64 63 65 77 66 96 67 61 68 62 69 76 71 97 72 64 73
REMARK SMILES IDX 48 74 49 75 57 76 50 77 51 78 55 79 58 80 52 81 53 82 56 83
REMARK SMILES IDX 54 84 80 85 81 86 89 87 82 88 83 89 87 90 90 91 84 92 85 93
REMARK SMILES IDX 88 94 86 95 65 96 66 97 74 98 67 99 68 100 72 101 75 102
REMARK SMILES IDX 69 103 70 104 73 105 71 106
REMARK H PARENT 95 59 63 70
REMARK Flexibility Score: inf
ROOT
ATOM      1  C   UNL A   1      35.065  34.555  30.256  1.00  0.00     0.261 C 
ENDROOT
BRANCH   1   2
ATOM      2  O   UNL A   1      35.128  34.343  31.683  1.00  0.00    -0.463 OA
BRANCH   2   3
ATOM      3  C   UNL A   1      34.727  33.139  32.151  1.00  0.00     0.307 C 
ATOM      4  O   UNL A   1      33.611  32.888  32.588  1.00  0.00    -0.252 OA
BRANCH   3   5
ATOM      5  C   UNL A   1      35.840  32.113  32.102  1.00  0.00     0.144 C 
BRANCH   5   6
ATOM      6  C   UNL A   1      37.235  32.623  32.482  1.00  0.00     0.139 C 
BRANCH   6   7
ATOM      7  N   UNL A   1      37.640  32.317  33.864  1.00  0.00    -0.292 N 
ATOM      8  C   UNL A   1      37.522  33.486  37.243  1.00  0.00     0.041 C 
ATOM      9  C   UNL A   1      37.872  32.786  36.156  1.00  0.00     0.081 C 
ATOM     10  S   UNL A   1      38.555  31.224  36.025  1.00  0.00    -0.054 SA
ATOM     11  C   UNL A   1      37.572  33.306  34.815  1.00  0.00     0.266 C 
ATOM     12  C   UNL A   1      38.202  31.132  34.296  1.00  0.00     0.148 C 
ATOM     13  O   UNL A   1      37.349  34.488  34.615  1.00  0.00    -0.268 OA
ATOM     14  S   UNL A   1      38.530  29.762  33.404  1.00  0.00    -0.052 S 
BRANCH   8  15
ATOM     15  C   UNL A   1      37.729  33.087  38.622  1.00  0.00     0.104 A 
ATOM     16  C   UNL A   1      38.935  32.950  39.215  1.00  0.00     0.234 A 
ATOM     17  N   UNL A   1      39.084  32.482  40.494  1.00  0.00    -0.194 NA
ATOM     18  C   UNL A   1      38.045  32.071  41.143  1.00  0.00     0.143 A 
ATOM     19  C   UNL A   1      36.524  32.663  39.404  1.00  0.00     0.269 A 
ATOM     20  C   UNL A   1      38.227  31.490  42.503  1.00  0.00     0.048 A 
ATOM     21  N   UNL A   1      36.754  32.135  40.658  1.00  0.00    -0.267 N 
ATOM     22  O   UNL A   1      35.403  32.731  38.889  1.00  0.00    -0.268 OA
ATOM     23  C   UNL A   1      37.166  31.051  43.191  1.00  0.00     0.005 A 
ATOM     24  C   UNL A   1      35.679  31.668  41.408  1.00  0.00     0.096 A 
ATOM     25  C   UNL A   1      35.846  31.145  42.627  1.00  0.00     0.019 A 
BRANCH  16  26
ATOM     26  O   UNL A   1      40.155  33.088  38.547  1.00  0.00    -0.438 OA
BRANCH  26  27
ATOM     27  C   UNL A   1      40.793  34.288  38.365  1.00  0.00     0.130 A 
ATOM     28  C   UNL A   1      42.685  36.985  40.231  1.00  0.00     0.044 C 
ATOM     29  C   UNL A   1      42.033  36.219  39.121  1.00  0.00    -0.047 A 
ATOM     30  C   UNL A   1      41.953  36.765  37.834  1.00  0.00     0.007 A 
ATOM     31  C   UNL A   1      41.505  34.949  39.360  1.00  0.00     0.050 A 
ATOM     32  C   UNL A   1      41.336  36.060  36.793  1.00  0.00    -0.047 A 
ATOM     33  C   UNL A   1      41.365  36.614  35.398  1.00  0.00     0.044 C 
ATOM     34  C   UNL A   1      40.735  34.827  37.075  1.00  0.00     0.050 A 
ENDBRANCH  26  27
ENDBRANCH  16  26
ENDBRANCH   8  15
ENDBRANCH   6   7
ENDBRANCH   5   6
ENDBRANCH   3   5
ENDBRANCH   2   3
ENDBRANCH   1   2
BRANCH   1  35
ATOM     35  C   UNL A   1      33.678  34.992  29.752  1.00  0.00     0.202 C 
BRANCH  35  36
ATOM     36  O   UNL A   1      33.423  34.794  28.360  1.00  0.00    -0.374 OA
BRANCH  36  37
ATOM     37  C   UNL A   1      33.043  33.474  27.979  1.00  0.00     0.202 C 
BRANCH  37  38
ATOM     38  C   UNL A   1      34.186  32.484  27.696  1.00  0.00     0.261 C 
BRANCH  38  39
ATOM     39  O   UNL A   1      34.172  31.334  28.561  1.00  0.00    -0.460 OA
BRANCH  39  40
ATOM     40  C   UNL A   1      34.653  30.194  28.017  1.00  0.00     0.338 C 
ATOM     41  O   UNL A   1      34.097  29.487  27.192  1.00  0.00    -0.246 OA
BRANCH  40  42
ATOM     42  C   UNL A   1      36.056  29.962  28.438  1.00  0.00     0.060 A 
ATOM     43  C   UNL A   1      37.061  30.158  27.481  1.00  0.00     0.016 A 
ATOM     44  C   UNL A   1      36.400  29.511  29.711  1.00  0.00     0.016 A 
ATOM     45  C   UNL A   1      38.399  29.863  27.771  1.00  0.00     0.010 A 
ATOM     46  C   UNL A   1      37.745  29.224  29.998  1.00  0.00     0.010 A 
ATOM     47  C   UNL A   1      38.763  29.369  29.029  1.00  0.00    -0.014 A 
BRANCH  47  48
ATOM     48  C   UNL A   1      40.154  28.882  29.308  1.00  0.00     0.031 A 
ATOM     49  C   UNL A   1      41.136  29.817  29.976  1.00  0.00     0.074 A 
ATOM     50  C   UNL A   1      40.576  27.638  28.995  1.00  0.00     0.049 A 
ATOM     51  N   UNL A   1      42.416  29.655  30.217  1.00  0.00    -0.248 NA
ATOM     52  C   UNL A   1      40.603  31.108  30.442  1.00  0.00     0.031 C 
ATOM     53  C   UNL A   1      39.757  26.576  28.417  1.00  0.00     0.029 A 
ATOM     54  N   UNL A   1      41.833  27.073  29.069  1.00  0.00    -0.354 N 
ATOM     55  C   UNL A   1      42.819  30.799  30.892  1.00  0.00     0.074 A 
ATOM     56  C   UNL A   1      41.689  31.700  30.913  1.00  0.00     0.031 C 
ATOM     57  C   UNL A   1      40.543  25.531  28.096  1.00  0.00     0.029 A 
ATOM     58  C   UNL A   1      41.922  25.845  28.449  1.00  0.00     0.049 A 
ATOM     59  H   UNL A   1      42.593  27.504  29.523  1.00  0.00     0.167 HD
ATOM     60  C   UNL A   1      43.997  31.057  31.509  1.00  0.00     0.037 A 
ATOM     61  C   UNL A   1      42.991  25.073  28.165  1.00  0.00     0.037 A 
ATOM     62  C   UNL A   1      45.127  30.168  31.523  1.00  0.00     0.049 A 
ATOM     63  C   UNL A   1      44.349  25.459  28.691  1.00  0.00     0.074 A 
ATOM     64  C   UNL A   1      46.342  30.326  32.166  1.00  0.00     0.029 A 
ATOM     65  N   UNL A   1      45.183  28.953  30.857  1.00  0.00    -0.354 N 
ATOM     66  N   UNL A   1      44.701  26.518  29.376  1.00  0.00    -0.248 NA
ATOM     67  C   UNL A   1      45.449  24.513  28.451  1.00  0.00     0.031 C 
ATOM     68  C   UNL A   1      47.155  29.236  31.844  1.00  0.00     0.029 A 
ATOM     69  C   UNL A   1      46.425  28.368  31.051  1.00  0.00     0.049 A 
ATOM     70  H   UNL A   1      44.451  28.565  30.326  1.00  0.00     0.167 HD
ATOM     71  C   UNL A   1      46.029  26.317  29.732  1.00  0.00     0.074 A 
ATOM     72  C   UNL A   1      46.432  25.055  29.154  1.00  0.00     0.031 C 
ATOM     73  C   UNL A   1      46.824  27.098  30.503  1.00  0.00     0.037 A 
BRANCH  60  74
ATOM     74  C   UNL A   1      44.106  32.347  32.270  1.00  0.00     0.064 A 
ATOM     75  C   UNL A   1      44.575  33.519  31.652  1.00  0.00     0.173 A 
ATOM     76  C   UNL A   1      43.706  32.428  33.610  1.00  0.00     0.173 A 
ATOM     77  F   UNL A   1      44.979  33.492  30.373  1.00  0.00    -0.203 F 
ATOM     78  C   UNL A   1      44.666  34.714  32.357  1.00  0.00     0.198 A 
ATOM     79  C   UNL A   1      43.766  33.634  34.303  1.00  0.00     0.198 A 
ATOM     80  F   UNL A   1      43.243  31.340  34.246  1.00  0.00    -0.203 F 
ATOM     81  F   UNL A   1      45.166  35.805  31.762  1.00  0.00    -0.200 F 
ATOM     82  C   UNL A   1      44.255  34.773  33.680  1.00  0.00     0.200 A 
ATOM     83  F   UNL A   1      43.352  33.694  35.576  1.00  0.00    -0.200 F 
ATOM     84  F   UNL A   1      44.333  35.927  34.357  1.00  0.00    -0.200 F 
ENDBRANCH  60  74
BRANCH  61  85
ATOM     85  C   UNL A   1      42.843  23.829  27.357  1.00  0.00     0.064 A 
ATOM     86  C   UNL A   1      42.413  22.632  27.943  1.00  0.00     0.173 A 
ATOM     87  C   UNL A   1      43.224  23.789  26.009  1.00  0.00     0.173 A 
ATOM     88  F   UNL A   1      42.087  22.604  29.244  1.00  0.00    -0.203 F 
ATOM     89  C   UNL A   1      42.399  21.438  27.221  1.00  0.00     0.198 A 
ATOM     90  C   UNL A   1      43.178  22.604  25.276  1.00  0.00     0.198 A 
ATOM     91  F   UNL A   1      43.700  24.888  25.410  1.00  0.00    -0.203 F 
ATOM     92  F   UNL A   1      42.061  20.294  27.830  1.00  0.00    -0.200 F 
ATOM     93  C   UNL A   1      42.777  21.427  25.887  1.00  0.00     0.200 A 
ATOM     94  F   UNL A   1      43.560  22.594  23.992  1.00  0.00    -0.200 F 
ATOM     95  F   UNL A   1      42.784  20.276  25.199  1.00  0.00    -0.200 F 
ENDBRANCH  61  85
BRANCH  73  96
ATOM     96  C   UNL A   1      48.189  26.576  30.854  1.00  0.00     0.064 A 
ATOM     97  C   UNL A   1      48.406  25.722  31.944  1.00  0.00     0.173 A 
ATOM     98  C   UNL A   1      49.296  26.912  30.056  1.00  0.00     0.173 A 
ATOM     99  F   UNL A   1      47.387  25.380  32.747  1.00  0.00    -0.203 F 
ATOM    100  C   UNL A   1      49.683  25.248  32.241  1.00  0.00     0.198 A 
ATOM    101  C   UNL A   1      50.563  26.408  30.334  1.00  0.00     0.198 A 
ATOM    102  F   UNL A   1      49.146  27.721  28.997  1.00  0.00    -0.203 F 
ATOM    103  F   UNL A   1      49.874  24.478  33.321  1.00  0.00    -0.200 F 
ATOM    104  C   UNL A   1      50.757  25.584  31.431  1.00  0.00     0.200 A 
ATOM    105  F   UNL A   1      51.596  26.719  29.538  1.00  0.00    -0.200 F 
ATOM    106  F   UNL A   1      51.982  25.118  31.712  1.00  0.00    -0.200 F 
ENDBRANCH  73  96
ENDBRANCH  47  48
ENDBRANCH  40  42
ENDBRANCH  39  40
ENDBRANCH  38  39
ENDBRANCH  37  38
ENDBRANCH  36  37
ENDBRANCH  35  36
ENDBRANCH   1  35
TORSDOF 19
ENDMDL
MODEL 2
REMARK VINA RESULT:     -10.3      5.049     10.938
REMARK SMILES Cc1cc(C)cc(Oc2nc3ccccn3c(=O)c2/C=C2\SC(=S)N(CCC(=O)OCCOCCOC(=O)c3ccc(-c4c5nc(c(-c6c(F)c(F)c(F)c(F)c6F)c6ccc([nH]6)c(-c6c(F)c(F)c(F)c(F)c6F)c6nc(c(-c7c(F)c(F)c(F)c(F)c7F)c7ccc4[nH]7)C=C6)C=C5)cc3)C2=O)c1
REMARK SMILES IDX 31 1 30 2 28 3 29 4 27 5 26 6 25 7 20 8 21 9 22 10 102 11
REMARK SMILES IDX 23 12 103 13 24 14 19 15 9 16 10 17 11 18 17 19 12 20 16 21
REMARK SMILES IDX 18 22 13 23 15 24 14 25 8 26 7 27 1 28 2 29 3 30 104 31 4 32
REMARK SMILES IDX 5 33 6 34 32 35 33 36 34 37 35 38 36 39 37 40 38 41 39 42
REMARK SMILES IDX 40 43 101 44 41 45 100 46 42 47 43 48 44 49 94 50 45 51
REMARK SMILES IDX 99 52 93 53 95 54 46 55 98 56 92 57 91 58 47 60 79 61 59 62
REMARK SMILES IDX 78 63 60 64 63 65 77 66 96 67 61 68 62 69 76 71 97 72 64 73
REMARK SMILES IDX 48 74 49 75 57 76 50 77 51 78 55 79 58 80 52 81 53 82 56 83
REMARK SMILES IDX 54 84 80 85 81 86 89 87 82 88 83 89 87 90 90 91 84 92 85 93
REMARK SMILES IDX 88 94 86 95 65 96 66 97 74 98 67 99 68 100 72 101 75 102
REMARK SMILES IDX 69 103 70 104 73 105 71 106
REMARK H PARENT 95 59 63 70
REMARK Flexibility Score: inf
ROOT
ATOM      1  C   UNL A   1      34.363  29.144  26.553  1.00  0.00     0.261 C 
ENDROOT
BRANCH   1   2
ATOM      2  O   UNL A   1      32.929  29.305  26.523  1.00  0.00    -0.463 OA
BRANCH   2   3
ATOM      3  C   UNL A   1      32.318  29.226  25.318  1.00  0.00     0.307 C 
ATOM      4  O   UNL A   1      31.328  29.863  24.985  1.00  0.00    -0.252 OA
BRANCH   3   5
ATOM      5  C   UNL A   1      32.992  28.219  24.408  1.00  0.00     0.144 C 
BRANCH   5   6
ATOM      6  C   UNL A   1      32.072  27.162  23.785  1.00  0.00     0.139 C 
BRANCH   6   7
ATOM      7  N   UNL A   1      32.682  25.830  23.643  1.00  0.00    -0.292 N 
ATOM      8  C   UNL A   1      33.782  22.942  25.447  1.00  0.00     0.041 C 
ATOM      9  C   UNL A   1      33.608  23.828  24.457  1.00  0.00     0.081 C 
ATOM     10  S   UNL A   1      33.696  23.617  22.762  1.00  0.00    -0.054 SA
ATOM     11  C   UNL A   1      33.173  25.198  24.760  1.00  0.00     0.266 C 
ATOM     12  C   UNL A   1      32.920  25.174  22.452  1.00  0.00     0.148 C 
ATOM     13  O   UNL A   1      33.301  25.686  25.871  1.00  0.00    -0.268 OA
ATOM     14  S   UNL A   1      32.559  25.682  20.906  1.00  0.00    -0.052 S 
BRANCH   8  15
ATOM     15  C   UNL A   1      34.181  21.556  25.295  1.00  0.00     0.104 A 
ATOM     16  C   UNL A   1      35.410  21.142  24.918  1.00  0.00     0.234 A 
ATOM     17  N   UNL A   1      35.714  19.824  24.700  1.00  0.00    -0.194 NA
ATOM     18  C   UNL A   1      34.777  18.937  24.771  1.00  0.00     0.143 A 
ATOM     19  C   UNL A   1      33.114  20.514  25.433  1.00  0.00     0.269 A 
ATOM     20  C   UNL A   1      35.100  17.518  24.454  1.00  0.00     0.048 A 
ATOM     21  N   UNL A   1      33.473  19.217  25.129  1.00  0.00    -0.267 N 
ATOM     22  O   UNL A   1      31.964  20.849  25.735  1.00  0.00    -0.268 OA
ATOM     23  C   UNL A   1      34.144  16.584  24.515  1.00  0.00     0.005 A 
ATOM     24  C   UNL A   1      32.510  18.213  25.180  1.00  0.00     0.096 A 
ATOM     25  C   UNL A   1      32.803  16.941  24.893  1.00  0.00     0.019 A 
BRANCH  16  26
ATOM     26  O   UNL A   1      36.442  22.004  24.533  1.00  0.00    -0.438 OA
BRANCH  26  27
ATOM     27  C   UNL A   1      37.504  22.326  25.337  1.00  0.00     0.130 A 
ATOM     28  C   UNL A   1      38.981  25.175  27.346  1.00  0.00     0.044 C 
ATOM     29  C   UNL A   1      38.794  23.824  26.728  1.00  0.00    -0.047 A 
ATOM     30  C   UNL A   1      39.779  22.838  26.863  1.00  0.00     0.007 A 
ATOM     31  C   UNL A   1      37.628  23.534  26.015  1.00  0.00     0.050 A 
ATOM     32  C   UNL A   1      39.616  21.576  26.278  1.00  0.00    -0.047 A 
ATOM     33  C   UNL A   1      40.630  20.499  26.533  1.00  0.00     0.044 C 
ATOM     34  C   UNL A   1      38.481  21.336  25.494  1.00  0.00     0.050 A 
ENDBRANCH  26  27
ENDBRANCH  16  26
ENDBRANCH   8  15
ENDBRANCH   6   7
ENDBRANCH   5   6
ENDBRANCH   3   5
ENDBRANCH   2   3
ENDBRANCH   1   2
BRANCH   1  35
ATOM     35  C   UNL A   1      35.069  30.039  27.587  1.00  0.00     0.202 C 
BRANCH  35  36
ATOM     36  O   UNL A   1      34.252  31.019  28.231  1.00  0.00    -0.374 OA
BRANCH  36  37
ATOM     37  C   UNL A   1      33.732  32.045  27.391  1.00  0.00     0.202 C 
BRANCH  37  38
ATOM     38  C   UNL A   1      32.674  32.974  28.013  1.00  0.00     0.261 C 
BRANCH  38  39
ATOM     39  O   UNL A   1      33.147  34.316  28.225  1.00  0.00    -0.460 OA
BRANCH  39  40
ATOM     40  C   UNL A   1      33.469  34.622  29.502  1.00  0.00     0.338 C 
ATOM     41  O   UNL A   1      32.806  35.283  30.284  1.00  0.00    -0.246 OA
BRANCH  40  42
ATOM     42  C   UNL A   1      34.703  33.911  29.917  1.00  0.00     0.060 A 
ATOM     43  C   UNL A   1      34.587  32.948  30.928  1.00  0.00     0.016 A 
ATOM     44  C   UNL A   1      35.958  34.200  29.386  1.00  0.00     0.016 A 
ATOM     45  C   UNL A   1      35.719  32.307  31.445  1.00  0.00     0.010 A 
ATOM     46  C   UNL A   1      37.090  33.548  29.904  1.00  0.00     0.010 A 
ATOM     47  C   UNL A   1      36.995  32.611  30.957  1.00  0.00    -0.014 A 
BRANCH  47  48
ATOM     48  C   UNL A   1      38.234  32.071  31.609  1.00  0.00     0.031 A 
ATOM     49  C   UNL A   1      38.656  32.627  32.949  1.00  0.00     0.074 A 
ATOM     50  C   UNL A   1      38.994  31.101  31.056  1.00  0.00     0.049 A 
ATOM     51  N   UNL A   1      39.742  32.394  33.648  1.00  0.00    -0.248 NA
ATOM     52  C   UNL A   1      37.727  33.569  33.593  1.00  0.00     0.031 C 
ATOM     53  C   UNL A   1      38.709  30.393  29.811  1.00  0.00     0.029 A 
ATOM     54  N   UNL A   1      40.209  30.580  31.453  1.00  0.00    -0.354 N 
ATOM     55  C   UNL A   1      39.600  33.126  34.819  1.00  0.00     0.074 A 
ATOM     56  C   UNL A   1      38.391  33.907  34.687  1.00  0.00     0.031 C 
ATOM     57  C   UNL A   1      39.757  29.611  29.492  1.00  0.00     0.029 A 
ATOM     58  C   UNL A   1      40.789  29.756  30.512  1.00  0.00     0.049 A 
ATOM     59  H   UNL A   1      40.622  30.777  32.325  1.00  0.00     0.167 HD
ATOM     60  C   UNL A   1      40.359  33.100  35.940  1.00  0.00     0.037 A 
ATOM     61  C   UNL A   1      42.019  29.206  30.456  1.00  0.00     0.037 A 
ATOM     62  C   UNL A   1      41.552  32.314  36.105  1.00  0.00     0.049 A 
ATOM     63  C   UNL A   1      42.948  29.339  31.634  1.00  0.00     0.074 A 
ATOM     64  C   UNL A   1      42.355  32.189  37.225  1.00  0.00     0.029 A 
ATOM     65  N   UNL A   1      42.116  31.521  35.118  1.00  0.00    -0.354 N 
ATOM     66  N   UNL A   1      42.774  29.988  32.757  1.00  0.00    -0.248 NA
ATOM     67  C   UNL A   1      44.226  28.613  31.558  1.00  0.00     0.031 C 
ATOM     68  C   UNL A   1      43.437  31.366  36.900  1.00  0.00     0.029 A 
ATOM     69  C   UNL A   1      43.275  30.929  35.596  1.00  0.00     0.049 A 
ATOM     70  H   UNL A   1      41.750  31.398  34.213  1.00  0.00     0.167 HD
ATOM     71  C   UNL A   1      43.866  29.670  33.555  1.00  0.00     0.074 A 
ATOM     72  C   UNL A   1      44.717  28.801  32.774  1.00  0.00     0.031 C 
ATOM     73  C   UNL A   1      44.113  30.040  34.835  1.00  0.00     0.037 A 
BRANCH  60  74
ATOM     74  C   UNL A   1      39.890  33.921  37.107  1.00  0.00     0.064 A 
ATOM     75  C   UNL A   1      39.033  33.380  38.080  1.00  0.00     0.173 A 
ATOM     76  C   UNL A   1      40.328  35.241  37.279  1.00  0.00     0.173 A 
ATOM     77  F   UNL A   1      38.578  32.124  37.956  1.00  0.00    -0.203 F 
ATOM     78  C   UNL A   1      38.608  34.142  39.164  1.00  0.00     0.198 A 
ATOM     79  C   UNL A   1      39.929  35.988  38.384  1.00  0.00     0.198 A 
ATOM     80  F   UNL A   1      41.153  35.803  36.383  1.00  0.00    -0.203 F 
ATOM     81  F   UNL A   1      37.749  33.622  40.051  1.00  0.00    -0.200 F 
ATOM     82  C   UNL A   1      39.062  35.442  39.320  1.00  0.00     0.200 A 
ATOM     83  F   UNL A   1      40.382  37.240  38.543  1.00  0.00    -0.200 F 
ATOM     84  F   UNL A   1      38.661  36.172  40.370  1.00  0.00    -0.200 F 
ENDBRANCH  60  74
BRANCH  61  85
ATOM     85  C   UNL A   1      42.463  28.447  29.252  1.00  0.00     0.064 A 
ATOM     86  C   UNL A   1      43.054  29.098  28.162  1.00  0.00     0.173 A 
ATOM     87  C   UNL A   1      42.214  27.073  29.128  1.00  0.00     0.173 A 
ATOM     88  F   UNL A   1      43.265  30.422  28.209  1.00  0.00    -0.203 F 
ATOM     89  C   UNL A   1      43.350  28.411  26.984  1.00  0.00     0.198 A 
ATOM     90  C   UNL A   1      42.540  26.378  27.964  1.00  0.00     0.198 A 
ATOM     91  F   UNL A   1      41.598  26.407  30.113  1.00  0.00    -0.203 F 
ATOM     92  F   UNL A   1      43.838  29.077  25.929  1.00  0.00    -0.200 F 
ATOM     93  C   UNL A   1      43.097  27.052  26.888  1.00  0.00     0.200 A 
ATOM     94  F   UNL A   1      42.280  25.067  27.869  1.00  0.00    -0.200 F 
ATOM     95  F   UNL A   1      43.361  26.397  25.748  1.00  0.00    -0.200 F 
ENDBRANCH  61  85
BRANCH  73  96
ATOM     96  C   UNL A   1      45.307  29.437  35.520  1.00  0.00     0.064 A 
ATOM     97  C   UNL A   1      46.550  30.082  35.564  1.00  0.00     0.173 A 
ATOM     98  C   UNL A   1      45.188  28.201  36.179  1.00  0.00     0.173 A 
ATOM     99  F   UNL A   1      46.723  31.257  34.940  1.00  0.00    -0.203 F 
ATOM    100  C   UNL A   1      47.637  29.501  36.214  1.00  0.00     0.198 A 
ATOM    101  C   UNL A   1      46.265  27.640  36.858  1.00  0.00     0.198 A 
ATOM    102  F   UNL A   1      44.019  27.541  36.175  1.00  0.00    -0.203 F 
ATOM    103  F   UNL A   1      48.830  30.111  36.195  1.00  0.00    -0.200 F 
ATOM    104  C   UNL A   1      47.491  28.286  36.868  1.00  0.00     0.200 A 
ATOM    105  F   UNL A   1      46.116  26.476  37.505  1.00  0.00    -0.200 F 
ATOM    106  F   UNL A   1      48.535  27.735  37.502  1.00  0.00    -0.200 F 
ENDBRANCH  73  96
ENDBRANCH  47  48
ENDBRANCH  40  42
ENDBRANCH  39  40
ENDBRANCH  38  39
ENDBRANCH  37  38
ENDBRANCH  36  37
ENDBRANCH  35  36
ENDBRANCH   1  35
TORSDOF 19
ENDMDL
MODEL 3
REMARK VINA RESULT:     -10.0      4.168      9.051
REMARK SMILES Cc1cc(C)cc(Oc2nc3ccccn3c(=O)c2/C=C2\SC(=S)N(CCC(=O)OCCOCCOC(=O)c3ccc(-c4c5nc(c(-c6c(F)c(F)c(F)c(F)c6F)c6ccc([nH]6)c(-c6c(F)c(F)c(F)c(F)c6F)c6nc(c(-c7c(F)c(F)c(F)c(F)c7F)c7ccc4[nH]7)C=C6)C=C5)cc3)C2=O)c1
REMARK SMILES IDX 31 1 30 2 28 3 29 4 27 5 26 6 25 7 20 8 21 9 22 10 102 11
REMARK SMILES IDX 23 12 103 13 24 14 19 15 9 16 10 17 11 18 17 19 12 20 16 21
REMARK SMILES IDX 18 22 13 23 15 24 14 25 8 26 7 27 1 28 2 29 3 30 104 31 4 32
REMARK SMILES IDX 5 33 6 34 32 35 33 36 34 37 35 38 36 39 37 40 38 41 39 42
REMARK SMILES IDX 40 43 101 44 41 45 100 46 42 47 43 48 44 49 94 50 45 51
REMARK SMILES IDX 99 52 93 53 95 54 46 55 98 56 92 57 91 58 47 60 79 61 59 62
REMARK SMILES IDX 78 63 60 64 63 65 77 66 96 67 61 68 62 69 76 71 97 72 64 73
REMARK SMILES IDX 48 74 49 75 57 76 50 77 51 78 55 79 58 80 52 81 53 82 56 83
REMARK SMILES IDX 54 84 80 85 81 86 89 87 82 88 83 89 87 90 90 91 84 92 85 93
REMARK SMILES IDX 88 94 86 95 65 96 66 97 74 98 67 99 68 100 72 101 75 102
REMARK SMILES IDX 69 103 70 104 73 105 71 106
REMARK H PARENT 95 59 63 70
REMARK Flexibility Score: inf
ROOT
ATOM      1  C   UNL A   1      44.992  40.604  32.492  1.00  0.00     0.261 C 
ENDROOT
BRANCH   1   2
ATOM      2  O   UNL A   1      45.024  39.444  33.350  1.00  0.00    -0.463 OA
BRANCH   2   3
ATOM      3  C   UNL A   1      43.842  38.856  33.648  1.00  0.00     0.307 C 
ATOM      4  O   UNL A   1      42.751  39.410  33.615  1.00  0.00    -0.252 OA
BRANCH   3   5
ATOM      5  C   UNL A   1      44.017  37.410  34.062  1.00  0.00     0.144 C 
BRANCH   5   6
ATOM      6  C   UNL A   1      43.016  36.417  33.458  1.00  0.00     0.139 C 
BRANCH   6   7
ATOM      7  N   UNL A   1      42.438  35.471  34.427  1.00  0.00    -0.292 N 
ATOM      8  C   UNL A   1      39.507  34.705  36.331  1.00  0.00     0.041 C 
ATOM      9  C   UNL A   1      40.775  34.699  35.900  1.00  0.00     0.081 C 
ATOM     10  S   UNL A   1      41.977  33.490  36.029  1.00  0.00    -0.054 SA
ATOM     11  C   UNL A   1      41.284  35.814  35.090  1.00  0.00     0.266 C 
ATOM     12  C   UNL A   1      43.009  34.282  34.833  1.00  0.00     0.148 C 
ATOM     13  O   UNL A   1      40.743  36.908  35.081  1.00  0.00    -0.268 OA
ATOM     14  S   UNL A   1      44.445  33.603  34.325  1.00  0.00    -0.052 S 
BRANCH   8  15
ATOM     15  C   UNL A   1      38.864  33.666  37.112  1.00  0.00     0.104 A 
ATOM     16  C   UNL A   1      38.456  32.474  36.627  1.00  0.00     0.234 A 
ATOM     17  N   UNL A   1      37.772  31.559  37.383  1.00  0.00    -0.194 NA
ATOM     18  C   UNL A   1      37.420  31.869  38.587  1.00  0.00     0.143 A 
ATOM     19  C   UNL A   1      38.505  33.993  38.528  1.00  0.00     0.269 A 
ATOM     20  C   UNL A   1      36.607  30.900  39.374  1.00  0.00     0.048 A 
ATOM     21  N   UNL A   1      37.752  33.057  39.209  1.00  0.00    -0.267 N 
ATOM     22  O   UNL A   1      38.820  35.088  39.005  1.00  0.00    -0.268 OA
ATOM     23  C   UNL A   1      36.226  31.203  40.620  1.00  0.00     0.005 A 
ATOM     24  C   UNL A   1      37.336  33.330  40.508  1.00  0.00     0.096 A 
ATOM     25  C   UNL A   1      36.604  32.459  41.211  1.00  0.00     0.019 A 
BRANCH  16  26
ATOM     26  O   UNL A   1      38.518  32.117  35.276  1.00  0.00    -0.438 OA
BRANCH  26  27
ATOM     27  C   UNL A   1      37.842  32.777  34.282  1.00  0.00     0.130 A 
ATOM     28  C   UNL A   1      34.405  34.049  33.335  1.00  0.00     0.044 C 
ATOM     29  C   UNL A   1      35.870  33.745  33.276  1.00  0.00    -0.047 A 
ATOM     30  C   UNL A   1      36.610  34.037  32.124  1.00  0.00     0.007 A 
ATOM     31  C   UNL A   1      36.513  33.172  34.376  1.00  0.00     0.050 A 
ATOM     32  C   UNL A   1      37.979  33.746  32.058  1.00  0.00    -0.047 A 
ATOM     33  C   UNL A   1      38.775  34.173  30.858  1.00  0.00     0.044 C 
ATOM     34  C   UNL A   1      38.583  33.091  33.138  1.00  0.00     0.050 A 
ENDBRANCH  26  27
ENDBRANCH  16  26
ENDBRANCH   8  15
ENDBRANCH   6   7
ENDBRANCH   5   6
ENDBRANCH   3   5
ENDBRANCH   2   3
ENDBRANCH   1   2
BRANCH   1  35
ATOM     35  C   UNL A   1      45.345  40.304  31.025  1.00  0.00     0.202 C 
BRANCH  35  36
ATOM     36  O   UNL A   1      46.701  40.548  30.642  1.00  0.00    -0.374 OA
BRANCH  36  37
ATOM     37  C   UNL A   1      47.550  39.405  30.595  1.00  0.00     0.202 C 
BRANCH  37  38
ATOM     38  C   UNL A   1      46.858  38.032  30.664  1.00  0.00     0.261 C 
BRANCH  38  39
ATOM     39  O   UNL A   1      47.510  37.024  29.868  1.00  0.00    -0.460 OA
BRANCH  39  40
ATOM     40  C   UNL A   1      46.968  36.810  28.648  1.00  0.00     0.338 C 
ATOM     41  O   UNL A   1      47.170  37.462  27.636  1.00  0.00    -0.246 OA
BRANCH  40  42
ATOM     42  C   UNL A   1      46.182  35.553  28.635  1.00  0.00     0.060 A 
ATOM     43  C   UNL A   1      46.550  34.550  29.542  1.00  0.00     0.016 A 
ATOM     44  C   UNL A   1      45.146  35.316  27.735  1.00  0.00     0.016 A 
ATOM     45  C   UNL A   1      45.923  33.298  29.524  1.00  0.00     0.010 A 
ATOM     46  C   UNL A   1      44.516  34.061  27.726  1.00  0.00     0.010 A 
ATOM     47  C   UNL A   1      44.908  33.023  28.601  1.00  0.00    -0.014 A 
BRANCH  47  48
ATOM     48  C   UNL A   1      44.344  31.642  28.443  1.00  0.00     0.031 A 
ATOM     49  C   UNL A   1      45.063  30.655  27.553  1.00  0.00     0.074 A 
ATOM     50  C   UNL A   1      43.219  31.230  29.068  1.00  0.00     0.049 A 
ATOM     51  N   UNL A   1      44.707  29.448  27.181  1.00  0.00    -0.248 NA
ATOM     52  C   UNL A   1      46.363  31.083  27.011  1.00  0.00     0.031 C 
ATOM     53  C   UNL A   1      42.432  32.010  30.019  1.00  0.00     0.029 A 
ATOM     54  N   UNL A   1      42.505  30.056  28.945  1.00  0.00    -0.354 N 
ATOM     55  C   UNL A   1      45.752  28.969  26.403  1.00  0.00     0.074 A 
ATOM     56  C   UNL A   1      46.696  30.053  26.249  1.00  0.00     0.031 C 
ATOM     57  C   UNL A   1      41.301  31.344  30.315  1.00  0.00     0.029 A 
ATOM     58  C   UNL A   1      41.281  30.085  29.579  1.00  0.00     0.049 A 
ATOM     59  H   UNL A   1      42.838  29.270  28.453  1.00  0.00     0.167 HD
ATOM     60  C   UNL A   1      45.956  27.721  25.920  1.00  0.00     0.037 A 
ATOM     61  C   UNL A   1      40.248  29.220  29.549  1.00  0.00     0.037 A 
ATOM     62  C   UNL A   1      45.044  26.621  26.080  1.00  0.00     0.049 A 
ATOM     63  C   UNL A   1      40.404  27.899  28.842  1.00  0.00     0.074 A 
ATOM     64  C   UNL A   1      45.194  25.309  25.666  1.00  0.00     0.029 A 
ATOM     65  N   UNL A   1      43.807  26.706  26.700  1.00  0.00    -0.354 N 
ATOM     66  N   UNL A   1      41.423  27.440  28.159  1.00  0.00    -0.248 NA
ATOM     67  C   UNL A   1      39.284  26.950  28.951  1.00  0.00     0.031 C 
ATOM     68  C   UNL A   1      44.025  24.612  25.985  1.00  0.00     0.029 A 
ATOM     69  C   UNL A   1      43.172  25.474  26.652  1.00  0.00     0.049 A 
ATOM     70  H   UNL A   1      43.436  27.518  27.112  1.00  0.00     0.167 HD
ATOM     71  C   UNL A   1      41.108  26.124  27.845  1.00  0.00     0.074 A 
ATOM     72  C   UNL A   1      39.789  25.868  28.377  1.00  0.00     0.031 C 
ATOM     73  C   UNL A   1      41.870  25.204  27.204  1.00  0.00     0.037 A 
BRANCH  60  74
ATOM     74  C   UNL A   1      47.251  27.464  25.205  1.00  0.00     0.064 A 
ATOM     75  C   UNL A   1      47.394  27.743  23.835  1.00  0.00     0.173 A 
ATOM     76  C   UNL A   1      48.369  26.974  25.895  1.00  0.00     0.173 A 
ATOM     77  F   UNL A   1      46.352  28.205  23.128  1.00  0.00    -0.203 F 
ATOM     78  C   UNL A   1      48.599  27.512  23.179  1.00  0.00     0.198 A 
ATOM     79  C   UNL A   1      49.582  26.777  25.242  1.00  0.00     0.198 A 
ATOM     80  F   UNL A   1      48.288  26.699  27.206  1.00  0.00    -0.203 F 
ATOM     81  F   UNL A   1      48.695  27.735  21.861  1.00  0.00    -0.200 F 
ATOM     82  C   UNL A   1      49.694  27.037  23.883  1.00  0.00     0.200 A 
ATOM     83  F   UNL A   1      50.645  26.334  25.927  1.00  0.00    -0.200 F 
ATOM     84  F   UNL A   1      50.857  26.824  23.253  1.00  0.00    -0.200 F 
ENDBRANCH  60  74
BRANCH  61  85
ATOM     85  C   UNL A   1      38.960  29.542  30.226  1.00  0.00     0.064 A 
ATOM     86  C   UNL A   1      37.971  30.298  29.581  1.00  0.00     0.173 A 
ATOM     87  C   UNL A   1      38.734  29.188  31.564  1.00  0.00     0.173 A 
ATOM     88  F   UNL A   1      38.161  30.707  28.318  1.00  0.00    -0.203 F 
ATOM     89  C   UNL A   1      36.823  30.711  30.257  1.00  0.00     0.198 A 
ATOM     90  C   UNL A   1      37.571  29.573  32.230  1.00  0.00     0.198 A 
ATOM     91  F   UNL A   1      39.668  28.518  32.250  1.00  0.00    -0.203 F 
ATOM     92  F   UNL A   1      35.935  31.502  29.640  1.00  0.00    -0.200 F 
ATOM     93  C   UNL A   1      36.622  30.344  31.579  1.00  0.00     0.200 A 
ATOM     94  F   UNL A   1      37.388  29.229  33.512  1.00  0.00    -0.200 F 
ATOM     95  F   UNL A   1      35.529  30.761  32.234  1.00  0.00    -0.200 F 
ENDBRANCH  61  85
BRANCH  73  96
ATOM     96  C   UNL A   1      41.346  23.798  27.118  1.00  0.00     0.064 A 
ATOM     97  C   UNL A   1      40.203  23.470  26.376  1.00  0.00     0.173 A 
ATOM     98  C   UNL A   1      42.029  22.753  27.763  1.00  0.00     0.173 A 
ATOM     99  F   UNL A   1      39.505  24.430  25.751  1.00  0.00    -0.203 F 
ATOM    100  C   UNL A   1      39.745  22.155  26.308  1.00  0.00     0.198 A 
ATOM    101  C   UNL A   1      41.590  21.436  27.664  1.00  0.00     0.198 A 
ATOM    102  F   UNL A   1      43.132  23.008  28.483  1.00  0.00    -0.203 F 
ATOM    103  F   UNL A   1      38.619  21.875  25.638  1.00  0.00    -0.200 F 
ATOM    104  C   UNL A   1      40.444  21.139  26.943  1.00  0.00     0.200 A 
ATOM    105  F   UNL A   1      42.278  20.455  28.263  1.00  0.00    -0.200 F 
ATOM    106  F   UNL A   1      40.008  19.875  26.867  1.00  0.00    -0.200 F 
ENDBRANCH  73  96
ENDBRANCH  47  48
ENDBRANCH  40  42
ENDBRANCH  39  40
ENDBRANCH  38  39
ENDBRANCH  37  38
ENDBRANCH  36  37
ENDBRANCH  35  36
ENDBRANCH   1  35
TORSDOF 19
ENDMDL
