MODEL 1
REMARK VINA RESULT:     -11.9      0.000      0.000
REMARK SMILES C[C@@H]1CN(S(=O)(=O)c2ccc(Cl)c(C(=O)OCCOCCOC(=O)c3ccc(-c4c5nc(c(-c6c(F)c(F)c(F)c(F)c6F)c6ccc([nH]6)c(-c6c(F)c(F)c(F)c(F)c6F)c6nc(c(-c7c(F)c(F)c(F)c(F)c7F)c7ccc4[nH]7)C=C6)C=C5)cc3)c2Cl)C[C@H]1C
REMARK SMILES IDX 19 1 18 2 17 3 16 4 14 5 15 6 13 7 8 8 9 9 88 10 10 11 89 12
REMARK SMILES IDX 11 13 12 14 5 15 6 16 7 17 4 18 1 19 2 20 3 21 91 22 90 23
REMARK SMILES IDX 92 24 20 25 21 26 22 27 23 28 24 29 25 30 26 31 87 32 27 33
REMARK SMILES IDX 86 34 28 35 29 36 30 37 80 38 31 39 85 40 79 41 81 42 32 43
REMARK SMILES IDX 84 44 78 45 77 46 33 48 65 49 45 50 64 51 46 52 49 53 63 54
REMARK SMILES IDX 82 55 47 56 48 57 62 59 83 60 50 61 34 62 35 63 43 64 36 65
REMARK SMILES IDX 37 66 41 67 44 68 38 69 39 70 42 71 40 72 66 73 67 74 75 75
REMARK SMILES IDX 68 76 69 77 73 78 76 79 70 80 71 81 74 82 72 83 51 84 52 85
REMARK SMILES IDX 60 86 53 87 54 88 58 89 61 90 55 91 56 92 59 93 57 94
REMARK H PARENT 81 47 49 58
REMARK Flexibility Score: inf
ROOT
ATOM      1  O   UNL A   1      30.372  29.149  24.115  1.00  0.00    -0.374 OA
ENDROOT
BRANCH   1   2
ATOM      2  C   UNL A   1      30.275  27.886  23.457  1.00  0.00     0.202 C 
BRANCH   2   3
ATOM      3  C   UNL A   1      29.695  26.729  24.274  1.00  0.00     0.261 C 
BRANCH   3   4
ATOM      4  O   UNL A   1      30.628  25.639  24.319  1.00  0.00    -0.460 OA
BRANCH   4   5
ATOM      5  C   UNL A   1      31.600  25.730  25.259  1.00  0.00     0.341 C 
ATOM      6  O   UNL A   1      31.564  26.364  26.296  1.00  0.00    -0.246 OA
BRANCH   5   7
ATOM      7  C   UNL A   1      32.714  24.845  24.860  1.00  0.00     0.098 A 
ATOM      8  C   UNL A   1      33.991  22.792  25.126  1.00  0.00     0.102 A 
ATOM      9  C   UNL A   1      34.811  23.197  24.057  1.00  0.00     0.025 A 
ATOM     10  C   UNL A   1      32.911  23.602  25.516  1.00  0.00     0.077 A 
ATOM     11  C   UNL A   1      34.615  24.423  23.427  1.00  0.00     0.023 A 
ATOM     12  Cl  UNL A   1      31.783  23.120  26.738  1.00  0.00    -0.082 Cl
ATOM     13  C   UNL A   1      33.576  25.256  23.832  1.00  0.00     0.057 A 
ATOM     14  Cl  UNL A   1      33.437  26.781  23.030  1.00  0.00    -0.083 Cl
BRANCH   8  15
ATOM     15  S   UNL A   1      34.388  21.202  25.850  1.00  0.00     0.244 S 
ATOM     16  O   UNL A   1      34.344  21.366  27.288  1.00  0.00    -0.207 OA
ATOM     17  O   UNL A   1      35.572  20.652  25.232  1.00  0.00    -0.207 OA
BRANCH  15  18
ATOM     18  N   UNL A   1      33.055  20.227  25.417  1.00  0.00    -0.197 NA
ATOM     19  C   UNL A   1      32.292  16.569  25.199  1.00  0.00     0.009 C 
ATOM     20  C   UNL A   1      32.967  17.887  24.849  1.00  0.00     0.005 C 
ATOM     21  C   UNL A   1      32.971  18.867  26.021  1.00  0.00     0.106 C 
ATOM     22  C   UNL A   1      32.259  18.683  23.756  1.00  0.00     0.005 C 
ATOM     23  C   UNL A   1      32.859  20.080  23.941  1.00  0.00     0.106 C 
ATOM     24  C   UNL A   1      32.490  18.124  22.359  1.00  0.00     0.009 C 
ENDBRANCH  15  18
ENDBRANCH   8  15
ENDBRANCH   5   7
ENDBRANCH   4   5
ENDBRANCH   3   4
ENDBRANCH   2   3
ENDBRANCH   1   2
BRANCH   1  25
ATOM     25  C   UNL A   1      31.605  29.478  24.755  1.00  0.00     0.202 C 
BRANCH  25  26
ATOM     26  C   UNL A   1      31.574  30.576  25.828  1.00  0.00     0.261 C 
BRANCH  26  27
ATOM     27  O   UNL A   1      32.550  30.395  26.869  1.00  0.00    -0.460 OA
BRANCH  27  28
ATOM     28  C   UNL A   1      33.218  31.525  27.214  1.00  0.00     0.338 C 
ATOM     29  O   UNL A   1      32.788  32.665  27.237  1.00  0.00    -0.246 OA
BRANCH  28  30
ATOM     30  C   UNL A   1      34.557  31.185  27.726  1.00  0.00     0.060 A 
ATOM     31  C   UNL A   1      34.804  29.848  28.065  1.00  0.00     0.016 A 
ATOM     32  C   UNL A   1      35.517  32.168  27.965  1.00  0.00     0.016 A 
ATOM     33  C   UNL A   1      36.005  29.494  28.678  1.00  0.00     0.010 A 
ATOM     34  C   UNL A   1      36.719  31.813  28.587  1.00  0.00     0.010 A 
ATOM     35  C   UNL A   1      36.956  30.480  28.973  1.00  0.00    -0.014 A 
BRANCH  35  36
ATOM     36  C   UNL A   1      38.143  30.136  29.794  1.00  0.00     0.031 A 
ATOM     37  C   UNL A   1      39.163  29.176  29.248  1.00  0.00     0.074 A 
ATOM     38  C   UNL A   1      38.318  30.688  31.008  1.00  0.00     0.049 A 
ATOM     39  N   UNL A   1      40.243  28.699  29.812  1.00  0.00    -0.248 NA
ATOM     40  C   UNL A   1      38.930  28.687  27.880  1.00  0.00     0.031 C 
ATOM     41  C   UNL A   1      37.420  31.660  31.628  1.00  0.00     0.029 A 
ATOM     42  N   UNL A   1      39.310  30.502  31.938  1.00  0.00    -0.354 N 
ATOM     43  C   UNL A   1      40.815  27.849  28.874  1.00  0.00     0.074 A 
ATOM     44  C   UNL A   1      39.945  27.849  27.717  1.00  0.00     0.031 C 
ATOM     45  C   UNL A   1      37.899  31.980  32.843  1.00  0.00     0.029 A 
ATOM     46  C   UNL A   1      39.112  31.208  33.099  1.00  0.00     0.049 A 
ATOM     47  H   UNL A   1      40.088  29.918  31.787  1.00  0.00     0.167 HD
ATOM     48  C   UNL A   1      41.966  27.142  28.966  1.00  0.00     0.037 A 
ATOM     49  C   UNL A   1      39.818  31.209  34.246  1.00  0.00     0.037 A 
ATOM     50  C   UNL A   1      42.829  27.145  30.121  1.00  0.00     0.049 A 
ATOM     51  C   UNL A   1      41.054  30.351  34.353  1.00  0.00     0.074 A 
ATOM     52  C   UNL A   1      44.027  26.477  30.305  1.00  0.00     0.029 A 
ATOM     53  N   UNL A   1      42.577  27.845  31.292  1.00  0.00    -0.354 N 
ATOM     54  N   UNL A   1      41.601  29.569  33.455  1.00  0.00    -0.248 NA
ATOM     55  C   UNL A   1      41.769  30.378  35.637  1.00  0.00     0.031 C 
ATOM     56  C   UNL A   1      44.470  26.725  31.608  1.00  0.00     0.029 A 
ATOM     57  C   UNL A   1      43.583  27.600  32.214  1.00  0.00     0.049 A 
ATOM     58  H   UNL A   1      41.801  28.430  31.444  1.00  0.00     0.167 HD
ATOM     59  C   UNL A   1      42.740  29.039  34.049  1.00  0.00     0.074 A 
ATOM     60  C   UNL A   1      42.811  29.600  35.383  1.00  0.00     0.031 C 
ATOM     61  C   UNL A   1      43.645  28.169  33.538  1.00  0.00     0.037 A 
BRANCH  48  62
ATOM     62  C   UNL A   1      42.347  26.277  27.798  1.00  0.00     0.064 A 
ATOM     63  C   UNL A   1      41.787  25.005  27.604  1.00  0.00     0.173 A 
ATOM     64  C   UNL A   1      43.262  26.741  26.841  1.00  0.00     0.173 A 
ATOM     65  F   UNL A   1      40.915  24.508  28.495  1.00  0.00    -0.203 F 
ATOM     66  C   UNL A   1      42.151  24.219  26.513  1.00  0.00     0.198 A 
ATOM     67  C   UNL A   1      43.599  25.966  25.734  1.00  0.00     0.198 A 
ATOM     68  F   UNL A   1      43.825  27.952  26.973  1.00  0.00    -0.203 F 
ATOM     69  F   UNL A   1      41.641  22.987  26.377  1.00  0.00    -0.200 F 
ATOM     70  C   UNL A   1      43.050  24.703  25.576  1.00  0.00     0.200 A 
ATOM     71  F   UNL A   1      44.458  26.442  24.821  1.00  0.00    -0.200 F 
ATOM     72  F   UNL A   1      43.395  23.948  24.523  1.00  0.00    -0.200 F 
ENDBRANCH  48  62
BRANCH  49  73
ATOM     73  C   UNL A   1      39.370  32.041  35.393  1.00  0.00     0.064 A 
ATOM     74  C   UNL A   1      38.552  31.508  36.398  1.00  0.00     0.173 A 
ATOM     75  C   UNL A   1      39.739  33.391  35.501  1.00  0.00     0.173 A 
ATOM     76  F   UNL A   1      38.151  30.230  36.328  1.00  0.00    -0.203 F 
ATOM     77  C   UNL A   1      38.102  32.297  37.455  1.00  0.00     0.198 A 
ATOM     78  C   UNL A   1      39.314  34.171  36.574  1.00  0.00     0.198 A 
ATOM     79  F   UNL A   1      40.518  33.952  34.564  1.00  0.00    -0.203 F 
ATOM     80  F   UNL A   1      37.279  31.775  38.375  1.00  0.00    -0.200 F 
ATOM     81  C   UNL A   1      38.489  33.626  37.546  1.00  0.00     0.200 A 
ATOM     82  F   UNL A   1      39.700  35.451  36.663  1.00  0.00    -0.200 F 
ATOM     83  F   UNL A   1      38.059  34.384  38.563  1.00  0.00    -0.200 F 
ENDBRANCH  49  73
BRANCH  61  84
ATOM     84  C   UNL A   1      44.817  27.799  34.404  1.00  0.00     0.064 A 
ATOM     85  C   UNL A   1      45.994  28.563  34.423  1.00  0.00     0.173 A 
ATOM     86  C   UNL A   1      44.744  26.687  35.257  1.00  0.00     0.173 A 
ATOM     87  F   UNL A   1      46.121  29.628  33.617  1.00  0.00    -0.203 F 
ATOM     88  C   UNL A   1      47.064  28.209  35.241  1.00  0.00     0.198 A 
ATOM     89  C   UNL A   1      45.803  26.357  36.099  1.00  0.00     0.198 A 
ATOM     90  F   UNL A   1      43.639  25.927  35.286  1.00  0.00    -0.203 F 
ATOM     91  F   UNL A   1      48.198  28.922  35.202  1.00  0.00    -0.200 F 
ATOM     92  C   UNL A   1      46.965  27.113  36.084  1.00  0.00     0.200 A 
ATOM     93  F   UNL A   1      45.697  25.307  36.925  1.00  0.00    -0.200 F 
ATOM     94  F   UNL A   1      47.992  26.779  36.876  1.00  0.00    -0.200 F 
ENDBRANCH  61  84
ENDBRANCH  35  36
ENDBRANCH  28  30
ENDBRANCH  27  28
ENDBRANCH  26  27
ENDBRANCH  25  26
ENDBRANCH   1  25
TORSDOF 16
ENDMDL
MODEL 2
REMARK VINA RESULT:     -11.9      2.830      8.268
REMARK SMILES C[C@@H]1CN(S(=O)(=O)c2ccc(Cl)c(C(=O)OCCOCCOC(=O)c3ccc(-c4c5nc(c(-c6c(F)c(F)c(F)c(F)c6F)c6ccc([nH]6)c(-c6c(F)c(F)c(F)c(F)c6F)c6nc(c(-c7c(F)c(F)c(F)c(F)c7F)c7ccc4[nH]7)C=C6)C=C5)cc3)c2Cl)C[C@H]1C
REMARK SMILES IDX 19 1 18 2 17 3 16 4 14 5 15 6 13 7 8 8 9 9 88 10 10 11 89 12
REMARK SMILES IDX 11 13 12 14 5 15 6 16 7 17 4 18 1 19 2 20 3 21 91 22 90 23
REMARK SMILES IDX 92 24 20 25 21 26 22 27 23 28 24 29 25 30 26 31 87 32 27 33
REMARK SMILES IDX 86 34 28 35 29 36 30 37 80 38 31 39 85 40 79 41 81 42 32 43
REMARK SMILES IDX 84 44 78 45 77 46 33 48 65 49 45 50 64 51 46 52 49 53 63 54
REMARK SMILES IDX 82 55 47 56 48 57 62 59 83 60 50 61 34 62 35 63 43 64 36 65
REMARK SMILES IDX 37 66 41 67 44 68 38 69 39 70 42 71 40 72 66 73 67 74 75 75
REMARK SMILES IDX 68 76 69 77 73 78 76 79 70 80 71 81 74 82 72 83 51 84 52 85
REMARK SMILES IDX 60 86 53 87 54 88 58 89 61 90 55 91 56 92 59 93 57 94
REMARK H PARENT 81 47 49 58
REMARK Flexibility Score: inf
ROOT
ATOM      1  O   UNL A   1      40.509  20.531  26.257  1.00  0.00    -0.374 OA
ENDROOT
BRANCH   1   2
ATOM      2  C   UNL A   1      39.405  21.424  26.107  1.00  0.00     0.202 C 
BRANCH   2   3
ATOM      3  C   UNL A   1      38.201  20.901  25.322  1.00  0.00     0.261 C 
BRANCH   3   4
ATOM      4  O   UNL A   1      37.033  21.674  25.634  1.00  0.00    -0.460 OA
BRANCH   4   5
ATOM      5  C   UNL A   1      36.251  22.018  24.582  1.00  0.00     0.341 C 
ATOM      6  O   UNL A   1      36.615  22.309  23.458  1.00  0.00    -0.246 OA
BRANCH   5   7
ATOM      7  C   UNL A   1      34.837  21.898  24.995  1.00  0.00     0.098 A 
ATOM      8  C   UNL A   1      32.764  22.903  25.776  1.00  0.00     0.102 A 
ATOM      9  C   UNL A   1      32.167  21.629  25.739  1.00  0.00     0.025 A 
ATOM     10  C   UNL A   1      34.102  23.052  25.371  1.00  0.00     0.077 A 
ATOM     11  C   UNL A   1      32.901  20.502  25.379  1.00  0.00     0.023 A 
ATOM     12  Cl  UNL A   1      34.873  24.599  25.269  1.00  0.00    -0.082 Cl
ATOM     13  C   UNL A   1      34.239  20.630  25.017  1.00  0.00     0.057 A 
ATOM     14  Cl  UNL A   1      35.088  19.173  24.633  1.00  0.00    -0.083 Cl
BRANCH   8  15
ATOM     15  S   UNL A   1      31.697  24.247  26.287  1.00  0.00     0.244 S 
ATOM     16  O   UNL A   1      32.552  25.368  26.617  1.00  0.00    -0.207 OA
ATOM     17  O   UNL A   1      30.731  23.779  27.255  1.00  0.00    -0.207 OA
BRANCH  15  18
ATOM     18  N   UNL A   1      30.865  24.657  24.855  1.00  0.00    -0.197 NA
ATOM     19  C   UNL A   1      31.709  26.147  21.525  1.00  0.00     0.009 C 
ATOM     20  C   UNL A   1      31.527  26.092  23.035  1.00  0.00     0.005 C 
ATOM     21  C   UNL A   1      31.644  24.672  23.584  1.00  0.00     0.106 C 
ATOM     22  C   UNL A   1      30.142  26.517  23.515  1.00  0.00     0.005 C 
ATOM     23  C   UNL A   1      30.107  25.946  24.934  1.00  0.00     0.106 C 
ATOM     24  C   UNL A   1      29.930  28.025  23.481  1.00  0.00     0.009 C 
ENDBRANCH  15  18
ENDBRANCH   8  15
ENDBRANCH   5   7
ENDBRANCH   4   5
ENDBRANCH   3   4
ENDBRANCH   2   3
ENDBRANCH   1   2
BRANCH   1  25
ATOM     25  C   UNL A   1      41.734  21.059  26.763  1.00  0.00     0.202 C 
BRANCH  25  26
ATOM     26  C   UNL A   1      42.780  21.527  25.740  1.00  0.00     0.261 C 
BRANCH  26  27
ATOM     27  O   UNL A   1      42.390  22.702  25.009  1.00  0.00    -0.460 OA
BRANCH  27  28
ATOM     28  C   UNL A   1      43.223  23.762  25.164  1.00  0.00     0.338 C 
ATOM     29  O   UNL A   1      44.271  23.976  24.578  1.00  0.00    -0.246 OA
BRANCH  28  30
ATOM     30  C   UNL A   1      42.616  24.756  26.066  1.00  0.00     0.060 A 
ATOM     31  C   UNL A   1      43.243  26.005  26.175  1.00  0.00     0.016 A 
ATOM     32  C   UNL A   1      41.516  24.441  26.864  1.00  0.00     0.016 A 
ATOM     33  C   UNL A   1      42.790  26.934  27.110  1.00  0.00     0.010 A 
ATOM     34  C   UNL A   1      41.068  25.371  27.807  1.00  0.00     0.010 A 
ATOM     35  C   UNL A   1      41.720  26.609  27.955  1.00  0.00    -0.014 A 
BRANCH  35  36
ATOM     36  C   UNL A   1      41.366  27.516  29.075  1.00  0.00     0.031 A 
ATOM     37  C   UNL A   1      42.170  27.467  30.345  1.00  0.00     0.074 A 
ATOM     38  C   UNL A   1      40.350  28.389  28.953  1.00  0.00     0.049 A 
ATOM     39  N   UNL A   1      42.005  28.131  31.460  1.00  0.00    -0.248 NA
ATOM     40  C   UNL A   1      43.313  26.542  30.357  1.00  0.00     0.031 C 
ATOM     41  C   UNL A   1      39.523  28.557  27.760  1.00  0.00     0.029 A 
ATOM     42  N   UNL A   1      39.836  29.291  29.851  1.00  0.00    -0.354 N 
ATOM     43  C   UNL A   1      43.016  27.699  32.309  1.00  0.00     0.074 A 
ATOM     44  C   UNL A   1      43.769  26.693  31.592  1.00  0.00     0.031 C 
ATOM     45  C   UNL A   1      38.599  29.502  28.002  1.00  0.00     0.029 A 
ATOM     46  C   UNL A   1      38.744  29.975  29.376  1.00  0.00     0.049 A 
ATOM     47  H   UNL A   1      40.214  29.434  30.748  1.00  0.00     0.167 HD
ATOM     48  C   UNL A   1      43.296  28.113  33.568  1.00  0.00     0.037 A 
ATOM     49  C   UNL A   1      37.940  30.862  29.993  1.00  0.00     0.037 A 
ATOM     50  C   UNL A   1      42.542  29.115  34.277  1.00  0.00     0.049 A 
ATOM     51  C   UNL A   1      38.224  31.248  31.422  1.00  0.00     0.074 A 
ATOM     52  C   UNL A   1      42.757  29.618  35.549  1.00  0.00     0.029 A 
ATOM     53  N   UNL A   1      41.420  29.761  33.777  1.00  0.00    -0.354 N 
ATOM     54  N   UNL A   1      39.196  30.854  32.210  1.00  0.00    -0.248 NA
ATOM     55  C   UNL A   1      37.299  32.204  32.047  1.00  0.00     0.031 C 
ATOM     56  C   UNL A   1      41.731  30.522  35.842  1.00  0.00     0.029 A 
ATOM     57  C   UNL A   1      40.914  30.634  34.728  1.00  0.00     0.049 A 
ATOM     58  H   UNL A   1      41.041  29.620  32.881  1.00  0.00     0.167 HD
ATOM     59  C   UNL A   1      39.019  31.537  33.407  1.00  0.00     0.074 A 
ATOM     60  C   UNL A   1      37.853  32.380  33.237  1.00  0.00     0.031 C 
ATOM     61  C   UNL A   1      39.756  31.473  34.544  1.00  0.00     0.037 A 
BRANCH  48  62
ATOM     62  C   UNL A   1      44.450  27.459  34.275  1.00  0.00     0.064 A 
ATOM     63  C   UNL A   1      45.742  28.002  34.241  1.00  0.00     0.173 A 
ATOM     64  C   UNL A   1      44.251  26.288  35.023  1.00  0.00     0.173 A 
ATOM     65  F   UNL A   1      45.990  29.114  33.532  1.00  0.00    -0.203 F 
ATOM     66  C   UNL A   1      46.799  27.382  34.905  1.00  0.00     0.198 A 
ATOM     67  C   UNL A   1      45.303  25.690  35.712  1.00  0.00     0.198 A 
ATOM     68  F   UNL A   1      43.034  25.728  35.094  1.00  0.00    -0.203 F 
ATOM     69  F   UNL A   1      48.036  27.892  34.816  1.00  0.00    -0.200 F 
ATOM     70  C   UNL A   1      46.577  26.231  35.645  1.00  0.00     0.200 A 
ATOM     71  F   UNL A   1      45.082  24.585  36.438  1.00  0.00    -0.200 F 
ATOM     72  F   UNL A   1      47.593  25.639  36.289  1.00  0.00    -0.200 F 
ENDBRANCH  48  62
BRANCH  49  73
ATOM     73  C   UNL A   1      36.779  31.441  29.267  1.00  0.00     0.064 A 
ATOM     74  C   UNL A   1      36.772  32.784  28.867  1.00  0.00     0.173 A 
ATOM     75  C   UNL A   1      35.645  30.668  28.973  1.00  0.00     0.173 A 
ATOM     76  F   UNL A   1      37.821  33.572  29.146  1.00  0.00    -0.203 F 
ATOM     77  C   UNL A   1      35.669  33.337  28.219  1.00  0.00     0.198 A 
ATOM     78  C   UNL A   1      34.555  31.214  28.299  1.00  0.00     0.198 A 
ATOM     79  F   UNL A   1      35.597  29.378  29.337  1.00  0.00    -0.203 F 
ATOM     80  F   UNL A   1      35.668  34.637  27.893  1.00  0.00    -0.200 F 
ATOM     81  C   UNL A   1      34.564  32.550  27.929  1.00  0.00     0.200 A 
ATOM     82  F   UNL A   1      33.496  30.446  28.010  1.00  0.00    -0.200 F 
ATOM     83  F   UNL A   1      33.505  33.081  27.304  1.00  0.00    -0.200 F 
ENDBRANCH  49  73
BRANCH  61  84
ATOM     84  C   UNL A   1      39.352  32.369  35.682  1.00  0.00     0.064 A 
ATOM     85  C   UNL A   1      39.832  33.683  35.795  1.00  0.00     0.173 A 
ATOM     86  C   UNL A   1      38.442  31.918  36.650  1.00  0.00     0.173 A 
ATOM     87  F   UNL A   1      40.715  34.159  34.905  1.00  0.00    -0.203 F 
ATOM     88  C   UNL A   1      39.437  34.500  36.852  1.00  0.00     0.198 A 
ATOM     89  C   UNL A   1      38.023  32.749  37.685  1.00  0.00     0.198 A 
ATOM     90  F   UNL A   1      37.946  30.673  36.585  1.00  0.00    -0.203 F 
ATOM     91  F   UNL A   1      39.950  35.733  36.969  1.00  0.00    -0.200 F 
ATOM     92  C   UNL A   1      38.528  34.036  37.790  1.00  0.00     0.200 A 
ATOM     93  F   UNL A   1      37.131  32.304  38.581  1.00  0.00    -0.200 F 
ATOM     94  F   UNL A   1      38.143  34.827  38.801  1.00  0.00    -0.200 F 
ENDBRANCH  61  84
ENDBRANCH  35  36
ENDBRANCH  28  30
ENDBRANCH  27  28
ENDBRANCH  26  27
ENDBRANCH  25  26
ENDBRANCH   1  25
TORSDOF 16
ENDMDL
MODEL 3
REMARK VINA RESULT:     -11.8      3.481      8.879
REMARK SMILES C[C@@H]1CN(S(=O)(=O)c2ccc(Cl)c(C(=O)OCCOCCOC(=O)c3ccc(-c4c5nc(c(-c6c(F)c(F)c(F)c(F)c6F)c6ccc([nH]6)c(-c6c(F)c(F)c(F)c(F)c6F)c6nc(c(-c7c(F)c(F)c(F)c(F)c7F)c7ccc4[nH]7)C=C6)C=C5)cc3)c2Cl)C[C@H]1C
REMARK SMILES IDX 19 1 18 2 17 3 16 4 14 5 15 6 13 7 8 8 9 9 88 10 10 11 89 12
REMARK SMILES IDX 11 13 12 14 5 15 6 16 7 17 4 18 1 19 2 20 3 21 91 22 90 23
REMARK SMILES IDX 92 24 20 25 21 26 22 27 23 28 24 29 25 30 26 31 87 32 27 33
REMARK SMILES IDX 86 34 28 35 29 36 30 37 80 38 31 39 85 40 79 41 81 42 32 43
REMARK SMILES IDX 84 44 78 45 77 46 33 48 65 49 45 50 64 51 46 52 49 53 63 54
REMARK SMILES IDX 82 55 47 56 48 57 62 59 83 60 50 61 34 62 35 63 43 64 36 65
REMARK SMILES IDX 37 66 41 67 44 68 38 69 39 70 42 71 40 72 66 73 67 74 75 75
REMARK SMILES IDX 68 76 69 77 73 78 76 79 70 80 71 81 74 82 72 83 51 84 52 85
REMARK SMILES IDX 60 86 53 87 54 88 58 89 61 90 55 91 56 92 59 93 57 94
REMARK H PARENT 81 47 49 58
REMARK Flexibility Score: inf
ROOT
ATOM      1  O   UNL A   1      44.986  20.521  24.755  1.00  0.00    -0.374 OA
ENDROOT
BRANCH   1   2
ATOM      2  C   UNL A   1      43.778  19.913  25.214  1.00  0.00     0.202 C 
BRANCH   2   3
ATOM      3  C   UNL A   1      42.904  20.747  26.154  1.00  0.00     0.261 C 
BRANCH   3   4
ATOM      4  O   UNL A   1      41.543  20.737  25.701  1.00  0.00    -0.460 OA
BRANCH   4   5
ATOM      5  C   UNL A   1      40.598  20.642  26.668  1.00  0.00     0.341 C 
ATOM      6  O   UNL A   1      40.501  19.781  27.521  1.00  0.00    -0.246 OA
BRANCH   5   7
ATOM      7  C   UNL A   1      39.722  21.830  26.580  1.00  0.00     0.098 A 
ATOM      8  C   UNL A   1      37.769  22.961  25.675  1.00  0.00     0.102 A 
ATOM      9  C   UNL A   1      38.085  24.080  26.468  1.00  0.00     0.025 A 
ATOM     10  C   UNL A   1      38.571  21.810  25.750  1.00  0.00     0.077 A 
ATOM     11  C   UNL A   1      39.223  24.092  27.270  1.00  0.00     0.023 A 
ATOM     12  Cl  UNL A   1      38.182  20.351  24.903  1.00  0.00    -0.082 Cl
ATOM     13  C   UNL A   1      40.051  22.974  27.321  1.00  0.00     0.057 A 
ATOM     14  Cl  UNL A   1      41.468  23.095  28.304  1.00  0.00    -0.083 Cl
BRANCH   8  15
ATOM     15  S   UNL A   1      36.289  23.111  24.676  1.00  0.00     0.244 S 
ATOM     16  O   UNL A   1      36.603  22.572  23.368  1.00  0.00    -0.207 OA
ATOM     17  O   UNL A   1      35.744  24.444  24.785  1.00  0.00    -0.207 OA
BRANCH  15  18
ATOM     18  N   UNL A   1      35.201  22.024  25.416  1.00  0.00    -0.197 NA
ATOM     19  C   UNL A   1      32.621  19.548  24.309  1.00  0.00     0.009 C 
ATOM     20  C   UNL A   1      33.265  20.913  24.510  1.00  0.00     0.005 C 
ATOM     21  C   UNL A   1      34.785  20.825  24.635  1.00  0.00     0.106 C 
ATOM     22  C   UNL A   1      32.867  21.607  25.809  1.00  0.00     0.005 C 
ATOM     23  C   UNL A   1      33.961  22.669  25.950  1.00  0.00     0.106 C 
ATOM     24  C   UNL A   1      31.468  22.205  25.768  1.00  0.00     0.009 C 
ENDBRANCH  15  18
ENDBRANCH   8  15
ENDBRANCH   5   7
ENDBRANCH   4   5
ENDBRANCH   3   4
ENDBRANCH   2   3
ENDBRANCH   1   2
BRANCH   1  25
ATOM     25  C   UNL A   1      45.400  21.739  25.374  1.00  0.00     0.202 C 
BRANCH  25  26
ATOM     26  C   UNL A   1      45.725  22.926  24.455  1.00  0.00     0.261 C 
BRANCH  26  27
ATOM     27  O   UNL A   1      44.834  24.043  24.616  1.00  0.00    -0.460 OA
BRANCH  27  28
ATOM     28  C   UNL A   1      45.441  25.191  25.011  1.00  0.00     0.338 C 
ATOM     29  O   UNL A   1      46.490  25.658  24.599  1.00  0.00    -0.246 OA
BRANCH  28  30
ATOM     30  C   UNL A   1      44.571  25.929  25.944  1.00  0.00     0.060 A 
ATOM     31  C   UNL A   1      44.745  27.316  26.037  1.00  0.00     0.016 A 
ATOM     32  C   UNL A   1      43.673  25.266  26.781  1.00  0.00     0.016 A 
ATOM     33  C   UNL A   1      44.043  28.044  26.996  1.00  0.00     0.010 A 
ATOM     34  C   UNL A   1      42.976  25.997  27.749  1.00  0.00     0.010 A 
ATOM     35  C   UNL A   1      43.179  27.383  27.880  1.00  0.00    -0.014 A 
BRANCH  35  36
ATOM     36  C   UNL A   1      42.585  28.125  29.020  1.00  0.00     0.031 A 
ATOM     37  C   UNL A   1      43.327  28.187  30.326  1.00  0.00     0.074 A 
ATOM     38  C   UNL A   1      41.403  28.754  28.885  1.00  0.00     0.049 A 
ATOM     39  N   UNL A   1      42.972  28.734  31.460  1.00  0.00    -0.248 NA
ATOM     40  C   UNL A   1      44.649  27.541  30.355  1.00  0.00     0.031 C 
ATOM     41  C   UNL A   1      40.609  28.799  27.660  1.00  0.00     0.029 A 
ATOM     42  N   UNL A   1      40.664  29.467  29.795  1.00  0.00    -0.354 N 
ATOM     43  C   UNL A   1      44.020  28.492  32.340  1.00  0.00     0.074 A 
ATOM     44  C   UNL A   1      45.009  27.721  31.618  1.00  0.00     0.031 C 
ATOM     45  C   UNL A   1      39.486  29.498  27.896  1.00  0.00     0.029 A 
ATOM     46  C   UNL A   1      39.466  29.915  29.296  1.00  0.00     0.049 A 
ATOM     47  H   UNL A   1      40.964  29.641  30.716  1.00  0.00     0.167 HD
ATOM     48  C   UNL A   1      44.148  28.888  33.629  1.00  0.00     0.037 A 
ATOM     49  C   UNL A   1      38.458  30.565  29.909  1.00  0.00     0.037 A 
ATOM     50  C   UNL A   1      43.160  29.656  34.343  1.00  0.00     0.049 A 
ATOM     51  C   UNL A   1      38.590  30.925  31.368  1.00  0.00     0.074 A 
ATOM     52  C   UNL A   1      43.204  30.122  35.645  1.00  0.00     0.029 A 
ATOM     53  N   UNL A   1      41.942  30.061  33.815  1.00  0.00    -0.354 N 
ATOM     54  N   UNL A   1      39.593  30.715  32.186  1.00  0.00    -0.248 NA
ATOM     55  C   UNL A   1      37.449  31.614  31.986  1.00  0.00     0.031 C 
ATOM     56  C   UNL A   1      41.990  30.757  35.925  1.00  0.00     0.029 A 
ATOM     57  C   UNL A   1      41.214  30.745  34.777  1.00  0.00     0.049 A 
ATOM     58  H   UNL A   1      41.641  29.889  32.895  1.00  0.00     0.167 HD
ATOM     59  C   UNL A   1      39.219  31.274  33.402  1.00  0.00     0.074 A 
ATOM     60  C   UNL A   1      37.901  31.843  33.210  1.00  0.00     0.031 C 
ATOM     61  C   UNL A   1      39.905  31.313  34.571  1.00  0.00     0.037 A 
BRANCH  48  62
ATOM     62  C   UNL A   1      45.390  28.470  34.364  1.00  0.00     0.064 A 
ATOM     63  C   UNL A   1      46.539  29.274  34.393  1.00  0.00     0.173 A 
ATOM     64  C   UNL A   1      45.420  27.261  35.076  1.00  0.00     0.173 A 
ATOM     65  F   UNL A   1      46.569  30.435  33.720  1.00  0.00    -0.203 F 
ATOM     66  C   UNL A   1      47.681  28.870  35.082  1.00  0.00     0.198 A 
ATOM     67  C   UNL A   1      46.551  26.876  35.791  1.00  0.00     0.198 A 
ATOM     68  F   UNL A   1      44.347  26.454  35.087  1.00  0.00    -0.203 F 
ATOM     69  F   UNL A   1      48.784  29.631  35.053  1.00  0.00    -0.200 F 
ATOM     70  C   UNL A   1      47.683  27.676  35.786  1.00  0.00     0.200 A 
ATOM     71  F   UNL A   1      46.546  25.727  36.482  1.00  0.00    -0.200 F 
ATOM     72  F   UNL A   1      48.780  27.291  36.454  1.00  0.00    -0.200 F 
ENDBRANCH  48  62
BRANCH  49  73
ATOM     73  C   UNL A   1      37.226  30.909  29.152  1.00  0.00     0.064 A 
ATOM     74  C   UNL A   1      36.276  29.931  28.830  1.00  0.00     0.173 A 
ATOM     75  C   UNL A   1      36.980  32.222  28.720  1.00  0.00     0.173 A 
ATOM     76  F   UNL A   1      36.477  28.656  29.198  1.00  0.00    -0.203 F 
ATOM     77  C   UNL A   1      35.139  30.245  28.089  1.00  0.00     0.198 A 
ATOM     78  C   UNL A   1      35.828  32.542  28.006  1.00  0.00     0.198 A 
ATOM     79  F   UNL A   1      37.858  33.197  28.998  1.00  0.00    -0.203 F 
ATOM     80  F   UNL A   1      34.273  29.280  27.752  1.00  0.00    -0.200 F 
ATOM     81  C   UNL A   1      34.912  31.552  27.683  1.00  0.00     0.200 A 
ATOM     82  F   UNL A   1      35.607  33.808  27.627  1.00  0.00    -0.200 F 
ATOM     83  F   UNL A   1      33.817  31.855  26.973  1.00  0.00    -0.200 F 
ENDBRANCH  49  73
BRANCH  61  84
ATOM     84  C   UNL A   1      39.264  32.032  35.726  1.00  0.00     0.064 A 
ATOM     85  C   UNL A   1      38.418  31.373  36.630  1.00  0.00     0.173 A 
ATOM     86  C   UNL A   1      39.535  33.390  35.952  1.00  0.00     0.173 A 
ATOM     87  F   UNL A   1      38.116  30.078  36.452  1.00  0.00    -0.203 F 
ATOM     88  C   UNL A   1      37.843  32.055  37.699  1.00  0.00     0.198 A 
ATOM     89  C   UNL A   1      38.985  34.060  37.042  1.00  0.00     0.198 A 
ATOM     90  F   UNL A   1      40.344  34.067  35.124  1.00  0.00    -0.203 F 
ATOM     91  F   UNL A   1      36.995  31.417  38.518  1.00  0.00    -0.200 F 
ATOM     92  C   UNL A   1      38.133  33.394  37.910  1.00  0.00     0.200 A 
ATOM     93  F   UNL A   1      39.281  35.350  37.253  1.00  0.00    -0.200 F 
ATOM     94  F   UNL A   1      37.586  34.046  38.944  1.00  0.00    -0.200 F 
ENDBRANCH  61  84
ENDBRANCH  35  36
ENDBRANCH  28  30
ENDBRANCH  27  28
ENDBRANCH  26  27
ENDBRANCH  25  26
ENDBRANCH   1  25
TORSDOF 16
ENDMDL
