MODEL 1
REMARK VINA RESULT:     -10.9      0.000      0.000
REMARK SMILES CCc1c([N+](=O)[O-])cc(C(=O)OCCOCCOC(=O)c2ccc(-c3c4nc(c(-c5c(F)c(F)c(F)c(F)c5F)c5ccc([nH]5)c(-c5c(F)c(F)c(F)c(F)c5F)c5nc(c(-c6c(F)c(F)c(F)c(F)c6F)c6ccc3[nH]6)C=C5)C=C4)cc2)n1C
REMARK SMILES IDX 16 1 15 2 14 3 13 4 12 5 10 6 11 7 9 8 3 9 4 10 84 11 8 12
REMARK SMILES IDX 85 13 2 14 1 15 5 16 6 17 7 18 17 19 18 20 19 21 20 22 21 23
REMARK SMILES IDX 22 24 83 25 23 26 82 27 24 28 25 29 26 30 76 31 27 32 81 33
REMARK SMILES IDX 75 34 77 35 28 36 80 37 74 38 73 39 29 41 61 42 41 43 60 44
REMARK SMILES IDX 42 45 45 46 59 47 78 48 43 49 44 50 58 52 79 53 46 54 30 55
REMARK SMILES IDX 31 56 39 57 32 58 33 59 37 60 40 61 34 62 35 63 38 64 36 65
REMARK SMILES IDX 62 66 63 67 71 68 64 69 65 70 69 71 72 72 66 73 67 74 70 75
REMARK SMILES IDX 68 76 47 77 48 78 56 79 49 80 50 81 54 82 57 83 51 84 52 85
REMARK SMILES IDX 55 86 53 87
REMARK H PARENT 77 40 45 51
REMARK Flexibility Score: inf
ROOT
ATOM      1  C   UNL A   1      37.769  19.908  24.921  1.00  0.00     0.202 C 
ENDROOT
BRANCH   1   2
ATOM      2  O   UNL A   1      37.324  21.225  25.257  1.00  0.00    -0.374 OA
BRANCH   2   3
ATOM      3  C   UNL A   1      36.042  21.609  24.754  1.00  0.00     0.202 C 
BRANCH   3   4
ATOM      4  C   UNL A   1      34.872  21.001  25.531  1.00  0.00     0.261 C 
BRANCH   4   5
ATOM      5  O   UNL A   1      34.151  20.097  24.673  1.00  0.00    -0.459 OA
BRANCH   5   6
ATOM      6  C   UNL A   1      32.819  19.996  24.905  1.00  0.00     0.355 C 
ATOM      7  O   UNL A   1      32.249  18.963  25.229  1.00  0.00    -0.244 OA
BRANCH   6   8
ATOM      8  C   UNL A   1      32.171  21.298  24.867  1.00  0.00     0.134 A 
ATOM      9  C   UNL A   1      31.155  23.248  24.250  1.00  0.00     0.096 A 
ATOM     10  C   UNL A   1      31.099  23.157  25.644  1.00  0.00     0.291 A 
ATOM     11  N   UNL A   1      31.959  22.189  23.819  1.00  0.00    -0.336 N 
ATOM     12  C   UNL A   1      31.674  21.919  26.003  1.00  0.00     0.121 A 
ATOM     13  C   UNL A   1      32.489  22.057  22.476  1.00  0.00     0.150 C 
BRANCH   9  14
ATOM     14  C   UNL A   1      30.538  24.309  23.365  1.00  0.00     0.058 C 
ATOM     15  C   UNL A   1      31.446  25.438  22.902  1.00  0.00     0.011 C 
ENDBRANCH   9  14
BRANCH  10  16
ATOM     16  N   UNL A   1      30.549  24.113  26.588  1.00  0.00     0.064 N 
ATOM     17  O   UNL A   1      31.068  25.233  26.655  1.00  0.00    -0.258 OA
ATOM     18  O   UNL A   1      29.612  23.714  27.293  1.00  0.00    -0.258 OA
ENDBRANCH  10  16
ENDBRANCH   6   8
ENDBRANCH   5   6
ENDBRANCH   4   5
ENDBRANCH   3   4
ENDBRANCH   2   3
ENDBRANCH   1   2
BRANCH   1  19
ATOM     19  C   UNL A   1      39.056  19.482  25.634  1.00  0.00     0.261 C 
BRANCH  19  20
ATOM     20  O   UNL A   1      39.929  20.612  25.820  1.00  0.00    -0.460 OA
BRANCH  20  21
ATOM     21  C   UNL A   1      40.649  20.597  26.968  1.00  0.00     0.338 C 
ATOM     22  O   UNL A   1      41.130  19.628  27.529  1.00  0.00    -0.246 OA
BRANCH  21  23
ATOM     23  C   UNL A   1      40.936  21.983  27.390  1.00  0.00     0.060 A 
ATOM     24  C   UNL A   1      40.301  23.013  26.684  1.00  0.00     0.016 A 
ATOM     25  C   UNL A   1      41.834  22.278  28.419  1.00  0.00     0.016 A 
ATOM     26  C   UNL A   1      40.597  24.343  26.974  1.00  0.00     0.010 A 
ATOM     27  C   UNL A   1      42.136  23.615  28.703  1.00  0.00     0.010 A 
ATOM     28  C   UNL A   1      41.543  24.651  27.961  1.00  0.00    -0.014 A 
BRANCH  28  29
ATOM     29  C   UNL A   1      42.003  26.051  28.116  1.00  0.00     0.031 A 
ATOM     30  C   UNL A   1      43.338  26.448  27.551  1.00  0.00     0.074 A 
ATOM     31  C   UNL A   1      41.228  26.968  28.720  1.00  0.00     0.049 A 
ATOM     32  N   UNL A   1      43.936  27.611  27.570  1.00  0.00    -0.248 NA
ATOM     33  C   UNL A   1      44.102  25.389  26.871  1.00  0.00     0.031 C 
ATOM     34  C   UNL A   1      39.901  26.715  29.278  1.00  0.00     0.029 A 
ATOM     35  N   UNL A   1      41.450  28.299  28.965  1.00  0.00    -0.354 N 
ATOM     36  C   UNL A   1      45.140  27.427  26.905  1.00  0.00     0.074 A 
ATOM     37  C   UNL A   1      45.205  26.033  26.521  1.00  0.00     0.031 C 
ATOM     38  C   UNL A   1      39.428  27.856  29.810  1.00  0.00     0.029 A 
ATOM     39  C   UNL A   1      40.429  28.911  29.649  1.00  0.00     0.049 A 
ATOM     40  H   UNL A   1      42.265  28.772  28.679  1.00  0.00     0.167 HD
ATOM     41  C   UNL A   1      46.102  28.340  26.629  1.00  0.00     0.037 A 
ATOM     42  C   UNL A   1      40.322  30.174  30.105  1.00  0.00     0.037 A 
ATOM     43  C   UNL A   1      46.041  29.726  27.008  1.00  0.00     0.049 A 
ATOM     44  C   UNL A   1      41.437  31.153  29.847  1.00  0.00     0.074 A 
ATOM     45  C   UNL A   1      46.953  30.734  26.749  1.00  0.00     0.029 A 
ATOM     46  N   UNL A   1      45.010  30.298  27.738  1.00  0.00    -0.354 N 
ATOM     47  N   UNL A   1      42.557  30.977  29.189  1.00  0.00    -0.248 NA
ATOM     48  C   UNL A   1      41.272  32.506  30.397  1.00  0.00     0.031 C 
ATOM     49  C   UNL A   1      46.494  31.907  27.359  1.00  0.00     0.029 A 
ATOM     50  C   UNL A   1      45.276  31.639  27.962  1.00  0.00     0.049 A 
ATOM     51  H   UNL A   1      44.206  29.821  28.050  1.00  0.00     0.167 HD
ATOM     52  C   UNL A   1      43.218  32.198  29.226  1.00  0.00     0.074 A 
ATOM     53  C   UNL A   1      42.368  33.111  29.962  1.00  0.00     0.031 C 
ATOM     54  C   UNL A   1      44.420  32.534  28.698  1.00  0.00     0.037 A 
BRANCH  41  55
ATOM     55  C   UNL A   1      47.316  27.861  25.893  1.00  0.00     0.064 A 
ATOM     56  C   UNL A   1      48.479  27.470  26.573  1.00  0.00     0.173 A 
ATOM     57  C   UNL A   1      47.306  27.762  24.495  1.00  0.00     0.173 A 
ATOM     58  F   UNL A   1      48.542  27.561  27.911  1.00  0.00    -0.203 F 
ATOM     59  C   UNL A   1      49.596  27.016  25.877  1.00  0.00     0.198 A 
ATOM     60  C   UNL A   1      48.417  27.287  23.803  1.00  0.00     0.198 A 
ATOM     61  F   UNL A   1      46.217  28.123  23.800  1.00  0.00    -0.203 F 
ATOM     62  F   UNL A   1      50.711  26.686  26.544  1.00  0.00    -0.200 F 
ATOM     63  C   UNL A   1      49.563  26.920  24.494  1.00  0.00     0.200 A 
ATOM     64  F   UNL A   1      48.381  27.187  22.467  1.00  0.00    -0.200 F 
ATOM     65  F   UNL A   1      50.637  26.481  23.825  1.00  0.00    -0.200 F 
ENDBRANCH  41  55
BRANCH  42  66
ATOM     66  C   UNL A   1      39.116  30.586  30.865  1.00  0.00     0.064 A 
ATOM     67  C   UNL A   1      39.044  30.418  32.255  1.00  0.00     0.173 A 
ATOM     68  C   UNL A   1      38.005  31.144  30.216  1.00  0.00     0.173 A 
ATOM     69  F   UNL A   1      40.072  29.864  32.915  1.00  0.00    -0.203 F 
ATOM     70  C   UNL A   1      37.901  30.778  32.964  1.00  0.00     0.198 A 
ATOM     71  C   UNL A   1      36.871  31.526  30.929  1.00  0.00     0.198 A 
ATOM     72  F   UNL A   1      38.025  31.323  28.886  1.00  0.00    -0.203 F 
ATOM     73  F   UNL A   1      37.842  30.570  34.287  1.00  0.00    -0.200 F 
ATOM     74  C   UNL A   1      36.818  31.337  32.302  1.00  0.00     0.200 A 
ATOM     75  F   UNL A   1      35.832  32.074  30.286  1.00  0.00    -0.200 F 
ATOM     76  F   UNL A   1      35.719  31.686  32.985  1.00  0.00    -0.200 F 
ENDBRANCH  42  66
BRANCH  54  77
ATOM     77  C   UNL A   1      44.881  33.950  28.877  1.00  0.00     0.064 A 
ATOM     78  C   UNL A   1      45.684  34.325  29.965  1.00  0.00     0.173 A 
ATOM     79  C   UNL A   1      44.555  34.931  27.930  1.00  0.00     0.173 A 
ATOM     80  F   UNL A   1      46.010  33.424  30.905  1.00  0.00    -0.203 F 
ATOM     81  C   UNL A   1      46.127  35.637  30.107  1.00  0.00     0.198 A 
ATOM     82  C   UNL A   1      45.020  36.237  28.063  1.00  0.00     0.198 A 
ATOM     83  F   UNL A   1      43.794  34.621  26.870  1.00  0.00    -0.203 F 
ATOM     84  F   UNL A   1      46.861  35.982  31.175  1.00  0.00    -0.200 F 
ATOM     85  C   UNL A   1      45.801  36.589  29.153  1.00  0.00     0.200 A 
ATOM     86  F   UNL A   1      44.713  37.154  27.135  1.00  0.00    -0.200 F 
ATOM     87  F   UNL A   1      46.234  37.850  29.288  1.00  0.00    -0.200 F 
ENDBRANCH  54  77
ENDBRANCH  28  29
ENDBRANCH  21  23
ENDBRANCH  20  21
ENDBRANCH  19  20
ENDBRANCH   1  19
TORSDOF 16
ENDMDL
MODEL 2
REMARK VINA RESULT:     -10.5      4.770      7.068
REMARK SMILES CCc1c([N+](=O)[O-])cc(C(=O)OCCOCCOC(=O)c2ccc(-c3c4nc(c(-c5c(F)c(F)c(F)c(F)c5F)c5ccc([nH]5)c(-c5c(F)c(F)c(F)c(F)c5F)c5nc(c(-c6c(F)c(F)c(F)c(F)c6F)c6ccc3[nH]6)C=C5)C=C4)cc2)n1C
REMARK SMILES IDX 16 1 15 2 14 3 13 4 12 5 10 6 11 7 9 8 3 9 4 10 84 11 8 12
REMARK SMILES IDX 85 13 2 14 1 15 5 16 6 17 7 18 17 19 18 20 19 21 20 22 21 23
REMARK SMILES IDX 22 24 83 25 23 26 82 27 24 28 25 29 26 30 76 31 27 32 81 33
REMARK SMILES IDX 75 34 77 35 28 36 80 37 74 38 73 39 29 41 61 42 41 43 60 44
REMARK SMILES IDX 42 45 45 46 59 47 78 48 43 49 44 50 58 52 79 53 46 54 30 55
REMARK SMILES IDX 31 56 39 57 32 58 33 59 37 60 40 61 34 62 35 63 38 64 36 65
REMARK SMILES IDX 62 66 63 67 71 68 64 69 65 70 69 71 72 72 66 73 67 74 70 75
REMARK SMILES IDX 68 76 47 77 48 78 56 79 49 80 50 81 54 82 57 83 51 84 52 85
REMARK SMILES IDX 55 86 53 87
REMARK H PARENT 77 40 45 51
REMARK Flexibility Score: inf
ROOT
ATOM      1  C   UNL A   1      42.404  20.793  25.923  1.00  0.00     0.202 C 
ENDROOT
BRANCH   1   2
ATOM      2  O   UNL A   1      41.088  21.162  25.502  1.00  0.00    -0.374 OA
BRANCH   2   3
ATOM      3  C   UNL A   1      40.055  21.053  26.485  1.00  0.00     0.202 C 
BRANCH   3   4
ATOM      4  C   UNL A   1      38.987  22.144  26.375  1.00  0.00     0.261 C 
BRANCH   4   5
ATOM      5  O   UNL A   1      38.426  22.126  25.049  1.00  0.00    -0.459 OA
BRANCH   5   6
ATOM      6  C   UNL A   1      37.379  21.284  24.860  1.00  0.00     0.355 C 
ATOM      7  O   UNL A   1      37.434  20.070  24.998  1.00  0.00    -0.244 OA
BRANCH   6   8
ATOM      8  C   UNL A   1      36.145  22.016  24.616  1.00  0.00     0.134 A 
ATOM      9  C   UNL A   1      34.147  23.108  24.791  1.00  0.00     0.096 A 
ATOM     10  C   UNL A   1      34.619  23.282  23.487  1.00  0.00     0.291 A 
ATOM     11  N   UNL A   1      35.012  22.196  25.403  1.00  0.00    -0.336 N 
ATOM     12  C   UNL A   1      35.882  22.656  23.414  1.00  0.00     0.121 A 
ATOM     13  C   UNL A   1      34.748  21.539  26.668  1.00  0.00     0.150 C 
BRANCH   9  14
ATOM     14  C   UNL A   1      32.913  23.716  25.420  1.00  0.00     0.058 C 
ATOM     15  C   UNL A   1      31.566  23.280  24.862  1.00  0.00     0.011 C 
ENDBRANCH   9  14
BRANCH  10  16
ATOM     16  N   UNL A   1      33.982  23.981  22.385  1.00  0.00     0.064 N 
ATOM     17  O   UNL A   1      33.488  23.308  21.474  1.00  0.00    -0.258 OA
ATOM     18  O   UNL A   1      34.020  25.219  22.423  1.00  0.00    -0.258 OA
ENDBRANCH  10  16
ENDBRANCH   6   8
ENDBRANCH   5   6
ENDBRANCH   4   5
ENDBRANCH   3   4
ENDBRANCH   2   3
ENDBRANCH   1   2
BRANCH   1  19
ATOM     19  C   UNL A   1      43.463  21.873  25.681  1.00  0.00     0.261 C 
BRANCH  19  20
ATOM     20  O   UNL A   1      42.910  22.961  24.918  1.00  0.00    -0.460 OA
BRANCH  20  21
ATOM     21  C   UNL A   1      43.595  24.127  25.003  1.00  0.00     0.338 C 
ATOM     22  O   UNL A   1      44.537  24.485  24.318  1.00  0.00    -0.246 OA
BRANCH  21  23
ATOM     23  C   UNL A   1      42.926  25.026  25.965  1.00  0.00     0.060 A 
ATOM     24  C   UNL A   1      43.528  26.267  26.209  1.00  0.00     0.016 A 
ATOM     25  C   UNL A   1      41.765  24.656  26.648  1.00  0.00     0.016 A 
ATOM     26  C   UNL A   1      42.996  27.124  27.170  1.00  0.00     0.010 A 
ATOM     27  C   UNL A   1      41.237  25.514  27.619  1.00  0.00     0.010 A 
ATOM     28  C   UNL A   1      41.868  26.737  27.905  1.00  0.00    -0.014 A 
BRANCH  28  29
ATOM     29  C   UNL A   1      41.438  27.557  29.063  1.00  0.00     0.031 A 
ATOM     30  C   UNL A   1      42.202  27.456  30.354  1.00  0.00     0.074 A 
ATOM     31  C   UNL A   1      40.404  28.409  28.957  1.00  0.00     0.049 A 
ATOM     32  N   UNL A   1      42.003  28.077  31.488  1.00  0.00    -0.248 NA
ATOM     33  C   UNL A   1      43.344  26.528  30.367  1.00  0.00     0.031 C 
ATOM     34  C   UNL A   1      39.606  28.622  27.751  1.00  0.00     0.029 A 
ATOM     35  N   UNL A   1      39.846  29.252  29.884  1.00  0.00    -0.354 N 
ATOM     36  C   UNL A   1      42.994  27.621  32.346  1.00  0.00     0.074 A 
ATOM     37  C   UNL A   1      43.774  26.647  31.614  1.00  0.00     0.031 C 
ATOM     38  C   UNL A   1      38.654  29.534  28.014  1.00  0.00     0.029 A 
ATOM     39  C   UNL A   1      38.762  29.949  29.413  1.00  0.00     0.049 A 
ATOM     40  H   UNL A   1      40.191  29.348  30.802  1.00  0.00     0.167 HD
ATOM     41  C   UNL A   1      43.238  27.990  33.626  1.00  0.00     0.037 A 
ATOM     42  C   UNL A   1      37.943  30.812  30.043  1.00  0.00     0.037 A 
ATOM     43  C   UNL A   1      42.466  28.959  34.356  1.00  0.00     0.049 A 
ATOM     44  C   UNL A   1      38.193  31.152  31.489  1.00  0.00     0.074 A 
ATOM     45  C   UNL A   1      42.654  29.418  35.648  1.00  0.00     0.029 A 
ATOM     46  N   UNL A   1      41.348  29.611  33.858  1.00  0.00    -0.354 N 
ATOM     47  N   UNL A   1      39.152  30.740  32.282  1.00  0.00    -0.248 NA
ATOM     48  C   UNL A   1      37.245  32.078  32.126  1.00  0.00     0.031 C 
ATOM     49  C   UNL A   1      41.624  30.318  35.946  1.00  0.00     0.029 A 
ATOM     50  C   UNL A   1      40.819  30.449  34.826  1.00  0.00     0.049 A 
ATOM     51  H   UNL A   1      40.985  29.497  32.949  1.00  0.00     0.167 HD
ATOM     52  C   UNL A   1      38.937  31.371  33.501  1.00  0.00     0.074 A 
ATOM     53  C   UNL A   1      37.763  32.203  33.340  1.00  0.00     0.031 C 
ATOM     54  C   UNL A   1      39.649  31.270  34.650  1.00  0.00     0.037 A 
BRANCH  41  55
ATOM     55  C   UNL A   1      44.384  27.325  34.327  1.00  0.00     0.064 A 
ATOM     56  C   UNL A   1      44.233  26.085  34.966  1.00  0.00     0.173 A 
ATOM     57  C   UNL A   1      45.654  27.919  34.334  1.00  0.00     0.173 A 
ATOM     58  F   UNL A   1      43.033  25.485  34.999  1.00  0.00    -0.203 F 
ATOM     59  C   UNL A   1      45.309  25.474  35.604  1.00  0.00     0.198 A 
ATOM     60  C   UNL A   1      46.733  27.295  34.954  1.00  0.00     0.198 A 
ATOM     61  F   UNL A   1      45.848  29.104  33.736  1.00  0.00    -0.203 F 
ATOM     62  F   UNL A   1      45.134  24.309  36.242  1.00  0.00    -0.200 F 
ATOM     63  C   UNL A   1      46.558  26.076  35.593  1.00  0.00     0.200 A 
ATOM     64  F   UNL A   1      47.941  27.874  34.936  1.00  0.00    -0.200 F 
ATOM     65  F   UNL A   1      47.593  25.486  36.205  1.00  0.00    -0.200 F 
ENDBRANCH  41  55
BRANCH  42  66
ATOM     66  C   UNL A   1      36.796  31.411  29.314  1.00  0.00     0.064 A 
ATOM     67  C   UNL A   1      36.803  32.762  28.942  1.00  0.00     0.173 A 
ATOM     68  C   UNL A   1      35.665  30.648  28.990  1.00  0.00     0.173 A 
ATOM     69  F   UNL A   1      37.852  33.537  29.254  1.00  0.00    -0.203 F 
ATOM     70  C   UNL A   1      35.714  33.330  28.283  1.00  0.00     0.198 A 
ATOM     71  C   UNL A   1      34.588  31.212  28.310  1.00  0.00     0.198 A 
ATOM     72  F   UNL A   1      35.611  29.351  29.328  1.00  0.00    -0.203 F 
ATOM     73  F   UNL A   1      35.729  34.635  27.973  1.00  0.00    -0.200 F 
ATOM     74  C   UNL A   1      34.611  32.554  27.963  1.00  0.00     0.200 A 
ATOM     75  F   UNL A   1      33.528  30.455  27.995  1.00  0.00    -0.200 F 
ATOM     76  F   UNL A   1      33.566  33.101  27.327  1.00  0.00    -0.200 F 
ENDBRANCH  42  66
BRANCH  54  77
ATOM     77  C   UNL A   1      39.192  32.092  35.819  1.00  0.00     0.064 A 
ATOM     78  C   UNL A   1      39.647  33.405  36.011  1.00  0.00     0.173 A 
ATOM     79  C   UNL A   1      38.257  31.579  36.729  1.00  0.00     0.173 A 
ATOM     80  F   UNL A   1      40.553  33.935  35.176  1.00  0.00    -0.203 F 
ATOM     81  C   UNL A   1      39.196  34.166  37.086  1.00  0.00     0.198 A 
ATOM     82  C   UNL A   1      37.790  32.352  37.788  1.00  0.00     0.198 A 
ATOM     83  F   UNL A   1      37.788  30.331  36.584  1.00  0.00    -0.203 F 
ATOM     84  F   UNL A   1      39.673  35.405  37.273  1.00  0.00    -0.200 F 
ATOM     85  C   UNL A   1      38.263  33.643  37.968  1.00  0.00     0.200 A 
ATOM     86  F   UNL A   1      36.881  31.847  38.634  1.00  0.00    -0.200 F 
ATOM     87  F   UNL A   1      37.825  34.380  38.998  1.00  0.00    -0.200 F 
ENDBRANCH  54  77
ENDBRANCH  28  29
ENDBRANCH  21  23
ENDBRANCH  20  21
ENDBRANCH  19  20
ENDBRANCH   1  19
TORSDOF 16
ENDMDL
MODEL 3
REMARK VINA RESULT:     -10.5      1.575      7.771
REMARK SMILES CCc1c([N+](=O)[O-])cc(C(=O)OCCOCCOC(=O)c2ccc(-c3c4nc(c(-c5c(F)c(F)c(F)c(F)c5F)c5ccc([nH]5)c(-c5c(F)c(F)c(F)c(F)c5F)c5nc(c(-c6c(F)c(F)c(F)c(F)c6F)c6ccc3[nH]6)C=C5)C=C4)cc2)n1C
REMARK SMILES IDX 16 1 15 2 14 3 13 4 12 5 10 6 11 7 9 8 3 9 4 10 84 11 8 12
REMARK SMILES IDX 85 13 2 14 1 15 5 16 6 17 7 18 17 19 18 20 19 21 20 22 21 23
REMARK SMILES IDX 22 24 83 25 23 26 82 27 24 28 25 29 26 30 76 31 27 32 81 33
REMARK SMILES IDX 75 34 77 35 28 36 80 37 74 38 73 39 29 41 61 42 41 43 60 44
REMARK SMILES IDX 42 45 45 46 59 47 78 48 43 49 44 50 58 52 79 53 46 54 30 55
REMARK SMILES IDX 31 56 39 57 32 58 33 59 37 60 40 61 34 62 35 63 38 64 36 65
REMARK SMILES IDX 62 66 63 67 71 68 64 69 65 70 69 71 72 72 66 73 67 74 70 75
REMARK SMILES IDX 68 76 47 77 48 78 56 79 49 80 50 81 54 82 57 83 51 84 52 85
REMARK SMILES IDX 55 86 53 87
REMARK H PARENT 77 40 45 51
REMARK Flexibility Score: inf
ROOT
ATOM      1  C   UNL A   1      35.456  20.866  24.682  1.00  0.00     0.202 C 
ENDROOT
BRANCH   1   2
ATOM      2  O   UNL A   1      34.489  19.870  25.022  1.00  0.00    -0.374 OA
BRANCH   2   3
ATOM      3  C   UNL A   1      33.282  20.340  25.627  1.00  0.00     0.202 C 
BRANCH   3   4
ATOM      4  C   UNL A   1      32.646  21.522  24.891  1.00  0.00     0.261 C 
BRANCH   4   5
ATOM      5  O   UNL A   1      32.309  22.548  25.843  1.00  0.00    -0.459 OA
BRANCH   5   6
ATOM      6  C   UNL A   1      33.186  23.578  25.939  1.00  0.00     0.355 C 
ATOM      7  O   UNL A   1      34.202  23.562  26.618  1.00  0.00    -0.244 OA
BRANCH   6   8
ATOM      8  C   UNL A   1      32.846  24.652  25.018  1.00  0.00     0.134 A 
ATOM      9  C   UNL A   1      31.994  26.513  24.003  1.00  0.00     0.096 A 
ATOM     10  C   UNL A   1      32.993  25.993  23.176  1.00  0.00     0.291 A 
ATOM     11  N   UNL A   1      31.812  25.583  25.032  1.00  0.00    -0.336 N 
ATOM     12  C   UNL A   1      33.552  24.882  23.847  1.00  0.00     0.121 A 
ATOM     13  C   UNL A   1      30.701  25.598  25.963  1.00  0.00     0.150 C 
BRANCH   9  14
ATOM     14  C   UNL A   1      31.201  27.787  23.812  1.00  0.00     0.058 C 
ATOM     15  C   UNL A   1      30.005  27.723  22.874  1.00  0.00     0.011 C 
ENDBRANCH   9  14
BRANCH  10  16
ATOM     16  N   UNL A   1      33.428  26.474  21.878  1.00  0.00     0.064 N 
ATOM     17  O   UNL A   1      33.944  27.596  21.813  1.00  0.00    -0.258 OA
ATOM     18  O   UNL A   1      33.210  25.729  20.913  1.00  0.00    -0.258 OA
ENDBRANCH  10  16
ENDBRANCH   6   8
ENDBRANCH   5   6
ENDBRANCH   4   5
ENDBRANCH   3   4
ENDBRANCH   2   3
ENDBRANCH   1   2
BRANCH   1  19
ATOM     19  C   UNL A   1      36.900  20.473  25.011  1.00  0.00     0.261 C 
BRANCH  19  20
ATOM     20  O   UNL A   1      37.607  21.585  25.591  1.00  0.00    -0.460 OA
BRANCH  20  21
ATOM     21  C   UNL A   1      38.860  21.305  26.022  1.00  0.00     0.338 C 
ATOM     22  O   UNL A   1      39.481  20.267  25.875  1.00  0.00    -0.246 OA
BRANCH  21  23
ATOM     23  C   UNL A   1      39.479  22.528  26.573  1.00  0.00     0.060 A 
ATOM     24  C   UNL A   1      38.964  23.758  26.142  1.00  0.00     0.016 A 
ATOM     25  C   UNL A   1      40.562  22.484  27.455  1.00  0.00     0.016 A 
ATOM     26  C   UNL A   1      39.560  24.947  26.555  1.00  0.00     0.010 A 
ATOM     27  C   UNL A   1      41.164  23.680  27.862  1.00  0.00     0.010 A 
ATOM     28  C   UNL A   1      40.686  24.914  27.389  1.00  0.00    -0.014 A 
BRANCH  28  29
ATOM     29  C   UNL A   1      41.435  26.165  27.650  1.00  0.00     0.031 A 
ATOM     30  C   UNL A   1      40.764  27.272  28.415  1.00  0.00     0.074 A 
ATOM     31  C   UNL A   1      42.709  26.302  27.245  1.00  0.00     0.049 A 
ATOM     32  N   UNL A   1      41.228  28.447  28.755  1.00  0.00    -0.248 NA
ATOM     33  C   UNL A   1      39.382  27.020  28.854  1.00  0.00     0.031 C 
ATOM     34  C   UNL A   1      43.479  25.290  26.526  1.00  0.00     0.029 A 
ATOM     35  N   UNL A   1      43.578  27.356  27.380  1.00  0.00    -0.354 N 
ATOM     36  C   UNL A   1      40.202  29.071  29.450  1.00  0.00     0.074 A 
ATOM     37  C   UNL A   1      39.078  28.160  29.457  1.00  0.00     0.031 C 
ATOM     38  C   UNL A   1      44.708  25.775  26.275  1.00  0.00     0.029 A 
ATOM     39  C   UNL A   1      44.801  27.138  26.795  1.00  0.00     0.049 A 
ATOM     40  H   UNL A   1      43.346  28.189  27.851  1.00  0.00     0.167 HD
ATOM     41  C   UNL A   1      40.200  30.290  30.041  1.00  0.00     0.037 A 
ATOM     42  C   UNL A   1      45.866  27.954  26.681  1.00  0.00     0.037 A 
ATOM     43  C   UNL A   1      41.316  31.198  30.037  1.00  0.00     0.049 A 
ATOM     44  C   UNL A   1      45.814  29.333  27.285  1.00  0.00     0.074 A 
ATOM     45  C   UNL A   1      41.418  32.443  30.632  1.00  0.00     0.029 A 
ATOM     46  N   UNL A   1      42.522  30.960  29.397  1.00  0.00    -0.354 N 
ATOM     47  N   UNL A   1      44.850  29.901  27.968  1.00  0.00    -0.248 NA
ATOM     48  C   UNL A   1      46.999  30.184  27.099  1.00  0.00     0.031 C 
ATOM     49  C   UNL A   1      42.673  32.977  30.316  1.00  0.00     0.029 A 
ATOM     50  C   UNL A   1      43.366  32.047  29.558  1.00  0.00     0.049 A 
ATOM     51  H   UNL A   1      42.747  30.138  28.902  1.00  0.00     0.167 HD
ATOM     52  C   UNL A   1      45.319  31.163  28.313  1.00  0.00     0.074 A 
ATOM     53  C   UNL A   1      46.657  31.274  27.773  1.00  0.00     0.031 C 
ATOM     54  C   UNL A   1      44.696  32.141  29.014  1.00  0.00     0.037 A 
BRANCH  41  55
ATOM     55  C   UNL A   1      38.939  30.721  30.727  1.00  0.00     0.064 A 
ATOM     56  C   UNL A   1      37.866  31.271  30.011  1.00  0.00     0.173 A 
ATOM     57  C   UNL A   1      38.791  30.553  32.111  1.00  0.00     0.173 A 
ATOM     58  F   UNL A   1      37.966  31.464  28.686  1.00  0.00    -0.203 F 
ATOM     59  C   UNL A   1      36.696  31.657  30.661  1.00  0.00     0.198 A 
ATOM     60  C   UNL A   1      37.612  30.920  32.754  1.00  0.00     0.198 A 
ATOM     61  F   UNL A   1      39.790  30.031  32.839  1.00  0.00    -0.203 F 
ATOM     62  F   UNL A   1      35.698  32.217  29.963  1.00  0.00    -0.200 F 
ATOM     63  C   UNL A   1      36.568  31.476  32.029  1.00  0.00     0.200 A 
ATOM     64  F   UNL A   1      37.486  30.737  34.076  1.00  0.00    -0.200 F 
ATOM     65  F   UNL A   1      35.441  31.845  32.653  1.00  0.00    -0.200 F 
ENDBRANCH  41  55
BRANCH  42  66
ATOM     66  C   UNL A   1      47.076  27.494  25.954  1.00  0.00     0.064 A 
ATOM     67  C   UNL A   1      48.163  26.936  26.640  1.00  0.00     0.173 A 
ATOM     68  C   UNL A   1      47.175  27.617  24.561  1.00  0.00     0.173 A 
ATOM     69  F   UNL A   1      48.124  26.822  27.976  1.00  0.00    -0.203 F 
ATOM     70  C   UNL A   1      49.310  26.531  25.961  1.00  0.00     0.198 A 
ATOM     71  C   UNL A   1      48.313  27.189  23.880  1.00  0.00     0.198 A 
ATOM     72  F   UNL A   1      46.162  28.148  23.860  1.00  0.00    -0.203 F 
ATOM     73  F   UNL A   1      50.351  26.036  26.645  1.00  0.00    -0.200 F 
ATOM     74  C   UNL A   1      49.381  26.652  24.581  1.00  0.00     0.200 A 
ATOM     75  F   UNL A   1      48.373  27.301  22.546  1.00  0.00    -0.200 F 
ATOM     76  F   UNL A   1      50.484  26.260  23.928  1.00  0.00    -0.200 F 
ENDBRANCH  42  66
BRANCH  54  77
ATOM     77  C   UNL A   1      45.460  33.410  29.255  1.00  0.00     0.064 A 
ATOM     78  C   UNL A   1      46.294  33.559  30.373  1.00  0.00     0.173 A 
ATOM     79  C   UNL A   1      45.391  34.469  28.338  1.00  0.00     0.173 A 
ATOM     80  F   UNL A   1      46.381  32.579  31.285  1.00  0.00    -0.203 F 
ATOM     81  C   UNL A   1      47.017  34.731  30.572  1.00  0.00     0.198 A 
ATOM     82  C   UNL A   1      46.134  35.630  28.529  1.00  0.00     0.198 A 
ATOM     83  F   UNL A   1      44.610  34.372  27.252  1.00  0.00    -0.203 F 
ATOM     84  F   UNL A   1      47.779  34.868  31.667  1.00  0.00    -0.200 F 
ATOM     85  C   UNL A   1      46.943  35.762  29.648  1.00  0.00     0.200 A 
ATOM     86  F   UNL A   1      46.068  36.621  27.629  1.00  0.00    -0.200 F 
ATOM     87  F   UNL A   1      47.645  36.888  29.838  1.00  0.00    -0.200 F 
ENDBRANCH  54  77
ENDBRANCH  28  29
ENDBRANCH  21  23
ENDBRANCH  20  21
ENDBRANCH  19  20
ENDBRANCH   1  19
TORSDOF 16
ENDMDL
