MODEL 1
REMARK VINA RESULT:     -12.2      0.000      0.000
REMARK SMILES Cc1ccc(C[C@@H](Cc2cc(F)cc(Br)c2)C(=O)OCCOCCOC(=O)c2ccc(-c3c4nc(c(-c5c(F)c(F)c(F)c(F)c5F)c5ccc([nH]5)c(-c5c(F)c(F)c(F)c(F)c5F)c5nc(c(-c6c(F)c(F)c(F)c(F)c6F)c6ccc3[nH]6)C=C5)C=C4)cc2)cc1
REMARK SMILES IDX 22 1 21 2 20 3 19 4 17 5 18 6 7 7 6 8 5 9 1 10 2 11 3 12
REMARK SMILES IDX 92 13 4 14 91 15 8 16 9 17 10 18 16 19 11 20 14 21 12 22
REMARK SMILES IDX 13 23 15 24 23 25 24 26 25 27 26 28 27 29 28 30 29 31 90 32
REMARK SMILES IDX 30 33 89 34 31 35 32 36 33 37 83 38 34 39 88 40 82 41 84 42
REMARK SMILES IDX 35 43 87 44 81 45 80 46 36 48 68 49 48 50 67 51 49 52 52 53
REMARK SMILES IDX 66 54 85 55 50 56 51 57 65 59 86 60 53 61 37 62 38 63 46 64
REMARK SMILES IDX 39 65 40 66 44 67 47 68 41 69 42 70 45 71 43 72 69 73 70 74
REMARK SMILES IDX 78 75 71 76 72 77 76 78 79 79 73 80 74 81 77 82 75 83 54 84
REMARK SMILES IDX 55 85 63 86 56 87 57 88 61 89 64 90 58 91 59 92 62 93 60 94
REMARK H PARENT 84 47 52 58
REMARK Flexibility Score: inf
ROOT
ATOM      1  O   UNL A   1      37.709  20.695  25.086  1.00  0.00    -0.374 OA
ENDROOT
BRANCH   1   2
ATOM      2  C   UNL A   1      36.300  20.569  25.058  1.00  0.00     0.202 C 
BRANCH   2   3
ATOM      3  C   UNL A   1      35.825  21.911  24.589  1.00  0.00     0.261 C 
BRANCH   3   4
ATOM      4  O   UNL A   1      34.800  22.418  25.462  1.00  0.00    -0.463 OA
BRANCH   4   5
ATOM      5  C   UNL A   1      33.450  22.192  25.510  1.00  0.00     0.309 C 
ATOM      6  O   UNL A   1      32.882  21.151  25.832  1.00  0.00    -0.252 OA
BRANCH   5   7
ATOM      7  C   UNL A   1      32.738  23.488  25.095  1.00  0.00     0.108 C 
BRANCH   7   8
ATOM      8  C   UNL A   1      33.719  24.556  25.696  1.00  0.00     0.051 C 
BRANCH   8   9
ATOM      9  C   UNL A   1      33.240  25.912  26.040  1.00  0.00    -0.047 A 
ATOM     10  C   UNL A   1      31.821  29.807  26.966  1.00  0.00     0.044 C 
ATOM     11  C   UNL A   1      32.297  28.452  26.563  1.00  0.00    -0.051 A 
ATOM     12  C   UNL A   1      31.473  27.349  26.800  1.00  0.00     0.004 A 
ATOM     13  C   UNL A   1      33.571  28.280  26.007  1.00  0.00     0.004 A 
ATOM     14  C   UNL A   1      31.938  26.081  26.520  1.00  0.00     0.004 A 
ATOM     15  C   UNL A   1      34.048  27.007  25.752  1.00  0.00     0.004 A 
ENDBRANCH   8   9
ENDBRANCH   7   8
BRANCH   7  16
ATOM     16  C   UNL A   1      32.375  23.880  23.618  1.00  0.00     0.051 C 
BRANCH  16  17
ATOM     17  C   UNL A   1      31.942  25.139  22.888  1.00  0.00    -0.043 A 
ATOM     18  C   UNL A   1      30.666  25.644  23.253  1.00  0.00     0.043 A 
ATOM     19  C   UNL A   1      32.776  25.983  22.192  1.00  0.00     0.019 A 
ATOM     20  C   UNL A   1      30.394  27.006  23.253  1.00  0.00     0.124 A 
ATOM     21  C   UNL A   1      32.539  27.351  22.368  1.00  0.00     0.021 A 
ATOM     22  F   UNL A   1      29.253  27.479  23.765  1.00  0.00    -0.207 F 
ATOM     23  C   UNL A   1      31.380  27.878  22.914  1.00  0.00     0.055 A 
ATOM     24  Br  UNL A   1      33.970  28.531  22.348  1.00  0.00    -0.051 Br
ENDBRANCH  16  17
ENDBRANCH   7  16
ENDBRANCH   5   7
ENDBRANCH   4   5
ENDBRANCH   3   4
ENDBRANCH   2   3
ENDBRANCH   1   2
BRANCH   1  25
ATOM     25  C   UNL A   1      38.210  21.864  25.695  1.00  0.00     0.202 C 
BRANCH  25  26
ATOM     26  C   UNL A   1      39.647  21.660  26.178  1.00  0.00     0.261 C 
BRANCH  26  27
ATOM     27  O   UNL A   1      39.993  22.699  27.123  1.00  0.00    -0.460 OA
BRANCH  27  28
ATOM     28  C   UNL A   1      40.843  23.662  26.668  1.00  0.00     0.338 C 
ATOM     29  O   UNL A   1      42.026  23.496  26.417  1.00  0.00    -0.246 OA
BRANCH  28  30
ATOM     30  C   UNL A   1      40.208  25.009  26.806  1.00  0.00     0.060 A 
ATOM     31  C   UNL A   1      40.772  26.110  26.138  1.00  0.00     0.016 A 
ATOM     32  C   UNL A   1      39.341  25.218  27.873  1.00  0.00     0.016 A 
ATOM     33  C   UNL A   1      40.636  27.397  26.674  1.00  0.00     0.010 A 
ATOM     34  C   UNL A   1      39.338  26.457  28.479  1.00  0.00     0.010 A 
ATOM     35  C   UNL A   1      40.031  27.549  27.927  1.00  0.00    -0.014 A 
BRANCH  35  36
ATOM     36  C   UNL A   1      40.273  28.671  28.882  1.00  0.00     0.031 A 
ATOM     37  C   UNL A   1      39.049  29.631  29.116  1.00  0.00     0.074 A 
ATOM     38  C   UNL A   1      41.455  28.531  29.563  1.00  0.00     0.049 A 
ATOM     39  N   UNL A   1      38.777  30.500  30.052  1.00  0.00    -0.248 NA
ATOM     40  C   UNL A   1      38.062  29.755  28.036  1.00  0.00     0.031 C 
ATOM     41  C   UNL A   1      41.805  28.646  30.968  1.00  0.00     0.029 A 
ATOM     42  N   UNL A   1      42.747  28.537  29.005  1.00  0.00    -0.354 N 
ATOM     43  C   UNL A   1      37.853  31.433  29.606  1.00  0.00     0.074 A 
ATOM     44  C   UNL A   1      37.323  30.804  28.412  1.00  0.00     0.031 C 
ATOM     45  C   UNL A   1      43.065  29.031  31.182  1.00  0.00     0.029 A 
ATOM     46  C   UNL A   1      43.597  29.241  29.872  1.00  0.00     0.049 A 
ATOM     47  H   UNL A   1      43.009  28.120  28.153  1.00  0.00     0.167 HD
ATOM     48  C   UNL A   1      37.753  32.766  29.986  1.00  0.00     0.037 A 
ATOM     49  C   UNL A   1      44.841  29.733  29.773  1.00  0.00     0.037 A 
ATOM     50  C   UNL A   1      38.971  33.458  30.554  1.00  0.00     0.049 A 
ATOM     51  C   UNL A   1      44.757  31.278  29.924  1.00  0.00     0.074 A 
ATOM     52  C   UNL A   1      39.360  33.838  31.835  1.00  0.00     0.029 A 
ATOM     53  N   UNL A   1      40.106  33.831  29.750  1.00  0.00    -0.354 N 
ATOM     54  N   UNL A   1      43.676  31.940  30.307  1.00  0.00    -0.248 NA
ATOM     55  C   UNL A   1      45.825  32.228  29.649  1.00  0.00     0.031 C 
ATOM     56  C   UNL A   1      40.721  34.306  31.822  1.00  0.00     0.029 A 
ATOM     57  C   UNL A   1      41.274  34.107  30.552  1.00  0.00     0.049 A 
ATOM     58  H   UNL A   1      40.087  33.890  28.767  1.00  0.00     0.167 HD
ATOM     59  C   UNL A   1      43.749  33.311  30.077  1.00  0.00     0.074 A 
ATOM     60  C   UNL A   1      45.195  33.416  29.805  1.00  0.00     0.031 C 
ATOM     61  C   UNL A   1      42.699  34.268  30.012  1.00  0.00     0.037 A 
BRANCH  48  62
ATOM     62  C   UNL A   1      36.315  33.350  30.183  1.00  0.00     0.064 A 
ATOM     63  C   UNL A   1      35.563  33.838  29.083  1.00  0.00     0.173 A 
ATOM     64  C   UNL A   1      35.657  33.550  31.419  1.00  0.00     0.173 A 
ATOM     65  F   UNL A   1      35.976  33.696  27.822  1.00  0.00    -0.203 F 
ATOM     66  C   UNL A   1      34.336  34.511  29.213  1.00  0.00     0.198 A 
ATOM     67  C   UNL A   1      34.448  34.254  31.555  1.00  0.00     0.198 A 
ATOM     68  F   UNL A   1      36.102  33.018  32.557  1.00  0.00    -0.203 F 
ATOM     69  F   UNL A   1      33.696  34.943  28.116  1.00  0.00    -0.200 F 
ATOM     70  C   UNL A   1      33.789  34.741  30.452  1.00  0.00     0.200 A 
ATOM     71  F   UNL A   1      33.923  34.439  32.776  1.00  0.00    -0.200 F 
ATOM     72  F   UNL A   1      32.628  35.399  30.581  1.00  0.00    -0.200 F 
ENDBRANCH  48  62
BRANCH  49  73
ATOM     73  C   UNL A   1      45.730  28.619  29.280  1.00  0.00     0.064 A 
ATOM     74  C   UNL A   1      45.939  27.581  30.242  1.00  0.00     0.173 A 
ATOM     75  C   UNL A   1      45.551  28.173  27.953  1.00  0.00     0.173 A 
ATOM     76  F   UNL A   1      46.103  27.900  31.536  1.00  0.00    -0.203 F 
ATOM     77  C   UNL A   1      45.725  26.224  29.941  1.00  0.00     0.198 A 
ATOM     78  C   UNL A   1      45.317  26.812  27.662  1.00  0.00     0.198 A 
ATOM     79  F   UNL A   1      45.290  29.068  26.990  1.00  0.00    -0.203 F 
ATOM     80  F   UNL A   1      45.707  25.307  30.922  1.00  0.00    -0.200 F 
ATOM     81  C   UNL A   1      45.357  25.851  28.661  1.00  0.00     0.200 A 
ATOM     82  F   UNL A   1      44.853  26.465  26.452  1.00  0.00    -0.200 F 
ATOM     83  F   UNL A   1      44.929  24.601  28.421  1.00  0.00    -0.200 F 
ENDBRANCH  49  73
BRANCH  61  84
ATOM     84  C   UNL A   1      42.935  35.653  29.422  1.00  0.00     0.064 A 
ATOM     85  C   UNL A   1      42.472  36.047  28.158  1.00  0.00     0.173 A 
ATOM     86  C   UNL A   1      43.513  36.694  30.197  1.00  0.00     0.173 A 
ATOM     87  F   UNL A   1      41.707  35.243  27.408  1.00  0.00    -0.203 F 
ATOM     88  C   UNL A   1      42.714  37.320  27.646  1.00  0.00     0.198 A 
ATOM     89  C   UNL A   1      43.665  37.990  29.719  1.00  0.00     0.198 A 
ATOM     90  F   UNL A   1      43.924  36.512  31.458  1.00  0.00    -0.203 F 
ATOM     91  F   UNL A   1      42.339  37.606  26.392  1.00  0.00    -0.200 F 
ATOM     92  C   UNL A   1      43.304  38.293  28.427  1.00  0.00     0.200 A 
ATOM     93  F   UNL A   1      44.145  38.942  30.530  1.00  0.00    -0.200 F 
ATOM     94  F   UNL A   1      43.492  39.528  27.948  1.00  0.00    -0.200 F 
ENDBRANCH  61  84
ENDBRANCH  35  36
ENDBRANCH  28  30
ENDBRANCH  27  28
ENDBRANCH  26  27
ENDBRANCH  25  26
ENDBRANCH   1  25
TORSDOF 18
ENDMDL
MODEL 2
REMARK VINA RESULT:     -11.3      2.377      3.346
REMARK SMILES Cc1ccc(C[C@@H](Cc2cc(F)cc(Br)c2)C(=O)OCCOCCOC(=O)c2ccc(-c3c4nc(c(-c5c(F)c(F)c(F)c(F)c5F)c5ccc([nH]5)c(-c5c(F)c(F)c(F)c(F)c5F)c5nc(c(-c6c(F)c(F)c(F)c(F)c6F)c6ccc3[nH]6)C=C5)C=C4)cc2)cc1
REMARK SMILES IDX 22 1 21 2 20 3 19 4 17 5 18 6 7 7 6 8 5 9 1 10 2 11 3 12
REMARK SMILES IDX 92 13 4 14 91 15 8 16 9 17 10 18 16 19 11 20 14 21 12 22
REMARK SMILES IDX 13 23 15 24 23 25 24 26 25 27 26 28 27 29 28 30 29 31 90 32
REMARK SMILES IDX 30 33 89 34 31 35 32 36 33 37 83 38 34 39 88 40 82 41 84 42
REMARK SMILES IDX 35 43 87 44 81 45 80 46 36 48 68 49 48 50 67 51 49 52 52 53
REMARK SMILES IDX 66 54 85 55 50 56 51 57 65 59 86 60 53 61 37 62 38 63 46 64
REMARK SMILES IDX 39 65 40 66 44 67 47 68 41 69 42 70 45 71 43 72 69 73 70 74
REMARK SMILES IDX 78 75 71 76 72 77 76 78 79 79 73 80 74 81 77 82 75 83 54 84
REMARK SMILES IDX 55 85 63 86 56 87 57 88 61 89 64 90 58 91 59 92 62 93 60 94
REMARK H PARENT 84 47 52 58
REMARK Flexibility Score: inf
ROOT
ATOM      1  O   UNL A   1      40.047  20.780  26.220  1.00  0.00    -0.374 OA
ENDROOT
BRANCH   1   2
ATOM      2  C   UNL A   1      38.741  20.590  25.710  1.00  0.00     0.202 C 
BRANCH   2   3
ATOM      3  C   UNL A   1      38.237  21.981  25.474  1.00  0.00     0.261 C 
BRANCH   3   4
ATOM      4  O   UNL A   1      36.799  22.000  25.443  1.00  0.00    -0.463 OA
BRANCH   4   5
ATOM      5  C   UNL A   1      35.881  21.021  25.172  1.00  0.00     0.309 C 
ATOM      6  O   UNL A   1      36.105  19.839  24.924  1.00  0.00    -0.252 OA
BRANCH   5   7
ATOM      7  C   UNL A   1      34.482  21.652  25.239  1.00  0.00     0.108 C 
BRANCH   7   8
ATOM      8  C   UNL A   1      34.536  22.596  23.986  1.00  0.00     0.051 C 
BRANCH   8   9
ATOM      9  C   UNL A   1      34.286  24.047  24.122  1.00  0.00    -0.047 A 
ATOM     10  C   UNL A   1      33.500  28.200  24.543  1.00  0.00     0.044 C 
ATOM     11  C   UNL A   1      33.696  26.728  24.399  1.00  0.00    -0.051 A 
ATOM     12  C   UNL A   1      34.048  25.980  25.526  1.00  0.00     0.004 A 
ATOM     13  C   UNL A   1      33.583  26.113  23.146  1.00  0.00     0.004 A 
ATOM     14  C   UNL A   1      34.324  24.636  25.389  1.00  0.00     0.004 A 
ATOM     15  C   UNL A   1      33.886  24.771  23.005  1.00  0.00     0.004 A 
ENDBRANCH   8   9
ENDBRANCH   7   8
BRANCH   7  16
ATOM     16  C   UNL A   1      33.133  20.848  25.233  1.00  0.00     0.051 C 
BRANCH  16  17
ATOM     17  C   UNL A   1      32.663  19.491  24.739  1.00  0.00    -0.043 A 
ATOM     18  C   UNL A   1      32.297  19.438  23.367  1.00  0.00     0.043 A 
ATOM     19  C   UNL A   1      32.874  18.293  25.379  1.00  0.00     0.019 A 
ATOM     20  C   UNL A   1      32.499  18.295  22.603  1.00  0.00     0.124 A 
ATOM     21  C   UNL A   1      33.230  17.219  24.555  1.00  0.00     0.021 A 
ATOM     22  F   UNL A   1      32.317  18.314  21.279  1.00  0.00    -0.207 F 
ATOM     23  C   UNL A   1      33.077  17.209  23.178  1.00  0.00     0.055 A 
ATOM     24  Br  UNL A   1      34.400  15.930  25.196  1.00  0.00    -0.051 Br
ENDBRANCH  16  17
ENDBRANCH   7  16
ENDBRANCH   5   7
ENDBRANCH   4   5
ENDBRANCH   3   4
ENDBRANCH   2   3
ENDBRANCH   1   2
BRANCH   1  25
ATOM     25  C   UNL A   1      40.551  22.094  26.145  1.00  0.00     0.202 C 
BRANCH  25  26
ATOM     26  C   UNL A   1      42.039  22.134  26.496  1.00  0.00     0.261 C 
BRANCH  26  27
ATOM     27  O   UNL A   1      42.401  23.467  26.926  1.00  0.00    -0.460 OA
BRANCH  27  28
ATOM     28  C   UNL A   1      42.323  24.443  25.977  1.00  0.00     0.338 C 
ATOM     29  O   UNL A   1      43.034  24.521  24.988  1.00  0.00    -0.246 OA
BRANCH  28  30
ATOM     30  C   UNL A   1      41.460  25.561  26.466  1.00  0.00     0.060 A 
ATOM     31  C   UNL A   1      41.461  26.787  25.775  1.00  0.00     0.016 A 
ATOM     32  C   UNL A   1      40.995  25.506  27.775  1.00  0.00     0.016 A 
ATOM     33  C   UNL A   1      41.202  27.977  26.467  1.00  0.00     0.010 A 
ATOM     34  C   UNL A   1      40.893  26.686  28.483  1.00  0.00     0.010 A 
ATOM     35  C   UNL A   1      41.053  27.935  27.857  1.00  0.00    -0.014 A 
BRANCH  35  36
ATOM     36  C   UNL A   1      41.322  29.064  28.797  1.00  0.00     0.031 A 
ATOM     37  C   UNL A   1      40.047  29.819  29.325  1.00  0.00     0.074 A 
ATOM     38  C   UNL A   1      42.629  29.095  29.215  1.00  0.00     0.049 A 
ATOM     39  N   UNL A   1      39.852  30.618  30.339  1.00  0.00    -0.248 NA
ATOM     40  C   UNL A   1      38.848  29.810  28.477  1.00  0.00     0.031 C 
ATOM     41  C   UNL A   1      43.244  29.237  30.522  1.00  0.00     0.029 A 
ATOM     42  N   UNL A   1      43.759  29.311  28.405  1.00  0.00    -0.354 N 
ATOM     43  C   UNL A   1      38.728  31.406  30.138  1.00  0.00     0.074 A 
ATOM     44  C   UNL A   1      38.058  30.725  29.048  1.00  0.00     0.031 C 
ATOM     45  C   UNL A   1      44.450  29.808  30.493  1.00  0.00     0.029 A 
ATOM     46  C   UNL A   1      44.659  30.122  29.114  1.00  0.00     0.049 A 
ATOM     47  H   UNL A   1      43.895  28.954  27.498  1.00  0.00     0.167 HD
ATOM     48  C   UNL A   1      38.516  32.700  30.597  1.00  0.00     0.037 A 
ATOM     49  C   UNL A   1      45.769  30.801  28.787  1.00  0.00     0.037 A 
ATOM     50  C   UNL A   1      39.710  33.562  30.938  1.00  0.00     0.049 A 
ATOM     51  C   UNL A   1      45.492  32.311  29.030  1.00  0.00     0.074 A 
ATOM     52  C   UNL A   1      40.300  33.973  32.130  1.00  0.00     0.029 A 
ATOM     53  N   UNL A   1      40.584  34.120  29.939  1.00  0.00    -0.354 N 
ATOM     54  N   UNL A   1      44.430  32.792  29.658  1.00  0.00    -0.248 NA
ATOM     55  C   UNL A   1      46.327  33.420  28.590  1.00  0.00     0.031 C 
ATOM     56  C   UNL A   1      41.543  34.646  31.861  1.00  0.00     0.029 A 
ATOM     57  C   UNL A   1      41.841  34.558  30.497  1.00  0.00     0.049 A 
ATOM     58  H   UNL A   1      40.351  34.193  28.984  1.00  0.00     0.167 HD
ATOM     59  C   UNL A   1      44.250  34.162  29.487  1.00  0.00     0.074 A 
ATOM     60  C   UNL A   1      45.576  34.494  28.931  1.00  0.00     0.031 C 
ATOM     61  C   UNL A   1      43.082  34.947  29.686  1.00  0.00     0.037 A 
BRANCH  48  62
ATOM     62  C   UNL A   1      37.081  33.052  31.114  1.00  0.00     0.064 A 
ATOM     63  C   UNL A   1      36.151  33.735  30.288  1.00  0.00     0.173 A 
ATOM     64  C   UNL A   1      36.589  32.839  32.422  1.00  0.00     0.173 A 
ATOM     65  F   UNL A   1      36.393  33.983  29.000  1.00  0.00    -0.203 F 
ATOM     66  C   UNL A   1      34.909  34.212  30.741  1.00  0.00     0.198 A 
ATOM     67  C   UNL A   1      35.363  33.346  32.888  1.00  0.00     0.198 A 
ATOM     68  F   UNL A   1      37.225  32.072  33.306  1.00  0.00    -0.203 F 
ATOM     69  F   UNL A   1      34.092  34.853  29.891  1.00  0.00    -0.200 F 
ATOM     70  C   UNL A   1      34.524  34.040  32.049  1.00  0.00     0.200 A 
ATOM     71  F   UNL A   1      35.003  33.138  34.163  1.00  0.00    -0.200 F 
ATOM     72  F   UNL A   1      33.349  34.510  32.489  1.00  0.00    -0.200 F 
ENDBRANCH  48  62
BRANCH  49  73
ATOM     73  C   UNL A   1      46.688  29.847  28.067  1.00  0.00     0.064 A 
ATOM     74  C   UNL A   1      47.096  28.730  28.863  1.00  0.00     0.173 A 
ATOM     75  C   UNL A   1      46.396  29.542  26.721  1.00  0.00     0.173 A 
ATOM     76  F   UNL A   1      47.379  28.912  30.164  1.00  0.00    -0.203 F 
ATOM     77  C   UNL A   1      46.967  27.403  28.417  1.00  0.00     0.198 A 
ATOM     78  C   UNL A   1      46.250  28.207  26.286  1.00  0.00     0.198 A 
ATOM     79  F   UNL A   1      45.949  30.512  25.911  1.00  0.00    -0.203 F 
ATOM     80  F   UNL A   1      47.143  26.381  29.271  1.00  0.00    -0.200 F 
ATOM     81  C   UNL A   1      46.489  27.146  27.146  1.00  0.00     0.200 A 
ATOM     82  F   UNL A   1      45.681  27.958  25.097  1.00  0.00    -0.200 F 
ATOM     83  F   UNL A   1      46.146  25.896  26.795  1.00  0.00    -0.200 F 
ENDBRANCH  49  73
BRANCH  61  84
ATOM     84  C   UNL A   1      42.982  36.362  29.130  1.00  0.00     0.064 A 
ATOM     85  C   UNL A   1      42.217  36.702  28.005  1.00  0.00     0.173 A 
ATOM     86  C   UNL A   1      43.544  37.466  29.826  1.00  0.00     0.173 A 
ATOM     87  F   UNL A   1      41.444  35.802  27.382  1.00  0.00    -0.203 F 
ATOM     88  C   UNL A   1      42.157  38.006  27.518  1.00  0.00     0.198 A 
ATOM     89  C   UNL A   1      43.398  38.779  29.392  1.00  0.00     0.198 A 
ATOM     90  F   UNL A   1      44.225  37.327  30.970  1.00  0.00    -0.203 F 
ATOM     91  F   UNL A   1      41.496  38.252  26.379  1.00  0.00    -0.200 F 
ATOM     92  C   UNL A   1      42.741  39.045  28.214  1.00  0.00     0.200 A 
ATOM     93  F   UNL A   1      43.885  39.779  30.138  1.00  0.00    -0.200 F 
ATOM     94  F   UNL A   1      42.640  40.303  27.769  1.00  0.00    -0.200 F 
ENDBRANCH  61  84
ENDBRANCH  35  36
ENDBRANCH  28  30
ENDBRANCH  27  28
ENDBRANCH  26  27
ENDBRANCH  25  26
ENDBRANCH   1  25
TORSDOF 18
ENDMDL
MODEL 3
REMARK VINA RESULT:     -11.3      3.451      5.287
REMARK SMILES Cc1ccc(C[C@@H](Cc2cc(F)cc(Br)c2)C(=O)OCCOCCOC(=O)c2ccc(-c3c4nc(c(-c5c(F)c(F)c(F)c(F)c5F)c5ccc([nH]5)c(-c5c(F)c(F)c(F)c(F)c5F)c5nc(c(-c6c(F)c(F)c(F)c(F)c6F)c6ccc3[nH]6)C=C5)C=C4)cc2)cc1
REMARK SMILES IDX 22 1 21 2 20 3 19 4 17 5 18 6 7 7 6 8 5 9 1 10 2 11 3 12
REMARK SMILES IDX 92 13 4 14 91 15 8 16 9 17 10 18 16 19 11 20 14 21 12 22
REMARK SMILES IDX 13 23 15 24 23 25 24 26 25 27 26 28 27 29 28 30 29 31 90 32
REMARK SMILES IDX 30 33 89 34 31 35 32 36 33 37 83 38 34 39 88 40 82 41 84 42
REMARK SMILES IDX 35 43 87 44 81 45 80 46 36 48 68 49 48 50 67 51 49 52 52 53
REMARK SMILES IDX 66 54 85 55 50 56 51 57 65 59 86 60 53 61 37 62 38 63 46 64
REMARK SMILES IDX 39 65 40 66 44 67 47 68 41 69 42 70 45 71 43 72 69 73 70 74
REMARK SMILES IDX 78 75 71 76 72 77 76 78 79 79 73 80 74 81 77 82 75 83 54 84
REMARK SMILES IDX 55 85 63 86 56 87 57 88 61 89 64 90 58 91 59 92 62 93 60 94
REMARK H PARENT 84 47 52 58
REMARK Flexibility Score: inf
ROOT
ATOM      1  O   UNL A   1      41.597  19.474  25.347  1.00  0.00    -0.374 OA
ENDROOT
BRANCH   1   2
ATOM      2  C   UNL A   1      40.435  19.579  26.146  1.00  0.00     0.202 C 
BRANCH   2   3
ATOM      3  C   UNL A   1      40.227  21.056  26.291  1.00  0.00     0.261 C 
BRANCH   3   4
ATOM      4  O   UNL A   1      38.856  21.402  26.028  1.00  0.00    -0.463 OA
BRANCH   4   5
ATOM      5  C   UNL A   1      38.221  22.613  25.946  1.00  0.00     0.309 C 
ATOM      6  O   UNL A   1      38.718  23.725  26.107  1.00  0.00    -0.252 OA
BRANCH   5   7
ATOM      7  C   UNL A   1      36.747  22.353  25.602  1.00  0.00     0.108 C 
BRANCH   7   8
ATOM      8  C   UNL A   1      36.472  23.541  24.614  1.00  0.00     0.051 C 
BRANCH   8   9
ATOM      9  C   UNL A   1      35.089  23.907  24.241  1.00  0.00    -0.047 A 
ATOM     10  C   UNL A   1      31.143  25.017  23.126  1.00  0.00     0.044 C 
ATOM     11  C   UNL A   1      32.554  24.702  23.496  1.00  0.00    -0.051 A 
ATOM     12  C   UNL A   1      33.351  24.003  22.587  1.00  0.00     0.004 A 
ATOM     13  C   UNL A   1      33.055  25.054  24.756  1.00  0.00     0.004 A 
ATOM     14  C   UNL A   1      34.625  23.622  22.953  1.00  0.00     0.004 A 
ATOM     15  C   UNL A   1      34.322  24.649  25.133  1.00  0.00     0.004 A 
ENDBRANCH   8   9
ENDBRANCH   7   8
BRANCH   7  16
ATOM     16  C   UNL A   1      36.191  21.019  24.987  1.00  0.00     0.051 C 
BRANCH  16  17
ATOM     17  C   UNL A   1      34.931  20.182  25.130  1.00  0.00    -0.043 A 
ATOM     18  C   UNL A   1      33.716  20.916  25.176  1.00  0.00     0.043 A 
ATOM     19  C   UNL A   1      34.840  18.832  24.886  1.00  0.00     0.019 A 
ATOM     20  C   UNL A   1      32.537  20.409  24.646  1.00  0.00     0.124 A 
ATOM     21  C   UNL A   1      33.691  18.415  24.204  1.00  0.00     0.021 A 
ATOM     22  F   UNL A   1      31.448  21.176  24.535  1.00  0.00    -0.207 F 
ATOM     23  C   UNL A   1      32.552  19.187  24.050  1.00  0.00     0.055 A 
ATOM     24  Br  UNL A   1      33.804  16.989  23.022  1.00  0.00    -0.051 Br
ENDBRANCH  16  17
ENDBRANCH   7  16
ENDBRANCH   5   7
ENDBRANCH   4   5
ENDBRANCH   3   4
ENDBRANCH   2   3
ENDBRANCH   1   2
BRANCH   1  25
ATOM     25  C   UNL A   1      42.619  18.644  25.852  1.00  0.00     0.202 C 
BRANCH  25  26
ATOM     26  C   UNL A   1      43.920  18.834  25.069  1.00  0.00     0.261 C 
BRANCH  26  27
ATOM     27  O   UNL A   1      44.631  19.984  25.583  1.00  0.00    -0.460 OA
BRANCH  27  28
ATOM     28  C   UNL A   1      44.629  21.092  24.788  1.00  0.00     0.338 C 
ATOM     29  O   UNL A   1      45.415  21.308  23.880  1.00  0.00    -0.246 OA
BRANCH  28  30
ATOM     30  C   UNL A   1      43.730  22.135  25.370  1.00  0.00     0.060 A 
ATOM     31  C   UNL A   1      43.545  23.349  24.683  1.00  0.00     0.016 A 
ATOM     32  C   UNL A   1      43.422  22.053  26.724  1.00  0.00     0.016 A 
ATOM     33  C   UNL A   1      43.261  24.519  25.399  1.00  0.00     0.010 A 
ATOM     34  C   UNL A   1      43.296  23.227  27.438  1.00  0.00     0.010 A 
ATOM     35  C   UNL A   1      43.274  24.479  26.797  1.00  0.00    -0.014 A 
BRANCH  35  36
ATOM     36  C   UNL A   1      43.546  25.637  27.700  1.00  0.00     0.031 A 
ATOM     37  C   UNL A   1      42.273  26.316  28.327  1.00  0.00     0.074 A 
ATOM     38  C   UNL A   1      44.878  25.759  28.005  1.00  0.00     0.049 A 
ATOM     39  N   UNL A   1      42.112  27.116  29.346  1.00  0.00    -0.248 NA
ATOM     40  C   UNL A   1      41.010  26.216  27.584  1.00  0.00     0.031 C 
ATOM     41  C   UNL A   1      45.591  25.961  29.254  1.00  0.00     0.029 A 
ATOM     42  N   UNL A   1      45.920  26.035  27.100  1.00  0.00    -0.354 N 
ATOM     43  C   UNL A   1      40.926  27.826  29.233  1.00  0.00     0.074 A 
ATOM     44  C   UNL A   1      40.212  27.086  28.211  1.00  0.00     0.031 C 
ATOM     45  C   UNL A   1      46.750  26.608  29.117  1.00  0.00     0.029 A 
ATOM     46  C   UNL A   1      46.821  26.913  27.723  1.00  0.00     0.049 A 
ATOM     47  H   UNL A   1      46.002  25.674  26.188  1.00  0.00     0.167 HD
ATOM     48  C   UNL A   1      40.668  29.111  29.696  1.00  0.00     0.037 A 
ATOM     49  C   UNL A   1      47.852  27.658  27.296  1.00  0.00     0.037 A 
ATOM     50  C   UNL A   1      41.827  30.053  29.926  1.00  0.00     0.049 A 
ATOM     51  C   UNL A   1      47.498  29.151  27.546  1.00  0.00     0.074 A 
ATOM     52  C   UNL A   1      42.487  30.520  31.060  1.00  0.00     0.029 A 
ATOM     53  N   UNL A   1      42.575  30.651  28.851  1.00  0.00    -0.354 N 
ATOM     54  N   UNL A   1      46.463  29.571  28.257  1.00  0.00    -0.248 NA
ATOM     55  C   UNL A   1      48.218  30.304  27.026  1.00  0.00     0.031 C 
ATOM     56  C   UNL A   1      43.656  31.268  30.680  1.00  0.00     0.029 A 
ATOM     57  C   UNL A   1      43.843  31.178  29.296  1.00  0.00     0.049 A 
ATOM     58  H   UNL A   1      42.259  30.695  27.919  1.00  0.00     0.167 HD
ATOM     59  C   UNL A   1      46.180  30.924  28.089  1.00  0.00     0.074 A 
ATOM     60  C   UNL A   1      47.429  31.332  27.419  1.00  0.00     0.031 C 
ATOM     61  C   UNL A   1      44.983  31.634  28.379  1.00  0.00     0.037 A 
BRANCH  48  62
ATOM     62  C   UNL A   1      39.261  29.377  30.329  1.00  0.00     0.064 A 
ATOM     63  C   UNL A   1      38.230  30.008  29.587  1.00  0.00     0.173 A 
ATOM     64  C   UNL A   1      38.890  29.131  31.671  1.00  0.00     0.173 A 
ATOM     65  F   UNL A   1      38.353  30.274  28.285  1.00  0.00    -0.203 F 
ATOM     66  C   UNL A   1      37.003  30.410  30.142  1.00  0.00     0.198 A 
ATOM     67  C   UNL A   1      37.678  29.564  32.238  1.00  0.00     0.198 A 
ATOM     68  F   UNL A   1      39.638  28.398  32.494  1.00  0.00    -0.203 F 
ATOM     69  F   UNL A   1      36.085  31.005  29.365  1.00  0.00    -0.200 F 
ATOM     70  C   UNL A   1      36.736  30.211  31.475  1.00  0.00     0.200 A 
ATOM     71  F   UNL A   1      37.434  29.331  33.536  1.00  0.00    -0.200 F 
ATOM     72  F   UNL A   1      35.575  30.610  32.012  1.00  0.00    -0.200 F 
ENDBRANCH  48  62
BRANCH  49  73
ATOM     73  C   UNL A   1      48.768  26.754  26.510  1.00  0.00     0.064 A 
ATOM     74  C   UNL A   1      48.850  27.085  25.120  1.00  0.00     0.173 A 
ATOM     75  C   UNL A   1      49.992  26.380  27.105  1.00  0.00     0.173 A 
ATOM     76  F   UNL A   1      47.742  27.471  24.465  1.00  0.00    -0.203 F 
ATOM     77  C   UNL A   1      50.079  27.276  24.465  1.00  0.00     0.198 A 
ATOM     78  C   UNL A   1      51.222  26.593  26.447  1.00  0.00     0.198 A 
ATOM     79  F   UNL A   1      50.027  26.109  28.417  1.00  0.00    -0.203 F 
ATOM     80  F   UNL A   1      50.114  27.806  23.232  1.00  0.00    -0.200 F 
ATOM     81  C   UNL A   1      51.264  27.083  25.151  1.00  0.00     0.200 A 
ATOM     82  F   UNL A   1      52.366  26.515  27.144  1.00  0.00    -0.200 F 
ATOM     83  F   UNL A   1      52.427  27.482  24.611  1.00  0.00    -0.200 F 
ENDBRANCH  49  73
BRANCH  61  84
ATOM     84  C   UNL A   1      44.744  33.032  27.820  1.00  0.00     0.064 A 
ATOM     85  C   UNL A   1      44.189  33.277  26.556  1.00  0.00     0.173 A 
ATOM     86  C   UNL A   1      44.929  34.187  28.625  1.00  0.00     0.173 A 
ATOM     87  F   UNL A   1      43.748  32.280  25.776  1.00  0.00    -0.203 F 
ATOM     88  C   UNL A   1      43.993  34.569  26.072  1.00  0.00     0.198 A 
ATOM     89  C   UNL A   1      44.639  35.470  28.175  1.00  0.00     0.198 A 
ATOM     90  F   UNL A   1      45.362  34.123  29.890  1.00  0.00    -0.203 F 
ATOM     91  F   UNL A   1      43.558  34.741  24.817  1.00  0.00    -0.200 F 
ATOM     92  C   UNL A   1      44.212  35.664  26.882  1.00  0.00     0.200 A 
ATOM     93  F   UNL A   1      44.761  36.508  29.013  1.00  0.00    -0.200 F 
ATOM     94  F   UNL A   1      43.977  36.902  26.431  1.00  0.00    -0.200 F 
ENDBRANCH  61  84
ENDBRANCH  35  36
ENDBRANCH  28  30
ENDBRANCH  27  28
ENDBRANCH  26  27
ENDBRANCH  25  26
ENDBRANCH   1  25
TORSDOF 18
ENDMDL
