MODEL 1
REMARK VINA RESULT:     -11.6      0.000      0.000
REMARK SMILES O=C(CCCc1nc(-c2ccc(Cl)c(Cl)c2)c(-c2ccccc2)o1)OCCOCCOC(=O)c1ccc(-c2c3nc(c(-c4c(F)c(F)c(F)c(F)c4F)c4ccc([nH]4)c(-c4c(F)c(F)c(F)c(F)c4F)c4nc(c(-c5c(F)c(F)c(F)c(F)c5F)c5ccc2[nH]5)C=C4)C=C3)cc1
REMARK SMILES IDX 27 1 26 2 25 3 2 4 1 5 3 6 4 7 5 8 6 9 7 10 24 11 8 12 17 13
REMARK SMILES IDX 9 14 10 15 16 16 11 17 14 18 12 19 15 20 13 21 18 22 19 23
REMARK SMILES IDX 23 24 20 25 22 26 21 27 28 28 29 29 30 30 31 31 32 32 33 33
REMARK SMILES IDX 34 34 35 35 96 36 36 37 95 38 37 39 38 40 39 41 89 42 40 43
REMARK SMILES IDX 94 44 88 45 90 46 41 47 93 48 87 49 86 50 42 52 74 53 54 54
REMARK SMILES IDX 73 55 55 56 58 57 72 58 91 59 56 60 57 61 71 63 92 64 59 65
REMARK SMILES IDX 43 66 44 67 52 68 45 69 46 70 50 71 53 72 47 73 48 74 51 75
REMARK SMILES IDX 49 76 75 77 76 78 84 79 77 80 78 81 82 82 85 83 79 84 80 85
REMARK SMILES IDX 83 86 81 87 60 88 61 89 69 90 62 91 63 92 67 93 70 94 64 95
REMARK SMILES IDX 65 96 68 97 66 98
REMARK H PARENT 90 51 58 62
REMARK Flexibility Score: inf
ROOT
ATOM      1  C   UNL A   1      32.560  28.731  26.793  1.00  0.00     0.202 C 
ENDROOT
BRANCH   1   2
ATOM      2  C   UNL A   1      33.021  27.946  25.565  1.00  0.00     0.261 C 
BRANCH   2   3
ATOM      3  O   UNL A   1      33.735  28.669  24.539  1.00  0.00    -0.463 OA
BRANCH   3   4
ATOM      4  C   UNL A   1      33.305  28.544  23.265  1.00  0.00     0.305 C 
ATOM      5  O   UNL A   1      34.050  28.599  22.293  1.00  0.00    -0.252 OA
BRANCH   4   6
ATOM      6  C   UNL A   1      31.802  28.398  23.165  1.00  0.00     0.123 C 
BRANCH   6   7
ATOM      7  C   UNL A   1      31.283  27.180  22.398  1.00  0.00     0.021 C 
BRANCH   7   8
ATOM      8  C   UNL A   1      30.643  26.047  23.210  1.00  0.00     0.098 C 
BRANCH   8   9
ATOM      9  C   UNL A   1      31.504  24.849  23.405  1.00  0.00     0.195 A 
ATOM     10  N   UNL A   1      31.147  23.580  23.499  1.00  0.00    -0.213 NA
ATOM     11  O   UNL A   1      32.837  25.085  23.635  1.00  0.00    -0.440 OA
ATOM     12  C   UNL A   1      32.322  22.934  23.785  1.00  0.00     0.117 A 
ATOM     13  C   UNL A   1      33.352  23.842  23.875  1.00  0.00     0.162 A 
BRANCH  12  14
ATOM     14  C   UNL A   1      32.463  21.523  24.053  1.00  0.00     0.006 A 
ATOM     15  C   UNL A   1      32.702  21.075  25.355  1.00  0.00     0.012 A 
ATOM     16  C   UNL A   1      32.285  20.593  23.020  1.00  0.00     0.032 A 
ATOM     17  C   UNL A   1      32.744  19.704  25.624  1.00  0.00     0.023 A 
ATOM     18  C   UNL A   1      32.361  19.222  23.285  1.00  0.00     0.060 A 
ATOM     19  C   UNL A   1      32.583  18.775  24.592  1.00  0.00     0.059 A 
ATOM     20  Cl  UNL A   1      32.195  18.136  21.950  1.00  0.00    -0.083 Cl
ATOM     21  Cl  UNL A   1      32.673  17.096  24.992  1.00  0.00    -0.083 Cl
ENDBRANCH  12  14
BRANCH  13  22
ATOM     22  C   UNL A   1      34.753  23.731  24.215  1.00  0.00     0.020 A 
ATOM     23  C   UNL A   1      35.205  24.145  25.472  1.00  0.00     0.012 A 
ATOM     24  C   UNL A   1      35.634  23.069  23.350  1.00  0.00     0.012 A 
ATOM     25  C   UNL A   1      36.515  23.871  25.870  1.00  0.00     0.001 A 
ATOM     26  C   UNL A   1      36.944  22.801  23.747  1.00  0.00     0.001 A 
ATOM     27  C   UNL A   1      37.380  23.193  25.010  1.00  0.00     0.000 A 
ENDBRANCH  13  22
ENDBRANCH   8   9
ENDBRANCH   7   8
ENDBRANCH   6   7
ENDBRANCH   4   6
ENDBRANCH   3   4
ENDBRANCH   2   3
ENDBRANCH   1   2
BRANCH   1  28
ATOM     28  O   UNL A   1      32.795  30.132  26.609  1.00  0.00    -0.374 OA
BRANCH  28  29
ATOM     29  C   UNL A   1      31.590  30.882  26.426  1.00  0.00     0.202 C 
BRANCH  29  30
ATOM     30  C   UNL A   1      31.710  32.329  26.905  1.00  0.00     0.261 C 
BRANCH  30  31
ATOM     31  O   UNL A   1      33.026  32.567  27.422  1.00  0.00    -0.460 OA
BRANCH  31  32
ATOM     32  C   UNL A   1      33.145  33.728  28.100  1.00  0.00     0.338 C 
ATOM     33  O   UNL A   1      32.415  34.701  28.049  1.00  0.00    -0.246 OA
BRANCH  32  34
ATOM     34  C   UNL A   1      34.262  33.624  29.046  1.00  0.00     0.060 A 
ATOM     35  C   UNL A   1      35.468  34.255  28.729  1.00  0.00     0.016 A 
ATOM     36  C   UNL A   1      34.161  32.792  30.157  1.00  0.00     0.016 A 
ATOM     37  C   UNL A   1      36.620  33.966  29.460  1.00  0.00     0.010 A 
ATOM     38  C   UNL A   1      35.306  32.533  30.914  1.00  0.00     0.010 A 
ATOM     39  C   UNL A   1      36.552  33.070  30.534  1.00  0.00    -0.014 A 
BRANCH  39  40
ATOM     40  C   UNL A   1      37.785  32.556  31.179  1.00  0.00     0.031 A 
ATOM     41  C   UNL A   1      38.541  31.443  30.504  1.00  0.00     0.074 A 
ATOM     42  C   UNL A   1      38.215  33.047  32.354  1.00  0.00     0.049 A 
ATOM     43  N   UNL A   1      39.511  30.695  30.966  1.00  0.00    -0.248 NA
ATOM     44  C   UNL A   1      38.136  31.124  29.127  1.00  0.00     0.031 C 
ATOM     45  C   UNL A   1      37.604  34.157  33.081  1.00  0.00     0.029 A 
ATOM     46  N   UNL A   1      39.258  32.652  33.154  1.00  0.00    -0.354 N 
ATOM     47  C   UNL A   1      39.812  29.800  29.947  1.00  0.00     0.074 A 
ATOM     48  C   UNL A   1      38.910  30.085  28.851  1.00  0.00     0.031 C 
ATOM     49  C   UNL A   1      38.267  34.340  34.235  1.00  0.00     0.029 A 
ATOM     50  C   UNL A   1      39.318  33.331  34.346  1.00  0.00     0.049 A 
ATOM     51  H   UNL A   1      39.899  31.951  32.899  1.00  0.00     0.167 HD
ATOM     52  C   UNL A   1      40.757  28.831  29.927  1.00  0.00     0.037 A 
ATOM     53  C   UNL A   1      40.108  33.132  35.419  1.00  0.00     0.037 A 
ATOM     54  C   UNL A   1      41.664  28.562  31.013  1.00  0.00     0.049 A 
ATOM     55  C   UNL A   1      41.128  32.024  35.391  1.00  0.00     0.074 A 
ATOM     56  C   UNL A   1      42.644  27.589  31.105  1.00  0.00     0.029 A 
ATOM     57  N   UNL A   1      41.706  29.285  32.197  1.00  0.00    -0.354 N 
ATOM     58  N   UNL A   1      41.378  31.152  34.444  1.00  0.00    -0.248 NA
ATOM     59  C   UNL A   1      41.978  31.874  36.581  1.00  0.00     0.031 C 
ATOM     60  C   UNL A   1      43.262  27.707  32.355  1.00  0.00     0.029 A 
ATOM     61  C   UNL A   1      42.695  28.779  33.025  1.00  0.00     0.049 A 
ATOM     62  H   UNL A   1      41.120  30.045  32.415  1.00  0.00     0.167 HD
ATOM     63  C   UNL A   1      42.419  30.363  34.915  1.00  0.00     0.074 A 
ATOM     64  C   UNL A   1      42.770  30.874  36.224  1.00  0.00     0.031 C 
ATOM     65  C   UNL A   1      43.029  29.308  34.321  1.00  0.00     0.037 A 
BRANCH  52  66
ATOM     66  C   UNL A   1      40.842  27.974  28.699  1.00  0.00     0.064 A 
ATOM     67  C   UNL A   1      40.071  26.809  28.560  1.00  0.00     0.173 A 
ATOM     68  C   UNL A   1      41.684  28.334  27.637  1.00  0.00     0.173 A 
ATOM     69  F   UNL A   1      39.261  26.415  29.554  1.00  0.00    -0.203 F 
ATOM     70  C   UNL A   1      40.160  26.024  27.413  1.00  0.00     0.198 A 
ATOM     71  C   UNL A   1      41.751  27.561  26.480  1.00  0.00     0.198 A 
ATOM     72  F   UNL A   1      42.439  29.440  27.717  1.00  0.00    -0.203 F 
ATOM     73  F   UNL A   1      39.447  24.894  27.320  1.00  0.00    -0.200 F 
ATOM     74  C   UNL A   1      40.995  26.404  26.373  1.00  0.00     0.200 A 
ATOM     75  F   UNL A   1      42.549  27.935  25.471  1.00  0.00    -0.200 F 
ATOM     76  F   UNL A   1      41.075  25.651  25.266  1.00  0.00    -0.200 F 
ENDBRANCH  52  66
BRANCH  53  77
ATOM     77  C   UNL A   1      39.943  33.980  36.627  1.00  0.00     0.064 A 
ATOM     78  C   UNL A   1      39.092  33.595  37.673  1.00  0.00     0.173 A 
ATOM     79  C   UNL A   1      40.623  35.201  36.756  1.00  0.00     0.173 A 
ATOM     80  F   UNL A   1      38.400  32.450  37.583  1.00  0.00    -0.203 F 
ATOM     81  C   UNL A   1      38.913  34.406  38.791  1.00  0.00     0.198 A 
ATOM     82  C   UNL A   1      40.465  35.998  37.888  1.00  0.00     0.198 A 
ATOM     83  F   UNL A   1      41.448  35.615  35.784  1.00  0.00    -0.203 F 
ATOM     84  F   UNL A   1      38.058  34.036  39.754  1.00  0.00    -0.200 F 
ATOM     85  C   UNL A   1      39.604  35.603  38.901  1.00  0.00     0.200 A 
ATOM     86  F   UNL A   1      41.144  37.148  37.995  1.00  0.00    -0.200 F 
ATOM     87  F   UNL A   1      39.435  36.380  39.978  1.00  0.00    -0.200 F 
ENDBRANCH  53  77
BRANCH  65  88
ATOM     88  C   UNL A   1      44.156  28.660  35.072  1.00  0.00     0.064 A 
ATOM     89  C   UNL A   1      43.925  27.646  36.013  1.00  0.00     0.173 A 
ATOM     90  C   UNL A   1      45.484  29.046  34.831  1.00  0.00     0.173 A 
ATOM     91  F   UNL A   1      42.672  27.254  36.288  1.00  0.00    -0.203 F 
ATOM     92  C   UNL A   1      44.981  27.063  36.707  1.00  0.00     0.198 A 
ATOM     93  C   UNL A   1      46.538  28.442  35.509  1.00  0.00     0.198 A 
ATOM     94  F   UNL A   1      45.756  30.008  33.936  1.00  0.00    -0.203 F 
ATOM     95  F   UNL A   1      44.734  26.130  37.638  1.00  0.00    -0.200 F 
ATOM     96  C   UNL A   1      46.286  27.457  36.452  1.00  0.00     0.200 A 
ATOM     97  F   UNL A   1      47.799  28.818  35.254  1.00  0.00    -0.200 F 
ATOM     98  F   UNL A   1      47.301  26.895  37.123  1.00  0.00    -0.200 F 
ENDBRANCH  65  88
ENDBRANCH  39  40
ENDBRANCH  32  34
ENDBRANCH  31  32
ENDBRANCH  30  31
ENDBRANCH  29  30
ENDBRANCH  28  29
ENDBRANCH   1  28
TORSDOF 19
ENDMDL
MODEL 2
REMARK VINA RESULT:     -11.1      0.958      7.210
REMARK SMILES O=C(CCCc1nc(-c2ccc(Cl)c(Cl)c2)c(-c2ccccc2)o1)OCCOCCOC(=O)c1ccc(-c2c3nc(c(-c4c(F)c(F)c(F)c(F)c4F)c4ccc([nH]4)c(-c4c(F)c(F)c(F)c(F)c4F)c4nc(c(-c5c(F)c(F)c(F)c(F)c5F)c5ccc2[nH]5)C=C4)C=C3)cc1
REMARK SMILES IDX 27 1 26 2 25 3 2 4 1 5 3 6 4 7 5 8 6 9 7 10 24 11 8 12 17 13
REMARK SMILES IDX 9 14 10 15 16 16 11 17 14 18 12 19 15 20 13 21 18 22 19 23
REMARK SMILES IDX 23 24 20 25 22 26 21 27 28 28 29 29 30 30 31 31 32 32 33 33
REMARK SMILES IDX 34 34 35 35 96 36 36 37 95 38 37 39 38 40 39 41 89 42 40 43
REMARK SMILES IDX 94 44 88 45 90 46 41 47 93 48 87 49 86 50 42 52 74 53 54 54
REMARK SMILES IDX 73 55 55 56 58 57 72 58 91 59 56 60 57 61 71 63 92 64 59 65
REMARK SMILES IDX 43 66 44 67 52 68 45 69 46 70 50 71 53 72 47 73 48 74 51 75
REMARK SMILES IDX 49 76 75 77 76 78 84 79 77 80 78 81 82 82 85 83 79 84 80 85
REMARK SMILES IDX 83 86 81 87 60 88 61 89 69 90 62 91 63 92 67 93 70 94 64 95
REMARK SMILES IDX 65 96 68 97 66 98
REMARK H PARENT 90 51 58 62
REMARK Flexibility Score: inf
ROOT
ATOM      1  C   UNL A   1      34.025  29.965  27.630  1.00  0.00     0.202 C 
ENDROOT
BRANCH   1   2
ATOM      2  C   UNL A   1      34.363  28.979  26.511  1.00  0.00     0.261 C 
BRANCH   2   3
ATOM      3  O   UNL A   1      33.888  29.285  25.183  1.00  0.00    -0.463 OA
BRANCH   3   4
ATOM      4  C   UNL A   1      32.999  28.440  24.621  1.00  0.00     0.305 C 
ATOM      5  O   UNL A   1      33.182  27.888  23.542  1.00  0.00    -0.252 OA
BRANCH   4   6
ATOM      6  C   UNL A   1      31.728  28.300  25.431  1.00  0.00     0.123 C 
BRANCH   6   7
ATOM      7  C   UNL A   1      30.646  27.385  24.854  1.00  0.00     0.021 C 
BRANCH   7   8
ATOM      8  C   UNL A   1      30.397  26.045  25.556  1.00  0.00     0.098 C 
BRANCH   8   9
ATOM      9  C   UNL A   1      31.223  24.911  25.060  1.00  0.00     0.195 A 
ATOM     10  N   UNL A   1      30.837  23.697  24.710  1.00  0.00    -0.213 NA
ATOM     11  O   UNL A   1      32.584  25.097  25.069  1.00  0.00    -0.440 OA
ATOM     12  C   UNL A   1      32.015  23.047  24.448  1.00  0.00     0.117 A 
ATOM     13  C   UNL A   1      33.081  23.888  24.669  1.00  0.00     0.162 A 
BRANCH  12  14
ATOM     14  C   UNL A   1      32.146  21.655  24.087  1.00  0.00     0.006 A 
ATOM     15  C   UNL A   1      32.064  21.264  22.749  1.00  0.00     0.012 A 
ATOM     16  C   UNL A   1      32.431  20.701  25.074  1.00  0.00     0.032 A 
ATOM     17  C   UNL A   1      32.284  19.930  22.397  1.00  0.00     0.023 A 
ATOM     18  C   UNL A   1      32.618  19.359  24.724  1.00  0.00     0.060 A 
ATOM     19  C   UNL A   1      32.553  18.973  23.380  1.00  0.00     0.059 A 
ATOM     20  Cl  UNL A   1      32.902  18.230  26.001  1.00  0.00    -0.083 Cl
ATOM     21  Cl  UNL A   1      32.789  17.337  22.877  1.00  0.00    -0.083 Cl
ENDBRANCH  12  14
BRANCH  13  22
ATOM     22  C   UNL A   1      34.516  23.716  24.622  1.00  0.00     0.020 A 
ATOM     23  C   UNL A   1      35.293  23.979  25.755  1.00  0.00     0.012 A 
ATOM     24  C   UNL A   1      35.116  23.138  23.495  1.00  0.00     0.012 A 
ATOM     25  C   UNL A   1      36.646  23.639  25.771  1.00  0.00     0.001 A 
ATOM     26  C   UNL A   1      36.470  22.804  23.510  1.00  0.00     0.001 A 
ATOM     27  C   UNL A   1      37.231  23.046  24.651  1.00  0.00     0.000 A 
ENDBRANCH  13  22
ENDBRANCH   8   9
ENDBRANCH   7   8
ENDBRANCH   6   7
ENDBRANCH   4   6
ENDBRANCH   3   4
ENDBRANCH   2   3
ENDBRANCH   1   2
BRANCH   1  28
ATOM     28  O   UNL A   1      33.701  31.249  27.084  1.00  0.00    -0.374 OA
BRANCH  28  29
ATOM     29  C   UNL A   1      32.315  31.580  27.216  1.00  0.00     0.202 C 
BRANCH  29  30
ATOM     30  C   UNL A   1      32.055  33.086  27.179  1.00  0.00     0.261 C 
BRANCH  30  31
ATOM     31  O   UNL A   1      33.285  33.800  27.361  1.00  0.00    -0.460 OA
BRANCH  31  32
ATOM     32  C   UNL A   1      33.304  34.586  28.459  1.00  0.00     0.338 C 
ATOM     33  O   UNL A   1      32.528  35.476  28.754  1.00  0.00    -0.246 OA
BRANCH  32  34
ATOM     34  C   UNL A   1      34.369  34.130  29.362  1.00  0.00     0.060 A 
ATOM     35  C   UNL A   1      35.697  34.394  29.015  1.00  0.00     0.016 A 
ATOM     36  C   UNL A   1      34.061  33.328  30.456  1.00  0.00     0.016 A 
ATOM     37  C   UNL A   1      36.734  33.759  29.697  1.00  0.00     0.010 A 
ATOM     38  C   UNL A   1      35.101  32.722  31.164  1.00  0.00     0.010 A 
ATOM     39  C   UNL A   1      36.438  32.887  30.752  1.00  0.00    -0.014 A 
BRANCH  39  40
ATOM     40  C   UNL A   1      37.486  32.015  31.339  1.00  0.00     0.031 A 
ATOM     41  C   UNL A   1      37.946  32.289  32.745  1.00  0.00     0.074 A 
ATOM     42  C   UNL A   1      38.039  31.016  30.631  1.00  0.00     0.049 A 
ATOM     43  N   UNL A   1      38.978  31.810  33.393  1.00  0.00    -0.248 NA
ATOM     44  C   UNL A   1      37.138  33.245  33.519  1.00  0.00     0.031 C 
ATOM     45  C   UNL A   1      37.645  30.615  29.282  1.00  0.00     0.029 A 
ATOM     46  N   UNL A   1      39.073  30.170  30.947  1.00  0.00    -0.354 N 
ATOM     47  C   UNL A   1      38.959  32.426  34.638  1.00  0.00     0.074 A 
ATOM     48  C   UNL A   1      37.826  33.327  34.648  1.00  0.00     0.031 C 
ATOM     49  C   UNL A   1      38.445  29.616  28.874  1.00  0.00     0.029 A 
ATOM     50  C   UNL A   1      39.433  29.340  29.914  1.00  0.00     0.049 A 
ATOM     51  H   UNL A   1      39.513  30.159  31.827  1.00  0.00     0.167 HD
ATOM     52  C   UNL A   1      39.808  32.253  35.678  1.00  0.00     0.037 A 
ATOM     53  C   UNL A   1      40.469  28.485  29.809  1.00  0.00     0.037 A 
ATOM     54  C   UNL A   1      40.924  31.344  35.669  1.00  0.00     0.049 A 
ATOM     55  C   UNL A   1      41.424  28.335  30.964  1.00  0.00     0.074 A 
ATOM     56  C   UNL A   1      41.859  31.108  36.661  1.00  0.00     0.029 A 
ATOM     57  N   UNL A   1      41.245  30.507  34.610  1.00  0.00    -0.354 N 
ATOM     58  N   UNL A   1      41.429  28.952  32.121  1.00  0.00    -0.248 NA
ATOM     59  C   UNL A   1      42.517  27.366  30.799  1.00  0.00     0.031 C 
ATOM     60  C   UNL A   1      42.762  30.146  36.193  1.00  0.00     0.029 A 
ATOM     61  C   UNL A   1      42.364  29.754  34.925  1.00  0.00     0.049 A 
ATOM     62  H   UNL A   1      40.749  30.455  33.761  1.00  0.00     0.167 HD
ATOM     63  C   UNL A   1      42.509  28.438  32.825  1.00  0.00     0.074 A 
ATOM     64  C   UNL A   1      43.125  27.442  31.975  1.00  0.00     0.031 C 
ATOM     65  C   UNL A   1      42.956  28.764  34.064  1.00  0.00     0.037 A 
BRANCH  52  66
ATOM     66  C   UNL A   1      39.575  33.084  36.905  1.00  0.00     0.064 A 
ATOM     67  C   UNL A   1      38.654  32.698  37.891  1.00  0.00     0.173 A 
ATOM     68  C   UNL A   1      40.299  34.268  37.111  1.00  0.00     0.173 A 
ATOM     69  F   UNL A   1      37.928  31.582  37.734  1.00  0.00    -0.203 F 
ATOM     70  C   UNL A   1      38.450  33.481  39.025  1.00  0.00     0.198 A 
ATOM     71  C   UNL A   1      40.111  35.034  38.258  1.00  0.00     0.198 A 
ATOM     72  F   UNL A   1      41.195  34.680  36.201  1.00  0.00    -0.203 F 
ATOM     73  F   UNL A   1      37.534  33.114  39.933  1.00  0.00    -0.200 F 
ATOM     74  C   UNL A   1      39.182  34.643  39.211  1.00  0.00     0.200 A 
ATOM     75  F   UNL A   1      40.828  36.151  38.442  1.00  0.00    -0.200 F 
ATOM     76  F   UNL A   1      38.989  35.392  40.305  1.00  0.00    -0.200 F 
ENDBRANCH  52  66
BRANCH  53  77
ATOM     77  C   UNL A   1      40.678  27.726  28.549  1.00  0.00     0.064 A 
ATOM     78  C   UNL A   1      41.490  28.234  27.525  1.00  0.00     0.173 A 
ATOM     79  C   UNL A   1      40.060  26.485  28.338  1.00  0.00     0.173 A 
ATOM     80  F   UNL A   1      42.080  29.429  27.670  1.00  0.00    -0.203 F 
ATOM     81  C   UNL A   1      41.660  27.538  26.330  1.00  0.00     0.198 A 
ATOM     82  C   UNL A   1      40.254  25.776  27.154  1.00  0.00     0.198 A 
ATOM     83  F   UNL A   1      39.273  25.956  29.286  1.00  0.00    -0.203 F 
ATOM     84  F   UNL A   1      42.404  28.067  25.349  1.00  0.00    -0.200 F 
ATOM     85  C   UNL A   1      41.047  26.306  26.148  1.00  0.00     0.200 A 
ATOM     86  F   UNL A   1      39.670  24.582  26.987  1.00  0.00    -0.200 F 
ATOM     87  F   UNL A   1      41.215  25.635  25.001  1.00  0.00    -0.200 F 
ENDBRANCH  53  77
BRANCH  65  88
ATOM     88  C   UNL A   1      44.149  28.012  34.578  1.00  0.00     0.064 A 
ATOM     89  C   UNL A   1      45.455  28.481  34.380  1.00  0.00     0.173 A 
ATOM     90  C   UNL A   1      43.979  26.817  35.295  1.00  0.00     0.173 A 
ATOM     91  F   UNL A   1      45.668  29.610  33.687  1.00  0.00    -0.203 F 
ATOM     92  C   UNL A   1      46.550  27.766  34.855  1.00  0.00     0.198 A 
ATOM     93  C   UNL A   1      45.076  26.119  35.791  1.00  0.00     0.198 A 
ATOM     94  F   UNL A   1      42.748  26.329  35.515  1.00  0.00    -0.203 F 
ATOM     95  F   UNL A   1      47.793  28.206  34.611  1.00  0.00    -0.200 F 
ATOM     96  C   UNL A   1      46.361  26.589  35.563  1.00  0.00     0.200 A 
ATOM     97  F   UNL A   1      44.890  24.986  36.483  1.00  0.00    -0.200 F 
ATOM     98  F   UNL A   1      47.417  25.901  36.019  1.00  0.00    -0.200 F 
ENDBRANCH  65  88
ENDBRANCH  39  40
ENDBRANCH  32  34
ENDBRANCH  31  32
ENDBRANCH  30  31
ENDBRANCH  29  30
ENDBRANCH  28  29
ENDBRANCH   1  28
TORSDOF 19
ENDMDL
MODEL 3
REMARK VINA RESULT:     -10.9      5.440     10.572
REMARK SMILES O=C(CCCc1nc(-c2ccc(Cl)c(Cl)c2)c(-c2ccccc2)o1)OCCOCCOC(=O)c1ccc(-c2c3nc(c(-c4c(F)c(F)c(F)c(F)c4F)c4ccc([nH]4)c(-c4c(F)c(F)c(F)c(F)c4F)c4nc(c(-c5c(F)c(F)c(F)c(F)c5F)c5ccc2[nH]5)C=C4)C=C3)cc1
REMARK SMILES IDX 27 1 26 2 25 3 2 4 1 5 3 6 4 7 5 8 6 9 7 10 24 11 8 12 17 13
REMARK SMILES IDX 9 14 10 15 16 16 11 17 14 18 12 19 15 20 13 21 18 22 19 23
REMARK SMILES IDX 23 24 20 25 22 26 21 27 28 28 29 29 30 30 31 31 32 32 33 33
REMARK SMILES IDX 34 34 35 35 96 36 36 37 95 38 37 39 38 40 39 41 89 42 40 43
REMARK SMILES IDX 94 44 88 45 90 46 41 47 93 48 87 49 86 50 42 52 74 53 54 54
REMARK SMILES IDX 73 55 55 56 58 57 72 58 91 59 56 60 57 61 71 63 92 64 59 65
REMARK SMILES IDX 43 66 44 67 52 68 45 69 46 70 50 71 53 72 47 73 48 74 51 75
REMARK SMILES IDX 49 76 75 77 76 78 84 79 77 80 78 81 82 82 85 83 79 84 80 85
REMARK SMILES IDX 83 86 81 87 60 88 61 89 69 90 62 91 63 92 67 93 70 94 64 95
REMARK SMILES IDX 65 96 68 97 66 98
REMARK H PARENT 90 51 58 62
REMARK Flexibility Score: inf
ROOT
ATOM      1  C   UNL A   1      36.688  22.589  26.101  1.00  0.00     0.202 C 
ENDROOT
BRANCH   1   2
ATOM      2  C   UNL A   1      35.531  23.385  25.495  1.00  0.00     0.261 C 
BRANCH   2   3
ATOM      3  O   UNL A   1      34.220  23.203  26.070  1.00  0.00    -0.463 OA
BRANCH   3   4
ATOM      4  C   UNL A   1      33.554  22.067  25.774  1.00  0.00     0.305 C 
ATOM      5  O   UNL A   1      33.543  21.082  26.504  1.00  0.00    -0.252 OA
BRANCH   4   6
ATOM      6  C   UNL A   1      32.881  22.117  24.420  1.00  0.00     0.123 C 
BRANCH   6   7
ATOM      7  C   UNL A   1      33.763  22.505  23.231  1.00  0.00     0.021 C 
BRANCH   7   8
ATOM      8  C   UNL A   1      33.174  23.465  22.191  1.00  0.00     0.098 C 
BRANCH   8   9
ATOM      9  C   UNL A   1      32.509  24.672  22.752  1.00  0.00     0.195 A 
ATOM     10  N   UNL A   1      31.537  25.399  22.232  1.00  0.00    -0.213 NA
ATOM     11  O   UNL A   1      33.043  25.179  23.912  1.00  0.00    -0.440 OA
ATOM     12  C   UNL A   1      31.402  26.438  23.115  1.00  0.00     0.117 A 
ATOM     13  C   UNL A   1      32.318  26.316  24.135  1.00  0.00     0.162 A 
BRANCH  12  14
ATOM     14  C   UNL A   1      30.507  27.560  22.964  1.00  0.00     0.006 A 
ATOM     15  C   UNL A   1      30.964  28.756  22.406  1.00  0.00     0.012 A 
ATOM     16  C   UNL A   1      29.154  27.428  23.309  1.00  0.00     0.032 A 
ATOM     17  C   UNL A   1      30.072  29.806  22.176  1.00  0.00     0.023 A 
ATOM     18  C   UNL A   1      28.268  28.492  23.110  1.00  0.00     0.060 A 
ATOM     19  C   UNL A   1      28.726  29.682  22.534  1.00  0.00     0.059 A 
ATOM     20  Cl  UNL A   1      26.630  28.277  23.618  1.00  0.00    -0.083 Cl
ATOM     21  Cl  UNL A   1      27.683  31.029  22.246  1.00  0.00    -0.083 Cl
ENDBRANCH  12  14
BRANCH  13  22
ATOM     22  C   UNL A   1      32.664  27.141  25.270  1.00  0.00     0.020 A 
ATOM     23  C   UNL A   1      33.723  28.050  25.181  1.00  0.00     0.012 A 
ATOM     24  C   UNL A   1      31.846  27.146  26.409  1.00  0.00     0.012 A 
ATOM     25  C   UNL A   1      33.941  28.974  26.205  1.00  0.00     0.001 A 
ATOM     26  C   UNL A   1      32.069  28.065  27.434  1.00  0.00     0.001 A 
ATOM     27  C   UNL A   1      33.110  28.985  27.326  1.00  0.00     0.000 A 
ENDBRANCH  13  22
ENDBRANCH   8   9
ENDBRANCH   7   8
ENDBRANCH   6   7
ENDBRANCH   4   6
ENDBRANCH   3   4
ENDBRANCH   2   3
ENDBRANCH   1   2
BRANCH   1  28
ATOM     28  O   UNL A   1      36.702  21.254  25.581  1.00  0.00    -0.374 OA
BRANCH  28  29
ATOM     29  C   UNL A   1      37.965  20.888  25.015  1.00  0.00     0.202 C 
BRANCH  29  30
ATOM     30  C   UNL A   1      39.153  21.442  25.801  1.00  0.00     0.261 C 
BRANCH  30  31
ATOM     31  O   UNL A   1      39.731  20.409  26.611  1.00  0.00    -0.460 OA
BRANCH  31  32
ATOM     32  C   UNL A   1      40.976  20.049  26.233  1.00  0.00     0.338 C 
ATOM     33  O   UNL A   1      41.308  19.068  25.593  1.00  0.00    -0.246 OA
BRANCH  32  34
ATOM     34  C   UNL A   1      41.920  21.107  26.611  1.00  0.00     0.060 A 
ATOM     35  C   UNL A   1      42.122  21.370  27.969  1.00  0.00     0.016 A 
ATOM     36  C   UNL A   1      42.483  21.923  25.634  1.00  0.00     0.016 A 
ATOM     37  C   UNL A   1      42.798  22.525  28.363  1.00  0.00     0.010 A 
ATOM     38  C   UNL A   1      43.195  23.058  26.028  1.00  0.00     0.010 A 
ATOM     39  C   UNL A   1      43.304  23.396  27.391  1.00  0.00    -0.014 A 
BRANCH  39  40
ATOM     40  C   UNL A   1      43.812  24.741  27.762  1.00  0.00     0.031 A 
ATOM     41  C   UNL A   1      42.822  25.799  28.166  1.00  0.00     0.074 A 
ATOM     42  C   UNL A   1      45.125  25.026  27.716  1.00  0.00     0.049 A 
ATOM     43  N   UNL A   1      42.997  27.086  28.327  1.00  0.00    -0.248 NA
ATOM     44  C   UNL A   1      41.444  25.343  28.406  1.00  0.00     0.031 C 
ATOM     45  C   UNL A   1      46.187  24.077  27.394  1.00  0.00     0.029 A 
ATOM     46  N   UNL A   1      45.782  26.214  27.921  1.00  0.00    -0.354 N 
ATOM     47  C   UNL A   1      41.749  27.596  28.660  1.00  0.00     0.074 A 
ATOM     48  C   UNL A   1      40.822  26.485  28.658  1.00  0.00     0.031 C 
ATOM     49  C   UNL A   1      47.364  24.724  27.396  1.00  0.00     0.029 A 
ATOM     50  C   UNL A   1      47.131  26.139  27.676  1.00  0.00     0.049 A 
ATOM     51  H   UNL A   1      45.331  27.038  28.214  1.00  0.00     0.167 HD
ATOM     52  C   UNL A   1      41.408  28.876  28.943  1.00  0.00     0.037 A 
ATOM     53  C   UNL A   1      48.062  27.112  27.643  1.00  0.00     0.037 A 
ATOM     54  C   UNL A   1      42.337  29.976  28.960  1.00  0.00     0.049 A 
ATOM     55  C   UNL A   1      47.656  28.534  27.925  1.00  0.00     0.074 A 
ATOM     56  C   UNL A   1      42.092  31.314  29.213  1.00  0.00     0.029 A 
ATOM     57  N   UNL A   1      43.699  29.856  28.725  1.00  0.00    -0.354 N 
ATOM     58  N   UNL A   1      46.467  29.019  28.194  1.00  0.00    -0.248 NA
ATOM     59  C   UNL A   1      48.722  29.546  27.901  1.00  0.00     0.031 C 
ATOM     60  C   UNL A   1      43.303  32.008  29.106  1.00  0.00     0.029 A 
ATOM     61  C   UNL A   1      44.307  31.096  28.826  1.00  0.00     0.049 A 
ATOM     62  H   UNL A   1      44.164  29.013  28.518  1.00  0.00     0.167 HD
ATOM     63  C   UNL A   1      46.643  30.382  28.386  1.00  0.00     0.074 A 
ATOM     64  C   UNL A   1      48.057  30.647  28.224  1.00  0.00     0.031 C 
ATOM     65  C   UNL A   1      45.718  31.334  28.666  1.00  0.00     0.037 A 
BRANCH  52  66
ATOM     66  C   UNL A   1      39.964  29.157  29.235  1.00  0.00     0.064 A 
ATOM     67  C   UNL A   1      39.050  29.450  28.212  1.00  0.00     0.173 A 
ATOM     68  C   UNL A   1      39.482  29.109  30.552  1.00  0.00     0.173 A 
ATOM     69  F   UNL A   1      39.465  29.522  26.938  1.00  0.00    -0.203 F 
ATOM     70  C   UNL A   1      37.712  29.708  28.499  1.00  0.00     0.198 A 
ATOM     71  C   UNL A   1      38.138  29.342  30.833  1.00  0.00     0.198 A 
ATOM     72  F   UNL A   1      40.313  28.829  31.567  1.00  0.00    -0.203 F 
ATOM     73  F   UNL A   1      36.865  30.028  27.510  1.00  0.00    -0.200 F 
ATOM     74  C   UNL A   1      37.256  29.648  29.807  1.00  0.00     0.200 A 
ATOM     75  F   UNL A   1      37.696  29.271  32.096  1.00  0.00    -0.200 F 
ATOM     76  F   UNL A   1      35.967  29.890  30.082  1.00  0.00    -0.200 F 
ENDBRANCH  52  66
BRANCH  53  77
ATOM     77  C   UNL A   1      49.468  26.780  27.297  1.00  0.00     0.064 A 
ATOM     78  C   UNL A   1      49.921  26.838  25.971  1.00  0.00     0.173 A 
ATOM     79  C   UNL A   1      50.385  26.385  28.283  1.00  0.00     0.173 A 
ATOM     80  F   UNL A   1      49.075  27.184  24.991  1.00  0.00    -0.203 F 
ATOM     81  C   UNL A   1      51.231  26.495  25.643  1.00  0.00     0.198 A 
ATOM     82  C   UNL A   1      51.702  26.069  27.958  1.00  0.00     0.198 A 
ATOM     83  F   UNL A   1      50.002  26.312  29.566  1.00  0.00    -0.203 F 
ATOM     84  F   UNL A   1      51.625  26.514  24.363  1.00  0.00    -0.200 F 
ATOM     85  C   UNL A   1      52.122  26.117  26.637  1.00  0.00     0.200 A 
ATOM     86  F   UNL A   1      52.563  25.717  28.922  1.00  0.00    -0.200 F 
ATOM     87  F   UNL A   1      53.383  25.793  26.321  1.00  0.00    -0.200 F 
ENDBRANCH  53  77
BRANCH  65  88
ATOM     88  C   UNL A   1      46.216  32.738  28.845  1.00  0.00     0.064 A 
ATOM     89  C   UNL A   1      46.638  33.215  30.095  1.00  0.00     0.173 A 
ATOM     90  C   UNL A   1      46.289  33.610  27.748  1.00  0.00     0.173 A 
ATOM     91  F   UNL A   1      46.572  32.423  31.176  1.00  0.00    -0.203 F 
ATOM     92  C   UNL A   1      47.087  34.523  30.245  1.00  0.00     0.198 A 
ATOM     93  C   UNL A   1      46.764  34.909  27.898  1.00  0.00     0.198 A 
ATOM     94  F   UNL A   1      45.902  33.199  26.530  1.00  0.00    -0.203 F 
ATOM     95  F   UNL A   1      47.438  34.975  31.458  1.00  0.00    -0.200 F 
ATOM     96  C   UNL A   1      47.154  35.368  29.147  1.00  0.00     0.200 A 
ATOM     97  F   UNL A   1      46.837  35.721  26.834  1.00  0.00    -0.200 F 
ATOM     98  F   UNL A   1      47.586  36.628  29.294  1.00  0.00    -0.200 F 
ENDBRANCH  65  88
ENDBRANCH  39  40
ENDBRANCH  32  34
ENDBRANCH  31  32
ENDBRANCH  30  31
ENDBRANCH  29  30
ENDBRANCH  28  29
ENDBRANCH   1  28
TORSDOF 19
ENDMDL
