MODEL 1
REMARK VINA RESULT:     -12.3      0.000      0.000
REMARK SMILES O=C(OCCOCCOC(=O)[C@@H]1[C@H](C(=O)NCc2ccncc2)[C@H]2C=C[C@@H]1O2)c1ccc(-c2c3nc(c(-c4c(F)c(F)c(F)c(F)c4F)c4ccc([nH]4)c(-c4c(F)c(F)c(F)c(F)c4F)c4nc(c(-c5c(F)c(F)c(F)c(F)c5F)c5ccc2[nH]5)C=C4)C=C3)cc1
REMARK SMILES IDX 7 1 6 2 5 3 4 4 3 5 2 6 1 7 29 8 30 9 91 10 31 11 90 12
REMARK SMILES IDX 32 13 33 14 34 15 84 16 35 17 89 18 83 19 85 20 36 21 88 22
REMARK SMILES IDX 82 23 81 24 37 26 69 27 49 28 68 29 50 30 53 31 67 32 86 33
REMARK SMILES IDX 51 34 52 35 66 37 87 38 54 39 38 40 39 41 47 42 40 43 41 44
REMARK SMILES IDX 45 45 48 46 42 47 43 48 46 49 44 50 70 51 71 52 79 53 72 54
REMARK SMILES IDX 73 55 77 56 80 57 74 58 75 59 78 60 76 61 55 62 56 63 64 64
REMARK SMILES IDX 57 65 58 66 62 67 65 68 59 69 60 70 63 71 61 72 8 73 9 74
REMARK SMILES IDX 10 75 11 76 12 77 13 78 27 79 24 80 26 81 28 82 25 83 14 84
REMARK SMILES IDX 15 85 16 86 17 88 18 89 19 90 23 91 20 92 22 93 21 94
REMARK H PARENT 85 25 53 36 16 87
REMARK Flexibility Score: inf
ROOT
ATOM      1  C   UNL A   1      32.776  26.722  26.115  1.00  0.00     0.202 C 
ENDROOT
BRANCH   1   2
ATOM      2  O   UNL A   1      31.664  27.569  25.813  1.00  0.00    -0.374 OA
BRANCH   2   3
ATOM      3  C   UNL A   1      31.811  28.708  24.980  1.00  0.00     0.202 C 
BRANCH   3   4
ATOM      4  C   UNL A   1      32.883  29.703  25.406  1.00  0.00     0.261 C 
BRANCH   4   5
ATOM      5  O   UNL A   1      32.502  30.361  26.620  1.00  0.00    -0.460 OA
BRANCH   5   6
ATOM      6  C   UNL A   1      33.279  31.240  27.298  1.00  0.00     0.338 C 
ATOM      7  O   UNL A   1      32.959  32.426  27.316  1.00  0.00    -0.246 OA
BRANCH   6   8
ATOM      8  C   UNL A   1      34.642  30.855  27.797  1.00  0.00     0.060 A 
ATOM      9  C   UNL A   1      35.102  29.549  28.007  1.00  0.00     0.016 A 
ATOM     10  C   UNL A   1      35.553  31.908  27.997  1.00  0.00     0.016 A 
ATOM     11  C   UNL A   1      36.424  29.280  28.336  1.00  0.00     0.010 A 
ATOM     12  C   UNL A   1      36.859  31.659  28.428  1.00  0.00     0.010 A 
ATOM     13  C   UNL A   1      37.275  30.339  28.630  1.00  0.00    -0.014 A 
BRANCH  13  14
ATOM     14  C   UNL A   1      38.390  30.035  29.538  1.00  0.00     0.031 A 
ATOM     15  C   UNL A   1      39.447  29.119  28.991  1.00  0.00     0.074 A 
ATOM     16  C   UNL A   1      38.510  30.632  30.732  1.00  0.00     0.049 A 
ATOM     17  N   UNL A   1      40.528  28.655  29.553  1.00  0.00    -0.248 NA
ATOM     18  C   UNL A   1      39.270  28.687  27.591  1.00  0.00     0.031 C 
ATOM     19  C   UNL A   1      37.599  31.640  31.271  1.00  0.00     0.029 A 
ATOM     20  N   UNL A   1      39.458  30.471  31.704  1.00  0.00    -0.354 N 
ATOM     21  C   UNL A   1      41.144  27.877  28.582  1.00  0.00     0.074 A 
ATOM     22  C   UNL A   1      40.334  27.933  27.393  1.00  0.00     0.031 C 
ATOM     23  C   UNL A   1      38.021  31.986  32.501  1.00  0.00     0.029 A 
ATOM     24  C   UNL A   1      39.196  31.188  32.842  1.00  0.00     0.049 A 
ATOM     25  H   UNL A   1      40.252  29.897  31.596  1.00  0.00     0.167 HD
ATOM     26  C   UNL A   1      42.280  27.154  28.689  1.00  0.00     0.037 A 
ATOM     27  C   UNL A   1      39.822  31.147  34.035  1.00  0.00     0.037 A 
ATOM     28  C   UNL A   1      43.023  27.061  29.910  1.00  0.00     0.049 A 
ATOM     29  C   UNL A   1      41.010  30.228  34.182  1.00  0.00     0.074 A 
ATOM     30  C   UNL A   1      44.138  26.300  30.191  1.00  0.00     0.029 A 
ATOM     31  N   UNL A   1      42.691  27.748  31.072  1.00  0.00    -0.354 N 
ATOM     32  N   UNL A   1      41.571  29.450  33.284  1.00  0.00    -0.248 NA
ATOM     33  C   UNL A   1      41.647  30.170  35.503  1.00  0.00     0.031 C 
ATOM     34  C   UNL A   1      44.443  26.477  31.544  1.00  0.00     0.029 A 
ATOM     35  C   UNL A   1      43.566  27.410  32.084  1.00  0.00     0.049 A 
ATOM     36  H   UNL A   1      41.942  28.382  31.160  1.00  0.00     0.167 HD
ATOM     37  C   UNL A   1      42.642  28.835  33.918  1.00  0.00     0.074 A 
ATOM     38  C   UNL A   1      42.650  29.332  35.281  1.00  0.00     0.031 C 
ATOM     39  C   UNL A   1      43.542  27.949  33.423  1.00  0.00     0.037 A 
BRANCH  26  40
ATOM     40  C   UNL A   1      42.674  26.338  27.493  1.00  0.00     0.064 A 
ATOM     41  C   UNL A   1      42.193  25.035  27.287  1.00  0.00     0.173 A 
ATOM     42  C   UNL A   1      43.629  26.833  26.592  1.00  0.00     0.173 A 
ATOM     43  F   UNL A   1      41.312  24.496  28.145  1.00  0.00    -0.203 F 
ATOM     44  C   UNL A   1      42.685  24.244  26.251  1.00  0.00     0.198 A 
ATOM     45  C   UNL A   1      44.092  26.053  25.536  1.00  0.00     0.198 A 
ATOM     46  F   UNL A   1      44.136  28.064  26.752  1.00  0.00    -0.203 F 
ATOM     47  F   UNL A   1      42.277  22.974  26.127  1.00  0.00    -0.200 F 
ATOM     48  C   UNL A   1      43.632  24.754  25.375  1.00  0.00     0.200 A 
ATOM     49  F   UNL A   1      45.007  26.548  24.692  1.00  0.00    -0.200 F 
ATOM     50  F   UNL A   1      44.119  23.987  24.391  1.00  0.00    -0.200 F 
ENDBRANCH  26  40
BRANCH  27  51
ATOM     51  C   UNL A   1      39.304  31.953  35.171  1.00  0.00     0.064 A 
ATOM     52  C   UNL A   1      39.607  33.315  35.302  1.00  0.00     0.173 A 
ATOM     53  C   UNL A   1      38.474  31.379  36.147  1.00  0.00     0.173 A 
ATOM     54  F   UNL A   1      40.417  33.910  34.412  1.00  0.00    -0.203 F 
ATOM     55  C   UNL A   1      39.105  34.067  36.364  1.00  0.00     0.198 A 
ATOM     56  C   UNL A   1      37.950  32.137  37.191  1.00  0.00     0.198 A 
ATOM     57  F   UNL A   1      38.157  30.078  36.077  1.00  0.00    -0.203 F 
ATOM     58  F   UNL A   1      39.439  35.360  36.483  1.00  0.00    -0.200 F 
ATOM     59  C   UNL A   1      38.269  33.481  37.302  1.00  0.00     0.200 A 
ATOM     60  F   UNL A   1      37.134  31.567  38.089  1.00  0.00    -0.200 F 
ATOM     61  F   UNL A   1      37.779  34.207  38.316  1.00  0.00    -0.200 F 
ENDBRANCH  27  51
BRANCH  39  62
ATOM     62  C   UNL A   1      44.649  27.504  34.333  1.00  0.00     0.064 A 
ATOM     63  C   UNL A   1      45.828  28.243  34.479  1.00  0.00     0.173 A 
ATOM     64  C   UNL A   1      44.465  26.378  35.150  1.00  0.00     0.173 A 
ATOM     65  F   UNL A   1      46.050  29.322  33.713  1.00  0.00    -0.203 F 
ATOM     66  C   UNL A   1      46.793  27.865  35.409  1.00  0.00     0.198 A 
ATOM     67  C   UNL A   1      45.415  26.023  36.100  1.00  0.00     0.198 A 
ATOM     68  F   UNL A   1      43.343  25.648  35.055  1.00  0.00    -0.203 F 
ATOM     69  F   UNL A   1      47.929  28.569  35.516  1.00  0.00    -0.200 F 
ATOM     70  C   UNL A   1      46.580  26.764  36.226  1.00  0.00     0.200 A 
ATOM     71  F   UNL A   1      45.196  24.973  36.904  1.00  0.00    -0.200 F 
ATOM     72  F   UNL A   1      47.497  26.420  37.140  1.00  0.00    -0.200 F 
ENDBRANCH  39  62
ENDBRANCH  13  14
ENDBRANCH   6   8
ENDBRANCH   5   6
ENDBRANCH   4   5
ENDBRANCH   3   4
ENDBRANCH   2   3
ENDBRANCH   1   2
BRANCH   1  73
ATOM     73  C   UNL A   1      32.573  25.223  26.035  1.00  0.00     0.261 C 
BRANCH  73  74
ATOM     74  O   UNL A   1      33.234  24.551  24.965  1.00  0.00    -0.463 OA
BRANCH  74  75
ATOM     75  C   UNL A   1      33.000  23.263  24.628  1.00  0.00     0.312 C 
ATOM     76  O   UNL A   1      31.929  22.672  24.656  1.00  0.00    -0.252 OA
BRANCH  75  77
ATOM     77  C   UNL A   1      34.258  22.631  24.131  1.00  0.00     0.147 C 
ATOM     78  C   UNL A   1      34.801  21.527  25.056  1.00  0.00     0.128 C 
ATOM     79  C   UNL A   1      35.437  23.620  24.092  1.00  0.00     0.157 C 
ATOM     80  C   UNL A   1      36.160  22.106  25.474  1.00  0.00     0.155 C 
ATOM     81  C   UNL A   1      36.621  22.999  23.420  1.00  0.00     0.004 C 
ATOM     82  O   UNL A   1      35.878  23.529  25.476  1.00  0.00    -0.365 OA
ATOM     83  C   UNL A   1      37.083  22.079  24.278  1.00  0.00     0.004 C 
BRANCH  78  84
ATOM     84  C   UNL A   1      33.942  20.946  26.174  1.00  0.00     0.227 C 
ATOM     85  O   UNL A   1      34.046  21.465  27.297  1.00  0.00    -0.275 OA
ATOM     86  N   UNL A   1      33.060  19.927  26.107  1.00  0.00    -0.352 N 
ATOM     87  H   UNL A   1      32.685  19.702  26.989  1.00  0.00     0.163 HD
BRANCH  86  88
ATOM     88  C   UNL A   1      32.527  19.080  25.055  1.00  0.00     0.151 C 
BRANCH  88  89
ATOM     89  C   UNL A   1      33.052  17.652  25.074  1.00  0.00    -0.026 A 
ATOM     90  C   UNL A   1      32.290  16.546  25.472  1.00  0.00     0.025 A 
ATOM     91  C   UNL A   1      34.398  17.416  24.756  1.00  0.00     0.025 A 
ATOM     92  C   UNL A   1      32.899  15.301  25.586  1.00  0.00     0.111 A 
ATOM     93  C   UNL A   1      34.918  16.133  24.895  1.00  0.00     0.111 A 
ATOM     94  N   UNL A   1      34.201  15.073  25.318  1.00  0.00    -0.265 NA
ENDBRANCH  88  89
ENDBRANCH  86  88
ENDBRANCH  78  84
ENDBRANCH  75  77
ENDBRANCH  74  75
ENDBRANCH  73  74
ENDBRANCH   1  73
TORSDOF 17
ENDMDL
MODEL 2
REMARK VINA RESULT:     -12.0      3.526      9.191
REMARK SMILES O=C(OCCOCCOC(=O)[C@@H]1[C@H](C(=O)NCc2ccncc2)[C@H]2C=C[C@@H]1O2)c1ccc(-c2c3nc(c(-c4c(F)c(F)c(F)c(F)c4F)c4ccc([nH]4)c(-c4c(F)c(F)c(F)c(F)c4F)c4nc(c(-c5c(F)c(F)c(F)c(F)c5F)c5ccc2[nH]5)C=C4)C=C3)cc1
REMARK SMILES IDX 7 1 6 2 5 3 4 4 3 5 2 6 1 7 29 8 30 9 91 10 31 11 90 12
REMARK SMILES IDX 32 13 33 14 34 15 84 16 35 17 89 18 83 19 85 20 36 21 88 22
REMARK SMILES IDX 82 23 81 24 37 26 69 27 49 28 68 29 50 30 53 31 67 32 86 33
REMARK SMILES IDX 51 34 52 35 66 37 87 38 54 39 38 40 39 41 47 42 40 43 41 44
REMARK SMILES IDX 45 45 48 46 42 47 43 48 46 49 44 50 70 51 71 52 79 53 72 54
REMARK SMILES IDX 73 55 77 56 80 57 74 58 75 59 78 60 76 61 55 62 56 63 64 64
REMARK SMILES IDX 57 65 58 66 62 67 65 68 59 69 60 70 63 71 61 72 8 73 9 74
REMARK SMILES IDX 10 75 11 76 12 77 13 78 27 79 24 80 26 81 28 82 25 83 14 84
REMARK SMILES IDX 15 85 16 86 17 88 18 89 19 90 23 91 20 92 22 93 21 94
REMARK H PARENT 85 25 53 36 16 87
REMARK Flexibility Score: inf
ROOT
ATOM      1  C   UNL A   1      32.718  29.818  26.863  1.00  0.00     0.202 C 
ENDROOT
BRANCH   1   2
ATOM      2  O   UNL A   1      31.754  30.628  26.185  1.00  0.00    -0.374 OA
BRANCH   2   3
ATOM      3  C   UNL A   1      31.546  31.984  26.549  1.00  0.00     0.202 C 
BRANCH   3   4
ATOM      4  C   UNL A   1      32.606  32.593  27.458  1.00  0.00     0.261 C 
BRANCH   4   5
ATOM      5  O   UNL A   1      32.379  33.997  27.623  1.00  0.00    -0.460 OA
BRANCH   5   6
ATOM      6  C   UNL A   1      32.923  34.757  28.605  1.00  0.00     0.338 C 
ATOM      7  O   UNL A   1      32.532  35.912  28.748  1.00  0.00    -0.246 OA
BRANCH   6   8
ATOM      8  C   UNL A   1      34.158  34.320  29.337  1.00  0.00     0.060 A 
ATOM      9  C   UNL A   1      35.463  34.328  28.827  1.00  0.00     0.016 A 
ATOM     10  C   UNL A   1      33.986  33.940  30.681  1.00  0.00     0.016 A 
ATOM     11  C   UNL A   1      36.564  34.039  29.622  1.00  0.00     0.010 A 
ATOM     12  C   UNL A   1      35.074  33.547  31.464  1.00  0.00     0.010 A 
ATOM     13  C   UNL A   1      36.359  33.566  30.912  1.00  0.00    -0.014 A 
BRANCH  13  14
ATOM     14  C   UNL A   1      37.423  32.712  31.461  1.00  0.00     0.031 A 
ATOM     15  C   UNL A   1      37.878  33.050  32.852  1.00  0.00     0.074 A 
ATOM     16  C   UNL A   1      37.870  31.633  30.805  1.00  0.00     0.049 A 
ATOM     17  N   UNL A   1      38.804  32.501  33.589  1.00  0.00    -0.248 NA
ATOM     18  C   UNL A   1      37.162  34.155  33.519  1.00  0.00     0.031 C 
ATOM     19  C   UNL A   1      37.375  31.159  29.514  1.00  0.00     0.029 A 
ATOM     20  N   UNL A   1      38.847  30.739  31.147  1.00  0.00    -0.354 N 
ATOM     21  C   UNL A   1      38.781  33.198  34.789  1.00  0.00     0.074 A 
ATOM     22  C   UNL A   1      37.752  34.201  34.697  1.00  0.00     0.031 C 
ATOM     23  C   UNL A   1      38.079  30.071  29.157  1.00  0.00     0.029 A 
ATOM     24  C   UNL A   1      39.098  29.810  30.171  1.00  0.00     0.049 A 
ATOM     25  H   UNL A   1      39.323  30.760  32.010  1.00  0.00     0.167 HD
ATOM     26  C   UNL A   1      39.576  33.028  35.867  1.00  0.00     0.037 A 
ATOM     27  C   UNL A   1      40.082  28.892  30.105  1.00  0.00     0.037 A 
ATOM     28  C   UNL A   1      40.640  32.069  35.898  1.00  0.00     0.049 A 
ATOM     29  C   UNL A   1      41.051  28.807  31.259  1.00  0.00     0.074 A 
ATOM     30  C   UNL A   1      41.579  31.846  36.882  1.00  0.00     0.029 A 
ATOM     31  N   UNL A   1      40.914  31.184  34.861  1.00  0.00    -0.354 N 
ATOM     32  N   UNL A   1      41.070  29.495  32.378  1.00  0.00    -0.248 NA
ATOM     33  C   UNL A   1      42.140  27.829  31.143  1.00  0.00     0.031 C 
ATOM     34  C   UNL A   1      42.463  30.869  36.413  1.00  0.00     0.029 A 
ATOM     35  C   UNL A   1      42.027  30.428  35.170  1.00  0.00     0.049 A 
ATOM     36  H   UNL A   1      40.392  31.109  34.029  1.00  0.00     0.167 HD
ATOM     37  C   UNL A   1      42.146  29.015  33.111  1.00  0.00     0.074 A 
ATOM     38  C   UNL A   1      42.759  27.976  32.307  1.00  0.00     0.031 C 
ATOM     39  C   UNL A   1      42.587  29.390  34.338  1.00  0.00     0.037 A 
BRANCH  26  40
ATOM     40  C   UNL A   1      39.380  33.983  37.007  1.00  0.00     0.064 A 
ATOM     41  C   UNL A   1      40.003  35.242  37.043  1.00  0.00     0.173 A 
ATOM     42  C   UNL A   1      38.635  33.591  38.129  1.00  0.00     0.173 A 
ATOM     43  F   UNL A   1      40.764  35.648  36.015  1.00  0.00    -0.203 F 
ATOM     44  C   UNL A   1      39.923  36.049  38.176  1.00  0.00     0.198 A 
ATOM     45  C   UNL A   1      38.528  34.416  39.245  1.00  0.00     0.198 A 
ATOM     46  F   UNL A   1      38.034  32.392  38.157  1.00  0.00    -0.203 F 
ATOM     47  F   UNL A   1      40.599  37.206  38.221  1.00  0.00    -0.200 F 
ATOM     48  C   UNL A   1      39.184  35.637  39.274  1.00  0.00     0.200 A 
ATOM     49  F   UNL A   1      37.813  34.015  40.306  1.00  0.00    -0.200 F 
ATOM     50  F   UNL A   1      39.124  36.405  40.370  1.00  0.00    -0.200 F 
ENDBRANCH  26  40
BRANCH  27  51
ATOM     51  C   UNL A   1      40.220  28.040  28.895  1.00  0.00     0.064 A 
ATOM     52  C   UNL A   1      39.602  26.785  28.809  1.00  0.00     0.173 A 
ATOM     53  C   UNL A   1      40.964  28.473  27.785  1.00  0.00     0.173 A 
ATOM     54  F   UNL A   1      38.901  26.310  29.850  1.00  0.00    -0.203 F 
ATOM     55  C   UNL A   1      39.725  25.998  27.664  1.00  0.00     0.198 A 
ATOM     56  C   UNL A   1      41.062  27.698  26.631  1.00  0.00     0.198 A 
ATOM     57  F   UNL A   1      41.583  29.662  27.815  1.00  0.00    -0.203 F 
ATOM     58  F   UNL A   1      39.152  24.787  27.622  1.00  0.00    -0.200 F 
ATOM     59  C   UNL A   1      40.446  26.459  26.573  1.00  0.00     0.200 A 
ATOM     60  F   UNL A   1      41.752  28.154  25.577  1.00  0.00    -0.200 F 
ATOM     61  F   UNL A   1      40.555  25.705  25.469  1.00  0.00    -0.200 F 
ENDBRANCH  27  51
BRANCH  39  62
ATOM     62  C   UNL A   1      43.747  28.636  34.918  1.00  0.00     0.064 A 
ATOM     63  C   UNL A   1      43.569  27.459  35.656  1.00  0.00     0.173 A 
ATOM     64  C   UNL A   1      45.057  29.045  34.627  1.00  0.00     0.173 A 
ATOM     65  F   UNL A   1      42.335  27.033  35.964  1.00  0.00    -0.203 F 
ATOM     66  C   UNL A   1      44.667  26.721  36.091  1.00  0.00     0.198 A 
ATOM     67  C   UNL A   1      46.149  28.289  35.035  1.00  0.00     0.198 A 
ATOM     68  F   UNL A   1      45.274  30.159  33.910  1.00  0.00    -0.203 F 
ATOM     69  F   UNL A   1      44.479  25.612  36.820  1.00  0.00    -0.200 F 
ATOM     70  C   UNL A   1      45.953  27.129  35.769  1.00  0.00     0.200 A 
ATOM     71  F   UNL A   1      47.389  28.673  34.703  1.00  0.00    -0.200 F 
ATOM     72  F   UNL A   1      47.006  26.402  36.165  1.00  0.00    -0.200 F 
ENDBRANCH  39  62
ENDBRANCH  13  14
ENDBRANCH   6   8
ENDBRANCH   5   6
ENDBRANCH   4   5
ENDBRANCH   3   4
ENDBRANCH   2   3
ENDBRANCH   1   2
BRANCH   1  73
ATOM     73  C   UNL A   1      33.630  28.944  26.027  1.00  0.00     0.261 C 
BRANCH  73  74
ATOM     74  O   UNL A   1      33.288  27.563  25.949  1.00  0.00    -0.463 OA
BRANCH  74  75
ATOM     75  C   UNL A   1      32.334  27.069  25.130  1.00  0.00     0.312 C 
ATOM     76  O   UNL A   1      31.133  27.301  25.165  1.00  0.00    -0.252 OA
BRANCH  75  77
ATOM     77  C   UNL A   1      32.959  26.210  24.081  1.00  0.00     0.147 C 
ATOM     78  C   UNL A   1      33.137  26.921  22.727  1.00  0.00     0.128 C 
ATOM     79  C   UNL A   1      32.071  25.013  23.695  1.00  0.00     0.157 C 
ATOM     80  C   UNL A   1      32.247  26.075  21.806  1.00  0.00     0.155 C 
ATOM     81  C   UNL A   1      32.810  24.085  22.782  1.00  0.00     0.004 C 
ATOM     82  O   UNL A   1      31.202  25.658  22.722  1.00  0.00    -0.365 OA
ATOM     83  C   UNL A   1      32.902  24.727  21.609  1.00  0.00     0.004 C 
BRANCH  78  84
ATOM     84  C   UNL A   1      32.986  28.434  22.608  1.00  0.00     0.227 C 
ATOM     85  O   UNL A   1      34.028  29.109  22.603  1.00  0.00    -0.275 OA
ATOM     86  N   UNL A   1      31.851  29.155  22.501  1.00  0.00    -0.352 N 
ATOM     87  H   UNL A   1      32.025  30.124  22.508  1.00  0.00     0.163 HD
BRANCH  86  88
ATOM     88  C   UNL A   1      30.436  28.855  22.375  1.00  0.00     0.151 C 
BRANCH  88  89
ATOM     89  C   UNL A   1      29.529  30.074  22.438  1.00  0.00    -0.026 A 
ATOM     90  C   UNL A   1      28.926  30.539  23.614  1.00  0.00     0.025 A 
ATOM     91  C   UNL A   1      29.197  30.739  21.248  1.00  0.00     0.025 A 
ATOM     92  C   UNL A   1      28.006  31.579  23.547  1.00  0.00     0.111 A 
ATOM     93  C   UNL A   1      28.269  31.774  21.280  1.00  0.00     0.111 A 
ATOM     94  N   UNL A   1      27.653  32.199  22.401  1.00  0.00    -0.265 NA
ENDBRANCH  88  89
ENDBRANCH  86  88
ENDBRANCH  78  84
ENDBRANCH  75  77
ENDBRANCH  74  75
ENDBRANCH  73  74
ENDBRANCH   1  73
TORSDOF 17
ENDMDL
MODEL 3
REMARK VINA RESULT:     -12.0      4.476     10.362
REMARK SMILES O=C(OCCOCCOC(=O)[C@@H]1[C@H](C(=O)NCc2ccncc2)[C@H]2C=C[C@@H]1O2)c1ccc(-c2c3nc(c(-c4c(F)c(F)c(F)c(F)c4F)c4ccc([nH]4)c(-c4c(F)c(F)c(F)c(F)c4F)c4nc(c(-c5c(F)c(F)c(F)c(F)c5F)c5ccc2[nH]5)C=C4)C=C3)cc1
REMARK SMILES IDX 7 1 6 2 5 3 4 4 3 5 2 6 1 7 29 8 30 9 91 10 31 11 90 12
REMARK SMILES IDX 32 13 33 14 34 15 84 16 35 17 89 18 83 19 85 20 36 21 88 22
REMARK SMILES IDX 82 23 81 24 37 26 69 27 49 28 68 29 50 30 53 31 67 32 86 33
REMARK SMILES IDX 51 34 52 35 66 37 87 38 54 39 38 40 39 41 47 42 40 43 41 44
REMARK SMILES IDX 45 45 48 46 42 47 43 48 46 49 44 50 70 51 71 52 79 53 72 54
REMARK SMILES IDX 73 55 77 56 80 57 74 58 75 59 78 60 76 61 55 62 56 63 64 64
REMARK SMILES IDX 57 65 58 66 62 67 65 68 59 69 60 70 63 71 61 72 8 73 9 74
REMARK SMILES IDX 10 75 11 76 12 77 13 78 27 79 24 80 26 81 28 82 25 83 14 84
REMARK SMILES IDX 15 85 16 86 17 88 18 89 19 90 23 91 20 92 22 93 21 94
REMARK H PARENT 85 25 53 36 16 87
REMARK Flexibility Score: inf
ROOT
ATOM      1  C   UNL A   1      33.705  23.249  25.238  1.00  0.00     0.202 C 
ENDROOT
BRANCH   1   2
ATOM      2  O   UNL A   1      35.118  23.172  25.448  1.00  0.00    -0.374 OA
BRANCH   2   3
ATOM      3  C   UNL A   1      36.004  22.854  24.387  1.00  0.00     0.202 C 
BRANCH   3   4
ATOM      4  C   UNL A   1      36.757  21.537  24.528  1.00  0.00     0.261 C 
BRANCH   4   5
ATOM      5  O   UNL A   1      37.433  21.479  25.788  1.00  0.00    -0.460 OA
BRANCH   5   6
ATOM      6  C   UNL A   1      38.767  21.654  25.958  1.00  0.00     0.338 C 
ATOM      7  O   UNL A   1      39.517  20.695  25.803  1.00  0.00    -0.246 OA
BRANCH   6   8
ATOM      8  C   UNL A   1      39.317  22.905  26.580  1.00  0.00     0.060 A 
ATOM      9  C   UNL A   1      38.765  24.188  26.473  1.00  0.00     0.016 A 
ATOM     10  C   UNL A   1      40.448  22.748  27.401  1.00  0.00     0.016 A 
ATOM     11  C   UNL A   1      39.262  25.264  27.197  1.00  0.00     0.010 A 
ATOM     12  C   UNL A   1      41.022  23.842  28.055  1.00  0.00     0.010 A 
ATOM     13  C   UNL A   1      40.439  25.107  27.917  1.00  0.00    -0.014 A 
BRANCH  13  14
ATOM     14  C   UNL A   1      41.237  26.325  28.121  1.00  0.00     0.031 A 
ATOM     15  C   UNL A   1      40.558  27.429  28.881  1.00  0.00     0.074 A 
ATOM     16  C   UNL A   1      42.524  26.395  27.755  1.00  0.00     0.049 A 
ATOM     17  N   UNL A   1      40.990  28.618  29.196  1.00  0.00    -0.248 NA
ATOM     18  C   UNL A   1      39.201  27.134  29.381  1.00  0.00     0.031 C 
ATOM     19  C   UNL A   1      43.291  25.313  27.142  1.00  0.00     0.029 A 
ATOM     20  N   UNL A   1      43.410  27.432  27.852  1.00  0.00    -0.354 N 
ATOM     21  C   UNL A   1      39.959  29.205  29.917  1.00  0.00     0.074 A 
ATOM     22  C   UNL A   1      38.885  28.251  30.007  1.00  0.00     0.031 C 
ATOM     23  C   UNL A   1      44.535  25.758  26.888  1.00  0.00     0.029 A 
ATOM     24  C   UNL A   1      44.625  27.164  27.277  1.00  0.00     0.049 A 
ATOM     25  H   UNL A   1      43.196  28.287  28.293  1.00  0.00     0.167 HD
ATOM     26  C   UNL A   1      39.908  30.451  30.437  1.00  0.00     0.037 A 
ATOM     27  C   UNL A   1      45.661  27.995  27.055  1.00  0.00     0.037 A 
ATOM     28  C   UNL A   1      40.966  31.402  30.266  1.00  0.00     0.049 A 
ATOM     29  C   UNL A   1      45.535  29.426  27.518  1.00  0.00     0.074 A 
ATOM     30  C   UNL A   1      41.017  32.723  30.658  1.00  0.00     0.029 A 
ATOM     31  N   UNL A   1      42.162  31.120  29.615  1.00  0.00    -0.354 N 
ATOM     32  N   UNL A   1      44.544  30.006  28.157  1.00  0.00    -0.248 NA
ATOM     33  C   UNL A   1      46.661  30.322  27.226  1.00  0.00     0.031 C 
ATOM     34  C   UNL A   1      42.219  33.260  30.186  1.00  0.00     0.029 A 
ATOM     35  C   UNL A   1      42.951  32.252  29.570  1.00  0.00     0.049 A 
ATOM     36  H   UNL A   1      42.409  30.243  29.241  1.00  0.00     0.167 HD
ATOM     37  C   UNL A   1      44.936  31.320  28.371  1.00  0.00     0.074 A 
ATOM     38  C   UNL A   1      46.258  31.453  27.790  1.00  0.00     0.031 C 
ATOM     39  C   UNL A   1      44.272  32.326  28.994  1.00  0.00     0.037 A 
BRANCH  26  40
ATOM     40  C   UNL A   1      38.626  30.850  31.106  1.00  0.00     0.064 A 
ATOM     41  C   UNL A   1      37.536  31.365  30.384  1.00  0.00     0.173 A 
ATOM     42  C   UNL A   1      38.524  30.811  32.504  1.00  0.00     0.173 A 
ATOM     43  F   UNL A   1      37.598  31.467  29.047  1.00  0.00    -0.203 F 
ATOM     44  C   UNL A   1      36.413  31.864  31.041  1.00  0.00     0.198 A 
ATOM     45  C   UNL A   1      37.386  31.279  33.155  1.00  0.00     0.198 A 
ATOM     46  F   UNL A   1      39.543  30.347  33.243  1.00  0.00    -0.203 F 
ATOM     47  F   UNL A   1      35.424  32.432  30.337  1.00  0.00    -0.200 F 
ATOM     48  C   UNL A   1      36.339  31.819  32.425  1.00  0.00     0.200 A 
ATOM     49  F   UNL A   1      37.316  31.233  34.492  1.00  0.00    -0.200 F 
ATOM     50  F   UNL A   1      35.267  32.317  33.057  1.00  0.00    -0.200 F 
ENDBRANCH  26  40
BRANCH  27  51
ATOM     51  C   UNL A   1      46.859  27.506  26.324  1.00  0.00     0.064 A 
ATOM     52  C   UNL A   1      46.938  27.561  24.926  1.00  0.00     0.173 A 
ATOM     53  C   UNL A   1      47.967  26.987  27.015  1.00  0.00     0.173 A 
ATOM     54  F   UNL A   1      45.900  28.023  24.214  1.00  0.00    -0.203 F 
ATOM     55  C   UNL A   1      48.073  27.112  24.250  1.00  0.00     0.198 A 
ATOM     56  C   UNL A   1      49.111  26.567  26.340  1.00  0.00     0.198 A 
ATOM     57  F   UNL A   1      47.943  26.904  28.353  1.00  0.00    -0.203 F 
ATOM     58  F   UNL A   1      48.108  27.144  22.910  1.00  0.00    -0.200 F 
ATOM     59  C   UNL A   1      49.162  26.625  24.958  1.00  0.00     0.200 A 
ATOM     60  F   UNL A   1      50.163  26.106  27.031  1.00  0.00    -0.200 F 
ATOM     61  F   UNL A   1      50.256  26.205  24.307  1.00  0.00    -0.200 F 
ENDBRANCH  27  51
BRANCH  39  62
ATOM     62  C   UNL A   1      44.982  33.639  29.140  1.00  0.00     0.064 A 
ATOM     63  C   UNL A   1      44.854  34.659  28.189  1.00  0.00     0.173 A 
ATOM     64  C   UNL A   1      45.707  33.910  30.311  1.00  0.00     0.173 A 
ATOM     65  F   UNL A   1      44.176  34.442  27.052  1.00  0.00    -0.203 F 
ATOM     66  C   UNL A   1      45.436  35.905  28.402  1.00  0.00     0.198 A 
ATOM     67  C   UNL A   1      46.259  35.165  30.534  1.00  0.00     0.198 A 
ATOM     68  F   UNL A   1      45.843  32.967  31.256  1.00  0.00    -0.203 F 
ATOM     69  F   UNL A   1      45.327  36.861  27.469  1.00  0.00    -0.200 F 
ATOM     70  C   UNL A   1      46.126  36.161  29.579  1.00  0.00     0.200 A 
ATOM     71  F   UNL A   1      46.905  35.417  31.681  1.00  0.00    -0.200 F 
ATOM     72  F   UNL A   1      46.662  37.370  29.793  1.00  0.00    -0.200 F 
ENDBRANCH  39  62
ENDBRANCH  13  14
ENDBRANCH   6   8
ENDBRANCH   5   6
ENDBRANCH   4   5
ENDBRANCH   3   4
ENDBRANCH   2   3
ENDBRANCH   1   2
BRANCH   1  73
ATOM     73  C   UNL A   1      33.163  24.434  24.466  1.00  0.00     0.261 C 
BRANCH  73  74
ATOM     74  O   UNL A   1      32.048  25.109  25.043  1.00  0.00    -0.463 OA
BRANCH  74  75
ATOM     75  C   UNL A   1      31.353  26.085  24.417  1.00  0.00     0.312 C 
ATOM     76  O   UNL A   1      30.904  26.062  23.279  1.00  0.00    -0.252 OA
BRANCH  75  77
ATOM     77  C   UNL A   1      31.130  27.229  25.350  1.00  0.00     0.147 C 
ATOM     78  C   UNL A   1      31.553  28.590  24.767  1.00  0.00     0.128 C 
ATOM     79  C   UNL A   1      32.008  27.139  26.611  1.00  0.00     0.157 C 
ATOM     80  C   UNL A   1      32.669  29.014  25.732  1.00  0.00     0.155 C 
ATOM     81  C   UNL A   1      31.622  28.199  27.595  1.00  0.00     0.004 C 
ATOM     82  O   UNL A   1      33.235  27.729  26.098  1.00  0.00    -0.365 OA
ATOM     83  C   UNL A   1      32.048  29.355  27.067  1.00  0.00     0.004 C 
BRANCH  78  84
ATOM     84  C   UNL A   1      31.849  28.751  23.280  1.00  0.00     0.227 C 
ATOM     85  O   UNL A   1      33.028  28.613  22.918  1.00  0.00    -0.275 OA
ATOM     86  N   UNL A   1      30.984  29.022  22.280  1.00  0.00    -0.352 N 
ATOM     87  H   UNL A   1      31.442  29.142  21.416  1.00  0.00     0.163 HD
BRANCH  86  88
ATOM     88  C   UNL A   1      29.546  29.179  22.162  1.00  0.00     0.151 C 
BRANCH  88  89
ATOM     89  C   UNL A   1      29.076  30.625  22.100  1.00  0.00    -0.026 A 
ATOM     90  C   UNL A   1      29.109  31.504  23.190  1.00  0.00     0.025 A 
ATOM     91  C   UNL A   1      28.499  31.103  20.914  1.00  0.00     0.025 A 
ATOM     92  C   UNL A   1      28.532  32.763  23.070  1.00  0.00     0.111 A 
ATOM     93  C   UNL A   1      27.952  32.381  20.888  1.00  0.00     0.111 A 
ATOM     94  N   UNL A   1      27.941  33.217  21.945  1.00  0.00    -0.265 NA
ENDBRANCH  88  89
ENDBRANCH  86  88
ENDBRANCH  78  84
ENDBRANCH  75  77
ENDBRANCH  74  75
ENDBRANCH  73  74
ENDBRANCH   1  73
TORSDOF 17
ENDMDL
