MODEL 1
REMARK VINA RESULT:     -11.8      0.000      0.000
REMARK SMILES Cc1c(CC(=O)OCCOCCOC(=O)c2ccc(-c3c4nc(c(-c5c(F)c(F)c(F)c(F)c5F)c5ccc([nH]5)c(-c5c(F)c(F)c(F)c(F)c5F)c5nc(c(-c6c(F)c(F)c(F)c(F)c6F)c6ccc3[nH]6)C=C5)C=C4)cc2)cc(-c2ccc(S(C)(=O)=O)cc2)n1-c1ccccc1
REMARK SMILES IDX 9 1 8 2 7 3 5 4 6 5 4 6 3 7 1 8 2 9 91 10 79 11 80 12 92 13
REMARK SMILES IDX 93 14 97 15 94 16 96 17 95 18 81 19 82 20 90 21 83 22 89 23
REMARK SMILES IDX 84 24 85 25 86 26 87 27 88 28 10 29 11 30 12 31 13 32 14 33
REMARK SMILES IDX 15 34 16 35 17 36 78 37 18 38 77 39 19 40 20 41 21 42 71 43
REMARK SMILES IDX 22 44 76 45 70 46 72 47 23 48 75 49 69 50 68 51 24 53 56 54
REMARK SMILES IDX 36 55 55 56 37 57 40 58 54 59 73 60 38 61 39 62 53 64 74 65
REMARK SMILES IDX 41 66 25 67 26 68 34 69 27 70 28 71 32 72 35 73 29 74 30 75
REMARK SMILES IDX 33 76 31 77 57 78 58 79 66 80 59 81 60 82 64 83 67 84 61 85
REMARK SMILES IDX 62 86 65 87 63 88 42 89 43 90 51 91 44 92 45 93 49 94 52 95
REMARK SMILES IDX 46 96 47 97 50 98 48 99
REMARK H PARENT 72 52 40 63
REMARK Flexibility Score: inf
ROOT
ATOM      1  C   UNL A   1      37.362  21.807  24.890  1.00  0.00     0.202 C 
ENDROOT
BRANCH   1   2
ATOM      2  C   UNL A   1      36.091  21.225  25.553  1.00  0.00     0.261 C 
BRANCH   2   3
ATOM      3  O   UNL A   1      35.117  20.690  24.632  1.00  0.00    -0.463 OA
BRANCH   3   4
ATOM      4  C   UNL A   1      33.986  21.440  24.496  1.00  0.00     0.310 C 
ATOM      5  O   UNL A   1      32.933  21.212  25.088  1.00  0.00    -0.252 OA
BRANCH   4   6
ATOM      6  C   UNL A   1      34.060  22.538  23.455  1.00  0.00     0.160 C 
BRANCH   6   7
ATOM      7  C   UNL A   1      33.519  23.890  23.811  1.00  0.00    -0.015 A 
ATOM      8  C   UNL A   1      34.652  24.304  26.112  1.00  0.00     0.065 C 
ATOM      9  C   UNL A   1      33.790  24.653  24.940  1.00  0.00     0.024 A 
ATOM     10  N   UNL A   1      33.012  25.807  24.889  1.00  0.00    -0.314 N 
ATOM     11  C   UNL A   1      32.476  24.559  23.116  1.00  0.00     0.033 A 
ATOM     12  C   UNL A   1      32.125  25.697  23.821  1.00  0.00     0.053 A 
BRANCH  10  13
ATOM     13  C   UNL A   1      33.123  26.926  25.757  1.00  0.00     0.046 A 
ATOM     14  C   UNL A   1      32.283  27.046  26.869  1.00  0.00     0.026 A 
ATOM     15  C   UNL A   1      34.023  27.945  25.432  1.00  0.00     0.026 A 
ATOM     16  C   UNL A   1      32.337  28.202  27.648  1.00  0.00     0.002 A 
ATOM     17  C   UNL A   1      34.044  29.112  26.196  1.00  0.00     0.002 A 
ATOM     18  C   UNL A   1      33.202  29.240  27.301  1.00  0.00     0.000 A 
ENDBRANCH  10  13
BRANCH  12  19
ATOM     19  C   UNL A   1      31.083  26.666  23.478  1.00  0.00    -0.001 A 
ATOM     20  C   UNL A   1      29.752  26.466  23.871  1.00  0.00     0.011 A 
ATOM     21  C   UNL A   1      31.420  27.818  22.753  1.00  0.00     0.011 A 
ATOM     22  C   UNL A   1      28.767  27.397  23.534  1.00  0.00     0.021 A 
ATOM     23  C   UNL A   1      30.440  28.750  22.406  1.00  0.00     0.021 A 
ATOM     24  C   UNL A   1      29.116  28.529  22.793  1.00  0.00     0.067 A 
BRANCH  24  25
ATOM     25  S   UNL A   1      27.864  29.721  22.383  1.00  0.00     0.175 S 
ATOM     26  C   UNL A   1      28.236  31.114  23.415  1.00  0.00     0.163 C 
ATOM     27  O   UNL A   1      28.089  30.107  20.995  1.00  0.00    -0.224 OA
ATOM     28  O   UNL A   1      26.589  29.190  22.807  1.00  0.00    -0.224 OA
ENDBRANCH  24  25
ENDBRANCH  12  19
ENDBRANCH   6   7
ENDBRANCH   4   6
ENDBRANCH   3   4
ENDBRANCH   2   3
ENDBRANCH   1   2
BRANCH   1  29
ATOM     29  O   UNL A   1      38.273  22.502  25.740  1.00  0.00    -0.374 OA
BRANCH  29  30
ATOM     30  C   UNL A   1      39.391  21.719  26.148  1.00  0.00     0.202 C 
BRANCH  30  31
ATOM     31  C   UNL A   1      40.518  22.404  27.006  1.00  0.00     0.261 C 
BRANCH  31  32
ATOM     32  O   UNL A   1      41.502  23.383  26.482  1.00  0.00    -0.460 OA
BRANCH  32  33
ATOM     33  C   UNL A   1      42.829  23.290  26.914  1.00  0.00     0.338 C 
ATOM     34  O   UNL A   1      43.551  22.345  26.624  1.00  0.00    -0.246 OA
BRANCH  33  35
ATOM     35  C   UNL A   1      43.306  24.346  27.959  1.00  0.00     0.060 A 
ATOM     36  C   UNL A   1      44.173  25.473  27.832  1.00  0.00     0.016 A 
ATOM     37  C   UNL A   1      43.003  24.123  29.263  1.00  0.00     0.016 A 
ATOM     38  C   UNL A   1      44.619  26.424  28.984  1.00  0.00     0.010 A 
ATOM     39  C   UNL A   1      43.507  25.020  30.296  1.00  0.00     0.010 A 
ATOM     40  C   UNL A   1      44.304  26.237  30.344  1.00  0.00    -0.014 A 
BRANCH  40  41
ATOM     41  C   UNL A   1      44.025  27.422  31.678  1.00  0.00     0.031 A 
ATOM     42  C   UNL A   1      45.166  28.376  31.427  1.00  0.00     0.074 A 
ATOM     43  C   UNL A   1      43.045  28.028  32.611  1.00  0.00     0.049 A 
ATOM     44  N   UNL A   1      45.433  28.598  30.168  1.00  0.00    -0.248 NA
ATOM     45  C   UNL A   1      45.607  29.505  32.226  1.00  0.00     0.031 C 
ATOM     46  C   UNL A   1      41.685  27.589  33.064  1.00  0.00     0.029 A 
ATOM     47  N   UNL A   1      42.995  29.355  33.321  1.00  0.00    -0.354 N 
ATOM     48  C   UNL A   1      44.927  29.842  30.045  1.00  0.00     0.074 A 
ATOM     49  C   UNL A   1      45.480  30.452  31.275  1.00  0.00     0.031 C 
ATOM     50  C   UNL A   1      41.062  28.465  33.938  1.00  0.00     0.029 A 
ATOM     51  C   UNL A   1      41.831  29.702  34.166  1.00  0.00     0.049 A 
ATOM     52  H   UNL A   1      43.739  29.993  33.223  1.00  0.00     0.167 HD
ATOM     53  C   UNL A   1      43.798  30.160  29.308  1.00  0.00     0.037 A 
ATOM     54  C   UNL A   1      41.479  30.932  34.825  1.00  0.00     0.037 A 
ATOM     55  C   UNL A   1      43.514  31.540  29.312  1.00  0.00     0.049 A 
ATOM     56  C   UNL A   1      41.583  31.833  33.670  1.00  0.00     0.074 A 
ATOM     57  C   UNL A   1      44.226  32.676  29.596  1.00  0.00     0.029 A 
ATOM     58  N   UNL A   1      42.229  31.948  29.074  1.00  0.00    -0.354 N 
ATOM     59  N   UNL A   1      40.545  31.964  32.892  1.00  0.00    -0.248 NA
ATOM     60  C   UNL A   1      42.603  32.882  33.612  1.00  0.00     0.031 C 
ATOM     61  C   UNL A   1      43.252  33.489  30.218  1.00  0.00     0.029 A 
ATOM     62  C   UNL A   1      41.996  32.895  30.026  1.00  0.00     0.049 A 
ATOM     63  H   UNL A   1      41.613  31.629  28.375  1.00  0.00     0.167 HD
ATOM     64  C   UNL A   1      40.914  32.984  32.061  1.00  0.00     0.074 A 
ATOM     65  C   UNL A   1      42.002  33.675  32.723  1.00  0.00     0.031 C 
ATOM     66  C   UNL A   1      40.748  32.787  30.738  1.00  0.00     0.037 A 
BRANCH  53  67
ATOM     67  C   UNL A   1      42.772  29.239  28.520  1.00  0.00     0.064 A 
ATOM     68  C   UNL A   1      41.812  28.319  29.052  1.00  0.00     0.173 A 
ATOM     69  C   UNL A   1      42.739  29.315  27.122  1.00  0.00     0.173 A 
ATOM     70  F   UNL A   1      41.618  28.192  30.360  1.00  0.00    -0.203 F 
ATOM     71  C   UNL A   1      41.066  27.421  28.271  1.00  0.00     0.198 A 
ATOM     72  C   UNL A   1      41.919  28.487  26.337  1.00  0.00     0.198 A 
ATOM     73  F   UNL A   1      43.482  30.237  26.497  1.00  0.00    -0.203 F 
ATOM     74  F   UNL A   1      40.318  26.469  28.855  1.00  0.00    -0.200 F 
ATOM     75  C   UNL A   1      41.127  27.503  26.904  1.00  0.00     0.200 A 
ATOM     76  F   UNL A   1      41.895  28.660  25.009  1.00  0.00    -0.200 F 
ATOM     77  F   UNL A   1      40.414  26.666  26.138  1.00  0.00    -0.200 F 
ENDBRANCH  53  67
BRANCH  54  78
ATOM     78  C   UNL A   1      40.598  31.954  35.891  1.00  0.00     0.064 A 
ATOM     79  C   UNL A   1      39.212  32.014  36.102  1.00  0.00     0.173 A 
ATOM     80  C   UNL A   1      41.255  32.700  36.980  1.00  0.00     0.173 A 
ATOM     81  F   UNL A   1      38.374  31.530  35.180  1.00  0.00    -0.203 F 
ATOM     82  C   UNL A   1      38.613  32.621  37.282  1.00  0.00     0.198 A 
ATOM     83  C   UNL A   1      40.700  33.136  38.197  1.00  0.00     0.198 A 
ATOM     84  F   UNL A   1      42.462  33.246  36.847  1.00  0.00    -0.203 F 
ATOM     85  F   UNL A   1      37.280  32.737  37.373  1.00  0.00    -0.200 F 
ATOM     86  C   UNL A   1      39.356  33.104  38.354  1.00  0.00     0.200 A 
ATOM     87  F   UNL A   1      41.494  33.653  39.155  1.00  0.00    -0.200 F 
ATOM     88  F   UNL A   1      38.796  33.599  39.469  1.00  0.00    -0.200 F 
ENDBRANCH  54  78
BRANCH  66  89
ATOM     89  C   UNL A   1      39.575  31.846  30.489  1.00  0.00     0.064 A 
ATOM     90  C   UNL A   1      38.289  32.371  30.324  1.00  0.00     0.173 A 
ATOM     91  C   UNL A   1      39.645  30.463  30.750  1.00  0.00     0.173 A 
ATOM     92  F   UNL A   1      38.130  33.691  30.154  1.00  0.00    -0.203 F 
ATOM     93  C   UNL A   1      37.148  31.560  30.393  1.00  0.00     0.198 A 
ATOM     94  C   UNL A   1      38.513  29.642  30.803  1.00  0.00     0.198 A 
ATOM     95  F   UNL A   1      40.827  29.929  31.063  1.00  0.00    -0.203 F 
ATOM     96  F   UNL A   1      35.932  32.109  30.263  1.00  0.00    -0.200 F 
ATOM     97  C   UNL A   1      37.260  30.197  30.629  1.00  0.00     0.200 A 
ATOM     98  F   UNL A   1      38.635  28.331  31.056  1.00  0.00    -0.200 F 
ATOM     99  F   UNL A   1      36.163  29.430  30.709  1.00  0.00    -0.200 F 
ENDBRANCH  66  89
ENDBRANCH  40  41
ENDBRANCH  33  35
ENDBRANCH  32  33
ENDBRANCH  31  32
ENDBRANCH  30  31
ENDBRANCH  29  30
ENDBRANCH   1  29
TORSDOF 18
ENDMDL
MODEL 2
REMARK VINA RESULT:     -10.6      3.332      6.104
REMARK SMILES Cc1c(CC(=O)OCCOCCOC(=O)c2ccc(-c3c4nc(c(-c5c(F)c(F)c(F)c(F)c5F)c5ccc([nH]5)c(-c5c(F)c(F)c(F)c(F)c5F)c5nc(c(-c6c(F)c(F)c(F)c(F)c6F)c6ccc3[nH]6)C=C5)C=C4)cc2)cc(-c2ccc(S(C)(=O)=O)cc2)n1-c1ccccc1
REMARK SMILES IDX 9 1 8 2 7 3 5 4 6 5 4 6 3 7 1 8 2 9 91 10 79 11 80 12 92 13
REMARK SMILES IDX 93 14 97 15 94 16 96 17 95 18 81 19 82 20 90 21 83 22 89 23
REMARK SMILES IDX 84 24 85 25 86 26 87 27 88 28 10 29 11 30 12 31 13 32 14 33
REMARK SMILES IDX 15 34 16 35 17 36 78 37 18 38 77 39 19 40 20 41 21 42 71 43
REMARK SMILES IDX 22 44 76 45 70 46 72 47 23 48 75 49 69 50 68 51 24 53 56 54
REMARK SMILES IDX 36 55 55 56 37 57 40 58 54 59 73 60 38 61 39 62 53 64 74 65
REMARK SMILES IDX 41 66 25 67 26 68 34 69 27 70 28 71 32 72 35 73 29 74 30 75
REMARK SMILES IDX 33 76 31 77 57 78 58 79 66 80 59 81 60 82 64 83 67 84 61 85
REMARK SMILES IDX 62 86 65 87 63 88 42 89 43 90 51 91 44 92 45 93 49 94 52 95
REMARK SMILES IDX 46 96 47 97 50 98 48 99
REMARK H PARENT 72 52 40 63
REMARK Flexibility Score: inf
ROOT
ATOM      1  C   UNL A   1      44.648  21.307  25.723  1.00  0.00     0.202 C 
ENDROOT
BRANCH   1   2
ATOM      2  C   UNL A   1      44.221  20.089  24.871  1.00  0.00     0.261 C 
BRANCH   2   3
ATOM      3  O   UNL A   1      42.853  19.667  25.058  1.00  0.00    -0.463 OA
BRANCH   3   4
ATOM      4  C   UNL A   1      42.645  18.866  26.142  1.00  0.00     0.310 C 
ATOM      5  O   UNL A   1      42.969  17.681  26.195  1.00  0.00    -0.252 OA
BRANCH   4   6
ATOM      6  C   UNL A   1      41.863  19.499  27.274  1.00  0.00     0.160 C 
BRANCH   6   7
ATOM      7  C   UNL A   1      41.078  20.743  26.984  1.00  0.00    -0.015 A 
ATOM      8  C   UNL A   1      42.301  22.480  28.478  1.00  0.00     0.065 C 
ATOM      9  C   UNL A   1      41.280  22.023  27.485  1.00  0.00     0.024 A 
ATOM     10  N   UNL A   1      40.270  22.851  27.002  1.00  0.00    -0.314 N 
ATOM     11  C   UNL A   1      39.855  20.785  26.261  1.00  0.00     0.033 A 
ATOM     12  C   UNL A   1      39.334  22.065  26.335  1.00  0.00     0.053 A 
BRANCH  10  13
ATOM     13  C   UNL A   1      40.216  24.264  27.134  1.00  0.00     0.046 A 
ATOM     14  C   UNL A   1      39.652  24.848  28.272  1.00  0.00     0.026 A 
ATOM     15  C   UNL A   1      40.655  25.058  26.069  1.00  0.00     0.026 A 
ATOM     16  C   UNL A   1      39.514  26.235  28.336  1.00  0.00     0.002 A 
ATOM     17  C   UNL A   1      40.479  26.440  26.126  1.00  0.00     0.002 A 
ATOM     18  C   UNL A   1      39.910  27.027  27.257  1.00  0.00     0.000 A 
ENDBRANCH  10  13
BRANCH  12  19
ATOM     19  C   UNL A   1      38.079  22.546  25.753  1.00  0.00    -0.001 A 
ATOM     20  C   UNL A   1      37.527  21.934  24.620  1.00  0.00     0.011 A 
ATOM     21  C   UNL A   1      37.415  23.631  26.342  1.00  0.00     0.011 A 
ATOM     22  C   UNL A   1      36.332  22.405  24.072  1.00  0.00     0.021 A 
ATOM     23  C   UNL A   1      36.223  24.113  25.796  1.00  0.00     0.021 A 
ATOM     24  C   UNL A   1      35.693  23.501  24.658  1.00  0.00     0.067 A 
BRANCH  24  25
ATOM     25  S   UNL A   1      34.162  24.086  23.971  1.00  0.00     0.175 S 
ATOM     26  C   UNL A   1      33.898  25.648  24.766  1.00  0.00     0.163 C 
ATOM     27  O   UNL A   1      34.403  24.329  22.554  1.00  0.00    -0.224 OA
ATOM     28  O   UNL A   1      33.111  23.192  24.401  1.00  0.00    -0.224 OA
ENDBRANCH  24  25
ENDBRANCH  12  19
ENDBRANCH   6   7
ENDBRANCH   4   6
ENDBRANCH   3   4
ENDBRANCH   2   3
ENDBRANCH   1   2
BRANCH   1  29
ATOM     29  O   UNL A   1      46.026  21.675  25.679  1.00  0.00    -0.374 OA
BRANCH  29  30
ATOM     30  C   UNL A   1      46.403  22.353  24.485  1.00  0.00     0.202 C 
BRANCH  30  31
ATOM     31  C   UNL A   1      46.553  23.919  24.521  1.00  0.00     0.261 C 
BRANCH  31  32
ATOM     32  O   UNL A   1      45.424  24.873  24.649  1.00  0.00    -0.460 OA
BRANCH  32  33
ATOM     33  C   UNL A   1      45.696  26.171  25.094  1.00  0.00     0.338 C 
ATOM     34  O   UNL A   1      46.425  26.938  24.480  1.00  0.00    -0.246 OA
BRANCH  33  35
ATOM     35  C   UNL A   1      45.194  26.546  26.523  1.00  0.00     0.060 A 
ATOM     36  C   UNL A   1      45.898  26.994  27.682  1.00  0.00     0.016 A 
ATOM     37  C   UNL A   1      43.900  26.275  26.827  1.00  0.00     0.016 A 
ATOM     38  C   UNL A   1      45.275  27.279  29.082  1.00  0.00     0.010 A 
ATOM     39  C   UNL A   1      43.399  26.509  28.176  1.00  0.00     0.010 A 
ATOM     40  C   UNL A   1      43.931  27.033  29.426  1.00  0.00    -0.014 A 
BRANCH  40  41
ATOM     41  C   UNL A   1      42.819  27.876  30.573  1.00  0.00     0.031 A 
ATOM     42  C   UNL A   1      43.622  27.770  31.846  1.00  0.00     0.074 A 
ATOM     43  C   UNL A   1      41.726  28.865  30.737  1.00  0.00     0.049 A 
ATOM     44  N   UNL A   1      44.912  27.904  31.697  1.00  0.00    -0.248 NA
ATOM     45  C   UNL A   1      43.245  28.137  33.198  1.00  0.00     0.031 C 
ATOM     46  C   UNL A   1      40.753  29.457  29.762  1.00  0.00     0.029 A 
ATOM     47  N   UNL A   1      41.294  29.728  31.892  1.00  0.00    -0.354 N 
ATOM     48  C   UNL A   1      45.070  29.143  32.205  1.00  0.00     0.074 A 
ATOM     49  C   UNL A   1      44.244  29.013  33.426  1.00  0.00     0.031 C 
ATOM     50  C   UNL A   1      39.889  30.389  30.312  1.00  0.00     0.029 A 
ATOM     51  C   UNL A   1      40.170  30.677  31.730  1.00  0.00     0.049 A 
ATOM     52  H   UNL A   1      41.760  29.661  32.757  1.00  0.00     0.167 HD
ATOM     53  C   UNL A   1      45.409  30.260  31.458  1.00  0.00     0.037 A 
ATOM     54  C   UNL A   1      39.662  31.694  32.612  1.00  0.00     0.037 A 
ATOM     55  C   UNL A   1      45.552  31.421  32.244  1.00  0.00     0.049 A 
ATOM     56  C   UNL A   1      40.921  32.403  32.874  1.00  0.00     0.074 A 
ATOM     57  C   UNL A   1      45.745  31.671  33.577  1.00  0.00     0.029 A 
ATOM     58  N   UNL A   1      45.392  32.643  31.647  1.00  0.00    -0.354 N 
ATOM     59  N   UNL A   1      41.295  33.330  32.038  1.00  0.00    -0.248 NA
ATOM     60  C   UNL A   1      41.520  32.421  34.210  1.00  0.00     0.031 C 
ATOM     61  C   UNL A   1      44.976  32.840  33.773  1.00  0.00     0.029 A 
ATOM     62  C   UNL A   1      44.606  33.339  32.516  1.00  0.00     0.049 A 
ATOM     63  H   UNL A   1      45.761  32.949  30.787  1.00  0.00     0.167 HD
ATOM     64  C   UNL A   1      42.371  33.891  32.666  1.00  0.00     0.074 A 
ATOM     65  C   UNL A   1      42.269  33.517  34.062  1.00  0.00     0.031 C 
ATOM     66  C   UNL A   1      43.494  34.048  31.936  1.00  0.00     0.037 A 
BRANCH  53  67
ATOM     67  C   UNL A   1      45.607  30.448  29.893  1.00  0.00     0.064 A 
ATOM     68  C   UNL A   1      44.625  30.776  28.905  1.00  0.00     0.173 A 
ATOM     69  C   UNL A   1      46.895  30.313  29.360  1.00  0.00     0.173 A 
ATOM     70  F   UNL A   1      43.368  31.052  29.235  1.00  0.00    -0.203 F 
ATOM     71  C   UNL A   1      44.862  30.752  27.520  1.00  0.00     0.198 A 
ATOM     72  C   UNL A   1      47.155  30.387  27.981  1.00  0.00     0.198 A 
ATOM     73  F   UNL A   1      47.934  30.147  30.187  1.00  0.00    -0.203 F 
ATOM     74  F   UNL A   1      43.847  30.898  26.652  1.00  0.00    -0.200 F 
ATOM     75  C   UNL A   1      46.137  30.549  27.058  1.00  0.00     0.200 A 
ATOM     76  F   UNL A   1      48.421  30.311  27.550  1.00  0.00    -0.200 F 
ATOM     77  F   UNL A   1      46.391  30.535  25.742  1.00  0.00    -0.200 F 
ENDBRANCH  53  67
BRANCH  54  78
ATOM     78  C   UNL A   1      38.556  32.885  33.176  1.00  0.00     0.064 A 
ATOM     79  C   UNL A   1      37.741  33.747  32.428  1.00  0.00     0.173 A 
ATOM     80  C   UNL A   1      38.089  32.918  34.574  1.00  0.00     0.173 A 
ATOM     81  F   UNL A   1      38.035  34.005  31.150  1.00  0.00    -0.203 F 
ATOM     82  C   UNL A   1      36.579  34.426  32.985  1.00  0.00     0.198 A 
ATOM     83  C   UNL A   1      36.880  33.431  35.078  1.00  0.00     0.198 A 
ATOM     84  F   UNL A   1      38.885  32.628  35.602  1.00  0.00    -0.203 F 
ATOM     85  F   UNL A   1      35.903  35.316  32.244  1.00  0.00    -0.200 F 
ATOM     86  C   UNL A   1      36.111  34.204  34.276  1.00  0.00     0.200 A 
ATOM     87  F   UNL A   1      36.540  33.221  36.364  1.00  0.00    -0.200 F 
ATOM     88  F   UNL A   1      34.999  34.780  34.760  1.00  0.00    -0.200 F 
ENDBRANCH  54  78
BRANCH  66  89
ATOM     89  C   UNL A   1      43.141  34.254  30.467  1.00  0.00     0.064 A 
ATOM     90  C   UNL A   1      44.151  34.212  29.500  1.00  0.00     0.173 A 
ATOM     91  C   UNL A   1      41.917  34.819  30.054  1.00  0.00     0.173 A 
ATOM     92  F   UNL A   1      45.369  33.767  29.835  1.00  0.00    -0.203 F 
ATOM     93  C   UNL A   1      43.942  34.685  28.197  1.00  0.00     0.198 A 
ATOM     94  C   UNL A   1      41.694  35.276  28.751  1.00  0.00     0.198 A 
ATOM     95  F   UNL A   1      40.966  35.022  30.967  1.00  0.00    -0.203 F 
ATOM     96  F   UNL A   1      44.947  34.657  27.310  1.00  0.00    -0.200 F 
ATOM     97  C   UNL A   1      42.715  35.212  27.822  1.00  0.00     0.200 A 
ATOM     98  F   UNL A   1      40.511  35.805  28.410  1.00  0.00    -0.200 F 
ATOM     99  F   UNL A   1      42.527  35.677  26.578  1.00  0.00    -0.200 F 
ENDBRANCH  66  89
ENDBRANCH  40  41
ENDBRANCH  33  35
ENDBRANCH  32  33
ENDBRANCH  31  32
ENDBRANCH  30  31
ENDBRANCH  29  30
ENDBRANCH   1  29
TORSDOF 18
ENDMDL
MODEL 3
REMARK VINA RESULT:     -10.6      2.472      4.657
REMARK SMILES Cc1c(CC(=O)OCCOCCOC(=O)c2ccc(-c3c4nc(c(-c5c(F)c(F)c(F)c(F)c5F)c5ccc([nH]5)c(-c5c(F)c(F)c(F)c(F)c5F)c5nc(c(-c6c(F)c(F)c(F)c(F)c6F)c6ccc3[nH]6)C=C5)C=C4)cc2)cc(-c2ccc(S(C)(=O)=O)cc2)n1-c1ccccc1
REMARK SMILES IDX 9 1 8 2 7 3 5 4 6 5 4 6 3 7 1 8 2 9 91 10 79 11 80 12 92 13
REMARK SMILES IDX 93 14 97 15 94 16 96 17 95 18 81 19 82 20 90 21 83 22 89 23
REMARK SMILES IDX 84 24 85 25 86 26 87 27 88 28 10 29 11 30 12 31 13 32 14 33
REMARK SMILES IDX 15 34 16 35 17 36 78 37 18 38 77 39 19 40 20 41 21 42 71 43
REMARK SMILES IDX 22 44 76 45 70 46 72 47 23 48 75 49 69 50 68 51 24 53 56 54
REMARK SMILES IDX 36 55 55 56 37 57 40 58 54 59 73 60 38 61 39 62 53 64 74 65
REMARK SMILES IDX 41 66 25 67 26 68 34 69 27 70 28 71 32 72 35 73 29 74 30 75
REMARK SMILES IDX 33 76 31 77 57 78 58 79 66 80 59 81 60 82 64 83 67 84 61 85
REMARK SMILES IDX 62 86 65 87 63 88 42 89 43 90 51 91 44 92 45 93 49 94 52 95
REMARK SMILES IDX 46 96 47 97 50 98 48 99
REMARK H PARENT 72 52 40 63
REMARK Flexibility Score: inf
ROOT
ATOM      1  C   UNL A   1      37.897  21.836  25.785  1.00  0.00     0.202 C 
ENDROOT
BRANCH   1   2
ATOM      2  C   UNL A   1      37.257  21.473  24.424  1.00  0.00     0.261 C 
BRANCH   2   3
ATOM      3  O   UNL A   1      35.846  21.757  24.322  1.00  0.00    -0.463 OA
BRANCH   3   4
ATOM      4  C   UNL A   1      35.515  22.668  23.362  1.00  0.00     0.310 C 
ATOM      5  O   UNL A   1      36.335  23.332  22.730  1.00  0.00    -0.252 OA
BRANCH   4   6
ATOM      6  C   UNL A   1      34.031  22.913  23.187  1.00  0.00     0.160 C 
BRANCH   6   7
ATOM      7  C   UNL A   1      33.473  24.232  23.633  1.00  0.00    -0.015 A 
ATOM      8  C   UNL A   1      34.326  24.346  26.084  1.00  0.00     0.065 C 
ATOM      9  C   UNL A   1      33.617  24.853  24.868  1.00  0.00     0.024 A 
ATOM     10  N   UNL A   1      32.871  26.027  24.861  1.00  0.00    -0.314 N 
ATOM     11  C   UNL A   1      32.532  25.007  22.903  1.00  0.00     0.033 A 
ATOM     12  C   UNL A   1      32.118  26.067  23.690  1.00  0.00     0.053 A 
BRANCH  10  13
ATOM     13  C   UNL A   1      32.894  27.036  25.860  1.00  0.00     0.046 A 
ATOM     14  C   UNL A   1      31.783  27.241  26.686  1.00  0.00     0.026 A 
ATOM     15  C   UNL A   1      34.009  27.875  25.946  1.00  0.00     0.026 A 
ATOM     16  C   UNL A   1      31.787  28.304  27.590  1.00  0.00     0.002 A 
ATOM     17  C   UNL A   1      33.989  28.956  26.827  1.00  0.00     0.002 A 
ATOM     18  C   UNL A   1      32.880  29.170  27.647  1.00  0.00     0.000 A 
ENDBRANCH  10  13
BRANCH  12  19
ATOM     19  C   UNL A   1      31.140  27.100  23.342  1.00  0.00    -0.001 A 
ATOM     20  C   UNL A   1      31.548  28.328  22.804  1.00  0.00     0.011 A 
ATOM     21  C   UNL A   1      29.774  26.855  23.541  1.00  0.00     0.011 A 
ATOM     22  C   UNL A   1      30.605  29.307  22.480  1.00  0.00     0.021 A 
ATOM     23  C   UNL A   1      28.825  27.831  23.227  1.00  0.00     0.021 A 
ATOM     24  C   UNL A   1      29.249  29.055  22.704  1.00  0.00     0.067 A 
BRANCH  24  25
ATOM     25  S   UNL A   1      28.051  30.294  22.272  1.00  0.00     0.175 S 
ATOM     26  C   UNL A   1      28.836  31.825  22.697  1.00  0.00     0.163 C 
ATOM     27  O   UNL A   1      27.899  30.246  20.822  1.00  0.00    -0.224 OA
ATOM     28  O   UNL A   1      26.909  30.131  23.142  1.00  0.00    -0.224 OA
ENDBRANCH  24  25
ENDBRANCH  12  19
ENDBRANCH   6   7
ENDBRANCH   4   6
ENDBRANCH   3   4
ENDBRANCH   2   3
ENDBRANCH   1   2
BRANCH   1  29
ATOM     29  O   UNL A   1      37.709  23.172  26.251  1.00  0.00    -0.374 OA
BRANCH  29  30
ATOM     30  C   UNL A   1      38.914  23.926  26.336  1.00  0.00     0.202 C 
BRANCH  30  31
ATOM     31  C   UNL A   1      39.182  24.775  27.633  1.00  0.00     0.261 C 
BRANCH  31  32
ATOM     32  O   UNL A   1      39.141  26.257  27.697  1.00  0.00    -0.460 OA
BRANCH  32  33
ATOM     33  C   UNL A   1      40.301  26.970  27.379  1.00  0.00     0.338 C 
ATOM     34  O   UNL A   1      40.973  26.725  26.387  1.00  0.00    -0.246 OA
BRANCH  33  35
ATOM     35  C   UNL A   1      40.830  27.972  28.453  1.00  0.00     0.060 A 
ATOM     36  C   UNL A   1      40.162  28.981  29.210  1.00  0.00     0.016 A 
ATOM     37  C   UNL A   1      42.172  28.052  28.632  1.00  0.00     0.016 A 
ATOM     38  C   UNL A   1      40.828  29.965  30.219  1.00  0.00     0.010 A 
ATOM     39  C   UNL A   1      42.732  29.039  29.547  1.00  0.00     0.010 A 
ATOM     40  C   UNL A   1      42.215  30.060  30.449  1.00  0.00    -0.014 A 
BRANCH  40  41
ATOM     41  C   UNL A   1      43.153  30.483  31.933  1.00  0.00     0.031 A 
ATOM     42  C   UNL A   1      43.926  31.674  31.426  1.00  0.00     0.074 A 
ATOM     43  C   UNL A   1      43.226  30.413  33.412  1.00  0.00     0.049 A 
ATOM     44  N   UNL A   1      43.267  32.456  30.616  1.00  0.00    -0.248 NA
ATOM     45  C   UNL A   1      44.980  32.426  32.083  1.00  0.00     0.031 C 
ATOM     46  C   UNL A   1      42.527  29.544  34.414  1.00  0.00     0.029 A 
ATOM     47  N   UNL A   1      43.910  31.273  34.443  1.00  0.00    -0.354 N 
ATOM     48  C   UNL A   1      43.037  33.496  31.443  1.00  0.00     0.074 A 
ATOM     49  C   UNL A   1      44.383  33.634  32.041  1.00  0.00     0.031 C 
ATOM     50  C   UNL A   1      42.853  29.815  35.733  1.00  0.00     0.029 A 
ATOM     51  C   UNL A   1      43.752  30.973  35.883  1.00  0.00     0.049 A 
ATOM     52  H   UNL A   1      44.463  32.036  34.157  1.00  0.00     0.167 HD
ATOM     53  C   UNL A   1      41.790  33.846  31.935  1.00  0.00     0.037 A 
ATOM     54  C   UNL A   1      44.174  31.705  37.048  1.00  0.00     0.037 A 
ATOM     55  C   UNL A   1      41.824  34.999  32.743  1.00  0.00     0.049 A 
ATOM     56  C   UNL A   1      43.586  33.007  36.710  1.00  0.00     0.074 A 
ATOM     57  C   UNL A   1      42.706  36.033  32.920  1.00  0.00     0.029 A 
ATOM     58  N   UNL A   1      40.833  35.183  33.670  1.00  0.00    -0.354 N 
ATOM     59  N   UNL A   1      42.343  33.228  37.034  1.00  0.00    -0.248 NA
ATOM     60  C   UNL A   1      44.428  34.175  36.440  1.00  0.00     0.031 C 
ATOM     61  C   UNL A   1      42.601  36.278  34.307  1.00  0.00     0.029 A 
ATOM     62  C   UNL A   1      41.496  35.567  34.797  1.00  0.00     0.049 A 
ATOM     63  H   UNL A   1      39.863  35.065  33.550  1.00  0.00     0.167 HD
ATOM     64  C   UNL A   1      42.186  34.556  36.752  1.00  0.00     0.074 A 
ATOM     65  C   UNL A   1      43.519  35.120  36.692  1.00  0.00     0.031 C 
ATOM     66  C   UNL A   1      41.111  34.905  36.017  1.00  0.00     0.037 A 
BRANCH  53  67
ATOM     67  C   UNL A   1      40.372  33.145  31.779  1.00  0.00     0.064 A 
ATOM     68  C   UNL A   1      39.882  31.972  32.438  1.00  0.00     0.173 A 
ATOM     69  C   UNL A   1      39.430  33.723  30.920  1.00  0.00     0.173 A 
ATOM     70  F   UNL A   1      40.591  31.349  33.372  1.00  0.00    -0.203 F 
ATOM     71  C   UNL A   1      38.677  31.329  32.107  1.00  0.00     0.198 A 
ATOM     72  C   UNL A   1      38.180  33.136  30.661  1.00  0.00     0.198 A 
ATOM     73  F   UNL A   1      39.700  34.903  30.347  1.00  0.00    -0.203 F 
ATOM     74  F   UNL A   1      38.371  30.136  32.646  1.00  0.00    -0.200 F 
ATOM     75  C   UNL A   1      37.825  31.915  31.206  1.00  0.00     0.200 A 
ATOM     76  F   UNL A   1      37.306  33.779  29.876  1.00  0.00    -0.200 F 
ATOM     77  F   UNL A   1      36.664  31.327  30.885  1.00  0.00    -0.200 F 
ENDBRANCH  53  67
BRANCH  54  78
ATOM     78  C   UNL A   1      44.479  31.968  38.720  1.00  0.00     0.064 A 
ATOM     79  C   UNL A   1      43.590  31.861  39.801  1.00  0.00     0.173 A 
ATOM     80  C   UNL A   1      45.848  32.035  39.264  1.00  0.00     0.173 A 
ATOM     81  F   UNL A   1      42.272  31.919  39.590  1.00  0.00    -0.203 F 
ATOM     82  C   UNL A   1      44.031  31.722  41.181  1.00  0.00     0.198 A 
ATOM     83  C   UNL A   1      46.285  31.733  40.567  1.00  0.00     0.198 A 
ATOM     84  F   UNL A   1      46.853  32.606  38.603  1.00  0.00    -0.203 F 
ATOM     85  F   UNL A   1      43.131  31.727  42.176  1.00  0.00    -0.200 F 
ATOM     86  C   UNL A   1      45.365  31.579  41.548  1.00  0.00     0.200 A 
ATOM     87  F   UNL A   1      47.602  31.682  40.843  1.00  0.00    -0.200 F 
ATOM     88  F   UNL A   1      45.759  31.381  42.815  1.00  0.00    -0.200 F 
ENDBRANCH  54  78
BRANCH  66  89
ATOM     89  C   UNL A   1      39.966  33.929  36.265  1.00  0.00     0.064 A 
ATOM     90  C   UNL A   1      39.018  34.210  37.254  1.00  0.00     0.173 A 
ATOM     91  C   UNL A   1      39.989  32.600  35.794  1.00  0.00     0.173 A 
ATOM     92  F   UNL A   1      38.986  35.427  37.813  1.00  0.00    -0.203 F 
ATOM     93  C   UNL A   1      38.135  33.229  37.727  1.00  0.00     0.198 A 
ATOM     94  C   UNL A   1      39.099  31.620  36.246  1.00  0.00     0.198 A 
ATOM     95  F   UNL A   1      40.963  32.233  34.960  1.00  0.00    -0.203 F 
ATOM     96  F   UNL A   1      37.264  33.531  38.700  1.00  0.00    -0.200 F 
ATOM     97  C   UNL A   1      38.173  31.938  37.221  1.00  0.00     0.200 A 
ATOM     98  F   UNL A   1      39.163  30.370  35.766  1.00  0.00    -0.200 F 
ATOM     99  F   UNL A   1      37.335  31.001  37.689  1.00  0.00    -0.200 F 
ENDBRANCH  66  89
ENDBRANCH  40  41
ENDBRANCH  33  35
ENDBRANCH  32  33
ENDBRANCH  31  32
ENDBRANCH  30  31
ENDBRANCH  29  30
ENDBRANCH   1  29
TORSDOF 18
ENDMDL
