MODEL 1
REMARK VINA RESULT:     -12.0      0.000      0.000
REMARK SMILES C[C@@H]1[C@H](C(=O)OCCOCCOC(=O)c2ccc(-c3c4nc(c(-c5c(F)c(F)c(F)c(F)c5F)c5ccc([nH]5)c(-c5c(F)c(F)c(F)c(F)c5F)c5nc(c(-c6c(F)c(F)c(F)c(F)c6F)c6ccc3[nH]6)C=C5)C=C4)cc2)CCN1C(=O)N1CCc2ccccc21
REMARK SMILES IDX 9 1 8 2 7 3 6 4 4 5 5 6 3 7 1 8 2 9 80 10 78 11 79 12 81 13
REMARK SMILES IDX 82 14 83 15 84 16 91 17 85 18 86 19 90 20 87 21 89 22 88 23
REMARK SMILES IDX 10 24 11 25 12 26 13 27 14 28 15 29 16 30 77 31 17 32 76 33
REMARK SMILES IDX 18 34 19 35 20 36 70 37 21 38 75 39 69 40 71 41 22 42 74 43
REMARK SMILES IDX 68 44 67 45 23 47 55 48 35 49 54 50 36 51 39 52 53 53 72 54
REMARK SMILES IDX 37 55 38 56 52 58 73 59 40 60 24 61 25 62 33 63 26 64 27 65
REMARK SMILES IDX 31 66 34 67 28 68 29 69 32 70 30 71 56 72 57 73 65 74 58 75
REMARK SMILES IDX 59 76 63 77 66 78 60 79 61 80 64 81 62 82 41 83 42 84 50 85
REMARK SMILES IDX 43 86 44 87 48 88 51 89 45 90 46 91 49 92 47 93
REMARK H PARENT 71 46 39 57
REMARK Flexibility Score: inf
ROOT
ATOM      1  O   UNL A   1      42.231  20.926  27.336  1.00  0.00    -0.374 OA
ENDROOT
BRANCH   1   2
ATOM      2  C   UNL A   1      40.838  21.202  27.400  1.00  0.00     0.202 C 
BRANCH   2   3
ATOM      3  C   UNL A   1      39.990  20.960  26.148  1.00  0.00     0.261 C 
BRANCH   3   4
ATOM      4  O   UNL A   1      38.812  21.780  26.076  1.00  0.00    -0.463 OA
BRANCH   4   5
ATOM      5  C   UNL A   1      37.836  21.292  25.274  1.00  0.00     0.311 C 
ATOM      6  O   UNL A   1      37.789  20.135  24.868  1.00  0.00    -0.252 OA
BRANCH   5   7
ATOM      7  C   UNL A   1      36.805  22.296  24.838  1.00  0.00     0.123 C 
ATOM      8  C   UNL A   1      34.640  21.240  25.849  1.00  0.00     0.032 C 
ATOM      9  C   UNL A   1      35.304  22.017  24.709  1.00  0.00     0.098 C 
ATOM     10  N   UNL A   1      34.741  23.382  24.671  1.00  0.00    -0.321 N 
ATOM     11  C   UNL A   1      36.842  23.507  25.758  1.00  0.00     0.039 C 
ATOM     12  C   UNL A   1      35.699  24.338  25.214  1.00  0.00     0.122 C 
BRANCH  10  13
ATOM     13  C   UNL A   1      33.956  23.793  23.582  1.00  0.00     0.324 C 
ATOM     14  O   UNL A   1      34.222  23.498  22.423  1.00  0.00    -0.248 OA
BRANCH  13  15
ATOM     15  N   UNL A   1      32.785  24.448  23.978  1.00  0.00    -0.294 N 
ATOM     16  C   UNL A   1      31.978  23.835  25.044  1.00  0.00     0.132 C 
ATOM     17  C   UNL A   1      32.867  25.825  24.249  1.00  0.00     0.049 A 
ATOM     18  C   UNL A   1      31.746  24.914  26.122  1.00  0.00     0.060 C 
ATOM     19  C   UNL A   1      32.492  26.079  25.560  1.00  0.00    -0.022 A 
ATOM     20  C   UNL A   1      33.495  26.767  23.451  1.00  0.00     0.027 A 
ATOM     21  C   UNL A   1      32.933  27.233  26.179  1.00  0.00     0.006 A 
ATOM     22  C   UNL A   1      33.900  27.952  24.054  1.00  0.00     0.002 A 
ATOM     23  C   UNL A   1      33.669  28.157  25.424  1.00  0.00     0.000 A 
ENDBRANCH  13  15
ENDBRANCH  10  13
ENDBRANCH   5   7
ENDBRANCH   4   5
ENDBRANCH   3   4
ENDBRANCH   2   3
ENDBRANCH   1   2
BRANCH   1  24
ATOM     24  C   UNL A   1      42.823  20.672  26.065  1.00  0.00     0.202 C 
BRANCH  24  25
ATOM     25  C   UNL A   1      43.804  21.708  25.500  1.00  0.00     0.261 C 
BRANCH  25  26
ATOM     26  O   UNL A   1      43.159  22.798  24.816  1.00  0.00    -0.460 OA
BRANCH  26  27
ATOM     27  C   UNL A   1      43.815  23.983  24.909  1.00  0.00     0.338 C 
ATOM     28  O   UNL A   1      44.790  24.341  24.274  1.00  0.00    -0.246 OA
BRANCH  27  29
ATOM     29  C   UNL A   1      43.085  24.907  25.799  1.00  0.00     0.060 A 
ATOM     30  C   UNL A   1      43.594  26.205  25.939  1.00  0.00     0.016 A 
ATOM     31  C   UNL A   1      42.001  24.483  26.567  1.00  0.00     0.016 A 
ATOM     32  C   UNL A   1      43.052  27.069  26.888  1.00  0.00     0.010 A 
ATOM     33  C   UNL A   1      41.461  25.351  27.525  1.00  0.00     0.010 A 
ATOM     34  C   UNL A   1      42.009  26.634  27.717  1.00  0.00    -0.014 A 
BRANCH  34  35
ATOM     35  C   UNL A   1      41.597  27.468  28.873  1.00  0.00     0.031 A 
ATOM     36  C   UNL A   1      42.385  27.390  30.153  1.00  0.00     0.074 A 
ATOM     37  C   UNL A   1      40.559  28.316  28.774  1.00  0.00     0.049 A 
ATOM     38  N   UNL A   1      42.190  28.010  31.289  1.00  0.00    -0.248 NA
ATOM     39  C   UNL A   1      43.549  26.490  30.151  1.00  0.00     0.031 C 
ATOM     40  C   UNL A   1      39.744  28.515  27.578  1.00  0.00     0.029 A 
ATOM     41  N   UNL A   1      40.010  29.168  29.701  1.00  0.00    -0.354 N 
ATOM     42  C   UNL A   1      43.200  27.573  32.137  1.00  0.00     0.074 A 
ATOM     43  C   UNL A   1      43.986  26.609  31.396  1.00  0.00     0.031 C 
ATOM     44  C   UNL A   1      38.793  29.427  27.846  1.00  0.00     0.029 A 
ATOM     45  C   UNL A   1      38.912  29.850  29.240  1.00  0.00     0.049 A 
ATOM     46  H   UNL A   1      40.371  29.278  30.611  1.00  0.00     0.167 HD
ATOM     47  C   UNL A   1      43.456  27.949  33.413  1.00  0.00     0.037 A 
ATOM     48  C   UNL A   1      38.087  30.703  29.878  1.00  0.00     0.037 A 
ATOM     49  C   UNL A   1      42.677  28.912  34.148  1.00  0.00     0.049 A 
ATOM     50  C   UNL A   1      38.351  31.050  31.321  1.00  0.00     0.074 A 
ATOM     51  C   UNL A   1      42.870  29.374  35.438  1.00  0.00     0.029 A 
ATOM     52  N   UNL A   1      41.550  29.555  33.658  1.00  0.00    -0.354 N 
ATOM     53  N   UNL A   1      39.322  30.652  32.107  1.00  0.00    -0.248 NA
ATOM     54  C   UNL A   1      37.401  31.969  31.966  1.00  0.00     0.031 C 
ATOM     55  C   UNL A   1      41.829  30.254  35.748  1.00  0.00     0.029 A 
ATOM     56  C   UNL A   1      41.021  30.388  34.631  1.00  0.00     0.049 A 
ATOM     57  H   UNL A   1      41.181  29.437  32.753  1.00  0.00     0.167 HD
ATOM     58  C   UNL A   1      39.122  31.295  33.322  1.00  0.00     0.074 A 
ATOM     59  C   UNL A   1      37.942  32.120  33.166  1.00  0.00     0.031 C 
ATOM     60  C   UNL A   1      39.850  31.211  34.462  1.00  0.00     0.037 A 
BRANCH  47  61
ATOM     61  C   UNL A   1      44.616  27.298  34.110  1.00  0.00     0.064 A 
ATOM     62  C   UNL A   1      45.899  27.866  34.099  1.00  0.00     0.173 A 
ATOM     63  C   UNL A   1      44.432  26.110  34.834  1.00  0.00     0.173 A 
ATOM     64  F   UNL A   1      46.131  28.994  33.412  1.00  0.00    -0.203 F 
ATOM     65  C   UNL A   1      46.959  27.256  34.765  1.00  0.00     0.198 A 
ATOM     66  C   UNL A   1      45.486  25.518  35.524  1.00  0.00     0.198 A 
ATOM     67  F   UNL A   1      43.224  25.527  34.882  1.00  0.00    -0.203 F 
ATOM     68  F   UNL A   1      48.186  27.791  34.702  1.00  0.00    -0.200 F 
ATOM     69  C   UNL A   1      46.751  26.087  35.483  1.00  0.00     0.200 A 
ATOM     70  F   UNL A   1      45.280  24.398  36.228  1.00  0.00    -0.200 F 
ATOM     71  F   UNL A   1      47.770  25.505  36.130  1.00  0.00    -0.200 F 
ENDBRANCH  47  61
BRANCH  48  72
ATOM     72  C   UNL A   1      36.921  31.284  29.161  1.00  0.00     0.064 A 
ATOM     73  C   UNL A   1      36.896  32.636  28.793  1.00  0.00     0.173 A 
ATOM     74  C   UNL A   1      35.797  30.503  28.852  1.00  0.00     0.173 A 
ATOM     75  F   UNL A   1      37.936  33.430  29.090  1.00  0.00    -0.203 F 
ATOM     76  C   UNL A   1      35.784  33.191  28.163  1.00  0.00     0.198 A 
ATOM     77  C   UNL A   1      34.698  31.051  28.194  1.00  0.00     0.198 A 
ATOM     78  F   UNL A   1      35.769  29.204  29.184  1.00  0.00    -0.203 F 
ATOM     79  F   UNL A   1      35.766  34.498  27.868  1.00  0.00    -0.200 F 
ATOM     80  C   UNL A   1      34.689  32.397  27.858  1.00  0.00     0.200 A 
ATOM     81  F   UNL A   1      33.648  30.277  27.890  1.00  0.00    -0.200 F 
ATOM     82  F   UNL A   1      33.620  32.929  27.249  1.00  0.00    -0.200 F 
ENDBRANCH  48  72
BRANCH  60  83
ATOM     83  C   UNL A   1      39.420  32.062  35.623  1.00  0.00     0.064 A 
ATOM     84  C   UNL A   1      39.902  33.367  35.804  1.00  0.00     0.173 A 
ATOM     85  C   UNL A   1      38.480  31.578  36.547  1.00  0.00     0.173 A 
ATOM     86  F   UNL A   1      40.812  33.873  34.958  1.00  0.00    -0.203 F 
ATOM     87  C   UNL A   1      39.481  34.144  36.881  1.00  0.00     0.198 A 
ATOM     88  C   UNL A   1      38.037  32.369  37.603  1.00  0.00     0.198 A 
ATOM     89  F   UNL A   1      37.980  30.340  36.417  1.00  0.00    -0.203 F 
ATOM     90  F   UNL A   1      39.995  35.369  37.062  1.00  0.00    -0.200 F 
ATOM     91  C   UNL A   1      38.544  33.648  37.775  1.00  0.00     0.200 A 
ATOM     92  F   UNL A   1      37.119  31.893  38.456  1.00  0.00    -0.200 F 
ATOM     93  F   UNL A   1      38.134  34.400  38.806  1.00  0.00    -0.200 F 
ENDBRANCH  60  83
ENDBRANCH  34  35
ENDBRANCH  27  29
ENDBRANCH  26  27
ENDBRANCH  25  26
ENDBRANCH  24  25
ENDBRANCH   1  24
TORSDOF 16
ENDMDL
MODEL 2
REMARK VINA RESULT:     -11.7      4.440      6.744
REMARK SMILES C[C@@H]1[C@H](C(=O)OCCOCCOC(=O)c2ccc(-c3c4nc(c(-c5c(F)c(F)c(F)c(F)c5F)c5ccc([nH]5)c(-c5c(F)c(F)c(F)c(F)c5F)c5nc(c(-c6c(F)c(F)c(F)c(F)c6F)c6ccc3[nH]6)C=C5)C=C4)cc2)CCN1C(=O)N1CCc2ccccc21
REMARK SMILES IDX 9 1 8 2 7 3 6 4 4 5 5 6 3 7 1 8 2 9 80 10 78 11 79 12 81 13
REMARK SMILES IDX 82 14 83 15 84 16 91 17 85 18 86 19 90 20 87 21 89 22 88 23
REMARK SMILES IDX 10 24 11 25 12 26 13 27 14 28 15 29 16 30 77 31 17 32 76 33
REMARK SMILES IDX 18 34 19 35 20 36 70 37 21 38 75 39 69 40 71 41 22 42 74 43
REMARK SMILES IDX 68 44 67 45 23 47 55 48 35 49 54 50 36 51 39 52 53 53 72 54
REMARK SMILES IDX 37 55 38 56 52 58 73 59 40 60 24 61 25 62 33 63 26 64 27 65
REMARK SMILES IDX 31 66 34 67 28 68 29 69 32 70 30 71 56 72 57 73 65 74 58 75
REMARK SMILES IDX 59 76 63 77 66 78 60 79 61 80 64 81 62 82 41 83 42 84 50 85
REMARK SMILES IDX 43 86 44 87 48 88 51 89 45 90 46 91 49 92 47 93
REMARK H PARENT 71 46 39 57
REMARK Flexibility Score: inf
ROOT
ATOM      1  O   UNL A   1      37.613  21.249  24.842  1.00  0.00    -0.374 OA
ENDROOT
BRANCH   1   2
ATOM      2  C   UNL A   1      36.318  21.705  25.211  1.00  0.00     0.202 C 
BRANCH   2   3
ATOM      3  C   UNL A   1      35.206  20.667  25.391  1.00  0.00     0.261 C 
BRANCH   3   4
ATOM      4  O   UNL A   1      33.885  21.233  25.439  1.00  0.00    -0.463 OA
BRANCH   4   5
ATOM      5  C   UNL A   1      33.645  22.006  26.524  1.00  0.00     0.311 C 
ATOM      6  O   UNL A   1      33.976  21.713  27.669  1.00  0.00    -0.252 OA
BRANCH   5   7
ATOM      7  C   UNL A   1      32.864  23.262  26.254  1.00  0.00     0.123 C 
ATOM      8  C   UNL A   1      34.679  24.715  25.063  1.00  0.00     0.032 C 
ATOM      9  C   UNL A   1      33.478  24.645  26.010  1.00  0.00     0.098 C 
ATOM     10  N   UNL A   1      32.349  25.379  25.404  1.00  0.00    -0.321 N 
ATOM     11  C   UNL A   1      31.981  23.069  25.031  1.00  0.00     0.039 C 
ATOM     12  C   UNL A   1      31.360  24.441  24.882  1.00  0.00     0.122 C 
BRANCH  10  13
ATOM     13  C   UNL A   1      31.878  26.563  25.992  1.00  0.00     0.324 C 
ATOM     14  O   UNL A   1      31.342  26.589  27.094  1.00  0.00    -0.248 OA
BRANCH  13  15
ATOM     15  N   UNL A   1      32.209  27.702  25.251  1.00  0.00    -0.294 N 
ATOM     16  C   UNL A   1      31.113  28.483  24.656  1.00  0.00     0.132 C 
ATOM     17  C   UNL A   1      33.114  28.613  25.824  1.00  0.00     0.049 A 
ATOM     18  C   UNL A   1      31.302  29.948  25.098  1.00  0.00     0.060 C 
ATOM     19  C   UNL A   1      32.521  29.860  25.957  1.00  0.00    -0.022 A 
ATOM     20  C   UNL A   1      34.311  28.281  26.437  1.00  0.00     0.027 A 
ATOM     21  C   UNL A   1      33.015  30.750  26.891  1.00  0.00     0.006 A 
ATOM     22  C   UNL A   1      34.842  29.191  27.343  1.00  0.00     0.002 A 
ATOM     23  C   UNL A   1      34.166  30.393  27.609  1.00  0.00     0.000 A 
ENDBRANCH  13  15
ENDBRANCH  10  13
ENDBRANCH   5   7
ENDBRANCH   4   5
ENDBRANCH   3   4
ENDBRANCH   2   3
ENDBRANCH   1   2
BRANCH   1  24
ATOM     24  C   UNL A   1      37.905  19.858  24.937  1.00  0.00     0.202 C 
BRANCH  24  25
ATOM     25  C   UNL A   1      39.195  19.434  25.653  1.00  0.00     0.261 C 
BRANCH  25  26
ATOM     26  O   UNL A   1      40.141  20.505  25.815  1.00  0.00    -0.460 OA
BRANCH  26  27
ATOM     27  C   UNL A   1      40.757  20.529  27.025  1.00  0.00     0.338 C 
ATOM     28  O   UNL A   1      41.231  19.586  27.632  1.00  0.00    -0.246 OA
BRANCH  27  29
ATOM     29  C   UNL A   1      40.944  21.920  27.481  1.00  0.00     0.060 A 
ATOM     30  C   UNL A   1      40.292  22.929  26.761  1.00  0.00     0.016 A 
ATOM     31  C   UNL A   1      41.826  22.241  28.513  1.00  0.00     0.016 A 
ATOM     32  C   UNL A   1      40.560  24.268  27.036  1.00  0.00     0.010 A 
ATOM     33  C   UNL A   1      42.099  23.588  28.784  1.00  0.00     0.010 A 
ATOM     34  C   UNL A   1      41.497  24.607  28.021  1.00  0.00    -0.014 A 
BRANCH  34  35
ATOM     35  C   UNL A   1      41.950  26.014  28.147  1.00  0.00     0.031 A 
ATOM     36  C   UNL A   1      43.284  26.412  27.574  1.00  0.00     0.074 A 
ATOM     37  C   UNL A   1      41.166  26.939  28.729  1.00  0.00     0.049 A 
ATOM     38  N   UNL A   1      43.883  27.575  27.590  1.00  0.00    -0.248 NA
ATOM     39  C   UNL A   1      44.043  25.353  26.891  1.00  0.00     0.031 C 
ATOM     40  C   UNL A   1      39.838  26.690  29.284  1.00  0.00     0.029 A 
ATOM     41  N   UNL A   1      41.380  28.278  28.952  1.00  0.00    -0.354 N 
ATOM     42  C   UNL A   1      45.089  27.389  26.928  1.00  0.00     0.074 A 
ATOM     43  C   UNL A   1      45.154  25.992  26.551  1.00  0.00     0.031 C 
ATOM     44  C   UNL A   1      39.357  27.838  29.792  1.00  0.00     0.029 A 
ATOM     45  C   UNL A   1      40.355  28.893  29.626  1.00  0.00     0.049 A 
ATOM     46  H   UNL A   1      42.192  28.750  28.656  1.00  0.00     0.167 HD
ATOM     47  C   UNL A   1      46.052  28.301  26.648  1.00  0.00     0.037 A 
ATOM     48  C   UNL A   1      40.246  30.158  30.075  1.00  0.00     0.037 A 
ATOM     49  C   UNL A   1      45.985  29.691  27.018  1.00  0.00     0.049 A 
ATOM     50  C   UNL A   1      41.363  31.136  29.815  1.00  0.00     0.074 A 
ATOM     51  C   UNL A   1      46.900  30.697  26.760  1.00  0.00     0.029 A 
ATOM     52  N   UNL A   1      44.946  30.269  27.732  1.00  0.00    -0.354 N 
ATOM     53  N   UNL A   1      42.488  30.958  29.165  1.00  0.00    -0.248 NA
ATOM     54  C   UNL A   1      41.192  32.496  30.350  1.00  0.00     0.031 C 
ATOM     55  C   UNL A   1      46.442  31.871  27.367  1.00  0.00     0.029 A 
ATOM     56  C   UNL A   1      45.212  31.612  27.949  1.00  0.00     0.049 A 
ATOM     57  H   UNL A   1      44.140  29.796  28.039  1.00  0.00     0.167 HD
ATOM     58  C   UNL A   1      43.141  32.184  29.184  1.00  0.00     0.074 A 
ATOM     59  C   UNL A   1      42.280  33.104  29.899  1.00  0.00     0.031 C 
ATOM     60  C   UNL A   1      44.343  32.519  28.655  1.00  0.00     0.037 A 
BRANCH  47  61
ATOM     61  C   UNL A   1      47.277  27.819  25.925  1.00  0.00     0.064 A 
ATOM     62  C   UNL A   1      48.431  27.415  26.611  1.00  0.00     0.173 A 
ATOM     63  C   UNL A   1      47.280  27.723  24.524  1.00  0.00     0.173 A 
ATOM     64  F   UNL A   1      48.484  27.498  27.949  1.00  0.00    -0.203 F 
ATOM     65  C   UNL A   1      49.551  26.956  25.923  1.00  0.00     0.198 A 
ATOM     66  C   UNL A   1      48.390  27.235  23.840  1.00  0.00     0.198 A 
ATOM     67  F   UNL A   1      46.200  28.092  23.818  1.00  0.00    -0.203 F 
ATOM     68  F   UNL A   1      50.659  26.619  26.597  1.00  0.00    -0.200 F 
ATOM     69  C   UNL A   1      49.528  26.859  24.539  1.00  0.00     0.200 A 
ATOM     70  F   UNL A   1      48.360  27.129  22.505  1.00  0.00    -0.200 F 
ATOM     71  F   UNL A   1      50.603  26.410  23.879  1.00  0.00    -0.200 F 
ENDBRANCH  47  61
BRANCH  48  72
ATOM     72  C   UNL A   1      39.036  30.577  30.831  1.00  0.00     0.064 A 
ATOM     73  C   UNL A   1      38.990  30.495  32.229  1.00  0.00     0.173 A 
ATOM     74  C   UNL A   1      37.891  31.045  30.167  1.00  0.00     0.173 A 
ATOM     75  F   UNL A   1      40.049  30.030  32.908  1.00  0.00    -0.203 F 
ATOM     76  C   UNL A   1      37.839  30.845  32.934  1.00  0.00     0.198 A 
ATOM     77  C   UNL A   1      36.752  31.423  30.874  1.00  0.00     0.198 A 
ATOM     78  F   UNL A   1      37.882  31.141  28.830  1.00  0.00    -0.203 F 
ATOM     79  F   UNL A   1      37.805  30.708  34.267  1.00  0.00    -0.200 F 
ATOM     80  C   UNL A   1      36.724  31.315  32.256  1.00  0.00     0.200 A 
ATOM     81  F   UNL A   1      35.682  31.889  30.216  1.00  0.00    -0.200 F 
ATOM     82  F   UNL A   1      35.618  31.653  32.934  1.00  0.00    -0.200 F 
ENDBRANCH  48  72
BRANCH  60  83
ATOM     83  C   UNL A   1      44.787  33.949  28.791  1.00  0.00     0.064 A 
ATOM     84  C   UNL A   1      45.584  34.378  29.863  1.00  0.00     0.173 A 
ATOM     85  C   UNL A   1      44.441  34.895  27.813  1.00  0.00     0.173 A 
ATOM     86  F   UNL A   1      45.931  33.517  30.832  1.00  0.00    -0.203 F 
ATOM     87  C   UNL A   1      45.995  35.705  29.965  1.00  0.00     0.198 A 
ATOM     88  C   UNL A   1      44.881  36.212  27.901  1.00  0.00     0.198 A 
ATOM     89  F   UNL A   1      43.687  34.537  26.763  1.00  0.00    -0.203 F 
ATOM     90  F   UNL A   1      46.713  36.102  31.024  1.00  0.00    -0.200 F 
ATOM     91  C   UNL A   1      45.649  36.619  28.980  1.00  0.00     0.200 A 
ATOM     92  F   UNL A   1      44.559  37.090  26.940  1.00  0.00    -0.200 F 
ATOM     93  F   UNL A   1      46.052  37.894  29.076  1.00  0.00    -0.200 F 
ENDBRANCH  60  83
ENDBRANCH  34  35
ENDBRANCH  27  29
ENDBRANCH  26  27
ENDBRANCH  25  26
ENDBRANCH  24  25
ENDBRANCH   1  24
TORSDOF 16
ENDMDL
MODEL 3
REMARK VINA RESULT:     -11.6      3.048      8.700
REMARK SMILES C[C@@H]1[C@H](C(=O)OCCOCCOC(=O)c2ccc(-c3c4nc(c(-c5c(F)c(F)c(F)c(F)c5F)c5ccc([nH]5)c(-c5c(F)c(F)c(F)c(F)c5F)c5nc(c(-c6c(F)c(F)c(F)c(F)c6F)c6ccc3[nH]6)C=C5)C=C4)cc2)CCN1C(=O)N1CCc2ccccc21
REMARK SMILES IDX 9 1 8 2 7 3 6 4 4 5 5 6 3 7 1 8 2 9 80 10 78 11 79 12 81 13
REMARK SMILES IDX 82 14 83 15 84 16 91 17 85 18 86 19 90 20 87 21 89 22 88 23
REMARK SMILES IDX 10 24 11 25 12 26 13 27 14 28 15 29 16 30 77 31 17 32 76 33
REMARK SMILES IDX 18 34 19 35 20 36 70 37 21 38 75 39 69 40 71 41 22 42 74 43
REMARK SMILES IDX 68 44 67 45 23 47 55 48 35 49 54 50 36 51 39 52 53 53 72 54
REMARK SMILES IDX 37 55 38 56 52 58 73 59 40 60 24 61 25 62 33 63 26 64 27 65
REMARK SMILES IDX 31 66 34 67 28 68 29 69 32 70 30 71 56 72 57 73 65 74 58 75
REMARK SMILES IDX 59 76 63 77 66 78 60 79 61 80 64 81 62 82 41 83 42 84 50 85
REMARK SMILES IDX 43 86 44 87 48 88 51 89 45 90 46 91 49 92 47 93
REMARK H PARENT 71 46 39 57
REMARK Flexibility Score: inf
ROOT
ATOM      1  O   UNL A   1      31.897  30.593  27.167  1.00  0.00    -0.374 OA
ENDROOT
BRANCH   1   2
ATOM      2  C   UNL A   1      32.840  29.783  26.478  1.00  0.00     0.202 C 
BRANCH   2   3
ATOM      3  C   UNL A   1      32.754  29.702  24.952  1.00  0.00     0.261 C 
BRANCH   3   4
ATOM      4  O   UNL A   1      33.232  28.461  24.406  1.00  0.00    -0.463 OA
BRANCH   4   5
ATOM      5  C   UNL A   1      32.257  27.589  24.058  1.00  0.00     0.311 C 
ATOM      6  O   UNL A   1      31.057  27.847  24.080  1.00  0.00    -0.252 OA
BRANCH   5   7
ATOM      7  C   UNL A   1      32.734  26.211  23.689  1.00  0.00     0.123 C 
ATOM      8  C   UNL A   1      32.447  24.969  25.968  1.00  0.00     0.032 C 
ATOM      9  C   UNL A   1      33.250  25.163  24.680  1.00  0.00     0.098 C 
ATOM     10  N   UNL A   1      33.175  23.923  23.880  1.00  0.00    -0.321 N 
ATOM     11  C   UNL A   1      31.632  25.463  22.955  1.00  0.00     0.039 C 
ATOM     12  C   UNL A   1      32.268  24.104  22.753  1.00  0.00     0.122 C 
BRANCH  10  13
ATOM     13  C   UNL A   1      34.325  23.145  23.674  1.00  0.00     0.324 C 
ATOM     14  O   UNL A   1      35.063  23.294  22.707  1.00  0.00    -0.248 OA
BRANCH  13  15
ATOM     15  N   UNL A   1      34.599  22.292  24.748  1.00  0.00    -0.294 N 
ATOM     16  C   UNL A   1      34.452  20.844  24.537  1.00  0.00     0.132 C 
ATOM     17  C   UNL A   1      35.798  22.496  25.454  1.00  0.00     0.049 A 
ATOM     18  C   UNL A   1      35.771  20.179  24.980  1.00  0.00     0.060 C 
ATOM     19  C   UNL A   1      36.589  21.358  25.396  1.00  0.00    -0.022 A 
ATOM     20  C   UNL A   1      36.273  23.719  25.898  1.00  0.00     0.027 A 
ATOM     21  C   UNL A   1      37.952  21.469  25.588  1.00  0.00     0.006 A 
ATOM     22  C   UNL A   1      37.638  23.829  26.141  1.00  0.00     0.002 A 
ATOM     23  C   UNL A   1      38.479  22.724  25.931  1.00  0.00     0.000 A 
ENDBRANCH  13  15
ENDBRANCH  10  13
ENDBRANCH   5   7
ENDBRANCH   4   5
ENDBRANCH   3   4
ENDBRANCH   2   3
ENDBRANCH   1   2
BRANCH   1  24
ATOM     24  C   UNL A   1      31.340  31.720  26.495  1.00  0.00     0.202 C 
BRANCH  24  25
ATOM     25  C   UNL A   1      31.925  33.107  26.798  1.00  0.00     0.261 C 
BRANCH  25  26
ATOM     26  O   UNL A   1      32.615  33.177  28.058  1.00  0.00    -0.460 OA
BRANCH  26  27
ATOM     27  C   UNL A   1      33.725  33.959  28.045  1.00  0.00     0.338 C 
ATOM     28  O   UNL A   1      33.777  35.170  27.927  1.00  0.00    -0.246 OA
BRANCH  27  29
ATOM     29  C   UNL A   1      34.923  33.159  28.364  1.00  0.00     0.060 A 
ATOM     30  C   UNL A   1      34.721  31.869  28.873  1.00  0.00     0.016 A 
ATOM     31  C   UNL A   1      36.208  33.695  28.280  1.00  0.00     0.016 A 
ATOM     32  C   UNL A   1      35.802  31.129  29.350  1.00  0.00     0.010 A 
ATOM     33  C   UNL A   1      37.292  32.952  28.765  1.00  0.00     0.010 A 
ATOM     34  C   UNL A   1      37.089  31.682  29.338  1.00  0.00    -0.014 A 
BRANCH  34  35
ATOM     35  C   UNL A   1      38.188  30.991  30.056  1.00  0.00     0.031 A 
ATOM     36  C   UNL A   1      38.437  31.313  31.505  1.00  0.00     0.074 A 
ATOM     37  C   UNL A   1      38.933  30.057  29.438  1.00  0.00     0.049 A 
ATOM     38  N   UNL A   1      39.353  30.847  32.316  1.00  0.00    -0.248 NA
ATOM     39  C   UNL A   1      37.529  32.293  32.122  1.00  0.00     0.031 C 
ATOM     40  C   UNL A   1      38.765  29.626  28.053  1.00  0.00     0.029 A 
ATOM     41  N   UNL A   1      39.985  29.305  29.901  1.00  0.00    -0.354 N 
ATOM     42  C   UNL A   1      39.137  31.480  33.534  1.00  0.00     0.074 A 
ATOM     43  C   UNL A   1      38.025  32.388  33.348  1.00  0.00     0.031 C 
ATOM     44  C   UNL A   1      39.687  28.689  27.774  1.00  0.00     0.029 A 
ATOM     45  C   UNL A   1      40.530  28.479  28.950  1.00  0.00     0.049 A 
ATOM     46  H   UNL A   1      40.316  29.354  30.827  1.00  0.00     0.167 HD
ATOM     47  C   UNL A   1      39.798  31.310  34.704  1.00  0.00     0.037 A 
ATOM     48  C   UNL A   1      41.599  27.662  29.017  1.00  0.00     0.037 A 
ATOM     49  C   UNL A   1      40.900  30.403  34.891  1.00  0.00     0.049 A 
ATOM     50  C   UNL A   1      42.364  27.547  30.311  1.00  0.00     0.074 A 
ATOM     51  C   UNL A   1      41.620  30.145  36.045  1.00  0.00     0.029 A 
ATOM     52  N   UNL A   1      41.446  29.609  33.893  1.00  0.00    -0.354 N 
ATOM     53  N   UNL A   1      42.137  28.128  31.464  1.00  0.00    -0.248 NA
ATOM     54  C   UNL A   1      43.534  26.655  30.313  1.00  0.00     0.031 C 
ATOM     55  C   UNL A   1      42.638  29.238  35.732  1.00  0.00     0.029 A 
ATOM     56  C   UNL A   1      42.513  28.883  34.399  1.00  0.00     0.049 A 
ATOM     57  H   UNL A   1      41.124  29.567  32.965  1.00  0.00     0.167 HD
ATOM     58  C   UNL A   1      43.110  27.651  32.333  1.00  0.00     0.074 A 
ATOM     59  C   UNL A   1      43.923  26.721  31.577  1.00  0.00     0.031 C 
ATOM     60  C   UNL A   1      43.310  27.953  33.639  1.00  0.00     0.037 A 
BRANCH  47  61
ATOM     61  C   UNL A   1      39.362  32.144  35.875  1.00  0.00     0.064 A 
ATOM     62  C   UNL A   1      38.401  31.689  36.791  1.00  0.00     0.173 A 
ATOM     63  C   UNL A   1      39.944  33.400  36.106  1.00  0.00     0.173 A 
ATOM     64  F   UNL A   1      37.806  30.501  36.609  1.00  0.00    -0.203 F 
ATOM     65  C   UNL A   1      38.023  32.470  37.880  1.00  0.00     0.198 A 
ATOM     66  C   UNL A   1      39.586  34.166  37.212  1.00  0.00     0.198 A 
ATOM     67  F   UNL A   1      40.871  33.881  35.264  1.00  0.00    -0.203 F 
ATOM     68  F   UNL A   1      37.069  32.035  38.716  1.00  0.00    -0.200 F 
ATOM     69  C   UNL A   1      38.620  33.704  38.094  1.00  0.00     0.200 A 
ATOM     70  F   UNL A   1      40.174  35.350  37.425  1.00  0.00    -0.200 F 
ATOM     71  F   UNL A   1      38.260  34.451  39.147  1.00  0.00    -0.200 F 
ENDBRANCH  47  61
BRANCH  48  72
ATOM     72  C   UNL A   1      42.024  26.894  27.817  1.00  0.00     0.064 A 
ATOM     73  C   UNL A   1      41.557  25.593  27.585  1.00  0.00     0.173 A 
ATOM     74  C   UNL A   1      42.927  27.438  26.889  1.00  0.00     0.173 A 
ATOM     75  F   UNL A   1      40.713  25.020  28.456  1.00  0.00    -0.203 F 
ATOM     76  C   UNL A   1      41.991  24.857  26.484  1.00  0.00     0.198 A 
ATOM     77  C   UNL A   1      43.336  26.713  25.773  1.00  0.00     0.198 A 
ATOM     78  F   UNL A   1      43.406  28.678  27.065  1.00  0.00    -0.203 F 
ATOM     79  F   UNL A   1      41.568  23.597  26.315  1.00  0.00    -0.200 F 
ATOM     80  C   UNL A   1      42.875  25.420  25.576  1.00  0.00     0.200 A 
ATOM     81  F   UNL A   1      44.180  27.265  24.891  1.00  0.00    -0.200 F 
ATOM     82  F   UNL A   1      43.291  24.713  24.516  1.00  0.00    -0.200 F 
ENDBRANCH  48  72
BRANCH  60  83
ATOM     83  C   UNL A   1      44.428  27.245  34.352  1.00  0.00     0.064 A 
ATOM     84  C   UNL A   1      45.710  27.804  34.458  1.00  0.00     0.173 A 
ATOM     85  C   UNL A   1      44.200  26.005  34.971  1.00  0.00     0.173 A 
ATOM     86  F   UNL A   1      45.984  28.979  33.872  1.00  0.00    -0.203 F 
ATOM     87  C   UNL A   1      46.730  27.136  35.133  1.00  0.00     0.198 A 
ATOM     88  C   UNL A   1      45.212  25.356  35.673  1.00  0.00     0.198 A 
ATOM     89  F   UNL A   1      42.990  25.429  34.908  1.00  0.00    -0.203 F 
ATOM     90  F   UNL A   1      47.960  27.665  35.177  1.00  0.00    -0.200 F 
ATOM     91  C   UNL A   1      46.478  25.917  35.746  1.00  0.00     0.200 A 
ATOM     92  F   UNL A   1      44.963  24.187  36.278  1.00  0.00    -0.200 F 
ATOM     93  F   UNL A   1      47.458  25.280  36.402  1.00  0.00    -0.200 F 
ENDBRANCH  60  83
ENDBRANCH  34  35
ENDBRANCH  27  29
ENDBRANCH  26  27
ENDBRANCH  25  26
ENDBRANCH  24  25
ENDBRANCH   1  24
TORSDOF 16
ENDMDL
