MODEL 1
REMARK VINA RESULT:     -10.7      0.000      0.000
REMARK SMILES [NH3+][C@H](Cc1ccc(O)c(F)c1)C(=O)OCCOCCOC(=O)c1ccc(-c2c3nc(c(-c4c(F)c(F)c(F)c(F)c4F)c4ccc([nH]4)c(-c4c(F)c(F)c(F)c(F)c4F)c4nc(c(-c5c(F)c(F)c(F)c(F)c5F)c5ccc2[nH]5)C=C4)C=C3)cc1
REMARK SMILES IDX 16 1 15 2 14 3 12 4 13 5 2 6 1 7 3 11 4 12 5 13 11 14 6 15
REMARK SMILES IDX 9 16 7 17 10 18 8 19 17 21 18 22 19 23 20 24 21 25 22 26
REMARK SMILES IDX 23 27 24 28 85 29 25 30 84 31 26 32 27 33 28 34 78 35 29 36
REMARK SMILES IDX 83 37 77 38 79 39 30 40 82 41 76 42 75 43 31 45 63 46 43 47
REMARK SMILES IDX 62 48 44 49 47 50 61 51 80 52 45 53 46 54 60 56 81 57 48 58
REMARK SMILES IDX 32 59 33 60 41 61 34 62 35 63 39 64 42 65 36 66 37 67 40 68
REMARK SMILES IDX 38 69 64 70 65 71 73 72 66 73 67 74 71 75 74 76 68 77 69 78
REMARK SMILES IDX 72 79 70 80 49 81 50 82 58 83 51 84 52 85 56 86 59 87 53 88
REMARK SMILES IDX 54 89 57 90 55 91
REMARK H PARENT 1 8 1 9 1 10 8 20 79 44 47 55
REMARK Flexibility Score: inf
ROOT
ATOM      1  C   UNL A   1      40.992  20.768  26.625  1.00  0.00     0.202 C 
ENDROOT
BRANCH   1   2
ATOM      2  C   UNL A   1      40.117  21.990  26.910  1.00  0.00     0.261 C 
BRANCH   2   3
ATOM      3  O   UNL A   1      38.903  21.906  26.143  1.00  0.00    -0.459 OA
BRANCH   3   4
ATOM      4  C   UNL A   1      38.097  23.001  26.180  1.00  0.00     0.365 C 
ATOM      5  O   UNL A   1      38.341  24.009  26.835  1.00  0.00    -0.245 OA
BRANCH   4   6
ATOM      6  C   UNL A   1      36.873  22.860  25.244  1.00  0.00     0.296 C 
BRANCH   6   7
ATOM      7  N   UNL A   1      37.306  22.623  23.851  1.00  0.00    -0.346 N 
ATOM      8  H   UNL A   1      36.873  23.314  23.238  1.00  0.00     0.345 HD
ATOM      9  H   UNL A   1      37.021  21.687  23.561  1.00  0.00     0.345 HD
ATOM     10  H   UNL A   1      38.320  22.703  23.791  1.00  0.00     0.345 HD
ENDBRANCH   6   7
BRANCH   6  11
ATOM     11  C   UNL A   1      35.766  23.934  25.368  1.00  0.00     0.113 C 
BRANCH  11  12
ATOM     12  C   UNL A   1      34.422  23.556  25.952  1.00  0.00    -0.038 A 
ATOM     13  C   UNL A   1      34.388  22.873  27.184  1.00  0.00     0.008 A 
ATOM     14  C   UNL A   1      33.208  23.923  25.362  1.00  0.00     0.047 A 
ATOM     15  C   UNL A   1      33.176  22.527  27.788  1.00  0.00     0.049 A 
ATOM     16  C   UNL A   1      32.001  23.574  25.967  1.00  0.00     0.165 A 
ATOM     17  C   UNL A   1      31.982  22.874  27.170  1.00  0.00     0.151 A 
ATOM     18  F   UNL A   1      30.855  23.928  25.367  1.00  0.00    -0.203 F 
BRANCH  17  19
ATOM     19  O   UNL A   1      30.781  22.543  27.728  1.00  0.00    -0.505 OA
ATOM     20  H   UNL A   1      29.983  22.807  27.315  1.00  0.00     0.293 HD
ENDBRANCH  17  19
ENDBRANCH  11  12
ENDBRANCH   6  11
ENDBRANCH   4   6
ENDBRANCH   3   4
ENDBRANCH   2   3
ENDBRANCH   1   2
BRANCH   1  21
ATOM     21  O   UNL A   1      41.861  20.888  25.498  1.00  0.00    -0.374 OA
BRANCH  21  22
ATOM     22  C   UNL A   1      43.264  20.773  25.732  1.00  0.00     0.202 C 
BRANCH  22  23
ATOM     23  C   UNL A   1      44.099  22.022  25.421  1.00  0.00     0.261 C 
BRANCH  23  24
ATOM     24  O   UNL A   1      43.298  23.125  24.961  1.00  0.00    -0.460 OA
BRANCH  24  25
ATOM     25  C   UNL A   1      43.893  24.337  25.065  1.00  0.00     0.338 C 
ATOM     26  O   UNL A   1      44.858  24.747  24.430  1.00  0.00    -0.246 OA
BRANCH  25  27
ATOM     27  C   UNL A   1      43.132  25.219  25.968  1.00  0.00     0.060 A 
ATOM     28  C   UNL A   1      43.616  26.520  26.157  1.00  0.00     0.016 A 
ATOM     29  C   UNL A   1      42.033  24.760  26.697  1.00  0.00     0.016 A 
ATOM     30  C   UNL A   1      43.034  27.351  27.112  1.00  0.00     0.010 A 
ATOM     31  C   UNL A   1      41.456  25.593  27.663  1.00  0.00     0.010 A 
ATOM     32  C   UNL A   1      41.977  26.878  27.900  1.00  0.00    -0.014 A 
BRANCH  32  33
ATOM     33  C   UNL A   1      41.521  27.682  29.063  1.00  0.00     0.031 A 
ATOM     34  C   UNL A   1      42.280  27.593  30.359  1.00  0.00     0.074 A 
ATOM     35  C   UNL A   1      40.474  28.516  28.954  1.00  0.00     0.049 A 
ATOM     36  N   UNL A   1      42.052  28.193  31.500  1.00  0.00    -0.248 NA
ATOM     37  C   UNL A   1      43.455  26.708  30.369  1.00  0.00     0.031 C 
ATOM     38  C   UNL A   1      39.684  28.726  27.743  1.00  0.00     0.029 A 
ATOM     39  N   UNL A   1      39.896  29.346  29.884  1.00  0.00    -0.354 N 
ATOM     40  C   UNL A   1      43.052  27.761  32.361  1.00  0.00     0.074 A 
ATOM     41  C   UNL A   1      43.871  26.824  31.622  1.00  0.00     0.031 C 
ATOM     42  C   UNL A   1      38.717  29.623  28.004  1.00  0.00     0.029 A 
ATOM     43  C   UNL A   1      38.803  30.027  29.407  1.00  0.00     0.049 A 
ATOM     44  H   UNL A   1      40.232  29.441  30.804  1.00  0.00     0.167 HD
ATOM     45  C   UNL A   1      43.272  28.120  33.648  1.00  0.00     0.037 A 
ATOM     46  C   UNL A   1      37.960  30.866  30.038  1.00  0.00     0.037 A 
ATOM     47  C   UNL A   1      42.459  29.051  34.385  1.00  0.00     0.049 A 
ATOM     48  C   UNL A   1      38.181  31.189  31.492  1.00  0.00     0.074 A 
ATOM     49  C   UNL A   1      42.610  29.484  35.691  1.00  0.00     0.029 A 
ATOM     50  N   UNL A   1      41.335  29.689  33.881  1.00  0.00    -0.354 N 
ATOM     51  N   UNL A   1      39.136  30.788  32.295  1.00  0.00    -0.248 NA
ATOM     52  C   UNL A   1      37.201  32.083  32.129  1.00  0.00     0.031 C 
ATOM     53  C   UNL A   1      41.553  30.350  35.991  1.00  0.00     0.029 A 
ATOM     54  C   UNL A   1      40.770  30.493  34.857  1.00  0.00     0.049 A 
ATOM     55  H   UNL A   1      40.991  29.584  32.964  1.00  0.00     0.167 HD
ATOM     56  C   UNL A   1      38.892  31.399  33.518  1.00  0.00     0.074 A 
ATOM     57  C   UNL A   1      37.701  32.207  33.351  1.00  0.00     0.031 C 
ATOM     58  C   UNL A   1      39.590  31.299  34.676  1.00  0.00     0.037 A 
BRANCH  45  59
ATOM     59  C   UNL A   1      44.433  27.484  34.353  1.00  0.00     0.064 A 
ATOM     60  C   UNL A   1      45.699  28.090  34.380  1.00  0.00     0.173 A 
ATOM     61  C   UNL A   1      44.269  26.274  35.043  1.00  0.00     0.173 A 
ATOM     62  F   UNL A   1      45.910  29.242  33.725  1.00  0.00    -0.203 F 
ATOM     63  C   UNL A   1      46.763  27.495  35.053  1.00  0.00     0.198 A 
ATOM     64  C   UNL A   1      45.330  25.695  35.735  1.00  0.00     0.198 A 
ATOM     65  F   UNL A   1      43.079  25.656  35.051  1.00  0.00    -0.203 F 
ATOM     66  F   UNL A   1      47.974  28.071  35.031  1.00  0.00    -0.200 F 
ATOM     67  C   UNL A   1      46.576  26.302  35.734  1.00  0.00     0.200 A 
ATOM     68  F   UNL A   1      45.145  24.547  36.402  1.00  0.00    -0.200 F 
ATOM     69  F   UNL A   1      47.600  25.734  36.386  1.00  0.00    -0.200 F 
ENDBRANCH  45  59
BRANCH  46  70
ATOM     70  C   UNL A   1      36.814  31.456  29.299  1.00  0.00     0.064 A 
ATOM     71  C   UNL A   1      36.795  32.817  28.963  1.00  0.00     0.173 A 
ATOM     72  C   UNL A   1      35.707  30.678  28.933  1.00  0.00     0.173 A 
ATOM     73  F   UNL A   1      37.817  33.609  29.320  1.00  0.00    -0.203 F 
ATOM     74  C   UNL A   1      35.706  33.379  28.299  1.00  0.00     0.198 A 
ATOM     75  C   UNL A   1      34.630  31.234  28.245  1.00  0.00     0.198 A 
ATOM     76  F   UNL A   1      35.673  29.373  29.242  1.00  0.00    -0.203 F 
ATOM     77  F   UNL A   1      35.694  34.691  28.028  1.00  0.00    -0.200 F 
ATOM     78  C   UNL A   1      34.628  32.585  27.935  1.00  0.00     0.200 A 
ATOM     79  F   UNL A   1      33.593  30.463  27.892  1.00  0.00    -0.200 F 
ATOM     80  F   UNL A   1      33.581  33.126  27.297  1.00  0.00    -0.200 F 
ENDBRANCH  46  70
BRANCH  58  81
ATOM     81  C   UNL A   1      39.109  32.107  35.846  1.00  0.00     0.064 A 
ATOM     82  C   UNL A   1      38.270  31.556  36.825  1.00  0.00     0.173 A 
ATOM     83  C   UNL A   1      39.531  33.435  36.012  1.00  0.00     0.173 A 
ATOM     84  F   UNL A   1      37.828  30.294  36.704  1.00  0.00    -0.203 F 
ATOM     85  C   UNL A   1      37.854  32.312  37.918  1.00  0.00     0.198 A 
ATOM     86  C   UNL A   1      39.135  34.179  37.120  1.00  0.00     0.198 A 
ATOM     87  F   UNL A   1      40.340  34.006  35.108  1.00  0.00    -0.203 F 
ATOM     88  F   UNL A   1      37.020  31.778  38.820  1.00  0.00    -0.200 F 
ATOM     89  C   UNL A   1      38.292  33.619  38.069  1.00  0.00     0.200 A 
ATOM     90  F   UNL A   1      39.569  35.438  37.271  1.00  0.00    -0.200 F 
ATOM     91  F   UNL A   1      37.897  34.343  39.125  1.00  0.00    -0.200 F 
ENDBRANCH  58  81
ENDBRANCH  32  33
ENDBRANCH  25  27
ENDBRANCH  24  25
ENDBRANCH  23  24
ENDBRANCH  22  23
ENDBRANCH  21  22
ENDBRANCH   1  21
TORSDOF 18
ENDMDL
MODEL 2
REMARK VINA RESULT:     -10.6      4.789     10.788
REMARK SMILES [NH3+][C@H](Cc1ccc(O)c(F)c1)C(=O)OCCOCCOC(=O)c1ccc(-c2c3nc(c(-c4c(F)c(F)c(F)c(F)c4F)c4ccc([nH]4)c(-c4c(F)c(F)c(F)c(F)c4F)c4nc(c(-c5c(F)c(F)c(F)c(F)c5F)c5ccc2[nH]5)C=C4)C=C3)cc1
REMARK SMILES IDX 16 1 15 2 14 3 12 4 13 5 2 6 1 7 3 11 4 12 5 13 11 14 6 15
REMARK SMILES IDX 9 16 7 17 10 18 8 19 17 21 18 22 19 23 20 24 21 25 22 26
REMARK SMILES IDX 23 27 24 28 85 29 25 30 84 31 26 32 27 33 28 34 78 35 29 36
REMARK SMILES IDX 83 37 77 38 79 39 30 40 82 41 76 42 75 43 31 45 63 46 43 47
REMARK SMILES IDX 62 48 44 49 47 50 61 51 80 52 45 53 46 54 60 56 81 57 48 58
REMARK SMILES IDX 32 59 33 60 41 61 34 62 35 63 39 64 42 65 36 66 37 67 40 68
REMARK SMILES IDX 38 69 64 70 65 71 73 72 66 73 67 74 71 75 74 76 68 77 69 78
REMARK SMILES IDX 72 79 70 80 49 81 50 82 58 83 51 84 52 85 56 86 59 87 53 88
REMARK SMILES IDX 54 89 57 90 55 91
REMARK H PARENT 1 8 1 9 1 10 8 20 79 44 47 55
REMARK Flexibility Score: inf
ROOT
ATOM      1  C   UNL A   1      32.848  35.948  30.578  1.00  0.00     0.202 C 
ENDROOT
BRANCH   1   2
ATOM      2  C   UNL A   1      33.309  35.888  32.036  1.00  0.00     0.261 C 
BRANCH   2   3
ATOM      3  O   UNL A   1      33.244  34.531  32.508  1.00  0.00    -0.459 OA
BRANCH   3   4
ATOM      4  C   UNL A   1      34.382  34.039  33.068  1.00  0.00     0.365 C 
ATOM      5  O   UNL A   1      34.406  33.370  34.095  1.00  0.00    -0.245 OA
BRANCH   4   6
ATOM      6  C   UNL A   1      35.637  34.358  32.221  1.00  0.00     0.296 C 
BRANCH   6   7
ATOM      7  N   UNL A   1      35.692  33.495  31.022  1.00  0.00    -0.346 N 
ATOM      8  H   UNL A   1      35.962  34.054  30.213  1.00  0.00     0.345 HD
ATOM      9  H   UNL A   1      34.773  33.083  30.858  1.00  0.00     0.345 HD
ATOM     10  H   UNL A   1      36.376  32.754  31.168  1.00  0.00     0.345 HD
ENDBRANCH   6   7
BRANCH   6  11
ATOM     11  C   UNL A   1      36.987  34.450  32.972  1.00  0.00     0.113 C 
BRANCH  11  12
ATOM     12  C   UNL A   1      37.458  33.278  33.805  1.00  0.00    -0.038 A 
ATOM     13  C   UNL A   1      37.826  33.505  35.146  1.00  0.00     0.008 A 
ATOM     14  C   UNL A   1      37.474  31.963  33.326  1.00  0.00     0.047 A 
ATOM     15  C   UNL A   1      38.238  32.457  35.973  1.00  0.00     0.049 A 
ATOM     16  C   UNL A   1      37.887  30.920  34.153  1.00  0.00     0.165 A 
ATOM     17  C   UNL A   1      38.274  31.163  35.468  1.00  0.00     0.151 A 
ATOM     18  F   UNL A   1      37.904  29.674  33.659  1.00  0.00    -0.203 F 
BRANCH  17  19
ATOM     19  O   UNL A   1      38.681  30.118  36.247  1.00  0.00    -0.505 OA
ATOM     20  H   UNL A   1      39.580  29.856  36.246  1.00  0.00     0.293 HD
ENDBRANCH  17  19
ENDBRANCH  11  12
ENDBRANCH   6  11
ENDBRANCH   4   6
ENDBRANCH   3   4
ENDBRANCH   2   3
ENDBRANCH   1   2
BRANCH   1  21
ATOM     21  O   UNL A   1      32.885  34.706  29.874  1.00  0.00    -0.374 OA
BRANCH  21  22
ATOM     22  C   UNL A   1      33.540  34.687  28.606  1.00  0.00     0.202 C 
BRANCH  22  23
ATOM     23  C   UNL A   1      33.609  33.321  27.909  1.00  0.00     0.261 C 
BRANCH  23  24
ATOM     24  O   UNL A   1      34.511  32.410  28.562  1.00  0.00    -0.460 OA
BRANCH  24  25
ATOM     25  C   UNL A   1      34.393  31.119  28.168  1.00  0.00     0.338 C 
ATOM     26  O   UNL A   1      33.431  30.597  27.618  1.00  0.00    -0.246 OA
BRANCH  25  27
ATOM     27  C   UNL A   1      35.666  30.399  28.347  1.00  0.00     0.060 A 
ATOM     28  C   UNL A   1      35.862  29.731  29.563  1.00  0.00     0.016 A 
ATOM     29  C   UNL A   1      36.689  30.459  27.399  1.00  0.00     0.016 A 
ATOM     30  C   UNL A   1      37.100  29.162  29.856  1.00  0.00     0.010 A 
ATOM     31  C   UNL A   1      37.935  29.895  27.700  1.00  0.00     0.010 A 
ATOM     32  C   UNL A   1      38.157  29.277  28.944  1.00  0.00    -0.014 A 
BRANCH  32  33
ATOM     33  C   UNL A   1      39.524  28.875  29.361  1.00  0.00     0.031 A 
ATOM     34  C   UNL A   1      40.287  29.750  30.318  1.00  0.00     0.074 A 
ATOM     35  C   UNL A   1      40.063  27.722  28.931  1.00  0.00     0.049 A 
ATOM     36  N   UNL A   1      41.493  29.599  30.804  1.00  0.00    -0.248 NA
ATOM     37  C   UNL A   1      39.594  30.958  30.793  1.00  0.00     0.031 C 
ATOM     38  C   UNL A   1      39.412  26.767  28.037  1.00  0.00     0.029 A 
ATOM     39  N   UNL A   1      41.290  27.160  29.192  1.00  0.00    -0.354 N 
ATOM     40  C   UNL A   1      41.703  30.688  31.639  1.00  0.00     0.074 A 
ATOM     41  C   UNL A   1      40.513  31.509  31.572  1.00  0.00     0.031 C 
ATOM     42  C   UNL A   1      40.247  25.737  27.818  1.00  0.00     0.029 A 
ATOM     43  C   UNL A   1      41.501  25.975  28.531  1.00  0.00     0.049 A 
ATOM     44  H   UNL A   1      41.952  27.568  29.793  1.00  0.00     0.167 HD
ATOM     45  C   UNL A   1      42.788  30.972  32.399  1.00  0.00     0.037 A 
ATOM     46  C   UNL A   1      42.591  25.184  28.494  1.00  0.00     0.037 A 
ATOM     47  C   UNL A   1      43.972  30.158  32.468  1.00  0.00     0.049 A 
ATOM     48  C   UNL A   1      43.813  25.564  29.289  1.00  0.00     0.074 A 
ATOM     49  C   UNL A   1      45.118  30.361  33.218  1.00  0.00     0.029 A 
ATOM     50  N   UNL A   1      44.166  28.987  31.752  1.00  0.00    -0.354 N 
ATOM     51  N   UNL A   1      43.998  26.586  30.087  1.00  0.00    -0.248 NA
ATOM     52  C   UNL A   1      44.980  24.675  29.174  1.00  0.00     0.031 C 
ATOM     53  C   UNL A   1      46.022  29.335  32.922  1.00  0.00     0.029 A 
ATOM     54  C   UNL A   1      45.422  28.469  32.024  1.00  0.00     0.049 A 
ATOM     55  H   UNL A   1      43.508  28.584  31.140  1.00  0.00     0.167 HD
ATOM     56  C   UNL A   1      45.286  26.452  30.590  1.00  0.00     0.074 A 
ATOM     57  C   UNL A   1      45.835  25.242  30.014  1.00  0.00     0.031 C 
ATOM     58  C   UNL A   1      45.954  27.259  31.451  1.00  0.00     0.037 A 
BRANCH  45  59
ATOM     59  C   UNL A   1      42.751  32.235  33.209  1.00  0.00     0.064 A 
ATOM     60  C   UNL A   1      43.282  33.438  32.719  1.00  0.00     0.173 A 
ATOM     61  C   UNL A   1      42.143  32.251  34.473  1.00  0.00     0.173 A 
ATOM     62  F   UNL A   1      43.886  33.472  31.521  1.00  0.00    -0.203 F 
ATOM     63  C   UNL A   1      43.226  34.606  33.476  1.00  0.00     0.198 A 
ATOM     64  C   UNL A   1      42.067  33.426  35.215  1.00  0.00     0.198 A 
ATOM     65  F   UNL A   1      41.617  31.129  34.984  1.00  0.00    -0.203 F 
ATOM     66  F   UNL A   1      43.777  35.734  33.006  1.00  0.00    -0.200 F 
ATOM     67  C   UNL A   1      42.613  34.600  34.720  1.00  0.00     0.200 A 
ATOM     68  F   UNL A   1      41.465  33.422  36.413  1.00  0.00    -0.200 F 
ATOM     69  F   UNL A   1      42.554  35.726  35.444  1.00  0.00    -0.200 F 
ENDBRANCH  45  59
BRANCH  46  70
ATOM     70  C   UNL A   1      42.582  23.953  27.664  1.00  0.00     0.064 A 
ATOM     71  C   UNL A   1      42.229  22.712  28.213  1.00  0.00     0.173 A 
ATOM     72  C   UNL A   1      42.947  23.987  26.310  1.00  0.00     0.173 A 
ATOM     73  F   UNL A   1      41.904  22.624  29.511  1.00  0.00    -0.203 F 
ATOM     74  C   UNL A   1      42.253  21.551  27.443  1.00  0.00     0.198 A 
ATOM     75  C   UNL A   1      42.944  22.830  25.533  1.00  0.00     0.198 A 
ATOM     76  F   UNL A   1      43.303  25.148  25.741  1.00  0.00    -0.203 F 
ATOM     77  F   UNL A   1      41.953  20.372  28.004  1.00  0.00    -0.200 F 
ATOM     78  C   UNL A   1      42.604  21.613  26.102  1.00  0.00     0.200 A 
ATOM     79  F   UNL A   1      43.280  22.895  24.238  1.00  0.00    -0.200 F 
ATOM     80  F   UNL A   1      42.627  20.496  25.362  1.00  0.00    -0.200 F 
ENDBRANCH  46  70
BRANCH  58  81
ATOM     81  C   UNL A   1      47.340  26.845  31.853  1.00  0.00     0.064 A 
ATOM     82  C   UNL A   1      47.561  25.924  32.887  1.00  0.00     0.173 A 
ATOM     83  C   UNL A   1      48.457  27.344  31.165  1.00  0.00     0.173 A 
ATOM     84  F   UNL A   1      46.527  25.430  33.584  1.00  0.00    -0.203 F 
ATOM     85  C   UNL A   1      48.852  25.533  33.230  1.00  0.00     0.198 A 
ATOM     86  C   UNL A   1      49.744  26.928  31.493  1.00  0.00     0.198 A 
ATOM     87  F   UNL A   1      48.297  28.221  30.163  1.00  0.00    -0.203 F 
ATOM     88  F   UNL A   1      49.044  24.682  34.248  1.00  0.00    -0.200 F 
ATOM     89  C   UNL A   1      49.942  26.028  32.530  1.00  0.00     0.200 A 
ATOM     90  F   UNL A   1      50.795  27.399  30.807  1.00  0.00    -0.200 F 
ATOM     91  F   UNL A   1      51.183  25.644  32.857  1.00  0.00    -0.200 F 
ENDBRANCH  58  81
ENDBRANCH  32  33
ENDBRANCH  25  27
ENDBRANCH  24  25
ENDBRANCH  23  24
ENDBRANCH  22  23
ENDBRANCH  21  22
ENDBRANCH   1  21
TORSDOF 18
ENDMDL
MODEL 3
REMARK VINA RESULT:     -10.5      5.205     10.139
REMARK SMILES [NH3+][C@H](Cc1ccc(O)c(F)c1)C(=O)OCCOCCOC(=O)c1ccc(-c2c3nc(c(-c4c(F)c(F)c(F)c(F)c4F)c4ccc([nH]4)c(-c4c(F)c(F)c(F)c(F)c4F)c4nc(c(-c5c(F)c(F)c(F)c(F)c5F)c5ccc2[nH]5)C=C4)C=C3)cc1
REMARK SMILES IDX 16 1 15 2 14 3 12 4 13 5 2 6 1 7 3 11 4 12 5 13 11 14 6 15
REMARK SMILES IDX 9 16 7 17 10 18 8 19 17 21 18 22 19 23 20 24 21 25 22 26
REMARK SMILES IDX 23 27 24 28 85 29 25 30 84 31 26 32 27 33 28 34 78 35 29 36
REMARK SMILES IDX 83 37 77 38 79 39 30 40 82 41 76 42 75 43 31 45 63 46 43 47
REMARK SMILES IDX 62 48 44 49 47 50 61 51 80 52 45 53 46 54 60 56 81 57 48 58
REMARK SMILES IDX 32 59 33 60 41 61 34 62 35 63 39 64 42 65 36 66 37 67 40 68
REMARK SMILES IDX 38 69 64 70 65 71 73 72 66 73 67 74 71 75 74 76 68 77 69 78
REMARK SMILES IDX 72 79 70 80 49 81 50 82 58 83 51 84 52 85 56 86 59 87 53 88
REMARK SMILES IDX 54 89 57 90 55 91
REMARK H PARENT 1 8 1 9 1 10 8 20 79 44 47 55
REMARK Flexibility Score: inf
ROOT
ATOM      1  C   UNL A   1      33.620  28.425  24.685  1.00  0.00     0.202 C 
ENDROOT
BRANCH   1   2
ATOM      2  C   UNL A   1      32.667  27.245  24.877  1.00  0.00     0.261 C 
BRANCH   2   3
ATOM      3  O   UNL A   1      32.159  26.819  23.600  1.00  0.00    -0.459 OA
BRANCH   3   4
ATOM      4  C   UNL A   1      30.810  26.885  23.441  1.00  0.00     0.365 C 
ATOM      5  O   UNL A   1      30.025  26.070  23.914  1.00  0.00    -0.245 OA
BRANCH   4   6
ATOM      6  C   UNL A   1      30.373  28.144  22.656  1.00  0.00     0.296 C 
BRANCH   6   7
ATOM      7  N   UNL A   1      31.537  28.787  22.010  1.00  0.00    -0.346 N 
ATOM      8  H   UNL A   1      31.833  28.228  21.209  1.00  0.00     0.345 HD
ATOM      9  H   UNL A   1      32.304  28.853  22.679  1.00  0.00     0.345 HD
ATOM     10  H   UNL A   1      31.279  29.721  21.695  1.00  0.00     0.345 HD
ENDBRANCH   6   7
BRANCH   6  11
ATOM     11  C   UNL A   1      29.451  29.146  23.391  1.00  0.00     0.113 C 
BRANCH  11  12
ATOM     12  C   UNL A   1      28.961  30.380  22.665  1.00  0.00    -0.038 A 
ATOM     13  C   UNL A   1      28.377  30.229  21.391  1.00  0.00     0.008 A 
ATOM     14  C   UNL A   1      28.994  31.658  23.233  1.00  0.00     0.047 A 
ATOM     15  C   UNL A   1      27.878  31.329  20.687  1.00  0.00     0.049 A 
ATOM     16  C   UNL A   1      28.497  32.753  22.527  1.00  0.00     0.165 A 
ATOM     17  C   UNL A   1      27.948  32.594  21.258  1.00  0.00     0.151 A 
ATOM     18  F   UNL A   1      28.556  33.966  23.095  1.00  0.00    -0.203 F 
BRANCH  17  19
ATOM     19  O   UNL A   1      27.478  33.689  20.593  1.00  0.00    -0.505 OA
ATOM     20  H   UNL A   1      26.688  34.106  20.876  1.00  0.00     0.293 HD
ENDBRANCH  17  19
ENDBRANCH  11  12
ENDBRANCH   6  11
ENDBRANCH   4   6
ENDBRANCH   3   4
ENDBRANCH   2   3
ENDBRANCH   1   2
BRANCH   1  21
ATOM     21  O   UNL A   1      33.007  29.716  24.715  1.00  0.00    -0.374 OA
BRANCH  21  22
ATOM     22  C   UNL A   1      32.156  30.015  25.821  1.00  0.00     0.202 C 
BRANCH  22  23
ATOM     23  C   UNL A   1      32.791  30.835  26.952  1.00  0.00     0.261 C 
BRANCH  23  24
ATOM     24  O   UNL A   1      33.782  30.093  27.686  1.00  0.00    -0.460 OA
BRANCH  24  25
ATOM     25  C   UNL A   1      34.685  30.857  28.347  1.00  0.00     0.338 C 
ATOM     26  O   UNL A   1      34.478  31.921  28.918  1.00  0.00    -0.246 OA
BRANCH  25  27
ATOM     27  C   UNL A   1      35.985  30.169  28.439  1.00  0.00     0.060 A 
ATOM     28  C   UNL A   1      36.308  29.564  29.661  1.00  0.00     0.016 A 
ATOM     29  C   UNL A   1      36.914  30.202  27.398  1.00  0.00     0.016 A 
ATOM     30  C   UNL A   1      37.580  29.032  29.863  1.00  0.00     0.010 A 
ATOM     31  C   UNL A   1      38.195  29.676  27.607  1.00  0.00     0.010 A 
ATOM     32  C   UNL A   1      38.545  29.123  28.852  1.00  0.00    -0.014 A 
BRANCH  32  33
ATOM     33  C   UNL A   1      39.953  28.766  29.157  1.00  0.00     0.031 A 
ATOM     34  C   UNL A   1      40.781  29.699  29.999  1.00  0.00     0.074 A 
ATOM     35  C   UNL A   1      40.477  27.604  28.731  1.00  0.00     0.049 A 
ATOM     36  N   UNL A   1      42.030  29.593  30.376  1.00  0.00    -0.248 NA
ATOM     37  C   UNL A   1      40.107  30.915  30.481  1.00  0.00     0.031 C 
ATOM     38  C   UNL A   1      39.768  26.596  27.946  1.00  0.00     0.029 A 
ATOM     39  N   UNL A   1      41.734  27.078  28.902  1.00  0.00    -0.354 N 
ATOM     40  C   UNL A   1      42.292  30.724  31.139  1.00  0.00     0.074 A 
ATOM     41  C   UNL A   1      41.082  31.519  31.146  1.00  0.00     0.031 C 
ATOM     42  C   UNL A   1      40.602  25.573  27.697  1.00  0.00     0.029 A 
ATOM     43  C   UNL A   1      41.911  25.867  28.278  1.00  0.00     0.049 A 
ATOM     44  H   UNL A   1      42.440  27.526  29.420  1.00  0.00     0.167 HD
ATOM     45  C   UNL A   1      43.435  31.064  31.781  1.00  0.00     0.037 A 
ATOM     46  C   UNL A   1      43.010  25.096  28.176  1.00  0.00     0.037 A 
ATOM     47  C   UNL A   1      44.638  30.276  31.775  1.00  0.00     0.049 A 
ATOM     48  C   UNL A   1      44.291  25.535  28.835  1.00  0.00     0.074 A 
ATOM     49  C   UNL A   1      45.843  30.535  32.406  1.00  0.00     0.029 A 
ATOM     50  N   UNL A   1      44.793  29.076  31.098  1.00  0.00    -0.354 N 
ATOM     51  N   UNL A   1      44.526  26.597  29.566  1.00  0.00    -0.248 NA
ATOM     52  C   UNL A   1      45.463  24.664  28.653  1.00  0.00     0.031 C 
ATOM     53  C   UNL A   1      46.740  29.513  32.074  1.00  0.00     0.029 A 
ATOM     54  C   UNL A   1      46.079  28.594  31.275  1.00  0.00     0.049 A 
ATOM     55  H   UNL A   1      44.090  28.632  30.569  1.00  0.00     0.167 HD
ATOM     56  C   UNL A   1      45.858  26.510  29.953  1.00  0.00     0.074 A 
ATOM     57  C   UNL A   1      46.379  25.285  29.383  1.00  0.00     0.031 C 
ATOM     58  C   UNL A   1      46.583  27.369  30.710  1.00  0.00     0.037 A 
BRANCH  45  59
ATOM     59  C   UNL A   1      43.444  32.362  32.532  1.00  0.00     0.064 A 
ATOM     60  C   UNL A   1      43.788  33.571  31.908  1.00  0.00     0.173 A 
ATOM     61  C   UNL A   1      43.067  32.404  33.883  1.00  0.00     0.173 A 
ATOM     62  F   UNL A   1      44.169  33.582  30.622  1.00  0.00    -0.203 F 
ATOM     63  C   UNL A   1      43.777  34.771  32.615  1.00  0.00     0.198 A 
ATOM     64  C   UNL A   1      43.033  33.609  34.579  1.00  0.00     0.198 A 
ATOM     65  F   UNL A   1      42.725  31.277  34.525  1.00  0.00    -0.203 F 
ATOM     66  F   UNL A   1      44.149  35.907  32.010  1.00  0.00    -0.200 F 
ATOM     67  C   UNL A   1      43.393  34.789  33.948  1.00  0.00     0.200 A 
ATOM     68  F   UNL A   1      42.651  33.628  35.864  1.00  0.00    -0.200 F 
ATOM     69  F   UNL A   1      43.376  35.946  34.625  1.00  0.00    -0.200 F 
ENDBRANCH  45  59
BRANCH  46  70
ATOM     70  C   UNL A   1      42.954  23.827  27.406  1.00  0.00     0.064 A 
ATOM     71  C   UNL A   1      42.537  22.633  28.010  1.00  0.00     0.173 A 
ATOM     72  C   UNL A   1      43.334  23.778  26.057  1.00  0.00     0.173 A 
ATOM     73  F   UNL A   1      42.193  22.623  29.307  1.00  0.00    -0.203 F 
ATOM     74  C   UNL A   1      42.514  21.435  27.298  1.00  0.00     0.198 A 
ATOM     75  C   UNL A   1      43.286  22.586  25.338  1.00  0.00     0.198 A 
ATOM     76  F   UNL A   1      43.751  24.892  25.437  1.00  0.00    -0.203 F 
ATOM     77  F   UNL A   1      42.154  20.300  27.911  1.00  0.00    -0.200 F 
ATOM     78  C   UNL A   1      42.882  21.415  25.961  1.00  0.00     0.200 A 
ATOM     79  F   UNL A   1      43.639  22.570  24.046  1.00  0.00    -0.200 F 
ATOM     80  F   UNL A   1      42.862  20.263  25.276  1.00  0.00    -0.200 F 
ENDBRANCH  46  70
BRANCH  58  81
ATOM     81  C   UNL A   1      48.010  27.001  31.000  1.00  0.00     0.064 A 
ATOM     82  C   UNL A   1      49.069  27.503  30.230  1.00  0.00     0.173 A 
ATOM     83  C   UNL A   1      48.322  26.172  32.088  1.00  0.00     0.173 A 
ATOM     84  F   UNL A   1      48.821  28.288  29.170  1.00  0.00    -0.203 F 
ATOM     85  C   UNL A   1      50.388  27.172  30.528  1.00  0.00     0.198 A 
ATOM     86  C   UNL A   1      49.643  25.866  32.399  1.00  0.00     0.198 A 
ATOM     87  F   UNL A   1      47.345  25.673  32.860  1.00  0.00    -0.203 F 
ATOM     88  F   UNL A   1      51.383  27.630  29.755  1.00  0.00    -0.200 F 
ATOM     89  C   UNL A   1      50.676  26.360  31.616  1.00  0.00     0.200 A 
ATOM     90  F   UNL A   1      49.920  25.092  33.458  1.00  0.00    -0.200 F 
ATOM     91  F   UNL A   1      51.946  26.050  31.905  1.00  0.00    -0.200 F 
ENDBRANCH  58  81
ENDBRANCH  32  33
ENDBRANCH  25  27
ENDBRANCH  24  25
ENDBRANCH  23  24
ENDBRANCH  22  23
ENDBRANCH  21  22
ENDBRANCH   1  21
TORSDOF 18
ENDMDL
