MODEL 1
REMARK VINA RESULT:     -10.8      0.000      0.000
REMARK SMILES Cc1cc(C(=O)OCCOCCOC(=O)c2ccc(-c3c4nc(c(-c5c(F)c(F)c(F)c(F)c5F)c5ccc([nH]5)c(-c5c(F)c(F)c(F)c(F)c5F)c5nc(c(-c6c(F)c(F)c(F)c(F)c6F)c6ccc3[nH]6)C=C5)C=C4)cc2)nn1[C@H]1CCS(=O)(=O)C1
REMARK SMILES IDX 11 1 10 2 9 3 8 4 7 5 5 6 6 7 4 8 1 9 2 10 3 11 80 12 79 13
REMARK SMILES IDX 81 14 82 15 87 16 83 17 84 18 85 19 86 20 12 21 13 22 14 23
REMARK SMILES IDX 15 24 16 25 17 26 78 27 18 28 77 29 19 30 20 31 21 32 71 33
REMARK SMILES IDX 22 34 76 35 70 36 72 37 23 38 75 39 69 40 68 41 24 43 56 44
REMARK SMILES IDX 36 45 55 46 37 47 40 48 54 49 73 50 38 51 39 52 53 54 74 55
REMARK SMILES IDX 41 56 25 57 26 58 34 59 27 60 28 61 32 62 35 63 29 64 30 65
REMARK SMILES IDX 33 66 31 67 57 68 58 69 66 70 59 71 60 72 64 73 67 74 61 75
REMARK SMILES IDX 62 76 65 77 63 78 42 79 43 80 51 81 44 82 45 83 49 84 52 85
REMARK SMILES IDX 46 86 47 87 50 88 48 89
REMARK H PARENT 72 42 40 53
REMARK Flexibility Score: inf
ROOT
ATOM      1  C   UNL A   1      42.135  20.197  26.508  1.00  0.00     0.202 C 
ENDROOT
BRANCH   1   2
ATOM      2  O   UNL A   1      42.462  19.380  25.389  1.00  0.00    -0.374 OA
BRANCH   2   3
ATOM      3  C   UNL A   1      43.741  18.757  25.302  1.00  0.00     0.202 C 
BRANCH   3   4
ATOM      4  C   UNL A   1      44.463  18.774  23.953  1.00  0.00     0.261 C 
BRANCH   4   5
ATOM      5  O   UNL A   1      45.004  20.066  23.635  1.00  0.00    -0.458 OA
BRANCH   5   6
ATOM      6  C   UNL A   1      45.842  20.589  24.585  1.00  0.00     0.358 C 
ATOM      7  O   UNL A   1      46.811  20.001  25.048  1.00  0.00    -0.244 OA
BRANCH   6   8
ATOM      8  C   UNL A   1      45.507  21.985  24.906  1.00  0.00     0.170 A 
ATOM      9  C   UNL A   1      43.485  25.054  25.058  1.00  0.00     0.066 C 
ATOM     10  C   UNL A   1      44.487  23.962  25.092  1.00  0.00     0.037 A 
ATOM     11  C   UNL A   1      44.462  22.776  24.382  1.00  0.00     0.061 A 
ATOM     12  N   UNL A   1      45.605  23.891  25.889  1.00  0.00    -0.265 N 
ATOM     13  N   UNL A   1      46.228  22.700  25.785  1.00  0.00    -0.165 NA
BRANCH  12  14
ATOM     14  C   UNL A   1      46.190  24.810  26.850  1.00  0.00     0.123 C 
ATOM     15  C   UNL A   1      45.708  24.566  28.295  1.00  0.00     0.044 C 
ATOM     16  C   UNL A   1      47.705  24.866  26.947  1.00  0.00     0.164 C 
ATOM     17  C   UNL A   1      46.444  25.570  29.180  1.00  0.00     0.139 C 
ATOM     18  S   UNL A   1      48.002  25.889  28.367  1.00  0.00     0.152 S 
ATOM     19  O   UNL A   1      48.027  27.267  27.930  1.00  0.00    -0.229 OA
ATOM     20  O   UNL A   1      49.075  25.297  29.137  1.00  0.00    -0.229 OA
ENDBRANCH  12  14
ENDBRANCH   6   8
ENDBRANCH   5   6
ENDBRANCH   4   5
ENDBRANCH   3   4
ENDBRANCH   2   3
ENDBRANCH   1   2
BRANCH   1  21
ATOM     21  C   UNL A   1      40.674  20.308  26.914  1.00  0.00     0.261 C 
BRANCH  21  22
ATOM     22  O   UNL A   1      40.407  21.503  27.626  1.00  0.00    -0.460 OA
BRANCH  22  23
ATOM     23  C   UNL A   1      39.733  22.427  26.902  1.00  0.00     0.338 C 
ATOM     24  O   UNL A   1      38.774  22.252  26.175  1.00  0.00    -0.246 OA
BRANCH  23  25
ATOM     25  C   UNL A   1      40.470  23.689  26.987  1.00  0.00     0.060 A 
ATOM     26  C   UNL A   1      41.542  23.722  27.881  1.00  0.00     0.016 A 
ATOM     27  C   UNL A   1      39.884  24.854  26.471  1.00  0.00     0.016 A 
ATOM     28  C   UNL A   1      41.876  24.929  28.446  1.00  0.00     0.010 A 
ATOM     29  C   UNL A   1      40.190  26.049  27.061  1.00  0.00     0.010 A 
ATOM     30  C   UNL A   1      41.123  26.052  28.096  1.00  0.00    -0.014 A 
BRANCH  30  31
ATOM     31  C   UNL A   1      41.429  27.314  28.727  1.00  0.00     0.031 A 
ATOM     32  C   UNL A   1      42.687  27.878  28.193  1.00  0.00     0.074 A 
ATOM     33  C   UNL A   1      40.554  27.905  29.566  1.00  0.00     0.049 A 
ATOM     34  N   UNL A   1      43.796  28.060  28.827  1.00  0.00    -0.248 NA
ATOM     35  C   UNL A   1      42.802  28.059  26.732  1.00  0.00     0.031 C 
ATOM     36  C   UNL A   1      39.191  27.455  29.878  1.00  0.00     0.029 A 
ATOM     37  N   UNL A   1      40.643  29.093  30.229  1.00  0.00    -0.354 N 
ATOM     38  C   UNL A   1      44.651  28.638  27.893  1.00  0.00     0.074 A 
ATOM     39  C   UNL A   1      44.091  28.375  26.600  1.00  0.00     0.031 C 
ATOM     40  C   UNL A   1      38.509  28.462  30.470  1.00  0.00     0.029 A 
ATOM     41  C   UNL A   1      39.418  29.569  30.699  1.00  0.00     0.049 A 
ATOM     42  H   UNL A   1      41.493  29.572  30.364  1.00  0.00     0.167 HD
ATOM     43  C   UNL A   1      45.504  29.619  28.291  1.00  0.00     0.037 A 
ATOM     44  C   UNL A   1      39.181  30.815  31.178  1.00  0.00     0.037 A 
ATOM     45  C   UNL A   1      45.670  29.590  29.721  1.00  0.00     0.049 A 
ATOM     46  C   UNL A   1      40.490  31.393  31.562  1.00  0.00     0.074 A 
ATOM     47  C   UNL A   1      46.348  28.811  30.631  1.00  0.00     0.029 A 
ATOM     48  N   UNL A   1      44.680  30.248  30.401  1.00  0.00    -0.354 N 
ATOM     49  N   UNL A   1      41.198  30.949  32.562  1.00  0.00    -0.248 NA
ATOM     50  C   UNL A   1      41.209  32.231  30.606  1.00  0.00     0.031 C 
ATOM     51  C   UNL A   1      45.655  28.945  31.870  1.00  0.00     0.029 A 
ATOM     52  C   UNL A   1      44.601  29.839  31.702  1.00  0.00     0.049 A 
ATOM     53  H   UNL A   1      44.097  30.934  30.001  1.00  0.00     0.167 HD
ATOM     54  C   UNL A   1      42.504  31.086  32.138  1.00  0.00     0.074 A 
ATOM     55  C   UNL A   1      42.460  32.027  31.027  1.00  0.00     0.031 C 
ATOM     56  C   UNL A   1      43.443  30.167  32.499  1.00  0.00     0.037 A 
BRANCH  43  57
ATOM     57  C   UNL A   1      45.728  30.901  27.514  1.00  0.00     0.064 A 
ATOM     58  C   UNL A   1      47.046  31.245  27.150  1.00  0.00     0.173 A 
ATOM     59  C   UNL A   1      44.779  31.943  27.394  1.00  0.00     0.173 A 
ATOM     60  F   UNL A   1      48.036  30.346  27.249  1.00  0.00    -0.203 F 
ATOM     61  C   UNL A   1      47.391  32.543  26.760  1.00  0.00     0.198 A 
ATOM     62  C   UNL A   1      45.118  33.221  26.956  1.00  0.00     0.198 A 
ATOM     63  F   UNL A   1      43.512  31.817  27.801  1.00  0.00    -0.203 F 
ATOM     64  F   UNL A   1      48.675  32.851  26.537  1.00  0.00    -0.200 F 
ATOM     65  C   UNL A   1      46.428  33.530  26.666  1.00  0.00     0.200 A 
ATOM     66  F   UNL A   1      44.170  34.168  26.899  1.00  0.00    -0.200 F 
ATOM     67  F   UNL A   1      46.763  34.786  26.348  1.00  0.00    -0.200 F 
ENDBRANCH  43  57
BRANCH  44  68
ATOM     68  C   UNL A   1      37.958  31.649  31.095  1.00  0.00     0.064 A 
ATOM     69  C   UNL A   1      37.428  32.033  29.851  1.00  0.00     0.173 A 
ATOM     70  C   UNL A   1      37.123  31.822  32.213  1.00  0.00     0.173 A 
ATOM     71  F   UNL A   1      38.146  31.870  28.731  1.00  0.00    -0.203 F 
ATOM     72  C   UNL A   1      36.121  32.519  29.729  1.00  0.00     0.198 A 
ATOM     73  C   UNL A   1      35.820  32.310  32.090  1.00  0.00     0.198 A 
ATOM     74  F   UNL A   1      37.517  31.425  33.432  1.00  0.00    -0.203 F 
ATOM     75  F   UNL A   1      35.625  32.806  28.517  1.00  0.00    -0.200 F 
ATOM     76  C   UNL A   1      35.313  32.641  30.846  1.00  0.00     0.200 A 
ATOM     77  F   UNL A   1      35.035  32.389  33.174  1.00  0.00    -0.200 F 
ATOM     78  F   UNL A   1      34.038  33.033  30.722  1.00  0.00    -0.200 F 
ENDBRANCH  44  68
BRANCH  56  79
ATOM     79  C   UNL A   1      43.170  29.354  33.722  1.00  0.00     0.064 A 
ATOM     80  C   UNL A   1      42.506  28.117  33.725  1.00  0.00     0.173 A 
ATOM     81  C   UNL A   1      43.669  29.830  34.940  1.00  0.00     0.173 A 
ATOM     82  F   UNL A   1      42.065  27.570  32.584  1.00  0.00    -0.203 F 
ATOM     83  C   UNL A   1      42.321  27.408  34.911  1.00  0.00     0.198 A 
ATOM     84  C   UNL A   1      43.516  29.104  36.114  1.00  0.00     0.198 A 
ATOM     85  F   UNL A   1      44.344  30.989  34.982  1.00  0.00    -0.203 F 
ATOM     86  F   UNL A   1      41.668  26.236  34.898  1.00  0.00    -0.200 F 
ATOM     87  C   UNL A   1      42.833  27.898  36.102  1.00  0.00     0.200 A 
ATOM     88  F   UNL A   1      44.049  29.563  37.254  1.00  0.00    -0.200 F 
ATOM     89  F   UNL A   1      42.685  27.200  37.236  1.00  0.00    -0.200 F 
ENDBRANCH  56  79
ENDBRANCH  30  31
ENDBRANCH  23  25
ENDBRANCH  22  23
ENDBRANCH  21  22
ENDBRANCH   1  21
TORSDOF 15
ENDMDL
MODEL 2
REMARK VINA RESULT:     -10.7      3.932      6.615
REMARK SMILES Cc1cc(C(=O)OCCOCCOC(=O)c2ccc(-c3c4nc(c(-c5c(F)c(F)c(F)c(F)c5F)c5ccc([nH]5)c(-c5c(F)c(F)c(F)c(F)c5F)c5nc(c(-c6c(F)c(F)c(F)c(F)c6F)c6ccc3[nH]6)C=C5)C=C4)cc2)nn1[C@H]1CCS(=O)(=O)C1
REMARK SMILES IDX 11 1 10 2 9 3 8 4 7 5 5 6 6 7 4 8 1 9 2 10 3 11 80 12 79 13
REMARK SMILES IDX 81 14 82 15 87 16 83 17 84 18 85 19 86 20 12 21 13 22 14 23
REMARK SMILES IDX 15 24 16 25 17 26 78 27 18 28 77 29 19 30 20 31 21 32 71 33
REMARK SMILES IDX 22 34 76 35 70 36 72 37 23 38 75 39 69 40 68 41 24 43 56 44
REMARK SMILES IDX 36 45 55 46 37 47 40 48 54 49 73 50 38 51 39 52 53 54 74 55
REMARK SMILES IDX 41 56 25 57 26 58 34 59 27 60 28 61 32 62 35 63 29 64 30 65
REMARK SMILES IDX 33 66 31 67 57 68 58 69 66 70 59 71 60 72 64 73 67 74 61 75
REMARK SMILES IDX 62 76 65 77 63 78 42 79 43 80 51 81 44 82 45 83 49 84 52 85
REMARK SMILES IDX 46 86 47 87 50 88 48 89
REMARK H PARENT 72 42 40 53
REMARK Flexibility Score: inf
ROOT
ATOM      1  C   UNL A   1      42.561  19.097  26.761  1.00  0.00     0.202 C 
ENDROOT
BRANCH   1   2
ATOM      2  O   UNL A   1      42.170  20.452  26.959  1.00  0.00    -0.374 OA
BRANCH   2   3
ATOM      3  C   UNL A   1      41.240  21.070  26.072  1.00  0.00     0.202 C 
BRANCH   3   4
ATOM      4  C   UNL A   1      39.985  21.708  26.673  1.00  0.00     0.261 C 
BRANCH   4   5
ATOM      5  O   UNL A   1      38.851  21.622  25.795  1.00  0.00    -0.458 OA
BRANCH   5   6
ATOM      6  C   UNL A   1      37.985  22.682  25.867  1.00  0.00     0.358 C 
ATOM      7  O   UNL A   1      38.331  23.844  26.036  1.00  0.00    -0.244 OA
BRANCH   6   8
ATOM      8  C   UNL A   1      36.596  22.275  25.606  1.00  0.00     0.170 A 
ATOM      9  C   UNL A   1      33.756  19.998  25.074  1.00  0.00     0.066 C 
ATOM     10  C   UNL A   1      34.735  21.101  25.227  1.00  0.00     0.037 A 
ATOM     11  C   UNL A   1      36.115  21.007  25.214  1.00  0.00     0.061 A 
ATOM     12  N   UNL A   1      34.458  22.423  25.480  1.00  0.00    -0.265 N 
ATOM     13  N   UNL A   1      35.575  23.142  25.711  1.00  0.00    -0.165 NA
BRANCH  12  14
ATOM     14  C   UNL A   1      33.213  23.162  25.607  1.00  0.00     0.123 C 
ATOM     15  C   UNL A   1      32.140  22.723  24.589  1.00  0.00     0.044 C 
ATOM     16  C   UNL A   1      32.509  23.141  26.954  1.00  0.00     0.164 C 
ATOM     17  C   UNL A   1      30.891  23.551  24.883  1.00  0.00     0.139 C 
ATOM     18  S   UNL A   1      30.950  23.924  26.629  1.00  0.00     0.152 S 
ATOM     19  O   UNL A   1      31.121  25.350  26.796  1.00  0.00    -0.229 OA
ATOM     20  O   UNL A   1      29.916  23.178  27.314  1.00  0.00    -0.229 OA
ENDBRANCH  12  14
ENDBRANCH   6   8
ENDBRANCH   5   6
ENDBRANCH   4   5
ENDBRANCH   3   4
ENDBRANCH   2   3
ENDBRANCH   1   2
BRANCH   1  21
ATOM     21  C   UNL A   1      43.371  18.758  25.520  1.00  0.00     0.261 C 
BRANCH  21  22
ATOM     22  O   UNL A   1      44.517  19.581  25.389  1.00  0.00    -0.460 OA
BRANCH  22  23
ATOM     23  C   UNL A   1      44.528  20.318  24.254  1.00  0.00     0.338 C 
ATOM     24  O   UNL A   1      44.459  19.922  23.107  1.00  0.00    -0.246 OA
BRANCH  23  25
ATOM     25  C   UNL A   1      44.829  21.703  24.621  1.00  0.00     0.060 A 
ATOM     26  C   UNL A   1      45.763  21.884  25.644  1.00  0.00     0.016 A 
ATOM     27  C   UNL A   1      43.955  22.720  24.210  1.00  0.00     0.016 A 
ATOM     28  C   UNL A   1      45.660  23.013  26.419  1.00  0.00     0.010 A 
ATOM     29  C   UNL A   1      43.828  23.824  25.005  1.00  0.00     0.010 A 
ATOM     30  C   UNL A   1      44.628  23.913  26.143  1.00  0.00    -0.014 A 
BRANCH  30  31
ATOM     31  C   UNL A   1      44.476  25.073  26.989  1.00  0.00     0.031 A 
ATOM     32  C   UNL A   1      45.591  26.023  26.783  1.00  0.00     0.074 A 
ATOM     33  C   UNL A   1      43.361  25.261  27.722  1.00  0.00     0.049 A 
ATOM     34  N   UNL A   1      46.502  26.358  27.632  1.00  0.00    -0.248 NA
ATOM     35  C   UNL A   1      45.859  26.492  25.408  1.00  0.00     0.031 C 
ATOM     36  C   UNL A   1      42.147  24.434  27.708  1.00  0.00     0.029 A 
ATOM     37  N   UNL A   1      43.019  26.291  28.548  1.00  0.00    -0.354 N 
ATOM     38  C   UNL A   1      47.287  27.293  26.963  1.00  0.00     0.074 A 
ATOM     39  C   UNL A   1      47.013  27.140  25.565  1.00  0.00     0.031 C 
ATOM     40  C   UNL A   1      41.134  25.111  28.295  1.00  0.00     0.029 A 
ATOM     41  C   UNL A   1      41.656  26.350  28.840  1.00  0.00     0.049 A 
ATOM     42  H   UNL A   1      43.674  26.935  28.904  1.00  0.00     0.167 HD
ATOM     43  C   UNL A   1      47.767  28.367  27.646  1.00  0.00     0.037 A 
ATOM     44  C   UNL A   1      41.015  27.387  29.434  1.00  0.00     0.037 A 
ATOM     45  C   UNL A   1      47.727  28.119  29.064  1.00  0.00     0.049 A 
ATOM     46  C   UNL A   1      42.041  28.194  30.132  1.00  0.00     0.074 A 
ATOM     47  C   UNL A   1      48.458  27.382  29.968  1.00  0.00     0.029 A 
ATOM     48  N   UNL A   1      46.506  28.371  29.630  1.00  0.00    -0.354 N 
ATOM     49  N   UNL A   1      42.694  27.767  31.177  1.00  0.00    -0.248 NA
ATOM     50  C   UNL A   1      42.628  29.347  29.454  1.00  0.00     0.031 C 
ATOM     51  C   UNL A   1      47.585  27.109  31.062  1.00  0.00     0.029 A 
ATOM     52  C   UNL A   1      46.359  27.724  30.825  1.00  0.00     0.049 A 
ATOM     53  H   UNL A   1      45.819  28.950  29.227  1.00  0.00     0.167 HD
ATOM     54  C   UNL A   1      43.957  28.303  31.028  1.00  0.00     0.074 A 
ATOM     55  C   UNL A   1      43.813  29.390  30.070  1.00  0.00     0.031 C 
ATOM     56  C   UNL A   1      45.053  27.599  31.428  1.00  0.00     0.037 A 
BRANCH  43  57
ATOM     57  C   UNL A   1      47.734  29.784  27.109  1.00  0.00     0.064 A 
ATOM     58  C   UNL A   1      48.889  30.580  27.243  1.00  0.00     0.173 A 
ATOM     59  C   UNL A   1      46.554  30.488  26.771  1.00  0.00     0.173 A 
ATOM     60  F   UNL A   1      50.061  30.028  27.588  1.00  0.00    -0.203 F 
ATOM     61  C   UNL A   1      48.847  31.973  27.112  1.00  0.00     0.198 A 
ATOM     62  C   UNL A   1      46.528  31.868  26.590  1.00  0.00     0.198 A 
ATOM     63  F   UNL A   1      45.354  29.900  26.715  1.00  0.00    -0.203 F 
ATOM     64  F   UNL A   1      49.945  32.697  27.363  1.00  0.00    -0.200 F 
ATOM     65  C   UNL A   1      47.666  32.615  26.788  1.00  0.00     0.200 A 
ATOM     66  F   UNL A   1      45.364  32.470  26.304  1.00  0.00    -0.200 F 
ATOM     67  F   UNL A   1      47.611  33.950  26.717  1.00  0.00    -0.200 F 
ENDBRANCH  43  57
BRANCH  44  68
ATOM     68  C   UNL A   1      39.633  27.887  29.239  1.00  0.00     0.064 A 
ATOM     69  C   UNL A   1      38.754  28.028  30.328  1.00  0.00     0.173 A 
ATOM     70  C   UNL A   1      39.255  28.522  28.042  1.00  0.00     0.173 A 
ATOM     71  F   UNL A   1      39.056  27.482  31.514  1.00  0.00    -0.203 F 
ATOM     72  C   UNL A   1      37.589  28.796  30.235  1.00  0.00     0.198 A 
ATOM     73  C   UNL A   1      38.090  29.287  27.951  1.00  0.00     0.198 A 
ATOM     74  F   UNL A   1      40.060  28.499  26.970  1.00  0.00    -0.203 F 
ATOM     75  F   UNL A   1      36.813  28.967  31.315  1.00  0.00    -0.200 F 
ATOM     76  C   UNL A   1      37.267  29.439  29.052  1.00  0.00     0.200 A 
ATOM     77  F   UNL A   1      37.808  29.935  26.811  1.00  0.00    -0.200 F 
ATOM     78  F   UNL A   1      36.192  30.237  28.984  1.00  0.00    -0.200 F 
ENDBRANCH  44  68
BRANCH  56  79
ATOM     79  C   UNL A   1      44.845  26.534  32.454  1.00  0.00     0.064 A 
ATOM     80  C   UNL A   1      44.592  25.184  32.161  1.00  0.00     0.173 A 
ATOM     81  C   UNL A   1      44.976  26.896  33.800  1.00  0.00     0.173 A 
ATOM     82  F   UNL A   1      44.525  24.755  30.894  1.00  0.00    -0.203 F 
ATOM     83  C   UNL A   1      44.442  24.247  33.183  1.00  0.00     0.198 A 
ATOM     84  C   UNL A   1      44.863  25.954  34.814  1.00  0.00     0.198 A 
ATOM     85  F   UNL A   1      45.256  28.167  34.127  1.00  0.00    -0.203 F 
ATOM     86  F   UNL A   1      44.182  22.965  32.886  1.00  0.00    -0.200 F 
ATOM     87  C   UNL A   1      44.585  24.632  34.507  1.00  0.00     0.200 A 
ATOM     88  F   UNL A   1      45.043  26.325  36.088  1.00  0.00    -0.200 F 
ATOM     89  F   UNL A   1      44.474  23.726  35.487  1.00  0.00    -0.200 F 
ENDBRANCH  56  79
ENDBRANCH  30  31
ENDBRANCH  23  25
ENDBRANCH  22  23
ENDBRANCH  21  22
ENDBRANCH   1  21
TORSDOF 15
ENDMDL
MODEL 3
REMARK VINA RESULT:     -10.6      4.126      6.914
REMARK SMILES Cc1cc(C(=O)OCCOCCOC(=O)c2ccc(-c3c4nc(c(-c5c(F)c(F)c(F)c(F)c5F)c5ccc([nH]5)c(-c5c(F)c(F)c(F)c(F)c5F)c5nc(c(-c6c(F)c(F)c(F)c(F)c6F)c6ccc3[nH]6)C=C5)C=C4)cc2)nn1[C@H]1CCS(=O)(=O)C1
REMARK SMILES IDX 11 1 10 2 9 3 8 4 7 5 5 6 6 7 4 8 1 9 2 10 3 11 80 12 79 13
REMARK SMILES IDX 81 14 82 15 87 16 83 17 84 18 85 19 86 20 12 21 13 22 14 23
REMARK SMILES IDX 15 24 16 25 17 26 78 27 18 28 77 29 19 30 20 31 21 32 71 33
REMARK SMILES IDX 22 34 76 35 70 36 72 37 23 38 75 39 69 40 68 41 24 43 56 44
REMARK SMILES IDX 36 45 55 46 37 47 40 48 54 49 73 50 38 51 39 52 53 54 74 55
REMARK SMILES IDX 41 56 25 57 26 58 34 59 27 60 28 61 32 62 35 63 29 64 30 65
REMARK SMILES IDX 33 66 31 67 57 68 58 69 66 70 59 71 60 72 64 73 67 74 61 75
REMARK SMILES IDX 62 76 65 77 63 78 42 79 43 80 51 81 44 82 45 83 49 84 52 85
REMARK SMILES IDX 46 86 47 87 50 88 48 89
REMARK H PARENT 72 42 40 53
REMARK Flexibility Score: inf
ROOT
ATOM      1  C   UNL A   1      42.226  20.102  26.987  1.00  0.00     0.202 C 
ENDROOT
BRANCH   1   2
ATOM      2  O   UNL A   1      40.815  20.220  27.134  1.00  0.00    -0.374 OA
BRANCH   2   3
ATOM      3  C   UNL A   1      40.006  20.603  26.023  1.00  0.00     0.202 C 
BRANCH   3   4
ATOM      4  C   UNL A   1      39.078  21.809  26.188  1.00  0.00     0.261 C 
BRANCH   4   5
ATOM      5  O   UNL A   1      37.852  21.662  25.455  1.00  0.00    -0.458 OA
BRANCH   5   6
ATOM      6  C   UNL A   1      36.904  22.617  25.718  1.00  0.00     0.358 C 
ATOM      7  O   UNL A   1      37.152  23.805  25.885  1.00  0.00    -0.244 OA
BRANCH   6   8
ATOM      8  C   UNL A   1      35.541  22.068  25.670  1.00  0.00     0.170 A 
ATOM      9  C   UNL A   1      31.863  22.071  25.714  1.00  0.00     0.066 C 
ATOM     10  C   UNL A   1      33.323  21.815  25.696  1.00  0.00     0.037 A 
ATOM     11  C   UNL A   1      34.333  22.688  26.056  1.00  0.00     0.061 A 
ATOM     12  N   UNL A   1      33.958  20.678  25.255  1.00  0.00    -0.265 N 
ATOM     13  N   UNL A   1      35.298  20.820  25.234  1.00  0.00    -0.165 NA
BRANCH  12  14
ATOM     14  C   UNL A   1      33.466  19.406  24.756  1.00  0.00     0.123 C 
ATOM     15  C   UNL A   1      32.607  19.545  23.481  1.00  0.00     0.044 C 
ATOM     16  C   UNL A   1      34.486  18.330  24.426  1.00  0.00     0.164 C 
ATOM     17  C   UNL A   1      32.212  18.131  23.061  1.00  0.00     0.139 C 
ATOM     18  S   UNL A   1      33.527  17.065  23.632  1.00  0.00     0.152 S 
ATOM     19  O   UNL A   1      33.006  16.188  24.656  1.00  0.00    -0.229 OA
ATOM     20  O   UNL A   1      34.275  16.575  22.494  1.00  0.00    -0.229 OA
ENDBRANCH  12  14
ENDBRANCH   6   8
ENDBRANCH   5   6
ENDBRANCH   4   5
ENDBRANCH   3   4
ENDBRANCH   2   3
ENDBRANCH   1   2
BRANCH   1  21
ATOM     21  C   UNL A   1      42.763  19.395  25.752  1.00  0.00     0.261 C 
BRANCH  21  22
ATOM     22  O   UNL A   1      44.148  19.628  25.564  1.00  0.00    -0.460 OA
BRANCH  22  23
ATOM     23  C   UNL A   1      44.437  20.275  24.411  1.00  0.00     0.338 C 
ATOM     24  O   UNL A   1      44.602  19.794  23.307  1.00  0.00    -0.246 OA
BRANCH  23  25
ATOM     25  C   UNL A   1      44.710  21.675  24.738  1.00  0.00     0.060 A 
ATOM     26  C   UNL A   1      45.683  21.906  25.713  1.00  0.00     0.016 A 
ATOM     27  C   UNL A   1      43.787  22.657  24.349  1.00  0.00     0.016 A 
ATOM     28  C   UNL A   1      45.580  23.047  26.472  1.00  0.00     0.010 A 
ATOM     29  C   UNL A   1      43.661  23.772  25.129  1.00  0.00     0.010 A 
ATOM     30  C   UNL A   1      44.509  23.908  26.227  1.00  0.00    -0.014 A 
BRANCH  30  31
ATOM     31  C   UNL A   1      44.359  25.080  27.057  1.00  0.00     0.031 A 
ATOM     32  C   UNL A   1      45.477  26.024  26.841  1.00  0.00     0.074 A 
ATOM     33  C   UNL A   1      43.242  25.281  27.786  1.00  0.00     0.049 A 
ATOM     34  N   UNL A   1      46.387  26.367  27.687  1.00  0.00    -0.248 NA
ATOM     35  C   UNL A   1      45.749  26.474  25.461  1.00  0.00     0.031 C 
ATOM     36  C   UNL A   1      42.026  24.457  27.780  1.00  0.00     0.029 A 
ATOM     37  N   UNL A   1      42.902  26.323  28.597  1.00  0.00    -0.354 N 
ATOM     38  C   UNL A   1      47.176  27.291  27.008  1.00  0.00     0.074 A 
ATOM     39  C   UNL A   1      46.905  27.120  25.611  1.00  0.00     0.031 C 
ATOM     40  C   UNL A   1      41.014  25.145  28.356  1.00  0.00     0.029 A 
ATOM     41  C   UNL A   1      41.539  26.389  28.887  1.00  0.00     0.049 A 
ATOM     42  H   UNL A   1      43.559  26.969  28.947  1.00  0.00     0.167 HD
ATOM     43  C   UNL A   1      47.658  28.372  27.678  1.00  0.00     0.037 A 
ATOM     44  C   UNL A   1      40.900  27.436  29.466  1.00  0.00     0.037 A 
ATOM     45  C   UNL A   1      47.615  28.142  29.098  1.00  0.00     0.049 A 
ATOM     46  C   UNL A   1      41.928  28.249  30.155  1.00  0.00     0.074 A 
ATOM     47  C   UNL A   1      48.342  27.415  30.013  1.00  0.00     0.029 A 
ATOM     48  N   UNL A   1      46.394  28.406  29.659  1.00  0.00    -0.354 N 
ATOM     49  N   UNL A   1      42.577  27.833  31.206  1.00  0.00    -0.248 NA
ATOM     50  C   UNL A   1      42.519  29.391  29.463  1.00  0.00     0.031 C 
ATOM     51  C   UNL A   1      47.466  27.159  31.110  1.00  0.00     0.029 A 
ATOM     52  C   UNL A   1      46.242  27.775  30.862  1.00  0.00     0.049 A 
ATOM     53  H   UNL A   1      45.709  28.981  29.247  1.00  0.00     0.167 HD
ATOM     54  C   UNL A   1      43.842  28.363  31.053  1.00  0.00     0.074 A 
ATOM     55  C   UNL A   1      43.703  29.438  30.080  1.00  0.00     0.031 C 
ATOM     56  C   UNL A   1      44.935  27.662  31.464  1.00  0.00     0.037 A 
BRANCH  43  57
ATOM     57  C   UNL A   1      47.630  29.782  27.122  1.00  0.00     0.064 A 
ATOM     58  C   UNL A   1      48.778  30.586  27.272  1.00  0.00     0.173 A 
ATOM     59  C   UNL A   1      46.455  30.475  26.749  1.00  0.00     0.173 A 
ATOM     60  F   UNL A   1      49.945  30.044  27.651  1.00  0.00    -0.203 F 
ATOM     61  C   UNL A   1      48.732  31.976  27.123  1.00  0.00     0.198 A 
ATOM     62  C   UNL A   1      46.426  31.853  26.550  1.00  0.00     0.198 A 
ATOM     63  F   UNL A   1      45.259  29.881  26.673  1.00  0.00    -0.203 F 
ATOM     64  F   UNL A   1      49.821  32.710  27.389  1.00  0.00    -0.200 F 
ATOM     65  C   UNL A   1      47.557  32.608  26.765  1.00  0.00     0.200 A 
ATOM     66  F   UNL A   1      45.266  32.446  26.230  1.00  0.00    -0.200 F 
ATOM     67  F   UNL A   1      47.496  33.943  26.675  1.00  0.00    -0.200 F 
ENDBRANCH  43  57
BRANCH  44  68
ATOM     68  C   UNL A   1      39.520  27.938  29.262  1.00  0.00     0.064 A 
ATOM     69  C   UNL A   1      38.633  28.074  30.343  1.00  0.00     0.173 A 
ATOM     70  C   UNL A   1      39.152  28.577  28.064  1.00  0.00     0.173 A 
ATOM     71  F   UNL A   1      38.925  27.524  31.530  1.00  0.00    -0.203 F 
ATOM     72  C   UNL A   1      37.468  28.844  30.244  1.00  0.00     0.198 A 
ATOM     73  C   UNL A   1      37.988  29.343  27.966  1.00  0.00     0.198 A 
ATOM     74  F   UNL A   1      39.965  28.557  26.997  1.00  0.00    -0.203 F 
ATOM     75  F   UNL A   1      36.684  29.011  31.319  1.00  0.00    -0.200 F 
ATOM     76  C   UNL A   1      37.156  29.491  29.061  1.00  0.00     0.200 A 
ATOM     77  F   UNL A   1      37.716  29.995  26.826  1.00  0.00    -0.200 F 
ATOM     78  F   UNL A   1      36.083  30.290  28.987  1.00  0.00    -0.200 F 
ENDBRANCH  44  68
BRANCH  56  79
ATOM     79  C   UNL A   1      44.722  26.610  32.504  1.00  0.00     0.064 A 
ATOM     80  C   UNL A   1      44.580  26.865  33.877  1.00  0.00     0.173 A 
ATOM     81  C   UNL A   1      44.588  25.287  32.068  1.00  0.00     0.173 A 
ATOM     82  F   UNL A   1      44.625  28.116  34.353  1.00  0.00    -0.203 F 
ATOM     83  C   UNL A   1      44.350  25.825  34.777  1.00  0.00     0.198 A 
ATOM     84  C   UNL A   1      44.323  24.258  32.962  1.00  0.00     0.198 A 
ATOM     85  F   UNL A   1      44.678  24.999  30.760  1.00  0.00    -0.203 F 
ATOM     86  F   UNL A   1      44.235  26.083  36.088  1.00  0.00    -0.200 F 
ATOM     87  C   UNL A   1      44.214  24.524  34.317  1.00  0.00     0.200 A 
ATOM     88  F   UNL A   1      44.152  23.010  32.506  1.00  0.00    -0.200 F 
ATOM     89  F   UNL A   1      43.960  23.529  35.177  1.00  0.00    -0.200 F 
ENDBRANCH  56  79
ENDBRANCH  30  31
ENDBRANCH  23  25
ENDBRANCH  22  23
ENDBRANCH  21  22
ENDBRANCH   1  21
TORSDOF 15
ENDMDL
