MODEL 1
REMARK VINA RESULT:     -10.5      0.000      0.000
REMARK SMILES Cc1cc(SC[C@H]([NH3+])C(=O)OCCOCCOC(=O)c2ccc(-c3c4nc(c(-c5c(F)c(F)c(F)c(F)c5F)c5ccc([nH]5)c(-c5c(F)c(F)c(F)c(F)c5F)c5nc(c(-c6c(F)c(F)c(F)c(F)c6F)c6ccc3[nH]6)C=C5)C=C4)cc2)ccc1N
REMARK SMILES IDX 13 1 12 2 11 3 9 4 10 5 7 6 6 7 5 8 4 9 1 10 2 11 3 12 85 13
REMARK SMILES IDX 84 14 83 15 86 16 8 19 14 23 15 24 16 25 17 26 18 27 19 28
REMARK SMILES IDX 20 29 21 30 82 31 22 32 81 33 23 34 24 35 25 36 75 37 26 38
REMARK SMILES IDX 80 39 74 40 76 41 27 42 79 43 73 44 72 45 28 47 60 48 40 49
REMARK SMILES IDX 59 50 41 51 44 52 58 53 77 54 42 55 43 56 57 58 78 59 45 60
REMARK SMILES IDX 29 61 30 62 38 63 31 64 32 65 36 66 39 67 33 68 34 69 37 70
REMARK SMILES IDX 35 71 61 72 62 73 70 74 63 75 64 76 68 77 71 78 65 79 66 80
REMARK SMILES IDX 69 81 67 82 46 83 47 84 55 85 48 86 49 87 53 88 56 89 50 90
REMARK SMILES IDX 51 91 54 92 52 93
REMARK H PARENT 86 17 86 18 8 20 8 21 8 22 76 46 44 57
REMARK Flexibility Score: inf
ROOT
ATOM      1  C   UNL A   1      45.700  19.165  25.242  1.00  0.00     0.202 C 
ENDROOT
BRANCH   1   2
ATOM      2  C   UNL A   1      44.432  19.150  24.388  1.00  0.00     0.261 C 
BRANCH   2   3
ATOM      3  O   UNL A   1      43.157  19.470  24.953  1.00  0.00    -0.459 OA
BRANCH   3   4
ATOM      4  C   UNL A   1      42.584  18.787  25.972  1.00  0.00     0.365 C 
ATOM      5  O   UNL A   1      42.591  17.579  26.144  1.00  0.00    -0.245 OA
BRANCH   4   6
ATOM      6  C   UNL A   1      41.905  19.781  26.909  1.00  0.00     0.302 C 
BRANCH   6   7
ATOM      7  C   UNL A   1      40.526  20.147  26.331  1.00  0.00     0.152 C 
BRANCH   7   8
ATOM      8  S   UNL A   1      40.074  21.932  26.385  1.00  0.00    -0.119 SA
BRANCH   8   9
ATOM      9  C   UNL A   1      38.385  22.027  25.790  1.00  0.00     0.008 A 
ATOM     10  C   UNL A   1      35.419  24.407  25.335  1.00  0.00     0.046 C 
ATOM     11  C   UNL A   1      36.252  23.151  25.320  1.00  0.00    -0.027 A 
ATOM     12  C   UNL A   1      37.580  23.170  25.822  1.00  0.00     0.020 A 
ATOM     13  C   UNL A   1      35.729  21.964  24.781  1.00  0.00     0.034 A 
ATOM     14  C   UNL A   1      36.502  20.804  24.851  1.00  0.00     0.027 A 
ATOM     15  C   UNL A   1      37.814  20.837  25.335  1.00  0.00     0.017 A 
BRANCH  13  16
ATOM     16  N   UNL A   1      34.426  21.880  24.304  1.00  0.00    -0.399 N 
ATOM     17  H   UNL A   1      33.671  22.111  24.892  1.00  0.00     0.156 HD
ATOM     18  H   UNL A   1      34.258  21.590  23.378  1.00  0.00     0.156 HD
ENDBRANCH  13  16
ENDBRANCH   8   9
ENDBRANCH   7   8
ENDBRANCH   6   7
BRANCH   6  19
ATOM     19  N   UNL A   1      42.755  21.004  27.041  1.00  0.00    -0.345 N 
ATOM     20  H   UNL A   1      43.660  20.838  26.599  1.00  0.00     0.345 HD
ATOM     21  H   UNL A   1      42.893  21.216  28.029  1.00  0.00     0.345 HD
ATOM     22  H   UNL A   1      42.292  21.790  26.586  1.00  0.00     0.345 HD
ENDBRANCH   6  19
ENDBRANCH   4   6
ENDBRANCH   3   4
ENDBRANCH   2   3
ENDBRANCH   1   2
BRANCH   1  23
ATOM     23  O   UNL A   1      46.457  20.367  25.373  1.00  0.00    -0.374 OA
BRANCH  23  24
ATOM     24  C   UNL A   1      45.937  21.587  24.872  1.00  0.00     0.202 C 
BRANCH  24  25
ATOM     25  C   UNL A   1      45.691  22.633  25.968  1.00  0.00     0.261 C 
BRANCH  25  26
ATOM     26  O   UNL A   1      44.465  23.369  25.786  1.00  0.00    -0.460 OA
BRANCH  26  27
ATOM     27  C   UNL A   1      44.598  24.693  25.525  1.00  0.00     0.338 C 
ATOM     28  O   UNL A   1      45.203  25.199  24.593  1.00  0.00    -0.246 OA
BRANCH  27  29
ATOM     29  C   UNL A   1      43.786  25.498  26.476  1.00  0.00     0.060 A 
ATOM     30  C   UNL A   1      44.121  26.848  26.658  1.00  0.00     0.016 A 
ATOM     31  C   UNL A   1      42.744  24.937  27.221  1.00  0.00     0.016 A 
ATOM     32  C   UNL A   1      43.474  27.615  27.633  1.00  0.00     0.010 A 
ATOM     33  C   UNL A   1      42.097  25.705  28.198  1.00  0.00     0.010 A 
ATOM     34  C   UNL A   1      42.490  27.034  28.443  1.00  0.00    -0.014 A 
BRANCH  34  35
ATOM     35  C   UNL A   1      42.009  27.732  29.667  1.00  0.00     0.031 A 
ATOM     36  C   UNL A   1      40.762  28.571  29.572  1.00  0.00     0.074 A 
ATOM     37  C   UNL A   1      42.653  27.626  30.844  1.00  0.00     0.049 A 
ATOM     38  N   UNL A   1      40.201  29.340  30.471  1.00  0.00    -0.248 NA
ATOM     39  C   UNL A   1      40.052  28.539  28.284  1.00  0.00     0.031 C 
ATOM     40  C   UNL A   1      43.836  26.809  31.090  1.00  0.00     0.029 A 
ATOM     41  N   UNL A   1      42.401  28.230  32.053  1.00  0.00    -0.354 N 
ATOM     42  C   UNL A   1      39.080  29.885  29.857  1.00  0.00     0.074 A 
ATOM     43  C   UNL A   1      39.056  29.385  28.499  1.00  0.00     0.031 C 
ATOM     44  C   UNL A   1      44.218  26.970  32.370  1.00  0.00     0.029 A 
ATOM     45  C   UNL A   1      43.331  27.935  33.021  1.00  0.00     0.049 A 
ATOM     46  H   UNL A   1      41.628  28.818  32.211  1.00  0.00     0.167 HD
ATOM     47  C   UNL A   1      38.149  30.721  30.377  1.00  0.00     0.037 A 
ATOM     48  C   UNL A   1      43.465  28.411  34.276  1.00  0.00     0.037 A 
ATOM     49  C   UNL A   1      38.172  31.226  31.724  1.00  0.00     0.049 A 
ATOM     50  C   UNL A   1      42.470  29.420  34.800  1.00  0.00     0.074 A 
ATOM     51  C   UNL A   1      37.272  32.079  32.342  1.00  0.00     0.029 A 
ATOM     52  N   UNL A   1      39.151  30.932  32.661  1.00  0.00    -0.354 N 
ATOM     53  N   UNL A   1      41.408  29.920  34.218  1.00  0.00    -0.248 NA
ATOM     54  C   UNL A   1      42.697  29.932  36.161  1.00  0.00     0.031 C 
ATOM     55  C   UNL A   1      37.739  32.346  33.634  1.00  0.00     0.029 A 
ATOM     56  C   UNL A   1      38.893  31.609  33.843  1.00  0.00     0.049 A 
ATOM     57  H   UNL A   1      39.917  30.332  32.509  1.00  0.00     0.167 HD
ATOM     58  C   UNL A   1      40.822  30.770  35.150  1.00  0.00     0.074 A 
ATOM     59  C   UNL A   1      41.641  30.713  36.341  1.00  0.00     0.031 C 
ATOM     60  C   UNL A   1      39.705  31.530  35.029  1.00  0.00     0.037 A 
BRANCH  47  61
ATOM     61  C   UNL A   1      37.035  31.168  29.472  1.00  0.00     0.064 A 
ATOM     62  C   UNL A   1      35.977  30.315  29.126  1.00  0.00     0.173 A 
ATOM     63  C   UNL A   1      37.010  32.479  28.974  1.00  0.00     0.173 A 
ATOM     64  F   UNL A   1      35.960  29.047  29.565  1.00  0.00    -0.203 F 
ATOM     65  C   UNL A   1      34.950  30.749  28.291  1.00  0.00     0.198 A 
ATOM     66  C   UNL A   1      35.965  32.920  28.166  1.00  0.00     0.198 A 
ATOM     67  F   UNL A   1      37.994  33.339  29.279  1.00  0.00    -0.203 F 
ATOM     68  F   UNL A   1      33.976  29.901  27.934  1.00  0.00    -0.200 F 
ATOM     69  C   UNL A   1      34.941  32.052  27.819  1.00  0.00     0.200 A 
ATOM     70  F   UNL A   1      35.951  34.184  27.722  1.00  0.00    -0.200 F 
ATOM     71  F   UNL A   1      33.948  32.472  27.021  1.00  0.00    -0.200 F 
ENDBRANCH  47  61
BRANCH  48  72
ATOM     72  C   UNL A   1      44.599  27.965  35.130  1.00  0.00     0.064 A 
ATOM     73  C   UNL A   1      44.449  26.908  36.040  1.00  0.00     0.173 A 
ATOM     74  C   UNL A   1      45.842  28.614  35.090  1.00  0.00     0.173 A 
ATOM     75  F   UNL A   1      43.272  26.275  36.141  1.00  0.00    -0.203 F 
ATOM     76  C   UNL A   1      45.488  26.537  36.893  1.00  0.00     0.198 A 
ATOM     77  C   UNL A   1      46.891  28.220  35.919  1.00  0.00     0.198 A 
ATOM     78  F   UNL A   1      46.039  29.637  34.244  1.00  0.00    -0.203 F 
ATOM     79  F   UNL A   1      45.295  25.564  37.795  1.00  0.00    -0.200 F 
ATOM     80  C   UNL A   1      46.709  27.188  36.827  1.00  0.00     0.200 A 
ATOM     81  F   UNL A   1      48.072  28.848  35.845  1.00  0.00    -0.200 F 
ATOM     82  F   UNL A   1      47.706  26.833  37.649  1.00  0.00    -0.200 F 
ENDBRANCH  48  72
BRANCH  60  83
ATOM     83  C   UNL A   1      39.265  32.323  36.229  1.00  0.00     0.064 A 
ATOM     84  C   UNL A   1      39.700  33.638  36.450  1.00  0.00     0.173 A 
ATOM     85  C   UNL A   1      38.348  31.776  37.141  1.00  0.00     0.173 A 
ATOM     86  F   UNL A   1      40.585  34.205  35.617  1.00  0.00    -0.203 F 
ATOM     87  C   UNL A   1      39.253  34.366  37.550  1.00  0.00     0.198 A 
ATOM     88  C   UNL A   1      37.878  32.517  38.220  1.00  0.00     0.198 A 
ATOM     89  F   UNL A   1      37.891  30.526  36.973  1.00  0.00    -0.203 F 
ATOM     90  F   UNL A   1      39.717  35.604  37.765  1.00  0.00    -0.200 F 
ATOM     91  C   UNL A   1      38.335  33.809  38.429  1.00  0.00     0.200 A 
ATOM     92  F   UNL A   1      36.978  31.983  39.058  1.00  0.00    -0.200 F 
ATOM     93  F   UNL A   1      37.896  34.516  39.479  1.00  0.00    -0.200 F 
ENDBRANCH  60  83
ENDBRANCH  34  35
ENDBRANCH  27  29
ENDBRANCH  26  27
ENDBRANCH  25  26
ENDBRANCH  24  25
ENDBRANCH  23  24
ENDBRANCH   1  23
TORSDOF 19
ENDMDL
MODEL 2
REMARK VINA RESULT:     -10.4      5.694     11.904
REMARK SMILES Cc1cc(SC[C@H]([NH3+])C(=O)OCCOCCOC(=O)c2ccc(-c3c4nc(c(-c5c(F)c(F)c(F)c(F)c5F)c5ccc([nH]5)c(-c5c(F)c(F)c(F)c(F)c5F)c5nc(c(-c6c(F)c(F)c(F)c(F)c6F)c6ccc3[nH]6)C=C5)C=C4)cc2)ccc1N
REMARK SMILES IDX 13 1 12 2 11 3 9 4 10 5 7 6 6 7 5 8 4 9 1 10 2 11 3 12 85 13
REMARK SMILES IDX 84 14 83 15 86 16 8 19 14 23 15 24 16 25 17 26 18 27 19 28
REMARK SMILES IDX 20 29 21 30 82 31 22 32 81 33 23 34 24 35 25 36 75 37 26 38
REMARK SMILES IDX 80 39 74 40 76 41 27 42 79 43 73 44 72 45 28 47 60 48 40 49
REMARK SMILES IDX 59 50 41 51 44 52 58 53 77 54 42 55 43 56 57 58 78 59 45 60
REMARK SMILES IDX 29 61 30 62 38 63 31 64 32 65 36 66 39 67 33 68 34 69 37 70
REMARK SMILES IDX 35 71 61 72 62 73 70 74 63 75 64 76 68 77 71 78 65 79 66 80
REMARK SMILES IDX 69 81 67 82 46 83 47 84 55 85 48 86 49 87 53 88 56 89 50 90
REMARK SMILES IDX 51 91 54 92 52 93
REMARK H PARENT 86 17 86 18 8 20 8 21 8 22 76 46 44 57
REMARK Flexibility Score: inf
ROOT
ATOM      1  C   UNL A   1      33.394  35.445  29.468  1.00  0.00     0.202 C 
ENDROOT
BRANCH   1   2
ATOM      2  C   UNL A   1      32.789  36.104  30.709  1.00  0.00     0.261 C 
BRANCH   2   3
ATOM      3  O   UNL A   1      32.836  35.457  31.985  1.00  0.00    -0.459 OA
BRANCH   3   4
ATOM      4  C   UNL A   1      33.961  35.310  32.722  1.00  0.00     0.365 C 
ATOM      5  O   UNL A   1      34.839  36.139  32.899  1.00  0.00    -0.245 OA
BRANCH   4   6
ATOM      6  C   UNL A   1      33.976  33.908  33.322  1.00  0.00     0.302 C 
BRANCH   6   7
ATOM      7  C   UNL A   1      35.224  33.759  34.211  1.00  0.00     0.152 C 
BRANCH   7   8
ATOM      8  S   UNL A   1      36.436  32.471  33.694  1.00  0.00    -0.119 SA
BRANCH   8   9
ATOM      9  C   UNL A   1      37.355  33.185  32.331  1.00  0.00     0.008 A 
ATOM     10  C   UNL A   1      37.536  33.361  28.508  1.00  0.00     0.046 C 
ATOM     11  C   UNL A   1      37.869  33.584  29.962  1.00  0.00    -0.027 A 
ATOM     12  C   UNL A   1      37.088  32.969  30.974  1.00  0.00     0.020 A 
ATOM     13  C   UNL A   1      38.934  34.428  30.320  1.00  0.00     0.034 A 
ATOM     14  C   UNL A   1      39.259  34.552  31.671  1.00  0.00     0.027 A 
ATOM     15  C   UNL A   1      38.474  33.952  32.662  1.00  0.00     0.017 A 
BRANCH  13  16
ATOM     16  N   UNL A   1      39.750  35.031  29.370  1.00  0.00    -0.399 N 
ATOM     17  H   UNL A   1      39.517  35.920  29.015  1.00  0.00     0.156 HD
ATOM     18  H   UNL A   1      40.560  34.571  29.053  1.00  0.00     0.156 HD
ENDBRANCH  13  16
ENDBRANCH   8   9
ENDBRANCH   7   8
ENDBRANCH   6   7
BRANCH   6  19
ATOM     19  N   UNL A   1      33.995  32.894  32.223  1.00  0.00    -0.345 N 
ATOM     20  H   UNL A   1      34.698  32.183  32.430  1.00  0.00     0.345 HD
ATOM     21  H   UNL A   1      34.224  33.353  31.342  1.00  0.00     0.345 HD
ATOM     22  H   UNL A   1      33.078  32.454  32.150  1.00  0.00     0.345 HD
ENDBRANCH   6  19
ENDBRANCH   4   6
ENDBRANCH   3   4
ENDBRANCH   2   3
ENDBRANCH   1   2
BRANCH   1  23
ATOM     23  O   UNL A   1      32.913  34.177  29.029  1.00  0.00    -0.374 OA
BRANCH  23  24
ATOM     24  C   UNL A   1      33.616  33.463  28.026  1.00  0.00     0.202 C 
BRANCH  24  25
ATOM     25  C   UNL A   1      34.074  32.071  28.484  1.00  0.00     0.261 C 
BRANCH  25  26
ATOM     26  O   UNL A   1      34.308  31.162  27.391  1.00  0.00    -0.460 OA
BRANCH  26  27
ATOM     27  C   UNL A   1      34.612  29.885  27.732  1.00  0.00     0.338 C 
ATOM     28  O   UNL A   1      33.912  28.897  27.573  1.00  0.00    -0.246 OA
BRANCH  27  29
ATOM     29  C   UNL A   1      36.008  29.797  28.237  1.00  0.00     0.060 A 
ATOM     30  C   UNL A   1      37.057  30.028  27.333  1.00  0.00     0.016 A 
ATOM     31  C   UNL A   1      36.298  29.446  29.558  1.00  0.00     0.016 A 
ATOM     32  C   UNL A   1      38.386  29.832  27.724  1.00  0.00     0.010 A 
ATOM     33  C   UNL A   1      37.629  29.248  29.949  1.00  0.00     0.010 A 
ATOM     34  C   UNL A   1      38.678  29.394  29.022  1.00  0.00    -0.014 A 
BRANCH  34  35
ATOM     35  C   UNL A   1      40.039  28.897  29.363  1.00  0.00     0.031 A 
ATOM     36  C   UNL A   1      40.926  29.761  30.222  1.00  0.00     0.074 A 
ATOM     37  C   UNL A   1      40.488  27.704  28.933  1.00  0.00     0.049 A 
ATOM     38  N   UNL A   1      42.174  29.587  30.577  1.00  0.00    -0.248 NA
ATOM     39  C   UNL A   1      40.319  30.994  30.750  1.00  0.00     0.031 C 
ATOM     40  C   UNL A   1      39.721  26.746  28.144  1.00  0.00     0.029 A 
ATOM     41  N   UNL A   1      41.715  27.105  29.092  1.00  0.00    -0.354 N 
ATOM     42  C   UNL A   1      42.502  30.685  31.362  1.00  0.00     0.074 A 
ATOM     43  C   UNL A   1      41.332  31.538  31.406  1.00  0.00     0.031 C 
ATOM     44  C   UNL A   1      40.498  25.681  27.875  1.00  0.00     0.029 A 
ATOM     45  C   UNL A   1      41.831  25.902  28.438  1.00  0.00     0.049 A 
ATOM     46  H   UNL A   1      42.443  27.499  29.625  1.00  0.00     0.167 HD
ATOM     47  C   UNL A   1      43.667  30.959  31.996  1.00  0.00     0.037 A 
ATOM     48  C   UNL A   1      42.897  25.089  28.288  1.00  0.00     0.037 A 
ATOM     49  C   UNL A   1      44.834  30.118  31.949  1.00  0.00     0.049 A 
ATOM     50  C   UNL A   1      44.216  25.465  28.921  1.00  0.00     0.074 A 
ATOM     51  C   UNL A   1      46.062  30.312  32.559  1.00  0.00     0.029 A 
ATOM     52  N   UNL A   1      44.921  28.927  31.245  1.00  0.00    -0.354 N 
ATOM     53  N   UNL A   1      44.513  26.498  29.671  1.00  0.00    -0.248 NA
ATOM     54  C   UNL A   1      45.349  24.558  28.684  1.00  0.00     0.031 C 
ATOM     55  C   UNL A   1      46.911  29.267  32.176  1.00  0.00     0.029 A 
ATOM     56  C   UNL A   1      46.191  28.389  31.382  1.00  0.00     0.049 A 
ATOM     57  H   UNL A   1      44.190  28.523  30.724  1.00  0.00     0.167 HD
ATOM     58  C   UNL A   1      45.850  26.345  30.024  1.00  0.00     0.074 A 
ATOM     59  C   UNL A   1      46.305  25.116  29.415  1.00  0.00     0.031 C 
ATOM     60  C   UNL A   1      46.629  27.153  30.786  1.00  0.00     0.037 A 
BRANCH  47  61
ATOM     61  C   UNL A   1      43.749  32.241  32.776  1.00  0.00     0.064 A 
ATOM     62  C   UNL A   1      44.172  33.439  32.184  1.00  0.00     0.173 A 
ATOM     63  C   UNL A   1      43.364  32.276  34.125  1.00  0.00     0.173 A 
ATOM     64  F   UNL A   1      44.563  33.458  30.900  1.00  0.00    -0.203 F 
ATOM     65  C   UNL A   1      44.234  34.620  32.921  1.00  0.00     0.198 A 
ATOM     66  C   UNL A   1      43.396  33.464  34.850  1.00  0.00     0.198 A 
ATOM     67  F   UNL A   1      42.945  31.159  34.739  1.00  0.00    -0.203 F 
ATOM     68  F   UNL A   1      44.690  35.743  32.347  1.00  0.00    -0.200 F 
ATOM     69  C   UNL A   1      43.840  34.633  34.249  1.00  0.00     0.200 A 
ATOM     70  F   UNL A   1      43.001  33.477  36.130  1.00  0.00    -0.200 F 
ATOM     71  F   UNL A   1      43.893  35.771  34.956  1.00  0.00    -0.200 F 
ENDBRANCH  47  61
BRANCH  48  72
ATOM     72  C   UNL A   1      42.782  23.842  27.483  1.00  0.00     0.064 A 
ATOM     73  C   UNL A   1      42.343  22.643  28.063  1.00  0.00     0.173 A 
ATOM     74  C   UNL A   1      43.154  23.810  26.130  1.00  0.00     0.173 A 
ATOM     75  F   UNL A   1      42.006  22.612  29.360  1.00  0.00    -0.203 F 
ATOM     76  C   UNL A   1      42.304  21.458  27.329  1.00  0.00     0.198 A 
ATOM     77  C   UNL A   1      43.083  22.633  25.389  1.00  0.00     0.198 A 
ATOM     78  F   UNL A   1      43.589  24.926  25.527  1.00  0.00    -0.203 F 
ATOM     79  F   UNL A   1      41.938  20.315  27.927  1.00  0.00    -0.200 F 
ATOM     80  C   UNL A   1      42.668  21.455  25.992  1.00  0.00     0.200 A 
ATOM     81  F   UNL A   1      43.428  22.637  24.094  1.00  0.00    -0.200 F 
ATOM     82  F   UNL A   1      42.634  20.315  25.288  1.00  0.00    -0.200 F 
ENDBRANCH  48  72
BRANCH  60  83
ATOM     83  C   UNL A   1      48.042  26.712  31.054  1.00  0.00     0.064 A 
ATOM     84  C   UNL A   1      49.118  27.155  30.272  1.00  0.00     0.173 A 
ATOM     85  C   UNL A   1      48.327  25.878  32.147  1.00  0.00     0.173 A 
ATOM     86  F   UNL A   1      48.901  27.944  29.209  1.00  0.00    -0.203 F 
ATOM     87  C   UNL A   1      50.423  26.761  30.559  1.00  0.00     0.198 A 
ATOM     88  C   UNL A   1      49.635  25.513  32.451  1.00  0.00     0.198 A 
ATOM     89  F   UNL A   1      47.337  25.432  32.934  1.00  0.00    -0.203 F 
ATOM     90  F   UNL A   1      51.431  27.161  29.771  1.00  0.00    -0.200 F 
ATOM     91  C   UNL A   1      50.682  25.948  31.653  1.00  0.00     0.200 A 
ATOM     92  F   UNL A   1      49.884  24.742  33.519  1.00  0.00    -0.200 F 
ATOM     93  F   UNL A   1      51.940  25.581  31.936  1.00  0.00    -0.200 F 
ENDBRANCH  60  83
ENDBRANCH  34  35
ENDBRANCH  27  29
ENDBRANCH  26  27
ENDBRANCH  25  26
ENDBRANCH  24  25
ENDBRANCH  23  24
ENDBRANCH   1  23
TORSDOF 19
ENDMDL
MODEL 3
REMARK VINA RESULT:     -10.4      5.662     11.617
REMARK SMILES Cc1cc(SC[C@H]([NH3+])C(=O)OCCOCCOC(=O)c2ccc(-c3c4nc(c(-c5c(F)c(F)c(F)c(F)c5F)c5ccc([nH]5)c(-c5c(F)c(F)c(F)c(F)c5F)c5nc(c(-c6c(F)c(F)c(F)c(F)c6F)c6ccc3[nH]6)C=C5)C=C4)cc2)ccc1N
REMARK SMILES IDX 13 1 12 2 11 3 9 4 10 5 7 6 6 7 5 8 4 9 1 10 2 11 3 12 85 13
REMARK SMILES IDX 84 14 83 15 86 16 8 19 14 23 15 24 16 25 17 26 18 27 19 28
REMARK SMILES IDX 20 29 21 30 82 31 22 32 81 33 23 34 24 35 25 36 75 37 26 38
REMARK SMILES IDX 80 39 74 40 76 41 27 42 79 43 73 44 72 45 28 47 60 48 40 49
REMARK SMILES IDX 59 50 41 51 44 52 58 53 77 54 42 55 43 56 57 58 78 59 45 60
REMARK SMILES IDX 29 61 30 62 38 63 31 64 32 65 36 66 39 67 33 68 34 69 37 70
REMARK SMILES IDX 35 71 61 72 62 73 70 74 63 75 64 76 68 77 71 78 65 79 66 80
REMARK SMILES IDX 69 81 67 82 46 83 47 84 55 85 48 86 49 87 53 88 56 89 50 90
REMARK SMILES IDX 51 91 54 92 52 93
REMARK H PARENT 86 17 86 18 8 20 8 21 8 22 76 46 44 57
REMARK Flexibility Score: inf
ROOT
ATOM      1  C   UNL A   1      33.348  35.588  30.171  1.00  0.00     0.202 C 
ENDROOT
BRANCH   1   2
ATOM      2  C   UNL A   1      33.643  35.292  31.642  1.00  0.00     0.261 C 
BRANCH   2   3
ATOM      3  O   UNL A   1      34.392  34.135  32.026  1.00  0.00    -0.459 OA
BRANCH   3   4
ATOM      4  C   UNL A   1      35.743  34.069  32.024  1.00  0.00     0.365 C 
ATOM      5  O   UNL A   1      36.456  33.611  31.145  1.00  0.00    -0.245 OA
BRANCH   4   6
ATOM      6  C   UNL A   1      36.267  34.670  33.324  1.00  0.00     0.302 C 
BRANCH   6   7
ATOM      7  C   UNL A   1      37.785  34.429  33.408  1.00  0.00     0.152 C 
BRANCH   7   8
ATOM      8  S   UNL A   1      38.369  33.440  34.849  1.00  0.00    -0.119 SA
BRANCH   8   9
ATOM      9  C   UNL A   1      38.648  31.784  34.223  1.00  0.00     0.008 A 
ATOM     10  C   UNL A   1      41.319  29.070  33.801  1.00  0.00     0.046 C 
ATOM     11  C   UNL A   1      39.996  29.790  33.731  1.00  0.00    -0.027 A 
ATOM     12  C   UNL A   1      39.872  31.106  34.246  1.00  0.00     0.020 A 
ATOM     13  C   UNL A   1      38.872  29.148  33.184  1.00  0.00     0.034 A 
ATOM     14  C   UNL A   1      37.684  29.870  33.069  1.00  0.00     0.027 A 
ATOM     15  C   UNL A   1      37.568  31.162  33.592  1.00  0.00     0.017 A 
BRANCH  13  16
ATOM     16  N   UNL A   1      38.943  27.872  32.638  1.00  0.00    -0.399 N 
ATOM     17  H   UNL A   1      38.268  27.195  32.879  1.00  0.00     0.156 HD
ATOM     18  H   UNL A   1      39.667  27.643  32.012  1.00  0.00     0.156 HD
ENDBRANCH  13  16
ENDBRANCH   8   9
ENDBRANCH   7   8
ENDBRANCH   6   7
BRANCH   6  19
ATOM     19  N   UNL A   1      35.574  34.031  34.485  1.00  0.00    -0.345 N 
ATOM     20  H   UNL A   1      35.863  34.491  35.349  1.00  0.00     0.345 HD
ATOM     21  H   UNL A   1      35.821  33.042  34.526  1.00  0.00     0.345 HD
ATOM     22  H   UNL A   1      34.564  34.124  34.372  1.00  0.00     0.345 HD
ENDBRANCH   6  19
ENDBRANCH   4   6
ENDBRANCH   3   4
ENDBRANCH   2   3
ENDBRANCH   1   2
BRANCH   1  23
ATOM     23  O   UNL A   1      32.622  34.645  29.386  1.00  0.00    -0.374 OA
BRANCH  23  24
ATOM     24  C   UNL A   1      33.130  34.233  28.128  1.00  0.00     0.202 C 
BRANCH  24  25
ATOM     25  C   UNL A   1      34.474  33.500  28.230  1.00  0.00     0.261 C 
BRANCH  25  26
ATOM     26  O   UNL A   1      34.397  32.273  28.982  1.00  0.00    -0.460 OA
BRANCH  26  27
ATOM     27  C   UNL A   1      34.371  31.128  28.256  1.00  0.00     0.338 C 
ATOM     28  O   UNL A   1      33.471  30.744  27.524  1.00  0.00    -0.246 OA
BRANCH  27  29
ATOM     29  C   UNL A   1      35.671  30.414  28.359  1.00  0.00     0.060 A 
ATOM     30  C   UNL A   1      35.976  29.760  29.563  1.00  0.00     0.016 A 
ATOM     31  C   UNL A   1      36.605  30.418  27.319  1.00  0.00     0.016 A 
ATOM     32  C   UNL A   1      37.235  29.184  29.758  1.00  0.00     0.010 A 
ATOM     33  C   UNL A   1      37.867  29.842  27.515  1.00  0.00     0.010 A 
ATOM     34  C   UNL A   1      38.207  29.263  28.752  1.00  0.00    -0.014 A 
BRANCH  34  35
ATOM     35  C   UNL A   1      39.627  28.929  29.044  1.00  0.00     0.031 A 
ATOM     36  C   UNL A   1      40.466  29.939  29.783  1.00  0.00     0.074 A 
ATOM     37  C   UNL A   1      40.171  27.755  28.673  1.00  0.00     0.049 A 
ATOM     38  N   UNL A   1      41.743  29.914  30.073  1.00  0.00    -0.248 NA
ATOM     39  C   UNL A   1      39.767  31.143  30.258  1.00  0.00     0.031 C 
ATOM     40  C   UNL A   1      39.464  26.670  28.003  1.00  0.00     0.029 A 
ATOM     41  N   UNL A   1      41.460  27.293  28.800  1.00  0.00    -0.354 N 
ATOM     42  C   UNL A   1      41.999  31.097  30.757  1.00  0.00     0.074 A 
ATOM     43  C   UNL A   1      40.753  31.832  30.811  1.00  0.00     0.031 C 
ATOM     44  C   UNL A   1      40.330  25.668  27.763  1.00  0.00     0.029 A 
ATOM     45  C   UNL A   1      41.661  26.060  28.227  1.00  0.00     0.049 A 
ATOM     46  H   UNL A   1      42.171  27.796  29.258  1.00  0.00     0.167 HD
ATOM     47  C   UNL A   1      43.163  31.530  31.297  1.00  0.00     0.037 A 
ATOM     48  C   UNL A   1      42.795  25.346  28.070  1.00  0.00     0.037 A 
ATOM     49  C   UNL A   1      44.405  30.805  31.239  1.00  0.00     0.049 A 
ATOM     50  C   UNL A   1      44.101  25.895  28.594  1.00  0.00     0.074 A 
ATOM     51  C   UNL A   1      45.639  31.164  31.758  1.00  0.00     0.029 A 
ATOM     52  N   UNL A   1      44.575  29.577  30.618  1.00  0.00    -0.354 N 
ATOM     53  N   UNL A   1      44.331  27.007  29.249  1.00  0.00    -0.248 NA
ATOM     54  C   UNL A   1      45.306  25.087  28.352  1.00  0.00     0.031 C 
ATOM     55  C   UNL A   1      46.567  30.180  31.399  1.00  0.00     0.029 A 
ATOM     56  C   UNL A   1      45.899  29.178  30.715  1.00  0.00     0.049 A 
ATOM     57  H   UNL A   1      43.862  29.066  30.172  1.00  0.00     0.167 HD
ATOM     58  C   UNL A   1      45.694  27.012  29.529  1.00  0.00     0.074 A 
ATOM     59  C   UNL A   1      46.238  25.789  28.982  1.00  0.00     0.031 C 
ATOM     60  C   UNL A   1      46.426  27.948  30.183  1.00  0.00     0.037 A 
BRANCH  47  61
ATOM     61  C   UNL A   1      43.156  32.870  31.977  1.00  0.00     0.064 A 
ATOM     62  C   UNL A   1      43.078  32.990  33.372  1.00  0.00     0.173 A 
ATOM     63  C   UNL A   1      43.264  34.048  31.223  1.00  0.00     0.173 A 
ATOM     64  F   UNL A   1      42.960  31.895  34.139  1.00  0.00    -0.203 F 
ATOM     65  C   UNL A   1      43.080  34.241  33.985  1.00  0.00     0.198 A 
ATOM     66  C   UNL A   1      43.299  35.296  31.841  1.00  0.00     0.198 A 
ATOM     67  F   UNL A   1      43.348  33.990  29.885  1.00  0.00    -0.203 F 
ATOM     68  F   UNL A   1      42.954  34.333  35.317  1.00  0.00    -0.200 F 
ATOM     69  C   UNL A   1      43.197  35.391  33.220  1.00  0.00     0.200 A 
ATOM     70  F   UNL A   1      43.426  36.405  31.100  1.00  0.00    -0.200 F 
ATOM     71  F   UNL A   1      43.206  36.594  33.811  1.00  0.00    -0.200 F 
ENDBRANCH  47  61
BRANCH  48  72
ATOM     72  C   UNL A   1      42.764  24.035  27.364  1.00  0.00     0.064 A 
ATOM     73  C   UNL A   1      42.451  22.851  28.048  1.00  0.00     0.173 A 
ATOM     74  C   UNL A   1      43.093  23.931  26.004  1.00  0.00     0.173 A 
ATOM     75  F   UNL A   1      42.160  22.891  29.356  1.00  0.00    -0.203 F 
ATOM     76  C   UNL A   1      42.492  21.614  27.406  1.00  0.00     0.198 A 
ATOM     77  C   UNL A   1      43.102  22.698  25.355  1.00  0.00     0.198 A 
ATOM     78  F   UNL A   1      43.409  25.030  25.304  1.00  0.00    -0.203 F 
ATOM     79  F   UNL A   1      42.247  20.494  28.100  1.00  0.00    -0.200 F 
ATOM     80  C   UNL A   1      42.812  21.539  26.059  1.00  0.00     0.200 A 
ATOM     81  F   UNL A   1      43.403  22.632  24.051  1.00  0.00    -0.200 F 
ATOM     82  F   UNL A   1      42.855  20.350  25.443  1.00  0.00    -0.200 F 
ENDBRANCH  48  72
BRANCH  60  83
ATOM     83  C   UNL A   1      47.889  27.669  30.395  1.00  0.00     0.064 A 
ATOM     84  C   UNL A   1      48.350  26.905  31.477  1.00  0.00     0.173 A 
ATOM     85  C   UNL A   1      48.838  28.127  29.467  1.00  0.00     0.173 A 
ATOM     86  F   UNL A   1      47.488  26.452  32.399  1.00  0.00    -0.203 F 
ATOM     87  C   UNL A   1      49.707  26.630  31.634  1.00  0.00     0.198 A 
ATOM     88  C   UNL A   1      50.189  27.823  29.609  1.00  0.00     0.198 A 
ATOM     89  F   UNL A   1      48.452  28.855  28.408  1.00  0.00    -0.203 F 
ATOM     90  F   UNL A   1      50.128  25.936  32.701  1.00  0.00    -0.200 F 
ATOM     91  C   UNL A   1      50.624  27.081  30.697  1.00  0.00     0.200 A 
ATOM     92  F   UNL A   1      51.070  28.245  28.692  1.00  0.00    -0.200 F 
ATOM     93  F   UNL A   1      51.927  26.805  30.843  1.00  0.00    -0.200 F 
ENDBRANCH  60  83
ENDBRANCH  34  35
ENDBRANCH  27  29
ENDBRANCH  26  27
ENDBRANCH  25  26
ENDBRANCH  24  25
ENDBRANCH  23  24
ENDBRANCH   1  23
TORSDOF 19
ENDMDL
