MODEL 1
REMARK VINA RESULT:     -12.0      0.000      0.000
REMARK SMILES COc1ccc(/C=C/c2cc(OC)cc(OC)c2/C=C/C(=O)OCCOCCOC(=O)c2ccc(-c3c4nc(c(-c5c(F)c(F)c(F)c(F)c5F)c5ccc([nH]5)c(-c5c(F)c(F)c(F)c(F)c5F)c5nc(c(-c6c(F)c(F)c(F)c(F)c6F)c6ccc3[nH]6)C=C5)C=C4)cc2)cc1
REMARK SMILES IDX 25 1 24 2 23 3 21 4 22 5 20 6 19 7 18 8 9 9 10 10 11 11
REMARK SMILES IDX 15 12 14 13 8 14 7 15 6 16 3 17 4 18 96 19 5 20 95 21 2 22
REMARK SMILES IDX 1 23 12 24 13 25 16 26 17 27 26 28 27 29 28 30 29 31 30 32
REMARK SMILES IDX 31 33 32 34 33 35 94 36 34 37 93 38 35 39 36 40 37 41 87 42
REMARK SMILES IDX 38 43 92 44 86 45 88 46 39 47 91 48 85 49 84 50 40 52 72 53
REMARK SMILES IDX 52 54 71 55 53 56 56 57 70 58 89 59 54 60 55 61 69 63 90 64
REMARK SMILES IDX 57 65 41 66 42 67 50 68 43 69 44 70 48 71 51 72 45 73 46 74
REMARK SMILES IDX 49 75 47 76 73 77 74 78 82 79 75 80 76 81 80 82 83 83 77 84
REMARK SMILES IDX 78 85 81 86 79 87 58 88 59 89 67 90 60 91 61 92 65 93 68 94
REMARK SMILES IDX 62 95 63 96 66 97 64 98
REMARK H PARENT 88 51 56 62
REMARK Flexibility Score: inf
ROOT
ATOM      1  C   UNL A   1      39.434  21.248  25.799  1.00  0.00     0.202 C 
ENDROOT
BRANCH   1   2
ATOM      2  C   UNL A   1      37.908  21.324  25.702  1.00  0.00     0.261 C 
BRANCH   2   3
ATOM      3  O   UNL A   1      37.452  22.437  24.915  1.00  0.00    -0.460 OA
BRANCH   3   4
ATOM      4  C   UNL A   1      37.153  23.552  25.626  1.00  0.00     0.330 C 
ATOM      5  O   UNL A   1      37.939  24.232  26.270  1.00  0.00    -0.247 OA
BRANCH   4   6
ATOM      6  C   UNL A   1      35.730  23.930  25.538  1.00  0.00     0.094 C 
ATOM      7  C   UNL A   1      35.006  24.055  24.416  1.00  0.00     0.020 C 
BRANCH   7   8
ATOM      8  C   UNL A   1      33.604  24.521  24.464  1.00  0.00     0.024 A 
ATOM      9  C   UNL A   1      32.576  23.584  24.716  1.00  0.00    -0.011 A 
ATOM     10  C   UNL A   1      31.246  24.012  24.867  1.00  0.00     0.055 A 
ATOM     11  C   UNL A   1      30.897  25.350  24.724  1.00  0.00     0.123 A 
ATOM     12  C   UNL A   1      33.234  25.873  24.286  1.00  0.00     0.130 A 
ATOM     13  C   UNL A   1      31.893  26.276  24.430  1.00  0.00     0.093 A 
BRANCH   9  14
ATOM     14  C   UNL A   1      32.767  22.130  24.706  1.00  0.00     0.009 C 
ATOM     15  C   UNL A   1      32.201  21.251  23.864  1.00  0.00     0.009 C 
BRANCH  15  16
ATOM     16  C   UNL A   1      32.415  19.806  24.035  1.00  0.00    -0.025 A 
ATOM     17  C   UNL A   1      33.110  17.118  24.383  1.00  0.00     0.118 A 
ATOM     18  C   UNL A   1      32.921  17.616  23.103  1.00  0.00     0.047 A 
ATOM     19  C   UNL A   1      32.897  17.932  25.494  1.00  0.00     0.047 A 
ATOM     20  C   UNL A   1      32.545  18.945  22.932  1.00  0.00     0.012 A 
ATOM     21  C   UNL A   1      32.549  19.276  25.321  1.00  0.00     0.012 A 
BRANCH  17  22
ATOM     22  O   UNL A   1      33.615  15.852  24.478  1.00  0.00    -0.497 OA
ATOM     23  C   UNL A   1      32.943  15.103  25.481  1.00  0.00     0.278 C 
ENDBRANCH  17  22
ENDBRANCH  15  16
ENDBRANCH   9  14
BRANCH  11  24
ATOM     24  O   UNL A   1      29.568  25.613  24.894  1.00  0.00    -0.497 OA
ATOM     25  C   UNL A   1      28.928  26.370  23.875  1.00  0.00     0.278 C 
ENDBRANCH  11  24
BRANCH  12  26
ATOM     26  O   UNL A   1      34.084  26.927  24.047  1.00  0.00    -0.496 OA
ATOM     27  C   UNL A   1      33.498  28.143  23.595  1.00  0.00     0.278 C 
ENDBRANCH  12  26
ENDBRANCH   7   8
ENDBRANCH   4   6
ENDBRANCH   3   4
ENDBRANCH   2   3
ENDBRANCH   1   2
BRANCH   1  28
ATOM     28  O   UNL A   1      39.986  20.922  27.070  1.00  0.00    -0.374 OA
BRANCH  28  29
ATOM     29  C   UNL A   1      41.254  20.265  27.092  1.00  0.00     0.202 C 
BRANCH  29  30
ATOM     30  C   UNL A   1      42.304  20.741  26.078  1.00  0.00     0.261 C 
BRANCH  30  31
ATOM     31  O   UNL A   1      42.981  21.937  26.515  1.00  0.00    -0.460 OA
BRANCH  31  32
ATOM     32  C   UNL A   1      42.896  22.991  25.663  1.00  0.00     0.338 C 
ATOM     33  O   UNL A   1      43.061  22.986  24.457  1.00  0.00    -0.246 OA
BRANCH  32  34
ATOM     34  C   UNL A   1      42.379  24.169  26.383  1.00  0.00     0.060 A 
ATOM     35  C   UNL A   1      43.030  25.397  26.195  1.00  0.00     0.016 A 
ATOM     36  C   UNL A   1      41.343  24.050  27.307  1.00  0.00     0.016 A 
ATOM     37  C   UNL A   1      42.671  26.508  26.960  1.00  0.00     0.010 A 
ATOM     38  C   UNL A   1      40.992  25.161  28.080  1.00  0.00     0.010 A 
ATOM     39  C   UNL A   1      41.675  26.386  27.935  1.00  0.00    -0.014 A 
BRANCH  39  40
ATOM     40  C   UNL A   1      41.460  27.453  28.946  1.00  0.00     0.031 A 
ATOM     41  C   UNL A   1      42.244  27.366  30.229  1.00  0.00     0.074 A 
ATOM     42  C   UNL A   1      40.589  28.459  28.743  1.00  0.00     0.049 A 
ATOM     43  N   UNL A   1      42.080  28.011  31.355  1.00  0.00    -0.248 NA
ATOM     44  C   UNL A   1      43.388  26.436  30.231  1.00  0.00     0.031 C 
ATOM     45  C   UNL A   1      39.881  28.732  27.494  1.00  0.00     0.029 A 
ATOM     46  N   UNL A   1      40.104  29.409  29.613  1.00  0.00    -0.354 N 
ATOM     47  C   UNL A   1      43.108  27.579  32.187  1.00  0.00     0.074 A 
ATOM     48  C   UNL A   1      43.861  26.583  31.459  1.00  0.00     0.031 C 
ATOM     49  C   UNL A   1      38.980  29.710  27.703  1.00  0.00     0.029 A 
ATOM     50  C   UNL A   1      39.021  30.099  29.110  1.00  0.00     0.049 A 
ATOM     51  H   UNL A   1      40.489  29.577  30.503  1.00  0.00     0.167 HD
ATOM     52  C   UNL A   1      43.406  28.003  33.437  1.00  0.00     0.037 A 
ATOM     53  C   UNL A   1      38.114  30.867  29.748  1.00  0.00     0.037 A 
ATOM     54  C   UNL A   1      42.629  28.980  34.149  1.00  0.00     0.049 A 
ATOM     55  C   UNL A   1      38.304  31.111  31.232  1.00  0.00     0.074 A 
ATOM     56  C   UNL A   1      42.822  29.487  35.420  1.00  0.00     0.029 A 
ATOM     57  N   UNL A   1      41.493  29.592  33.637  1.00  0.00    -0.354 N 
ATOM     58  N   UNL A   1      39.271  30.708  32.022  1.00  0.00    -0.248 NA
ATOM     59  C   UNL A   1      37.280  31.915  31.915  1.00  0.00     0.031 C 
ATOM     60  C   UNL A   1      41.776  30.373  35.696  1.00  0.00     0.029 A 
ATOM     61  C   UNL A   1      40.963  30.457  34.576  1.00  0.00     0.049 A 
ATOM     62  H   UNL A   1      41.121  29.433  32.741  1.00  0.00     0.167 HD
ATOM     63  C   UNL A   1      39.029  31.295  33.258  1.00  0.00     0.074 A 
ATOM     64  C   UNL A   1      37.796  32.039  33.130  1.00  0.00     0.031 C 
ATOM     65  C   UNL A   1      39.775  31.249  34.390  1.00  0.00     0.037 A 
BRANCH  52  66
ATOM     66  C   UNL A   1      44.617  27.423  34.108  1.00  0.00     0.064 A 
ATOM     67  C   UNL A   1      44.543  26.226  34.836  1.00  0.00     0.173 A 
ATOM     68  C   UNL A   1      45.874  28.032  33.978  1.00  0.00     0.173 A 
ATOM     69  F   UNL A   1      43.363  25.606  34.997  1.00  0.00    -0.203 F 
ATOM     70  C   UNL A   1      45.676  25.670  35.424  1.00  0.00     0.198 A 
ATOM     71  C   UNL A   1      47.011  27.461  34.545  1.00  0.00     0.198 A 
ATOM     72  F   UNL A   1      46.004  29.174  33.286  1.00  0.00    -0.203 F 
ATOM     73  F   UNL A   1      45.573  24.544  36.143  1.00  0.00    -0.200 F 
ATOM     74  C   UNL A   1      46.911  26.283  35.271  1.00  0.00     0.200 A 
ATOM     75  F   UNL A   1      48.205  28.047  34.385  1.00  0.00    -0.200 F 
ATOM     76  F   UNL A   1      48.003  25.742  35.827  1.00  0.00    -0.200 F 
ENDBRANCH  52  66
BRANCH  53  77
ATOM     77  C   UNL A   1      36.907  31.407  29.046  1.00  0.00     0.064 A 
ATOM     78  C   UNL A   1      36.793  32.775  28.759  1.00  0.00     0.173 A 
ATOM     79  C   UNL A   1      35.795  30.602  28.748  1.00  0.00     0.173 A 
ATOM     80  F   UNL A   1      37.812  33.602  29.037  1.00  0.00    -0.203 F 
ATOM     81  C   UNL A   1      35.606  33.317  28.264  1.00  0.00     0.198 A 
ATOM     82  C   UNL A   1      34.618  31.139  28.226  1.00  0.00     0.198 A 
ATOM     83  F   UNL A   1      35.826  29.284  28.976  1.00  0.00    -0.203 F 
ATOM     84  F   UNL A   1      35.503  34.641  28.082  1.00  0.00    -0.200 F 
ATOM     85  C   UNL A   1      34.517  32.500  28.003  1.00  0.00     0.200 A 
ATOM     86  F   UNL A   1      33.575  30.336  27.972  1.00  0.00    -0.200 F 
ATOM     87  F   UNL A   1      33.367  33.025  27.558  1.00  0.00    -0.200 F 
ENDBRANCH  53  77
BRANCH  65  88
ATOM     88  C   UNL A   1      39.372  32.142  35.527  1.00  0.00     0.064 A 
ATOM     89  C   UNL A   1      39.805  33.470  35.628  1.00  0.00     0.173 A 
ATOM     90  C   UNL A   1      38.461  31.669  36.486  1.00  0.00     0.173 A 
ATOM     91  F   UNL A   1      40.688  33.961  34.745  1.00  0.00    -0.203 F 
ATOM     92  C   UNL A   1      39.348  34.291  36.656  1.00  0.00     0.198 A 
ATOM     93  C   UNL A   1      37.983  32.501  37.493  1.00  0.00     0.198 A 
ATOM     94  F   UNL A   1      38.012  30.406  36.426  1.00  0.00    -0.203 F 
ATOM     95  F   UNL A   1      39.798  35.549  36.756  1.00  0.00    -0.200 F 
ATOM     96  C   UNL A   1      38.430  33.810  37.579  1.00  0.00     0.200 A 
ATOM     97  F   UNL A   1      37.083  32.038  38.371  1.00  0.00    -0.200 F 
ATOM     98  F   UNL A   1      37.976  34.610  38.554  1.00  0.00    -0.200 F 
ENDBRANCH  65  88
ENDBRANCH  39  40
ENDBRANCH  32  34
ENDBRANCH  31  32
ENDBRANCH  30  31
ENDBRANCH  29  30
ENDBRANCH  28  29
ENDBRANCH   1  28
TORSDOF 20
ENDMDL
MODEL 2
REMARK VINA RESULT:     -12.0      3.286      8.471
REMARK SMILES COc1ccc(/C=C/c2cc(OC)cc(OC)c2/C=C/C(=O)OCCOCCOC(=O)c2ccc(-c3c4nc(c(-c5c(F)c(F)c(F)c(F)c5F)c5ccc([nH]5)c(-c5c(F)c(F)c(F)c(F)c5F)c5nc(c(-c6c(F)c(F)c(F)c(F)c6F)c6ccc3[nH]6)C=C5)C=C4)cc2)cc1
REMARK SMILES IDX 25 1 24 2 23 3 21 4 22 5 20 6 19 7 18 8 9 9 10 10 11 11
REMARK SMILES IDX 15 12 14 13 8 14 7 15 6 16 3 17 4 18 96 19 5 20 95 21 2 22
REMARK SMILES IDX 1 23 12 24 13 25 16 26 17 27 26 28 27 29 28 30 29 31 30 32
REMARK SMILES IDX 31 33 32 34 33 35 94 36 34 37 93 38 35 39 36 40 37 41 87 42
REMARK SMILES IDX 38 43 92 44 86 45 88 46 39 47 91 48 85 49 84 50 40 52 72 53
REMARK SMILES IDX 52 54 71 55 53 56 56 57 70 58 89 59 54 60 55 61 69 63 90 64
REMARK SMILES IDX 57 65 41 66 42 67 50 68 43 69 44 70 48 71 51 72 45 73 46 74
REMARK SMILES IDX 49 75 47 76 73 77 74 78 82 79 75 80 76 81 80 82 83 83 77 84
REMARK SMILES IDX 78 85 81 86 79 87 58 88 59 89 67 90 60 91 61 92 65 93 68 94
REMARK SMILES IDX 62 95 63 96 66 97 64 98
REMARK H PARENT 88 51 56 62
REMARK Flexibility Score: inf
ROOT
ATOM      1  C   UNL A   1      34.096  28.918  23.469  1.00  0.00     0.202 C 
ENDROOT
BRANCH   1   2
ATOM      2  C   UNL A   1      33.144  28.194  22.513  1.00  0.00     0.261 C 
BRANCH   2   3
ATOM      3  O   UNL A   1      33.830  27.351  21.572  1.00  0.00    -0.460 OA
BRANCH   3   4
ATOM      4  C   UNL A   1      33.266  26.133  21.382  1.00  0.00     0.330 C 
ATOM      5  O   UNL A   1      33.158  25.545  20.314  1.00  0.00    -0.247 OA
BRANCH   4   6
ATOM      6  C   UNL A   1      32.791  25.513  22.632  1.00  0.00     0.094 C 
ATOM      7  C   UNL A   1      31.746  24.682  22.763  1.00  0.00     0.020 C 
BRANCH   7   8
ATOM      8  C   UNL A   1      31.327  24.192  24.093  1.00  0.00     0.024 A 
ATOM      9  C   UNL A   1      30.385  24.940  24.836  1.00  0.00    -0.011 A 
ATOM     10  C   UNL A   1      29.891  24.450  26.057  1.00  0.00     0.055 A 
ATOM     11  C   UNL A   1      30.349  23.251  26.591  1.00  0.00     0.123 A 
ATOM     12  C   UNL A   1      31.811  22.992  24.661  1.00  0.00     0.130 A 
ATOM     13  C   UNL A   1      31.311  22.528  25.892  1.00  0.00     0.093 A 
BRANCH   9  14
ATOM     14  C   UNL A   1      29.956  26.300  24.490  1.00  0.00     0.009 C 
ATOM     15  C   UNL A   1      28.869  26.642  23.780  1.00  0.00     0.009 C 
BRANCH  15  16
ATOM     16  C   UNL A   1      28.616  28.048  23.431  1.00  0.00    -0.025 A 
ATOM     17  C   UNL A   1      28.148  30.781  23.054  1.00  0.00     0.118 A 
ATOM     18  C   UNL A   1      27.077  29.903  23.096  1.00  0.00     0.047 A 
ATOM     19  C   UNL A   1      29.454  30.303  23.137  1.00  0.00     0.047 A 
ATOM     20  C   UNL A   1      27.312  28.540  23.253  1.00  0.00     0.012 A 
ATOM     21  C   UNL A   1      29.690  28.936  23.325  1.00  0.00     0.012 A 
BRANCH  17  22
ATOM     22  O   UNL A   1      27.846  32.114  23.043  1.00  0.00    -0.497 OA
ATOM     23  C   UNL A   1      28.307  32.737  21.852  1.00  0.00     0.278 C 
ENDBRANCH  17  22
ENDBRANCH  15  16
ENDBRANCH   9  14
BRANCH  11  24
ATOM     24  O   UNL A   1      29.782  22.906  27.785  1.00  0.00    -0.497 OA
ATOM     25  C   UNL A   1      28.538  22.221  27.730  1.00  0.00     0.278 C 
ENDBRANCH  11  24
BRANCH  12  26
ATOM     26  O   UNL A   1      32.713  22.127  24.092  1.00  0.00    -0.496 OA
ATOM     27  C   UNL A   1      33.307  21.154  24.946  1.00  0.00     0.278 C 
ENDBRANCH  12  26
ENDBRANCH   7   8
ENDBRANCH   4   6
ENDBRANCH   3   4
ENDBRANCH   2   3
ENDBRANCH   1   2
BRANCH   1  28
ATOM     28  O   UNL A   1      34.001  28.587  24.850  1.00  0.00    -0.374 OA
BRANCH  28  29
ATOM     29  C   UNL A   1      32.718  28.697  25.470  1.00  0.00     0.202 C 
BRANCH  29  30
ATOM     30  C   UNL A   1      32.258  30.104  25.876  1.00  0.00     0.261 C 
BRANCH  30  31
ATOM     31  O   UNL A   1      32.619  30.424  27.235  1.00  0.00    -0.460 OA
BRANCH  31  32
ATOM     32  C   UNL A   1      33.299  31.588  27.392  1.00  0.00     0.338 C 
ATOM     33  O   UNL A   1      32.852  32.720  27.356  1.00  0.00    -0.246 OA
BRANCH  32  34
ATOM     34  C   UNL A   1      34.684  31.301  27.811  1.00  0.00     0.060 A 
ATOM     35  C   UNL A   1      35.018  29.975  28.124  1.00  0.00     0.016 A 
ATOM     36  C   UNL A   1      35.606  32.328  27.996  1.00  0.00     0.016 A 
ATOM     37  C   UNL A   1      36.271  29.674  28.662  1.00  0.00     0.010 A 
ATOM     38  C   UNL A   1      36.857  32.026  28.545  1.00  0.00     0.010 A 
ATOM     39  C   UNL A   1      37.184  30.704  28.910  1.00  0.00    -0.014 A 
BRANCH  39  40
ATOM     40  C   UNL A   1      38.402  30.465  29.727  1.00  0.00     0.031 A 
ATOM     41  C   UNL A   1      39.390  29.447  29.225  1.00  0.00     0.074 A 
ATOM     42  C   UNL A   1      38.619  31.116  30.885  1.00  0.00     0.049 A 
ATOM     43  N   UNL A   1      40.393  28.879  29.842  1.00  0.00    -0.248 NA
ATOM     44  C   UNL A   1      39.237  29.030  27.819  1.00  0.00     0.031 C 
ATOM     45  C   UNL A   1      37.815  32.220  31.404  1.00  0.00     0.029 A 
ATOM     46  N   UNL A   1      39.556  30.899  31.870  1.00  0.00    -0.354 N 
ATOM     47  C   UNL A   1      40.998  28.056  28.897  1.00  0.00     0.074 A 
ATOM     48  C   UNL A   1      40.224  28.158  27.680  1.00  0.00     0.031 C 
ATOM     49  C   UNL A   1      38.225  32.517  32.651  1.00  0.00     0.029 A 
ATOM     50  C   UNL A   1      39.292  31.594  33.030  1.00  0.00     0.049 A 
ATOM     51  H   UNL A   1      40.335  30.307  31.757  1.00  0.00     0.167 HD
ATOM     52  C   UNL A   1      42.117  27.307  29.032  1.00  0.00     0.037 A 
ATOM     53  C   UNL A   1      39.786  31.420  34.274  1.00  0.00     0.037 A 
ATOM     54  C   UNL A   1      42.858  27.204  30.260  1.00  0.00     0.049 A 
ATOM     55  C   UNL A   1      40.858  30.367  34.474  1.00  0.00     0.074 A 
ATOM     56  C   UNL A   1      44.000  26.475  30.528  1.00  0.00     0.029 A 
ATOM     57  N   UNL A   1      42.510  27.857  31.434  1.00  0.00    -0.354 N 
ATOM     58  N   UNL A   1      41.433  29.589  33.586  1.00  0.00    -0.248 NA
ATOM     59  C   UNL A   1      41.351  30.165  35.844  1.00  0.00     0.031 C 
ATOM     60  C   UNL A   1      44.319  26.650  31.878  1.00  0.00     0.029 A 
ATOM     61  C   UNL A   1      43.404  27.531  32.436  1.00  0.00     0.049 A 
ATOM     62  H   UNL A   1      41.740  28.461  31.538  1.00  0.00     0.167 HD
ATOM     63  C   UNL A   1      42.421  28.891  34.270  1.00  0.00     0.074 A 
ATOM     64  C   UNL A   1      42.334  29.296  35.655  1.00  0.00     0.031 C 
ATOM     65  C   UNL A   1      43.340  28.015  33.790  1.00  0.00     0.037 A 
BRANCH  52  66
ATOM     66  C   UNL A   1      42.608  26.550  27.833  1.00  0.00     0.064 A 
ATOM     67  C   UNL A   1      42.133  25.263  27.539  1.00  0.00     0.173 A 
ATOM     68  C   UNL A   1      43.517  27.132  26.936  1.00  0.00     0.173 A 
ATOM     69  F   UNL A   1      41.268  24.657  28.368  1.00  0.00    -0.203 F 
ATOM     70  C   UNL A   1      42.562  24.579  26.405  1.00  0.00     0.198 A 
ATOM     71  C   UNL A   1      43.925  26.456  25.788  1.00  0.00     0.198 A 
ATOM     72  F   UNL A   1      43.998  28.363  27.164  1.00  0.00    -0.203 F 
ATOM     73  F   UNL A   1      42.120  23.337  26.164  1.00  0.00    -0.200 F 
ATOM     74  C   UNL A   1      43.451  25.180  25.526  1.00  0.00     0.200 A 
ATOM     75  F   UNL A   1      44.773  27.043  24.932  1.00  0.00    -0.200 F 
ATOM     76  F   UNL A   1      43.854  24.527  24.427  1.00  0.00    -0.200 F 
ENDBRANCH  52  66
BRANCH  53  77
ATOM     77  C   UNL A   1      39.251  32.180  35.447  1.00  0.00     0.064 A 
ATOM     78  C   UNL A   1      39.692  33.482  35.723  1.00  0.00     0.173 A 
ATOM     79  C   UNL A   1      38.382  31.594  36.382  1.00  0.00     0.173 A 
ATOM     80  F   UNL A   1      40.537  34.093  34.880  1.00  0.00    -0.203 F 
ATOM     81  C   UNL A   1      39.334  34.136  36.904  1.00  0.00     0.198 A 
ATOM     82  C   UNL A   1      38.002  32.257  37.548  1.00  0.00     0.198 A 
ATOM     83  F   UNL A   1      37.903  30.360  36.188  1.00  0.00    -0.203 F 
ATOM     84  F   UNL A   1      39.842  35.346  37.175  1.00  0.00    -0.200 F 
ATOM     85  C   UNL A   1      38.495  33.521  37.819  1.00  0.00     0.200 A 
ATOM     86  F   UNL A   1      37.183  31.654  38.421  1.00  0.00    -0.200 F 
ATOM     87  F   UNL A   1      38.178  34.135  38.967  1.00  0.00    -0.200 F 
ENDBRANCH  53  77
BRANCH  65  88
ATOM     88  C   UNL A   1      44.419  27.555  34.725  1.00  0.00     0.064 A 
ATOM     89  C   UNL A   1      45.594  28.289  34.934  1.00  0.00     0.173 A 
ATOM     90  C   UNL A   1      44.221  26.393  35.490  1.00  0.00     0.173 A 
ATOM     91  F   UNL A   1      45.835  29.395  34.215  1.00  0.00    -0.203 F 
ATOM     92  C   UNL A   1      46.539  27.869  35.868  1.00  0.00     0.198 A 
ATOM     93  C   UNL A   1      45.152  25.994  36.443  1.00  0.00     0.198 A 
ATOM     94  F   UNL A   1      43.107  25.662  35.331  1.00  0.00    -0.203 F 
ATOM     95  F   UNL A   1      47.672  28.566  36.030  1.00  0.00    -0.200 F 
ATOM     96  C   UNL A   1      46.311  26.731  36.629  1.00  0.00     0.200 A 
ATOM     97  F   UNL A   1      44.920  24.905  37.188  1.00  0.00    -0.200 F 
ATOM     98  F   UNL A   1      47.212  26.343  37.542  1.00  0.00    -0.200 F 
ENDBRANCH  65  88
ENDBRANCH  39  40
ENDBRANCH  32  34
ENDBRANCH  31  32
ENDBRANCH  30  31
ENDBRANCH  29  30
ENDBRANCH  28  29
ENDBRANCH   1  28
TORSDOF 20
ENDMDL
MODEL 3
REMARK VINA RESULT:     -10.9      3.413      9.389
REMARK SMILES COc1ccc(/C=C/c2cc(OC)cc(OC)c2/C=C/C(=O)OCCOCCOC(=O)c2ccc(-c3c4nc(c(-c5c(F)c(F)c(F)c(F)c5F)c5ccc([nH]5)c(-c5c(F)c(F)c(F)c(F)c5F)c5nc(c(-c6c(F)c(F)c(F)c(F)c6F)c6ccc3[nH]6)C=C5)C=C4)cc2)cc1
REMARK SMILES IDX 25 1 24 2 23 3 21 4 22 5 20 6 19 7 18 8 9 9 10 10 11 11
REMARK SMILES IDX 15 12 14 13 8 14 7 15 6 16 3 17 4 18 96 19 5 20 95 21 2 22
REMARK SMILES IDX 1 23 12 24 13 25 16 26 17 27 26 28 27 29 28 30 29 31 30 32
REMARK SMILES IDX 31 33 32 34 33 35 94 36 34 37 93 38 35 39 36 40 37 41 87 42
REMARK SMILES IDX 38 43 92 44 86 45 88 46 39 47 91 48 85 49 84 50 40 52 72 53
REMARK SMILES IDX 52 54 71 55 53 56 56 57 70 58 89 59 54 60 55 61 69 63 90 64
REMARK SMILES IDX 57 65 41 66 42 67 50 68 43 69 44 70 48 71 51 72 45 73 46 74
REMARK SMILES IDX 49 75 47 76 73 77 74 78 82 79 75 80 76 81 80 82 83 83 77 84
REMARK SMILES IDX 78 85 81 86 79 87 58 88 59 89 67 90 60 91 61 92 65 93 68 94
REMARK SMILES IDX 62 95 63 96 66 97 64 98
REMARK H PARENT 88 51 56 62
REMARK Flexibility Score: inf
ROOT
ATOM      1  C   UNL A   1      34.078  31.582  27.603  1.00  0.00     0.202 C 
ENDROOT
BRANCH   1   2
ATOM      2  C   UNL A   1      32.951  30.649  27.151  1.00  0.00     0.261 C 
BRANCH   2   3
ATOM      3  O   UNL A   1      33.387  29.291  26.974  1.00  0.00    -0.460 OA
BRANCH   3   4
ATOM      4  C   UNL A   1      32.471  28.350  27.311  1.00  0.00     0.330 C 
ATOM      5  O   UNL A   1      31.643  28.436  28.207  1.00  0.00    -0.247 OA
BRANCH   4   6
ATOM      6  C   UNL A   1      32.525  27.155  26.450  1.00  0.00     0.094 C 
ATOM      7  C   UNL A   1      33.299  26.985  25.368  1.00  0.00     0.020 C 
BRANCH   7   8
ATOM      8  C   UNL A   1      33.195  25.762  24.544  1.00  0.00     0.024 A 
ATOM      9  C   UNL A   1      32.477  25.811  23.327  1.00  0.00    -0.011 A 
ATOM     10  C   UNL A   1      32.446  24.695  22.474  1.00  0.00     0.055 A 
ATOM     11  C   UNL A   1      33.072  23.503  22.822  1.00  0.00     0.123 A 
ATOM     12  C   UNL A   1      33.798  24.536  24.904  1.00  0.00     0.130 A 
ATOM     13  C   UNL A   1      33.743  23.427  24.039  1.00  0.00     0.093 A 
BRANCH   9  14
ATOM     14  C   UNL A   1      31.621  26.931  22.921  1.00  0.00     0.009 C 
ATOM     15  C   UNL A   1      30.514  27.363  23.546  1.00  0.00     0.009 C 
BRANCH  15  16
ATOM     16  C   UNL A   1      29.702  28.444  22.968  1.00  0.00    -0.025 A 
ATOM     17  C   UNL A   1      28.122  30.329  21.632  1.00  0.00     0.118 A 
ATOM     18  C   UNL A   1      29.503  30.434  21.582  1.00  0.00     0.047 A 
ATOM     19  C   UNL A   1      27.520  29.328  22.393  1.00  0.00     0.047 A 
ATOM     20  C   UNL A   1      30.288  29.514  22.272  1.00  0.00     0.012 A 
ATOM     21  C   UNL A   1      28.309  28.385  23.061  1.00  0.00     0.012 A 
BRANCH  17  22
ATOM     22  O   UNL A   1      27.415  31.171  20.822  1.00  0.00    -0.497 OA
ATOM     23  C   UNL A   1      28.150  32.354  20.539  1.00  0.00     0.278 C 
ENDBRANCH  17  22
ENDBRANCH  15  16
ENDBRANCH   9  14
BRANCH  11  24
ATOM     24  O   UNL A   1      32.952  22.506  21.896  1.00  0.00    -0.497 OA
ATOM     25  C   UNL A   1      32.033  21.463  22.193  1.00  0.00     0.278 C 
ENDBRANCH  11  24
BRANCH  12  26
ATOM     26  O   UNL A   1      34.544  24.294  26.033  1.00  0.00    -0.496 OA
ATOM     27  C   UNL A   1      35.885  23.856  25.843  1.00  0.00     0.278 C 
ENDBRANCH  12  26
ENDBRANCH   7   8
ENDBRANCH   4   6
ENDBRANCH   3   4
ENDBRANCH   2   3
ENDBRANCH   1   2
BRANCH   1  28
ATOM     28  O   UNL A   1      33.763  32.965  27.724  1.00  0.00    -0.374 OA
BRANCH  28  29
ATOM     29  C   UNL A   1      33.973  33.583  28.995  1.00  0.00     0.202 C 
BRANCH  29  30
ATOM     30  C   UNL A   1      33.310  34.948  29.225  1.00  0.00     0.261 C 
BRANCH  30  31
ATOM     31  O   UNL A   1      32.454  34.949  30.385  1.00  0.00    -0.460 OA
BRANCH  31  32
ATOM     32  C   UNL A   1      32.882  35.722  31.416  1.00  0.00     0.338 C 
ATOM     33  O   UNL A   1      32.409  36.776  31.800  1.00  0.00    -0.246 OA
BRANCH  32  34
ATOM     34  C   UNL A   1      33.930  35.008  32.169  1.00  0.00     0.060 A 
ATOM     35  C   UNL A   1      35.239  35.509  32.116  1.00  0.00     0.016 A 
ATOM     36  C   UNL A   1      33.654  33.811  32.826  1.00  0.00     0.016 A 
ATOM     37  C   UNL A   1      36.290  34.792  32.691  1.00  0.00     0.010 A 
ATOM     38  C   UNL A   1      34.710  33.089  33.391  1.00  0.00     0.010 A 
ATOM     39  C   UNL A   1      36.036  33.558  33.300  1.00  0.00    -0.014 A 
BRANCH  39  40
ATOM     40  C   UNL A   1      37.149  32.646  33.671  1.00  0.00     0.031 A 
ATOM     41  C   UNL A   1      37.928  32.968  34.918  1.00  0.00     0.074 A 
ATOM     42  C   UNL A   1      37.469  31.575  32.921  1.00  0.00     0.049 A 
ATOM     43  N   UNL A   1      39.072  32.493  35.336  1.00  0.00    -0.248 NA
ATOM     44  C   UNL A   1      37.315  33.948  35.834  1.00  0.00     0.031 C 
ATOM     45  C   UNL A   1      36.708  31.079  31.777  1.00  0.00     0.029 A 
ATOM     46  N   UNL A   1      38.564  30.743  32.975  1.00  0.00    -0.354 N 
ATOM     47  C   UNL A   1      39.304  33.100  36.566  1.00  0.00     0.074 A 
ATOM     48  C   UNL A   1      38.211  34.014  36.807  1.00  0.00     0.031 C 
ATOM     49  C   UNL A   1      37.404  30.096  31.175  1.00  0.00     0.029 A 
ATOM     50  C   UNL A   1      38.678  29.928  31.869  1.00  0.00     0.049 A 
ATOM     51  H   UNL A   1      39.201  30.732  33.726  1.00  0.00     0.167 HD
ATOM     52  C   UNL A   1      40.328  32.886  37.425  1.00  0.00     0.037 A 
ATOM     53  C   UNL A   1      39.736  29.217  31.425  1.00  0.00     0.037 A 
ATOM     54  C   UNL A   1      41.416  31.988  37.154  1.00  0.00     0.049 A 
ATOM     55  C   UNL A   1      40.996  29.211  32.268  1.00  0.00     0.074 A 
ATOM     56  C   UNL A   1      42.515  31.690  37.937  1.00  0.00     0.029 A 
ATOM     57  N   UNL A   1      41.537  31.246  35.987  1.00  0.00    -0.354 N 
ATOM     58  N   UNL A   1      41.220  29.780  33.429  1.00  0.00    -0.248 NA
ATOM     59  C   UNL A   1      42.149  28.465  31.743  1.00  0.00     0.031 C 
ATOM     60  C   UNL A   1      43.325  30.801  37.225  1.00  0.00     0.029 A 
ATOM     61  C   UNL A   1      42.704  30.505  36.021  1.00  0.00     0.049 A 
ATOM     62  H   UNL A   1      40.890  31.246  35.246  1.00  0.00     0.167 HD
ATOM     63  C   UNL A   1      42.491  29.374  33.818  1.00  0.00     0.074 A 
ATOM     64  C   UNL A   1      43.011  28.554  32.747  1.00  0.00     0.031 C 
ATOM     65  C   UNL A   1      43.157  29.631  34.971  1.00  0.00     0.037 A 
BRANCH  52  66
ATOM     66  C   UNL A   1      40.318  33.626  38.731  1.00  0.00     0.064 A 
ATOM     67  C   UNL A   1      39.567  33.166  39.823  1.00  0.00     0.173 A 
ATOM     68  C   UNL A   1      41.107  34.771  38.917  1.00  0.00     0.173 A 
ATOM     69  F   UNL A   1      38.789  32.079  39.698  1.00  0.00    -0.203 F 
ATOM     70  C   UNL A   1      39.591  33.834  41.045  1.00  0.00     0.198 A 
ATOM     71  C   UNL A   1      41.150  35.422  40.147  1.00  0.00     0.198 A 
ATOM     72  F   UNL A   1      41.851  35.251  37.909  1.00  0.00    -0.203 F 
ATOM     73  F   UNL A   1      38.838  33.394  42.063  1.00  0.00    -0.200 F 
ATOM     74  C   UNL A   1      40.389  34.956  41.209  1.00  0.00     0.200 A 
ATOM     75  F   UNL A   1      41.932  36.499  40.308  1.00  0.00    -0.200 F 
ATOM     76  F   UNL A   1      40.421  35.591  42.389  1.00  0.00    -0.200 F 
ENDBRANCH  52  66
BRANCH  53  77
ATOM     77  C   UNL A   1      39.712  28.513  30.104  1.00  0.00     0.064 A 
ATOM     78  C   UNL A   1      39.241  27.197  29.998  1.00  0.00     0.173 A 
ATOM     79  C   UNL A   1      40.260  29.084  28.943  1.00  0.00     0.173 A 
ATOM     80  F   UNL A   1      38.722  26.585  31.074  1.00  0.00    -0.203 F 
ATOM     81  C   UNL A   1      39.372  26.470  28.814  1.00  0.00     0.198 A 
ATOM     82  C   UNL A   1      40.366  28.369  27.751  1.00  0.00     0.198 A 
ATOM     83  F   UNL A   1      40.719  30.341  28.954  1.00  0.00    -0.203 F 
ATOM     84  F   UNL A   1      38.988  25.186  28.773  1.00  0.00    -0.200 F 
ATOM     85  C   UNL A   1      39.939  27.054  27.692  1.00  0.00     0.200 A 
ATOM     86  F   UNL A   1      40.910  28.949  26.673  1.00  0.00    -0.200 F 
ATOM     87  F   UNL A   1      40.095  26.347  26.565  1.00  0.00    -0.200 F 
ENDBRANCH  53  77
BRANCH  65  88
ATOM     88  C   UNL A   1      44.446  28.900  35.209  1.00  0.00     0.064 A 
ATOM     89  C   UNL A   1      45.693  29.456  34.896  1.00  0.00     0.173 A 
ATOM     90  C   UNL A   1      44.422  27.647  35.846  1.00  0.00     0.173 A 
ATOM     91  F   UNL A   1      45.765  30.641  34.272  1.00  0.00    -0.203 F 
ATOM     92  C   UNL A   1      46.871  28.779  35.202  1.00  0.00     0.198 A 
ATOM     93  C   UNL A   1      45.601  26.989  36.178  1.00  0.00     0.198 A 
ATOM     94  F   UNL A   1      43.252  27.078  36.173  1.00  0.00    -0.203 F 
ATOM     95  F   UNL A   1      48.053  29.311  34.866  1.00  0.00    -0.200 F 
ATOM     96  C   UNL A   1      46.824  27.554  35.853  1.00  0.00     0.200 A 
ATOM     97  F   UNL A   1      45.552  25.815  36.822  1.00  0.00    -0.200 F 
ATOM     98  F   UNL A   1      47.961  26.916  36.166  1.00  0.00    -0.200 F 
ENDBRANCH  65  88
ENDBRANCH  39  40
ENDBRANCH  32  34
ENDBRANCH  31  32
ENDBRANCH  30  31
ENDBRANCH  29  30
ENDBRANCH  28  29
ENDBRANCH   1  28
TORSDOF 20
ENDMDL
