MODEL 1
REMARK VINA RESULT:     -12.1      0.000      0.000
REMARK SMILES CCc1cc(OC(F)(F)F)cc2c1O[C@@H](C(F)(F)F)C(C(=O)OCCOCCOC(=O)c1ccc(-c3c4nc(c(-c5c(F)c(F)c(F)c(F)c5F)c5ccc([nH]5)c(-c5c(F)c(F)c(F)c(F)c5F)c5nc(c(-c6c(F)c(F)c(F)c(F)c6F)c6ccc3[nH]6)C=C5)C=C4)cc1)=C2
REMARK SMILES IDX 26 1 25 2 24 3 23 4 21 5 22 6 20 7 3 8 4 9 13 10 5 11 12 12
REMARK SMILES IDX 14 13 11 14 95 15 15 16 2 17 1 18 6 19 7 20 8 21 9 22 10 23
REMARK SMILES IDX 16 24 17 25 18 26 19 27 27 28 28 29 29 30 30 31 31 32 32 33
REMARK SMILES IDX 33 34 94 35 34 36 93 37 35 38 36 39 37 40 87 41 38 42 92 43
REMARK SMILES IDX 86 44 88 45 39 46 91 47 85 48 84 49 40 51 72 52 52 53 71 54
REMARK SMILES IDX 53 55 56 56 70 57 89 58 54 59 55 60 69 62 90 63 57 64 41 65
REMARK SMILES IDX 42 66 50 67 43 68 44 69 48 70 51 71 45 72 46 73 49 74 47 75
REMARK SMILES IDX 73 76 74 77 82 78 75 79 76 80 80 81 83 82 77 83 78 84 81 85
REMARK SMILES IDX 79 86 58 87 59 88 67 89 60 90 61 91 65 92 68 93 62 94 63 95
REMARK SMILES IDX 66 96 64 97
REMARK H PARENT 88 50 56 61
REMARK Flexibility Score: inf
ROOT
ATOM      1  O   UNL A   1      30.338  29.044  23.931  1.00  0.00    -0.374 OA
ENDROOT
BRANCH   1   2
ATOM      2  C   UNL A   1      30.089  27.899  23.123  1.00  0.00     0.202 C 
BRANCH   2   3
ATOM      3  C   UNL A   1      29.495  26.659  23.797  1.00  0.00     0.261 C 
BRANCH   3   4
ATOM      4  O   UNL A   1      30.469  25.623  23.988  1.00  0.00    -0.460 OA
BRANCH   4   5
ATOM      5  C   UNL A   1      30.686  25.291  25.284  1.00  0.00     0.338 C 
ATOM      6  O   UNL A   1      30.099  25.741  26.255  1.00  0.00    -0.246 OA
BRANCH   5   7
ATOM      7  C   UNL A   1      31.674  24.207  25.392  1.00  0.00     0.087 C 
ATOM      8  C   UNL A   1      34.798  21.518  24.739  1.00  0.00    -0.002 A 
ATOM      9  C   UNL A   1      34.506  20.149  24.624  1.00  0.00     0.054 A 
ATOM     10  C   UNL A   1      33.741  22.408  24.968  1.00  0.00     0.131 A 
ATOM     11  C   UNL A   1      33.190  19.682  24.699  1.00  0.00     0.130 A 
ATOM     12  C   UNL A   1      32.412  21.956  25.046  1.00  0.00     0.021 A 
ATOM     13  O   UNL A   1      34.042  23.746  25.036  1.00  0.00    -0.475 OA
ATOM     14  C   UNL A   1      32.148  20.590  24.925  1.00  0.00     0.058 A 
ATOM     15  C   UNL A   1      31.329  22.940  25.111  1.00  0.00     0.027 C 
ATOM     16  C   UNL A   1      33.094  24.539  25.789  1.00  0.00     0.316 C 
BRANCH   8  17
ATOM     17  C   UNL A   1      36.229  21.998  24.623  1.00  0.00     0.036 C 
ATOM     18  C   UNL A   1      37.241  20.860  24.630  1.00  0.00     0.009 C 
ENDBRANCH   8  17
BRANCH  11  19
ATOM     19  O   UNL A   1      32.794  18.382  24.558  1.00  0.00    -0.406 OA
BRANCH  19  20
ATOM     20  C   UNL A   1      33.767  17.446  24.118  1.00  0.00     0.573 C 
ATOM     21  F   UNL A   1      33.473  16.196  24.538  1.00  0.00    -0.132 F 
ATOM     22  F   UNL A   1      33.871  17.456  22.772  1.00  0.00    -0.132 F 
ATOM     23  F   UNL A   1      34.966  17.791  24.635  1.00  0.00    -0.132 F 
ENDBRANCH  19  20
ENDBRANCH  11  19
BRANCH  16  24
ATOM     24  C   UNL A   1      33.555  26.006  25.757  1.00  0.00     0.430 C 
ATOM     25  F   UNL A   1      33.128  26.677  26.852  1.00  0.00    -0.167 F 
ATOM     26  F   UNL A   1      34.913  26.064  25.794  1.00  0.00    -0.167 F 
ATOM     27  F   UNL A   1      33.164  26.668  24.651  1.00  0.00    -0.167 F 
ENDBRANCH  16  24
ENDBRANCH   5   7
ENDBRANCH   4   5
ENDBRANCH   3   4
ENDBRANCH   2   3
ENDBRANCH   1   2
BRANCH   1  28
ATOM     28  C   UNL A   1      31.383  28.981  24.898  1.00  0.00     0.202 C 
BRANCH  28  29
ATOM     29  C   UNL A   1      31.741  30.257  25.673  1.00  0.00     0.261 C 
BRANCH  29  30
ATOM     30  O   UNL A   1      33.115  30.297  26.094  1.00  0.00    -0.460 OA
BRANCH  30  31
ATOM     31  C   UNL A   1      33.415  31.294  26.962  1.00  0.00     0.338 C 
ATOM     32  O   UNL A   1      32.705  32.231  27.299  1.00  0.00    -0.246 OA
BRANCH  31  33
ATOM     33  C   UNL A   1      34.700  31.003  27.618  1.00  0.00     0.060 A 
ATOM     34  C   UNL A   1      34.976  29.677  27.975  1.00  0.00     0.016 A 
ATOM     35  C   UNL A   1      35.595  32.027  27.931  1.00  0.00     0.016 A 
ATOM     36  C   UNL A   1      36.152  29.368  28.656  1.00  0.00     0.010 A 
ATOM     37  C   UNL A   1      36.766  31.717  28.629  1.00  0.00     0.010 A 
ATOM     38  C   UNL A   1      37.044  30.390  29.006  1.00  0.00    -0.014 A 
BRANCH  38  39
ATOM     39  C   UNL A   1      38.231  30.094  29.841  1.00  0.00     0.031 A 
ATOM     40  C   UNL A   1      39.281  29.157  29.320  1.00  0.00     0.074 A 
ATOM     41  C   UNL A   1      38.356  30.647  31.060  1.00  0.00     0.049 A 
ATOM     42  N   UNL A   1      40.335  28.672  29.926  1.00  0.00    -0.248 NA
ATOM     43  C   UNL A   1      39.122  28.703  27.929  1.00  0.00     0.031 C 
ATOM     44  C   UNL A   1      37.423  31.606  31.651  1.00  0.00     0.029 A 
ATOM     45  N   UNL A   1      39.312  30.465  32.029  1.00  0.00    -0.354 N 
ATOM     46  C   UNL A   1      40.959  27.852  28.996  1.00  0.00     0.074 A 
ATOM     47  C   UNL A   1      40.154  27.882  27.794  1.00  0.00     0.031 C 
ATOM     48  C   UNL A   1      37.841  31.912  32.890  1.00  0.00     0.029 A 
ATOM     49  C   UNL A   1      39.043  31.139  33.195  1.00  0.00     0.049 A 
ATOM     50  H   UNL A   1      40.111  29.906  31.899  1.00  0.00     0.167 HD
ATOM     51  C   UNL A   1      42.105  27.143  29.135  1.00  0.00     0.037 A 
ATOM     52  C   UNL A   1      39.676  31.102  34.384  1.00  0.00     0.037 A 
ATOM     53  C   UNL A   1      42.900  27.119  30.336  1.00  0.00     0.049 A 
ATOM     54  C   UNL A   1      40.892  30.225  34.543  1.00  0.00     0.074 A 
ATOM     55  C   UNL A   1      44.091  26.453  30.568  1.00  0.00     0.029 A 
ATOM     56  N   UNL A   1      42.576  27.782  31.510  1.00  0.00    -0.354 N 
ATOM     57  N   UNL A   1      41.494  29.473  33.653  1.00  0.00    -0.248 NA
ATOM     58  C   UNL A   1      41.512  30.185  35.875  1.00  0.00     0.031 C 
ATOM     59  C   UNL A   1      44.456  26.665  31.902  1.00  0.00     0.029 A 
ATOM     60  C   UNL A   1      43.524  27.510  32.483  1.00  0.00     0.049 A 
ATOM     61  H   UNL A   1      41.789  28.361  31.634  1.00  0.00     0.167 HD
ATOM     62  C   UNL A   1      42.573  28.893  34.308  1.00  0.00     0.074 A 
ATOM     63  C   UNL A   1      42.554  29.393  35.666  1.00  0.00     0.031 C 
ATOM     64  C   UNL A   1      43.494  28.021  33.830  1.00  0.00     0.037 A 
BRANCH  51  65
ATOM     65  C   UNL A   1      42.562  26.316  27.969  1.00  0.00     0.064 A 
ATOM     66  C   UNL A   1      43.479  26.808  27.029  1.00  0.00     0.173 A 
ATOM     67  C   UNL A   1      42.118  24.992  27.822  1.00  0.00     0.173 A 
ATOM     68  F   UNL A   1      43.925  28.071  27.118  1.00  0.00    -0.203 F 
ATOM     69  C   UNL A   1      43.920  26.013  25.974  1.00  0.00     0.198 A 
ATOM     70  C   UNL A   1      42.584  24.191  26.784  1.00  0.00     0.198 A 
ATOM     71  F   UNL A   1      41.245  24.471  28.697  1.00  0.00    -0.203 F 
ATOM     72  F   UNL A   1      44.767  26.517  25.066  1.00  0.00    -0.200 F 
ATOM     73  C   UNL A   1      43.479  24.703  25.858  1.00  0.00     0.200 A 
ATOM     74  F   UNL A   1      42.168  22.921  26.682  1.00  0.00    -0.200 F 
ATOM     75  F   UNL A   1      43.916  23.935  24.849  1.00  0.00    -0.200 F 
ENDBRANCH  51  65
BRANCH  52  76
ATOM     76  C   UNL A   1      39.155  31.890  35.533  1.00  0.00     0.064 A 
ATOM     77  C   UNL A   1      39.518  33.232  35.711  1.00  0.00     0.173 A 
ATOM     78  C   UNL A   1      38.313  31.310  36.492  1.00  0.00     0.173 A 
ATOM     79  F   UNL A   1      40.342  33.825  34.835  1.00  0.00    -0.203 F 
ATOM     80  C   UNL A   1      39.075  33.957  36.816  1.00  0.00     0.198 A 
ATOM     81  C   UNL A   1      37.846  32.044  37.580  1.00  0.00     0.198 A 
ATOM     82  F   UNL A   1      37.938  30.027  36.372  1.00  0.00    -0.203 F 
ATOM     83  F   UNL A   1      39.482  35.222  36.991  1.00  0.00    -0.200 F 
ATOM     84  C   UNL A   1      38.235  33.364  37.748  1.00  0.00     0.200 A 
ATOM     85  F   UNL A   1      37.024  31.470  38.469  1.00  0.00    -0.200 F 
ATOM     86  F   UNL A   1      37.811  34.061  38.810  1.00  0.00    -0.200 F 
ENDBRANCH  52  76
BRANCH  64  87
ATOM     87  C   UNL A   1      44.573  27.566  34.771  1.00  0.00     0.064 A 
ATOM     88  C   UNL A   1      45.762  28.292  34.929  1.00  0.00     0.173 A 
ATOM     89  C   UNL A   1      44.389  26.423  35.565  1.00  0.00     0.173 A 
ATOM     90  F   UNL A   1      45.993  29.382  34.182  1.00  0.00    -0.203 F 
ATOM     91  C   UNL A   1      46.737  27.880  35.834  1.00  0.00     0.198 A 
ATOM     92  C   UNL A   1      45.352  26.033  36.492  1.00  0.00     0.198 A 
ATOM     93  F   UNL A   1      43.266  25.698  35.458  1.00  0.00    -0.203 F 
ATOM     94  F   UNL A   1      47.883  28.565  35.939  1.00  0.00    -0.200 F 
ATOM     95  C   UNL A   1      46.527  26.758  36.622  1.00  0.00     0.200 A 
ATOM     96  F   UNL A   1      45.139  24.957  37.264  1.00  0.00    -0.200 F 
ATOM     97  F   UNL A   1      47.460  26.372  37.503  1.00  0.00    -0.200 F 
ENDBRANCH  64  87
ENDBRANCH  38  39
ENDBRANCH  31  33
ENDBRANCH  30  31
ENDBRANCH  29  30
ENDBRANCH  28  29
ENDBRANCH   1  28
TORSDOF 18
ENDMDL
MODEL 2
REMARK VINA RESULT:     -12.1      0.553      2.066
REMARK SMILES CCc1cc(OC(F)(F)F)cc2c1O[C@@H](C(F)(F)F)C(C(=O)OCCOCCOC(=O)c1ccc(-c3c4nc(c(-c5c(F)c(F)c(F)c(F)c5F)c5ccc([nH]5)c(-c5c(F)c(F)c(F)c(F)c5F)c5nc(c(-c6c(F)c(F)c(F)c(F)c6F)c6ccc3[nH]6)C=C5)C=C4)cc1)=C2
REMARK SMILES IDX 26 1 25 2 24 3 23 4 21 5 22 6 20 7 3 8 4 9 13 10 5 11 12 12
REMARK SMILES IDX 14 13 11 14 95 15 15 16 2 17 1 18 6 19 7 20 8 21 9 22 10 23
REMARK SMILES IDX 16 24 17 25 18 26 19 27 27 28 28 29 29 30 30 31 31 32 32 33
REMARK SMILES IDX 33 34 94 35 34 36 93 37 35 38 36 39 37 40 87 41 38 42 92 43
REMARK SMILES IDX 86 44 88 45 39 46 91 47 85 48 84 49 40 51 72 52 52 53 71 54
REMARK SMILES IDX 53 55 56 56 70 57 89 58 54 59 55 60 69 62 90 63 57 64 41 65
REMARK SMILES IDX 42 66 50 67 43 68 44 69 48 70 51 71 45 72 46 73 49 74 47 75
REMARK SMILES IDX 73 76 74 77 82 78 75 79 76 80 80 81 83 82 77 83 78 84 81 85
REMARK SMILES IDX 79 86 58 87 59 88 67 89 60 90 61 91 65 92 68 93 62 94 63 95
REMARK SMILES IDX 66 96 64 97
REMARK H PARENT 88 50 56 61
REMARK Flexibility Score: inf
ROOT
ATOM      1  O   UNL A   1      31.130  28.616  23.518  1.00  0.00    -0.374 OA
ENDROOT
BRANCH   1   2
ATOM      2  C   UNL A   1      30.609  27.380  23.043  1.00  0.00     0.202 C 
BRANCH   2   3
ATOM      3  C   UNL A   1      29.835  26.500  24.030  1.00  0.00     0.261 C 
BRANCH   3   4
ATOM      4  O   UNL A   1      30.430  25.206  24.190  1.00  0.00    -0.460 OA
BRANCH   4   5
ATOM      5  C   UNL A   1      30.630  24.837  25.478  1.00  0.00     0.338 C 
ATOM      6  O   UNL A   1      29.968  25.184  26.442  1.00  0.00    -0.246 OA
BRANCH   5   7
ATOM      7  C   UNL A   1      31.716  23.850  25.582  1.00  0.00     0.087 C 
ATOM      8  C   UNL A   1      35.045  21.430  24.894  1.00  0.00    -0.002 A 
ATOM      9  C   UNL A   1      34.874  20.037  24.829  1.00  0.00     0.054 A 
ATOM     10  C   UNL A   1      33.921  22.229  25.135  1.00  0.00     0.131 A 
ATOM     11  C   UNL A   1      33.609  19.458  24.966  1.00  0.00     0.130 A 
ATOM     12  C   UNL A   1      32.641  21.663  25.275  1.00  0.00     0.021 A 
ATOM     13  O   UNL A   1      34.102  23.590  25.152  1.00  0.00    -0.475 OA
ATOM     14  C   UNL A   1      32.498  20.276  25.204  1.00  0.00     0.058 A 
ATOM     15  C   UNL A   1      31.477  22.548  25.351  1.00  0.00     0.027 C 
ATOM     16  C   UNL A   1      33.112  24.320  25.917  1.00  0.00     0.316 C 
BRANCH   8  17
ATOM     17  C   UNL A   1      36.422  22.032  24.711  1.00  0.00     0.036 C 
ATOM     18  C   UNL A   1      36.640  22.605  23.316  1.00  0.00     0.009 C 
ENDBRANCH   8  17
BRANCH  11  19
ATOM     19  O   UNL A   1      33.327  18.123  24.878  1.00  0.00    -0.406 OA
BRANCH  19  20
ATOM     20  C   UNL A   1      33.489  17.503  23.611  1.00  0.00     0.573 C 
ATOM     21  F   UNL A   1      32.917  16.279  23.586  1.00  0.00    -0.132 F 
ATOM     22  F   UNL A   1      32.964  18.267  22.630  1.00  0.00    -0.132 F 
ATOM     23  F   UNL A   1      34.810  17.354  23.368  1.00  0.00    -0.132 F 
ENDBRANCH  19  20
ENDBRANCH  11  19
BRANCH  16  24
ATOM     24  C   UNL A   1      33.438  25.820  25.825  1.00  0.00     0.430 C 
ATOM     25  F   UNL A   1      34.742  26.056  26.101  1.00  0.00    -0.167 F 
ATOM     26  F   UNL A   1      33.245  26.258  24.551  1.00  0.00    -0.167 F 
ATOM     27  F   UNL A   1      32.671  26.586  26.623  1.00  0.00    -0.167 F 
ENDBRANCH  16  24
ENDBRANCH   5   7
ENDBRANCH   4   5
ENDBRANCH   3   4
ENDBRANCH   2   3
ENDBRANCH   1   2
BRANCH   1  28
ATOM     28  C   UNL A   1      31.301  28.789  24.923  1.00  0.00     0.202 C 
BRANCH  28  29
ATOM     29  C   UNL A   1      31.694  30.177  25.446  1.00  0.00     0.261 C 
BRANCH  29  30
ATOM     30  O   UNL A   1      32.991  30.203  26.064  1.00  0.00    -0.460 OA
BRANCH  30  31
ATOM     31  C   UNL A   1      33.222  31.277  26.858  1.00  0.00     0.338 C 
ATOM     32  O   UNL A   1      32.543  32.288  26.965  1.00  0.00    -0.246 OA
BRANCH  31  33
ATOM     33  C   UNL A   1      34.354  30.990  27.755  1.00  0.00     0.060 A 
ATOM     34  C   UNL A   1      35.134  32.064  28.202  1.00  0.00     0.016 A 
ATOM     35  C   UNL A   1      34.679  29.679  28.105  1.00  0.00     0.016 A 
ATOM     36  C   UNL A   1      36.251  31.830  29.000  1.00  0.00     0.010 A 
ATOM     37  C   UNL A   1      35.810  29.445  28.891  1.00  0.00     0.010 A 
ATOM     38  C   UNL A   1      36.609  30.517  29.332  1.00  0.00    -0.014 A 
BRANCH  38  39
ATOM     39  C   UNL A   1      37.866  30.246  30.068  1.00  0.00     0.031 A 
ATOM     40  C   UNL A   1      38.887  29.326  29.466  1.00  0.00     0.074 A 
ATOM     41  C   UNL A   1      38.079  30.807  31.271  1.00  0.00     0.049 A 
ATOM     42  N   UNL A   1      39.996  28.863  29.985  1.00  0.00    -0.248 NA
ATOM     43  C   UNL A   1      38.623  28.862  28.095  1.00  0.00     0.031 C 
ATOM     44  C   UNL A   1      37.181  31.752  31.933  1.00  0.00     0.029 A 
ATOM     45  N   UNL A   1      39.115  30.648  32.159  1.00  0.00    -0.354 N 
ATOM     46  C   UNL A   1      40.557  28.050  29.011  1.00  0.00     0.074 A 
ATOM     47  C   UNL A   1      39.655  28.060  27.878  1.00  0.00     0.031 C 
ATOM     48  C   UNL A   1      37.693  32.072  33.132  1.00  0.00     0.029 A 
ATOM     49  C   UNL A   1      38.930  31.322  33.341  1.00  0.00     0.049 A 
ATOM     50  H   UNL A   1      39.911  30.102  31.967  1.00  0.00     0.167 HD
ATOM     51  C   UNL A   1      41.723  27.363  29.057  1.00  0.00     0.037 A 
ATOM     52  C   UNL A   1      39.659  31.303  34.474  1.00  0.00     0.037 A 
ATOM     53  C   UNL A   1      42.613  27.359  30.189  1.00  0.00     0.049 A 
ATOM     54  C   UNL A   1      40.899  30.449  34.536  1.00  0.00     0.074 A 
ATOM     55  C   UNL A   1      43.831  26.717  30.326  1.00  0.00     0.029 A 
ATOM     56  N   UNL A   1      42.375  28.022  31.384  1.00  0.00    -0.354 N 
ATOM     57  N   UNL A   1      41.441  29.704  33.602  1.00  0.00    -0.248 NA
ATOM     58  C   UNL A   1      41.626  30.427  35.813  1.00  0.00     0.031 C 
ATOM     59  C   UNL A   1      44.300  26.941  31.624  1.00  0.00     0.029 A 
ATOM     60  C   UNL A   1      43.404  27.772  32.277  1.00  0.00     0.049 A 
ATOM     61  H   UNL A   1      41.590  28.587  31.570  1.00  0.00     0.167 HD
ATOM     62  C   UNL A   1      42.580  29.146  34.169  1.00  0.00     0.074 A 
ATOM     63  C   UNL A   1      42.663  29.653  35.522  1.00  0.00     0.031 C 
ATOM     64  C   UNL A   1      43.475  28.289  33.620  1.00  0.00     0.037 A 
BRANCH  51  65
ATOM     65  C   UNL A   1      42.099  26.539  27.861  1.00  0.00     0.064 A 
ATOM     66  C   UNL A   1      41.548  25.269  27.638  1.00  0.00     0.173 A 
ATOM     67  C   UNL A   1      42.980  27.051  26.896  1.00  0.00     0.173 A 
ATOM     68  F   UNL A   1      40.710  24.728  28.536  1.00  0.00    -0.203 F 
ATOM     69  C   UNL A   1      41.880  24.533  26.503  1.00  0.00     0.198 A 
ATOM     70  C   UNL A   1      43.287  26.326  25.748  1.00  0.00     0.198 A 
ATOM     71  F   UNL A   1      43.532  28.263  27.058  1.00  0.00    -0.203 F 
ATOM     72  F   UNL A   1      41.371  23.306  26.329  1.00  0.00    -0.200 F 
ATOM     73  C   UNL A   1      42.741  25.066  25.554  1.00  0.00     0.200 A 
ATOM     74  F   UNL A   1      44.108  26.849  24.826  1.00  0.00    -0.200 F 
ATOM     75  F   UNL A   1      43.049  24.362  24.456  1.00  0.00    -0.200 F 
ENDBRANCH  51  65
BRANCH  52  76
ATOM     76  C   UNL A   1      39.219  32.087  35.659  1.00  0.00     0.064 A 
ATOM     77  C   UNL A   1      38.367  31.526  36.620  1.00  0.00     0.173 A 
ATOM     78  C   UNL A   1      39.614  33.421  35.838  1.00  0.00     0.173 A 
ATOM     79  F   UNL A   1      37.940  30.263  36.480  1.00  0.00    -0.203 F 
ATOM     80  C   UNL A   1      37.909  32.276  37.702  1.00  0.00     0.198 A 
ATOM     81  C   UNL A   1      39.181  34.160  36.936  1.00  0.00     0.198 A 
ATOM     82  F   UNL A   1      40.427  34.008  34.945  1.00  0.00    -0.203 F 
ATOM     83  F   UNL A   1      37.051  31.733  38.575  1.00  0.00    -0.200 F 
ATOM     84  C   UNL A   1      38.321  33.591  37.862  1.00  0.00     0.200 A 
ATOM     85  F   UNL A   1      39.593  35.426  37.093  1.00  0.00    -0.200 F 
ATOM     86  F   UNL A   1      37.880  34.312  38.902  1.00  0.00    -0.200 F 
ENDBRANCH  52  76
BRANCH  64  87
ATOM     87  C   UNL A   1      44.635  27.858  34.472  1.00  0.00     0.064 A 
ATOM     88  C   UNL A   1      44.583  26.691  35.247  1.00  0.00     0.173 A 
ATOM     89  C   UNL A   1      45.831  28.591  34.466  1.00  0.00     0.173 A 
ATOM     90  F   UNL A   1      43.456  25.965  35.298  1.00  0.00    -0.203 F 
ATOM     91  C   UNL A   1      45.680  26.283  36.000  1.00  0.00     0.198 A 
ATOM     92  C   UNL A   1      46.938  28.163  35.196  1.00  0.00     0.198 A 
ATOM     93  F   UNL A   1      45.937  29.711  33.736  1.00  0.00    -0.203 F 
ATOM     94  F   UNL A   1      45.594  25.187  36.766  1.00  0.00    -0.200 F 
ATOM     95  C   UNL A   1      46.860  27.012  35.966  1.00  0.00     0.200 A 
ATOM     96  F   UNL A   1      48.081  28.861  35.148  1.00  0.00    -0.200 F 
ATOM     97  F   UNL A   1      47.919  26.610  36.680  1.00  0.00    -0.200 F 
ENDBRANCH  64  87
ENDBRANCH  38  39
ENDBRANCH  31  33
ENDBRANCH  30  31
ENDBRANCH  29  30
ENDBRANCH  28  29
ENDBRANCH   1  28
TORSDOF 18
ENDMDL
MODEL 3
REMARK VINA RESULT:     -12.0      4.517     10.505
REMARK SMILES CCc1cc(OC(F)(F)F)cc2c1O[C@@H](C(F)(F)F)C(C(=O)OCCOCCOC(=O)c1ccc(-c3c4nc(c(-c5c(F)c(F)c(F)c(F)c5F)c5ccc([nH]5)c(-c5c(F)c(F)c(F)c(F)c5F)c5nc(c(-c6c(F)c(F)c(F)c(F)c6F)c6ccc3[nH]6)C=C5)C=C4)cc1)=C2
REMARK SMILES IDX 26 1 25 2 24 3 23 4 21 5 22 6 20 7 3 8 4 9 13 10 5 11 12 12
REMARK SMILES IDX 14 13 11 14 95 15 15 16 2 17 1 18 6 19 7 20 8 21 9 22 10 23
REMARK SMILES IDX 16 24 17 25 18 26 19 27 27 28 28 29 29 30 30 31 31 32 32 33
REMARK SMILES IDX 33 34 94 35 34 36 93 37 35 38 36 39 37 40 87 41 38 42 92 43
REMARK SMILES IDX 86 44 88 45 39 46 91 47 85 48 84 49 40 51 72 52 52 53 71 54
REMARK SMILES IDX 53 55 56 56 70 57 89 58 54 59 55 60 69 62 90 63 57 64 41 65
REMARK SMILES IDX 42 66 50 67 43 68 44 69 48 70 51 71 45 72 46 73 49 74 47 75
REMARK SMILES IDX 73 76 74 77 82 78 75 79 76 80 80 81 83 82 77 83 78 84 81 85
REMARK SMILES IDX 79 86 58 87 59 88 67 89 60 90 61 91 65 92 68 93 62 94 63 95
REMARK SMILES IDX 66 96 64 97
REMARK H PARENT 88 50 56 61
REMARK Flexibility Score: inf
ROOT
ATOM      1  O   UNL A   1      38.571  21.784  25.736  1.00  0.00    -0.374 OA
ENDROOT
BRANCH   1   2
ATOM      2  C   UNL A   1      37.295  22.403  25.638  1.00  0.00     0.202 C 
BRANCH   2   3
ATOM      3  C   UNL A   1      36.154  21.602  25.002  1.00  0.00     0.261 C 
BRANCH   3   4
ATOM      4  O   UNL A   1      34.928  22.344  24.954  1.00  0.00    -0.460 OA
BRANCH   4   5
ATOM      5  C   UNL A   1      34.855  23.240  23.940  1.00  0.00     0.338 C 
ATOM      6  O   UNL A   1      35.418  23.160  22.860  1.00  0.00    -0.246 OA
BRANCH   5   7
ATOM      7  C   UNL A   1      33.903  24.316  24.254  1.00  0.00     0.087 C 
ATOM      8  C   UNL A   1      31.194  27.486  24.068  1.00  0.00    -0.002 A 
ATOM      9  C   UNL A   1      31.532  28.707  24.673  1.00  0.00     0.054 A 
ATOM     10  C   UNL A   1      32.108  26.427  24.146  1.00  0.00     0.131 A 
ATOM     11  C   UNL A   1      32.765  28.881  25.310  1.00  0.00     0.130 A 
ATOM     12  C   UNL A   1      33.352  26.585  24.783  1.00  0.00     0.021 A 
ATOM     13  O   UNL A   1      31.778  25.255  23.512  1.00  0.00    -0.475 OA
ATOM     14  C   UNL A   1      33.665  27.811  25.375  1.00  0.00     0.058 A 
ATOM     15  C   UNL A   1      34.342  25.509  24.688  1.00  0.00     0.027 C 
ATOM     16  C   UNL A   1      32.425  24.077  24.050  1.00  0.00     0.316 C 
BRANCH   8  17
ATOM     17  C   UNL A   1      29.866  27.335  23.358  1.00  0.00     0.036 C 
ATOM     18  C   UNL A   1      29.400  28.622  22.688  1.00  0.00     0.009 C 
ENDBRANCH   8  17
BRANCH  11  19
ATOM     19  O   UNL A   1      33.208  30.036  25.891  1.00  0.00    -0.406 OA
BRANCH  19  20
ATOM     20  C   UNL A   1      32.537  30.479  27.062  1.00  0.00     0.573 C 
ATOM     21  F   UNL A   1      31.690  31.495  26.788  1.00  0.00    -0.132 F 
ATOM     22  F   UNL A   1      31.855  29.466  27.638  1.00  0.00    -0.132 F 
ATOM     23  F   UNL A   1      33.455  30.925  27.946  1.00  0.00    -0.132 F 
ENDBRANCH  19  20
ENDBRANCH  11  19
BRANCH  16  24
ATOM     24  C   UNL A   1      31.972  22.858  23.229  1.00  0.00     0.430 C 
ATOM     25  F   UNL A   1      32.149  21.708  23.920  1.00  0.00    -0.167 F 
ATOM     26  F   UNL A   1      30.636  22.938  22.981  1.00  0.00    -0.167 F 
ATOM     27  F   UNL A   1      32.587  22.756  22.035  1.00  0.00    -0.167 F 
ENDBRANCH  16  24
ENDBRANCH   5   7
ENDBRANCH   4   5
ENDBRANCH   3   4
ENDBRANCH   2   3
ENDBRANCH   1   2
BRANCH   1  28
ATOM     28  C   UNL A   1      38.706  20.429  25.313  1.00  0.00     0.202 C 
BRANCH  28  29
ATOM     29  C   UNL A   1      39.611  19.495  26.128  1.00  0.00     0.261 C 
BRANCH  29  30
ATOM     30  O   UNL A   1      40.813  19.123  25.433  1.00  0.00    -0.460 OA
BRANCH  30  31
ATOM     31  C   UNL A   1      41.941  19.168  26.182  1.00  0.00     0.338 C 
ATOM     32  O   UNL A   1      42.718  18.253  26.419  1.00  0.00    -0.246 OA
BRANCH  31  33
ATOM     33  C   UNL A   1      42.231  20.563  26.551  1.00  0.00     0.060 A 
ATOM     34  C   UNL A   1      42.473  21.483  25.523  1.00  0.00     0.016 A 
ATOM     35  C   UNL A   1      42.321  20.948  27.889  1.00  0.00     0.016 A 
ATOM     36  C   UNL A   1      42.814  22.799  25.830  1.00  0.00     0.010 A 
ATOM     37  C   UNL A   1      42.679  22.264  28.195  1.00  0.00     0.010 A 
ATOM     38  C   UNL A   1      42.940  23.191  27.169  1.00  0.00    -0.014 A 
BRANCH  38  39
ATOM     39  C   UNL A   1      43.428  24.549  27.508  1.00  0.00     0.031 A 
ATOM     40  C   UNL A   1      42.456  25.574  28.014  1.00  0.00     0.074 A 
ATOM     41  C   UNL A   1      44.725  24.862  27.347  1.00  0.00     0.049 A 
ATOM     42  N   UNL A   1      42.642  26.846  28.260  1.00  0.00    -0.248 NA
ATOM     43  C   UNL A   1      41.086  25.104  28.278  1.00  0.00     0.031 C 
ATOM     44  C   UNL A   1      45.768  23.936  26.907  1.00  0.00     0.029 A 
ATOM     45  N   UNL A   1      45.383  26.054  27.519  1.00  0.00    -0.354 N 
ATOM     46  C   UNL A   1      41.417  27.329  28.697  1.00  0.00     0.074 A 
ATOM     47  C   UNL A   1      40.486  26.222  28.660  1.00  0.00     0.031 C 
ATOM     48  C   UNL A   1      46.932  24.600  26.823  1.00  0.00     0.029 A 
ATOM     49  C   UNL A   1      46.707  26.005  27.158  1.00  0.00     0.049 A 
ATOM     50  H   UNL A   1      44.947  26.866  27.866  1.00  0.00     0.167 HD
ATOM     51  C   UNL A   1      41.103  28.584  29.100  1.00  0.00     0.037 A 
ATOM     52  C   UNL A   1      47.621  26.991  27.073  1.00  0.00     0.037 A 
ATOM     53  C   UNL A   1      42.037  29.679  29.133  1.00  0.00     0.049 A 
ATOM     54  C   UNL A   1      47.218  28.400  27.429  1.00  0.00     0.074 A 
ATOM     55  C   UNL A   1      41.825  30.982  29.549  1.00  0.00     0.029 A 
ATOM     56  N   UNL A   1      43.361  29.601  28.724  1.00  0.00    -0.354 N 
ATOM     57  N   UNL A   1      46.066  28.847  27.869  1.00  0.00    -0.248 NA
ATOM     58  C   UNL A   1      48.241  29.443  27.268  1.00  0.00     0.031 C 
ATOM     59  C   UNL A   1      43.001  31.707  29.334  1.00  0.00     0.029 A 
ATOM     60  C   UNL A   1      43.965  30.843  28.840  1.00  0.00     0.049 A 
ATOM     61  H   UNL A   1      43.805  28.785  28.398  1.00  0.00     0.167 HD
ATOM     62  C   UNL A   1      46.233  30.212  28.061  1.00  0.00     0.074 A 
ATOM     63  C   UNL A   1      47.602  30.519  27.706  1.00  0.00     0.031 C 
ATOM     64  C   UNL A   1      45.332  31.131  28.488  1.00  0.00     0.037 A 
BRANCH  51  65
ATOM     65  C   UNL A   1      39.687  28.851  29.518  1.00  0.00     0.064 A 
ATOM     66  C   UNL A   1      39.261  28.670  30.841  1.00  0.00     0.173 A 
ATOM     67  C   UNL A   1      38.757  29.347  28.591  1.00  0.00     0.173 A 
ATOM     68  F   UNL A   1      40.108  28.186  31.763  1.00  0.00    -0.203 F 
ATOM     69  C   UNL A   1      37.952  28.959  31.218  1.00  0.00     0.198 A 
ATOM     70  C   UNL A   1      37.457  29.663  28.977  1.00  0.00     0.198 A 
ATOM     71  F   UNL A   1      39.114  29.543  27.312  1.00  0.00    -0.203 F 
ATOM     72  F   UNL A   1      37.556  28.742  32.480  1.00  0.00    -0.200 F 
ATOM     73  C   UNL A   1      37.054  29.463  30.289  1.00  0.00     0.200 A 
ATOM     74  F   UNL A   1      36.596  30.164  28.081  1.00  0.00    -0.200 F 
ATOM     75  F   UNL A   1      35.798  29.753  30.657  1.00  0.00    -0.200 F 
ENDBRANCH  51  65
BRANCH  52  76
ATOM     76  C   UNL A   1      48.999  26.695  26.596  1.00  0.00     0.064 A 
ATOM     77  C   UNL A   1      49.998  26.283  27.487  1.00  0.00     0.173 A 
ATOM     78  C   UNL A   1      49.352  26.850  25.247  1.00  0.00     0.173 A 
ATOM     79  F   UNL A   1      49.716  26.145  28.791  1.00  0.00    -0.203 F 
ATOM     80  C   UNL A   1      51.303  26.058  27.052  1.00  0.00     0.198 A 
ATOM     81  C   UNL A   1      50.649  26.595  24.808  1.00  0.00     0.198 A 
ATOM     82  F   UNL A   1      48.434  27.246  24.352  1.00  0.00    -0.203 F 
ATOM     83  F   UNL A   1      52.252  25.719  27.936  1.00  0.00    -0.200 F 
ATOM     84  C   UNL A   1      51.626  26.209  25.712  1.00  0.00     0.200 A 
ATOM     85  F   UNL A   1      50.952  26.729  23.509  1.00  0.00    -0.200 F 
ATOM     86  F   UNL A   1      52.881  25.994  25.295  1.00  0.00    -0.200 F 
ENDBRANCH  52  76
BRANCH  64  87
ATOM     87  C   UNL A   1      45.799  32.553  28.618  1.00  0.00     0.064 A 
ATOM     88  C   UNL A   1      45.648  33.473  27.571  1.00  0.00     0.173 A 
ATOM     89  C   UNL A   1      46.352  33.011  29.823  1.00  0.00     0.173 A 
ATOM     90  F   UNL A   1      45.141  33.079  26.393  1.00  0.00    -0.203 F 
ATOM     91  C   UNL A   1      46.050  34.798  27.720  1.00  0.00     0.198 A 
ATOM     92  C   UNL A   1      46.723  34.345  29.979  1.00  0.00     0.198 A 
ATOM     93  F   UNL A   1      46.512  32.174  30.858  1.00  0.00    -0.203 F 
ATOM     94  F   UNL A   1      45.935  35.651  26.693  1.00  0.00    -0.200 F 
ATOM     95  C   UNL A   1      46.577  35.235  28.927  1.00  0.00     0.200 A 
ATOM     96  F   UNL A   1      47.217  34.768  31.152  1.00  0.00    -0.200 F 
ATOM     97  F   UNL A   1      46.949  36.514  29.072  1.00  0.00    -0.200 F 
ENDBRANCH  64  87
ENDBRANCH  38  39
ENDBRANCH  31  33
ENDBRANCH  30  31
ENDBRANCH  29  30
ENDBRANCH  28  29
ENDBRANCH   1  28
TORSDOF 18
ENDMDL
