MODEL 1
REMARK VINA RESULT:     -10.0      0.000      0.000
REMARK SMILES O=C(OCCOCCOC(=O)c1ccc(-c2ccn(C(F)F)c(=O)c2)cc1O)c1ccc(-c2c3nc(c(-c4c(F)c(F)c(F)c(F)c4F)c4ccc([nH]4)c(-c4c(F)c(F)c(F)c(F)c4F)c4nc(c(-c5c(F)c(F)c(F)c(F)c5F)c5ccc2[nH]5)C=C4)C=C3)cc1
REMARK SMILES IDX 6 1 5 2 4 3 3 4 2 5 1 6 29 7 30 8 91 9 31 10 90 11 32 12
REMARK SMILES IDX 33 13 34 14 84 15 35 16 89 17 83 18 85 19 36 20 88 21 82 22
REMARK SMILES IDX 81 23 37 25 69 26 49 27 68 28 50 29 53 30 67 31 86 32 51 33
REMARK SMILES IDX 52 34 66 36 87 37 54 38 38 39 39 40 47 41 40 42 41 43 45 44
REMARK SMILES IDX 48 45 42 46 43 47 46 48 44 49 70 50 71 51 79 52 72 53 73 54
REMARK SMILES IDX 77 55 80 56 74 57 75 58 78 59 76 60 55 61 56 62 64 63 57 64
REMARK SMILES IDX 58 65 62 66 65 67 59 68 60 69 63 70 61 71 7 72 8 73 9 74
REMARK SMILES IDX 10 75 11 76 12 77 13 78 27 79 14 80 26 81 15 82 28 83 16 85
REMARK SMILES IDX 17 86 25 87 18 88 23 89 19 90 24 91 20 92 21 93 22 94
REMARK H PARENT 85 24 53 35 28 84
REMARK Flexibility Score: inf
ROOT
ATOM      1  O   UNL A   1      41.729  19.245  25.407  1.00  0.00    -0.374 OA
ENDROOT
BRANCH   1   2
ATOM      2  C   UNL A   1      40.687  19.578  26.325  1.00  0.00     0.202 C 
BRANCH   2   3
ATOM      3  C   UNL A   1      40.689  21.052  26.731  1.00  0.00     0.261 C 
BRANCH   3   4
ATOM      4  O   UNL A   1      39.873  21.843  25.857  1.00  0.00    -0.460 OA
BRANCH   4   5
ATOM      5  C   UNL A   1      39.119  22.934  26.120  1.00  0.00     0.338 C 
ATOM      6  O   UNL A   1      37.933  22.887  25.786  1.00  0.00    -0.246 OA
BRANCH   5   7
ATOM      7  C   UNL A   1      39.601  24.206  26.765  1.00  0.00     0.060 A 
ATOM      8  C   UNL A   1      39.201  24.403  28.103  1.00  0.00     0.016 A 
ATOM      9  C   UNL A   1      40.346  25.226  26.167  1.00  0.00     0.016 A 
ATOM     10  C   UNL A   1      39.507  25.578  28.795  1.00  0.00     0.010 A 
ATOM     11  C   UNL A   1      40.653  26.404  26.845  1.00  0.00     0.010 A 
ATOM     12  C   UNL A   1      40.230  26.588  28.159  1.00  0.00    -0.014 A 
BRANCH  12  13
ATOM     13  C   UNL A   1      40.660  27.796  28.878  1.00  0.00     0.031 A 
ATOM     14  C   UNL A   1      42.042  27.908  29.437  1.00  0.00     0.074 A 
ATOM     15  C   UNL A   1      39.733  28.742  29.100  1.00  0.00     0.049 A 
ATOM     16  N   UNL A   1      42.599  28.919  30.050  1.00  0.00    -0.248 NA
ATOM     17  C   UNL A   1      42.906  26.724  29.311  1.00  0.00     0.031 C 
ATOM     18  C   UNL A   1      38.336  28.654  28.670  1.00  0.00     0.029 A 
ATOM     19  N   UNL A   1      39.812  29.940  29.751  1.00  0.00    -0.354 N 
ATOM     20  C   UNL A   1      43.887  28.506  30.360  1.00  0.00     0.074 A 
ATOM     21  C   UNL A   1      44.010  27.133  29.922  1.00  0.00     0.031 C 
ATOM     22  C   UNL A   1      37.688  29.759  29.066  1.00  0.00     0.029 A 
ATOM     23  C   UNL A   1      38.626  30.627  29.770  1.00  0.00     0.049 A 
ATOM     24  H   UNL A   1      40.639  30.277  30.167  1.00  0.00     0.167 HD
ATOM     25  C   UNL A   1      44.872  29.231  30.942  1.00  0.00     0.037 A 
ATOM     26  C   UNL A   1      38.337  31.836  30.281  1.00  0.00     0.037 A 
ATOM     27  C   UNL A   1      44.698  30.589  31.392  1.00  0.00     0.049 A 
ATOM     28  C   UNL A   1      39.447  32.629  30.903  1.00  0.00     0.074 A 
ATOM     29  C   UNL A   1      45.637  31.453  31.925  1.00  0.00     0.029 A 
ATOM     30  N   UNL A   1      43.488  31.273  31.379  1.00  0.00    -0.354 N 
ATOM     31  N   UNL A   1      40.703  32.288  31.077  1.00  0.00    -0.248 NA
ATOM     32  C   UNL A   1      39.114  33.975  31.378  1.00  0.00     0.031 C 
ATOM     33  C   UNL A   1      44.985  32.640  32.279  1.00  0.00     0.029 A 
ATOM     34  C   UNL A   1      43.649  32.537  31.922  1.00  0.00     0.049 A 
ATOM     35  H   UNL A   1      42.640  30.912  31.033  1.00  0.00     0.167 HD
ATOM     36  C   UNL A   1      41.315  33.378  31.673  1.00  0.00     0.074 A 
ATOM     37  C   UNL A   1      40.295  34.400  31.810  1.00  0.00     0.031 C 
ATOM     38  C   UNL A   1      42.604  33.521  32.071  1.00  0.00     0.037 A 
BRANCH  25  39
ATOM     39  C   UNL A   1      46.218  28.585  31.106  1.00  0.00     0.064 A 
ATOM     40  C   UNL A   1      47.271  28.855  30.217  1.00  0.00     0.173 A 
ATOM     41  C   UNL A   1      46.484  27.737  32.192  1.00  0.00     0.173 A 
ATOM     42  F   UNL A   1      47.072  29.656  29.159  1.00  0.00    -0.203 F 
ATOM     43  C   UNL A   1      48.530  28.287  30.397  1.00  0.00     0.198 A 
ATOM     44  C   UNL A   1      47.752  27.191  32.384  1.00  0.00     0.198 A 
ATOM     45  F   UNL A   1      45.520  27.449  33.078  1.00  0.00    -0.203 F 
ATOM     46  F   UNL A   1      49.508  28.535  29.515  1.00  0.00    -0.200 F 
ATOM     47  C   UNL A   1      48.772  27.462  31.484  1.00  0.00     0.200 A 
ATOM     48  F   UNL A   1      47.989  26.405  33.444  1.00  0.00    -0.200 F 
ATOM     49  F   UNL A   1      49.988  26.927  31.665  1.00  0.00    -0.200 F 
ENDBRANCH  25  39
BRANCH  26  50
ATOM     50  C   UNL A   1      36.964  32.369  30.115  1.00  0.00     0.064 A 
ATOM     51  C   UNL A   1      36.025  32.243  31.147  1.00  0.00     0.173 A 
ATOM     52  C   UNL A   1      36.604  33.120  28.988  1.00  0.00     0.173 A 
ATOM     53  F   UNL A   1      36.327  31.532  32.243  1.00  0.00    -0.203 F 
ATOM     54  C   UNL A   1      34.779  32.857  31.062  1.00  0.00     0.198 A 
ATOM     55  C   UNL A   1      35.363  33.751  28.912  1.00  0.00     0.198 A 
ATOM     56  F   UNL A   1      37.478  33.285  27.983  1.00  0.00    -0.203 F 
ATOM     57  F   UNL A   1      33.899  32.724  32.063  1.00  0.00    -0.200 F 
ATOM     58  C   UNL A   1      34.453  33.621  29.950  1.00  0.00     0.200 A 
ATOM     59  F   UNL A   1      35.061  34.506  27.847  1.00  0.00    -0.200 F 
ATOM     60  F   UNL A   1      33.266  34.239  29.884  1.00  0.00    -0.200 F 
ENDBRANCH  26  50
BRANCH  38  61
ATOM     61  C   UNL A   1      42.971  34.821  32.716  1.00  0.00     0.064 A 
ATOM     62  C   UNL A   1      42.935  34.975  34.110  1.00  0.00     0.173 A 
ATOM     63  C   UNL A   1      43.416  35.903  31.942  1.00  0.00     0.173 A 
ATOM     64  F   UNL A   1      42.501  33.973  34.888  1.00  0.00    -0.203 F 
ATOM     65  C   UNL A   1      43.317  36.173  34.705  1.00  0.00     0.198 A 
ATOM     66  C   UNL A   1      43.823  37.090  32.543  1.00  0.00     0.198 A 
ATOM     67  F   UNL A   1      43.474  35.801  30.606  1.00  0.00    -0.203 F 
ATOM     68  F   UNL A   1      43.241  36.311  36.035  1.00  0.00    -0.200 F 
ATOM     69  C   UNL A   1      43.770  37.226  33.923  1.00  0.00     0.200 A 
ATOM     70  F   UNL A   1      44.271  38.102  31.788  1.00  0.00    -0.200 F 
ATOM     71  F   UNL A   1      44.148  38.374  34.499  1.00  0.00    -0.200 F 
ENDBRANCH  38  61
ENDBRANCH  12  13
ENDBRANCH   5   7
ENDBRANCH   4   5
ENDBRANCH   3   4
ENDBRANCH   2   3
ENDBRANCH   1   2
BRANCH   1  72
ATOM     72  C   UNL A   1      42.906  18.689  26.008  1.00  0.00     0.202 C 
BRANCH  72  73
ATOM     73  C   UNL A   1      44.162  19.284  25.377  1.00  0.00     0.261 C 
BRANCH  73  74
ATOM     74  O   UNL A   1      44.150  20.701  25.582  1.00  0.00    -0.460 OA
BRANCH  74  75
ATOM     75  C   UNL A   1      45.326  21.345  25.386  1.00  0.00     0.341 C 
ATOM     76  O   UNL A   1      46.360  20.882  24.933  1.00  0.00    -0.246 OA
BRANCH  75  77
ATOM     77  C   UNL A   1      45.089  22.792  25.560  1.00  0.00     0.101 A 
ATOM     78  C   UNL A   1      46.023  23.507  26.327  1.00  0.00     0.020 A 
ATOM     79  C   UNL A   1      44.031  23.465  24.946  1.00  0.00     0.130 A 
ATOM     80  C   UNL A   1      45.921  24.893  26.450  1.00  0.00     0.010 A 
ATOM     81  C   UNL A   1      43.919  24.847  25.078  1.00  0.00     0.055 A 
ATOM     82  C   UNL A   1      44.863  25.564  25.831  1.00  0.00    -0.014 A 
BRANCH  79  83
ATOM     83  O   UNL A   1      43.077  22.778  24.250  1.00  0.00    -0.507 OA
ATOM     84  H   UNL A   1      42.261  23.189  24.042  1.00  0.00     0.293 HD
ENDBRANCH  79  83
BRANCH  82  85
ATOM     85  C   UNL A   1      44.637  26.997  26.057  1.00  0.00    -0.011 A 
ATOM     86  C   UNL A   1      45.673  27.822  26.641  1.00  0.00     0.027 A 
ATOM     87  C   UNL A   1      43.435  27.531  25.784  1.00  0.00     0.080 A 
ATOM     88  C   UNL A   1      45.418  29.089  26.979  1.00  0.00     0.095 A 
ATOM     89  C   UNL A   1      43.147  28.954  26.130  1.00  0.00     0.255 A 
ATOM     90  N   UNL A   1      44.176  29.647  26.750  1.00  0.00    -0.258 N 
ATOM     91  O   UNL A   1      42.035  29.404  25.872  1.00  0.00    -0.269 OA
BRANCH  90  92
ATOM     92  C   UNL A   1      43.897  30.993  27.182  1.00  0.00     0.451 C 
ATOM     93  F   UNL A   1      44.605  31.311  28.291  1.00  0.00    -0.185 F 
ATOM     94  F   UNL A   1      44.209  31.884  26.210  1.00  0.00    -0.185 F 
ENDBRANCH  90  92
ENDBRANCH  82  85
ENDBRANCH  75  77
ENDBRANCH  74  75
ENDBRANCH  73  74
ENDBRANCH  72  73
ENDBRANCH   1  72
TORSDOF 17
ENDMDL
MODEL 2
REMARK VINA RESULT:      -9.7      4.579      7.292
REMARK SMILES O=C(OCCOCCOC(=O)c1ccc(-c2ccn(C(F)F)c(=O)c2)cc1O)c1ccc(-c2c3nc(c(-c4c(F)c(F)c(F)c(F)c4F)c4ccc([nH]4)c(-c4c(F)c(F)c(F)c(F)c4F)c4nc(c(-c5c(F)c(F)c(F)c(F)c5F)c5ccc2[nH]5)C=C4)C=C3)cc1
REMARK SMILES IDX 6 1 5 2 4 3 3 4 2 5 1 6 29 7 30 8 91 9 31 10 90 11 32 12
REMARK SMILES IDX 33 13 34 14 84 15 35 16 89 17 83 18 85 19 36 20 88 21 82 22
REMARK SMILES IDX 81 23 37 25 69 26 49 27 68 28 50 29 53 30 67 31 86 32 51 33
REMARK SMILES IDX 52 34 66 36 87 37 54 38 38 39 39 40 47 41 40 42 41 43 45 44
REMARK SMILES IDX 48 45 42 46 43 47 46 48 44 49 70 50 71 51 79 52 72 53 73 54
REMARK SMILES IDX 77 55 80 56 74 57 75 58 78 59 76 60 55 61 56 62 64 63 57 64
REMARK SMILES IDX 58 65 62 66 65 67 59 68 60 69 63 70 61 71 7 72 8 73 9 74
REMARK SMILES IDX 10 75 11 76 12 77 13 78 27 79 14 80 26 81 15 82 28 83 16 85
REMARK SMILES IDX 17 86 25 87 18 88 23 89 19 90 24 91 20 92 21 93 22 94
REMARK H PARENT 85 24 53 35 28 84
REMARK Flexibility Score: inf
ROOT
ATOM      1  O   UNL A   1      34.906  20.140  24.750  1.00  0.00    -0.374 OA
ENDROOT
BRANCH   1   2
ATOM      2  C   UNL A   1      35.572  21.222  25.402  1.00  0.00     0.202 C 
BRANCH   2   3
ATOM      3  C   UNL A   1      36.998  21.445  24.897  1.00  0.00     0.261 C 
BRANCH   3   4
ATOM      4  O   UNL A   1      37.579  22.631  25.456  1.00  0.00    -0.460 OA
BRANCH   4   5
ATOM      5  C   UNL A   1      38.735  22.797  26.136  1.00  0.00     0.338 C 
ATOM      6  O   UNL A   1      39.398  21.784  26.367  1.00  0.00    -0.246 OA
BRANCH   5   7
ATOM      7  C   UNL A   1      39.275  24.102  26.655  1.00  0.00     0.060 A 
ATOM      8  C   UNL A   1      38.922  24.428  27.981  1.00  0.00     0.016 A 
ATOM      9  C   UNL A   1      40.035  25.041  25.951  1.00  0.00     0.016 A 
ATOM     10  C   UNL A   1      39.285  25.647  28.559  1.00  0.00     0.010 A 
ATOM     11  C   UNL A   1      40.398  26.263  26.516  1.00  0.00     0.010 A 
ATOM     12  C   UNL A   1      40.020  26.573  27.819  1.00  0.00    -0.014 A 
BRANCH  12  13
ATOM     13  C   UNL A   1      40.509  27.824  28.418  1.00  0.00     0.031 A 
ATOM     14  C   UNL A   1      41.942  27.979  28.813  1.00  0.00     0.074 A 
ATOM     15  C   UNL A   1      39.598  28.772  28.689  1.00  0.00     0.049 A 
ATOM     16  N   UNL A   1      42.549  29.027  29.304  1.00  0.00    -0.248 NA
ATOM     17  C   UNL A   1      42.804  26.797  28.658  1.00  0.00     0.031 C 
ATOM     18  C   UNL A   1      38.164  28.649  28.423  1.00  0.00     0.029 A 
ATOM     19  N   UNL A   1      39.731  30.006  29.261  1.00  0.00    -0.354 N 
ATOM     20  C   UNL A   1      43.869  28.644  29.492  1.00  0.00     0.074 A 
ATOM     21  C   UNL A   1      43.964  27.249  29.119  1.00  0.00     0.031 C 
ATOM     22  C   UNL A   1      37.548  29.768  28.827  1.00  0.00     0.029 A 
ATOM     23  C   UNL A   1      38.544  30.683  29.373  1.00  0.00     0.049 A 
ATOM     24  H   UNL A   1      40.594  30.373  29.563  1.00  0.00     0.167 HD
ATOM     25  C   UNL A   1      44.902  29.409  29.921  1.00  0.00     0.037 A 
ATOM     26  C   UNL A   1      38.296  31.917  29.846  1.00  0.00     0.037 A 
ATOM     27  C   UNL A   1      44.758  30.788  30.312  1.00  0.00     0.049 A 
ATOM     28  C   UNL A   1      39.456  32.752  30.297  1.00  0.00     0.074 A 
ATOM     29  C   UNL A   1      45.738  31.689  30.689  1.00  0.00     0.029 A 
ATOM     30  N   UNL A   1      43.544  31.460  30.395  1.00  0.00    -0.354 N 
ATOM     31  N   UNL A   1      40.728  32.432  30.348  1.00  0.00    -0.248 NA
ATOM     32  C   UNL A   1      39.158  34.120  30.730  1.00  0.00     0.031 C 
ATOM     33  C   UNL A   1      45.111  32.889  31.047  1.00  0.00     0.029 A 
ATOM     34  C   UNL A   1      43.745  32.753  30.847  1.00  0.00     0.049 A 
ATOM     35  H   UNL A   1      42.669  31.072  30.166  1.00  0.00     0.167 HD
ATOM     36  C   UNL A   1      41.386  33.559  30.812  1.00  0.00     0.074 A 
ATOM     37  C   UNL A   1      40.372  34.579  31.006  1.00  0.00     0.031 C 
ATOM     38  C   UNL A   1      42.709  33.735  31.057  1.00  0.00     0.037 A 
BRANCH  25  39
ATOM     39  C   UNL A   1      46.267  28.784  29.970  1.00  0.00     0.064 A 
ATOM     40  C   UNL A   1      47.087  28.732  28.831  1.00  0.00     0.173 A 
ATOM     41  C   UNL A   1      46.791  28.288  31.172  1.00  0.00     0.173 A 
ATOM     42  F   UNL A   1      46.636  29.188  27.653  1.00  0.00    -0.203 F 
ATOM     43  C   UNL A   1      48.369  28.190  28.891  1.00  0.00     0.198 A 
ATOM     44  C   UNL A   1      48.084  27.771  31.235  1.00  0.00     0.198 A 
ATOM     45  F   UNL A   1      46.057  28.319  32.295  1.00  0.00    -0.203 F 
ATOM     46  F   UNL A   1      49.119  28.122  27.781  1.00  0.00    -0.200 F 
ATOM     47  C   UNL A   1      48.869  27.718  30.094  1.00  0.00     0.200 A 
ATOM     48  F   UNL A   1      48.572  27.328  32.402  1.00  0.00    -0.200 F 
ATOM     49  F   UNL A   1      50.108  27.210  30.153  1.00  0.00    -0.200 F 
ENDBRANCH  25  39
BRANCH  26  50
ATOM     50  C   UNL A   1      36.905  32.427  29.805  1.00  0.00     0.064 A 
ATOM     51  C   UNL A   1      36.070  32.301  30.922  1.00  0.00     0.173 A 
ATOM     52  C   UNL A   1      36.429  33.159  28.707  1.00  0.00     0.173 A 
ATOM     53  F   UNL A   1      36.484  31.608  31.992  1.00  0.00    -0.203 F 
ATOM     54  C   UNL A   1      34.811  32.896  30.947  1.00  0.00     0.198 A 
ATOM     55  C   UNL A   1      35.177  33.771  28.742  1.00  0.00     0.198 A 
ATOM     56  F   UNL A   1      37.201  33.324  27.623  1.00  0.00    -0.203 F 
ATOM     57  F   UNL A   1      34.032  32.763  32.029  1.00  0.00    -0.200 F 
ATOM     58  C   UNL A   1      34.370  33.641  29.863  1.00  0.00     0.200 A 
ATOM     59  F   UNL A   1      34.764  34.508  27.702  1.00  0.00    -0.200 F 
ATOM     60  F   UNL A   1      33.173  34.241  29.902  1.00  0.00    -0.200 F 
ENDBRANCH  26  50
BRANCH  38  61
ATOM     61  C   UNL A   1      43.126  35.074  31.584  1.00  0.00     0.064 A 
ATOM     62  C   UNL A   1      43.544  36.096  30.720  1.00  0.00     0.173 A 
ATOM     63  C   UNL A   1      43.053  35.356  32.956  1.00  0.00     0.173 A 
ATOM     64  F   UNL A   1      43.643  35.866  29.402  1.00  0.00    -0.203 F 
ATOM     65  C   UNL A   1      43.889  37.350  31.212  1.00  0.00     0.198 A 
ATOM     66  C   UNL A   1      43.374  36.619  33.442  1.00  0.00     0.198 A 
ATOM     67  F   UNL A   1      42.653  34.412  33.821  1.00  0.00    -0.203 F 
ATOM     68  F   UNL A   1      44.320  38.301  30.374  1.00  0.00    -0.200 F 
ATOM     69  C   UNL A   1      43.796  37.613  32.572  1.00  0.00     0.200 A 
ATOM     70  F   UNL A   1      43.272  36.877  34.753  1.00  0.00    -0.200 F 
ATOM     71  F   UNL A   1      44.118  38.826  33.042  1.00  0.00    -0.200 F 
ENDBRANCH  38  61
ENDBRANCH  12  13
ENDBRANCH   5   7
ENDBRANCH   4   5
ENDBRANCH   3   4
ENDBRANCH   2   3
ENDBRANCH   1   2
BRANCH   1  72
ATOM     72  C   UNL A   1      33.488  20.296  24.621  1.00  0.00     0.202 C 
BRANCH  72  73
ATOM     73  C   UNL A   1      33.071  21.724  24.970  1.00  0.00     0.261 C 
BRANCH  73  74
ATOM     74  O   UNL A   1      32.409  22.296  23.836  1.00  0.00    -0.460 OA
BRANCH  74  75
ATOM     75  C   UNL A   1      33.124  23.197  23.119  1.00  0.00     0.341 C 
ATOM     76  O   UNL A   1      34.155  23.003  22.497  1.00  0.00    -0.246 OA
BRANCH  75  77
ATOM     77  C   UNL A   1      32.306  24.420  22.978  1.00  0.00     0.101 A 
ATOM     78  C   UNL A   1      31.009  24.388  23.515  1.00  0.00     0.020 A 
ATOM     79  C   UNL A   1      32.793  25.595  22.403  1.00  0.00     0.130 A 
ATOM     80  C   UNL A   1      30.216  25.535  23.510  1.00  0.00     0.010 A 
ATOM     81  C   UNL A   1      31.999  26.739  22.386  1.00  0.00     0.055 A 
ATOM     82  C   UNL A   1      30.709  26.711  22.938  1.00  0.00    -0.014 A 
BRANCH  79  83
ATOM     83  O   UNL A   1      34.027  25.626  21.819  1.00  0.00    -0.507 OA
ATOM     84  H   UNL A   1      34.767  25.940  22.302  1.00  0.00     0.293 HD
ENDBRANCH  79  83
BRANCH  82  85
ATOM     85  C   UNL A   1      29.854  27.895  22.782  1.00  0.00    -0.011 A 
ATOM     86  C   UNL A   1      30.412  29.153  22.333  1.00  0.00     0.027 A 
ATOM     87  C   UNL A   1      28.557  27.828  23.126  1.00  0.00     0.080 A 
ATOM     88  C   UNL A   1      29.666  30.261  22.330  1.00  0.00     0.095 A 
ATOM     89  C   UNL A   1      27.706  29.052  23.098  1.00  0.00     0.255 A 
ATOM     90  N   UNL A   1      28.343  30.225  22.723  1.00  0.00    -0.258 N 
ATOM     91  O   UNL A   1      26.528  28.953  23.427  1.00  0.00    -0.269 OA
BRANCH  90  92
ATOM     92  C   UNL A   1      27.573  31.442  22.778  1.00  0.00     0.451 C 
ATOM     93  F   UNL A   1      27.881  32.171  23.876  1.00  0.00    -0.185 F 
ATOM     94  F   UNL A   1      27.803  32.207  21.683  1.00  0.00    -0.185 F 
ENDBRANCH  90  92
ENDBRANCH  82  85
ENDBRANCH  75  77
ENDBRANCH  74  75
ENDBRANCH  73  74
ENDBRANCH  72  73
ENDBRANCH   1  72
TORSDOF 17
ENDMDL
MODEL 3
REMARK VINA RESULT:      -9.7      5.485     10.815
REMARK SMILES O=C(OCCOCCOC(=O)c1ccc(-c2ccn(C(F)F)c(=O)c2)cc1O)c1ccc(-c2c3nc(c(-c4c(F)c(F)c(F)c(F)c4F)c4ccc([nH]4)c(-c4c(F)c(F)c(F)c(F)c4F)c4nc(c(-c5c(F)c(F)c(F)c(F)c5F)c5ccc2[nH]5)C=C4)C=C3)cc1
REMARK SMILES IDX 6 1 5 2 4 3 3 4 2 5 1 6 29 7 30 8 91 9 31 10 90 11 32 12
REMARK SMILES IDX 33 13 34 14 84 15 35 16 89 17 83 18 85 19 36 20 88 21 82 22
REMARK SMILES IDX 81 23 37 25 69 26 49 27 68 28 50 29 53 30 67 31 86 32 51 33
REMARK SMILES IDX 52 34 66 36 87 37 54 38 38 39 39 40 47 41 40 42 41 43 45 44
REMARK SMILES IDX 48 45 42 46 43 47 46 48 44 49 70 50 71 51 79 52 72 53 73 54
REMARK SMILES IDX 77 55 80 56 74 57 75 58 78 59 76 60 55 61 56 62 64 63 57 64
REMARK SMILES IDX 58 65 62 66 65 67 59 68 60 69 63 70 61 71 7 72 8 73 9 74
REMARK SMILES IDX 10 75 11 76 12 77 13 78 27 79 14 80 26 81 15 82 28 83 16 85
REMARK SMILES IDX 17 86 25 87 18 88 23 89 19 90 24 91 20 92 21 93 22 94
REMARK H PARENT 85 24 53 35 28 84
REMARK Flexibility Score: inf
ROOT
ATOM      1  O   UNL A   1      31.823  30.640  26.219  1.00  0.00    -0.374 OA
ENDROOT
BRANCH   1   2
ATOM      2  C   UNL A   1      31.361  31.825  26.869  1.00  0.00     0.202 C 
BRANCH   2   3
ATOM      3  C   UNL A   1      32.351  32.987  26.780  1.00  0.00     0.261 C 
BRANCH   3   4
ATOM      4  O   UNL A   1      32.135  33.948  27.823  1.00  0.00    -0.460 OA
BRANCH   4   5
ATOM      5  C   UNL A   1      33.025  34.615  28.590  1.00  0.00     0.338 C 
ATOM      6  O   UNL A   1      32.801  35.809  28.797  1.00  0.00    -0.246 OA
BRANCH   5   7
ATOM      7  C   UNL A   1      34.274  34.036  29.199  1.00  0.00     0.060 A 
ATOM      8  C   UNL A   1      34.074  33.044  30.181  1.00  0.00     0.016 A 
ATOM      9  C   UNL A   1      35.594  34.413  28.936  1.00  0.00     0.016 A 
ATOM     10  C   UNL A   1      35.142  32.482  30.886  1.00  0.00     0.010 A 
ATOM     11  C   UNL A   1      36.667  33.864  29.637  1.00  0.00     0.010 A 
ATOM     12  C   UNL A   1      36.445  32.901  30.618  1.00  0.00    -0.014 A 
BRANCH  12  13
ATOM     13  C   UNL A   1      37.605  32.268  31.262  1.00  0.00     0.031 A 
ATOM     14  C   UNL A   1      38.091  32.731  32.598  1.00  0.00     0.074 A 
ATOM     15  C   UNL A   1      38.267  31.337  30.557  1.00  0.00     0.049 A 
ATOM     16  N   UNL A   1      39.063  32.251  33.328  1.00  0.00    -0.248 NA
ATOM     17  C   UNL A   1      37.413  33.898  33.183  1.00  0.00     0.031 C 
ATOM     18  C   UNL A   1      37.909  30.907  29.204  1.00  0.00     0.029 A 
ATOM     19  N   UNL A   1      39.379  30.603  30.861  1.00  0.00    -0.354 N 
ATOM     20  C   UNL A   1      39.098  33.037  34.470  1.00  0.00     0.074 A 
ATOM     21  C   UNL A   1      38.089  34.063  34.312  1.00  0.00     0.031 C 
ATOM     22  C   UNL A   1      38.784  29.978  28.796  1.00  0.00     0.029 A 
ATOM     23  C   UNL A   1      39.756  29.748  29.859  1.00  0.00     0.049 A 
ATOM     24  H   UNL A   1      39.863  30.682  31.716  1.00  0.00     0.167 HD
ATOM     25  C   UNL A   1      39.896  32.889  35.556  1.00  0.00     0.037 A 
ATOM     26  C   UNL A   1      40.764  28.860  29.816  1.00  0.00     0.037 A 
ATOM     27  C   UNL A   1      40.910  31.870  35.661  1.00  0.00     0.049 A 
ATOM     28  C   UNL A   1      41.622  28.698  31.035  1.00  0.00     0.074 A 
ATOM     29  C   UNL A   1      41.727  31.569  36.735  1.00  0.00     0.029 A 
ATOM     30  N   UNL A   1      41.257  30.998  34.637  1.00  0.00    -0.354 N 
ATOM     31  N   UNL A   1      41.567  29.354  32.171  1.00  0.00    -0.248 NA
ATOM     32  C   UNL A   1      42.660  27.665  30.982  1.00  0.00     0.031 C 
ATOM     33  C   UNL A   1      42.602  30.548  36.344  1.00  0.00     0.029 A 
ATOM     34  C   UNL A   1      42.298  30.178  35.041  1.00  0.00     0.049 A 
ATOM     35  H   UNL A   1      40.827  30.967  33.752  1.00  0.00     0.167 HD
ATOM     36  C   UNL A   1      42.557  28.811  32.973  1.00  0.00     0.074 A 
ATOM     37  C   UNL A   1      43.182  27.754  32.199  1.00  0.00     0.031 C 
ATOM     38  C   UNL A   1      42.917  29.154  34.235  1.00  0.00     0.037 A 
BRANCH  25  39
ATOM     39  C   UNL A   1      39.693  33.826  36.712  1.00  0.00     0.064 A 
ATOM     40  C   UNL A   1      38.869  33.481  37.796  1.00  0.00     0.173 A 
ATOM     41  C   UNL A   1      40.370  35.053  36.774  1.00  0.00     0.173 A 
ATOM     42  F   UNL A   1      38.194  32.322  37.788  1.00  0.00    -0.203 F 
ATOM     43  C   UNL A   1      38.717  34.335  38.886  1.00  0.00     0.198 A 
ATOM     44  C   UNL A   1      40.237  35.893  37.878  1.00  0.00     0.198 A 
ATOM     45  F   UNL A   1      41.177  35.432  35.772  1.00  0.00    -0.203 F 
ATOM     46  F   UNL A   1      37.899  33.996  39.892  1.00  0.00    -0.200 F 
ATOM     47  C   UNL A   1      39.408  35.536  38.930  1.00  0.00     0.200 A 
ATOM     48  F   UNL A   1      40.916  37.048  37.926  1.00  0.00    -0.200 F 
ATOM     49  F   UNL A   1      39.272  36.351  39.986  1.00  0.00    -0.200 F 
ENDBRANCH  25  39
BRANCH  26  50
ATOM     50  C   UNL A   1      40.916  28.014  28.609  1.00  0.00     0.064 A 
ATOM     51  C   UNL A   1      40.204  26.814  28.489  1.00  0.00     0.173 A 
ATOM     52  C   UNL A   1      41.667  28.444  27.505  1.00  0.00     0.173 A 
ATOM     53  F   UNL A   1      39.475  26.363  29.521  1.00  0.00    -0.203 F 
ATOM     54  C   UNL A   1      40.229  26.079  27.307  1.00  0.00     0.198 A 
ATOM     55  C   UNL A   1      41.675  27.718  26.316  1.00  0.00     0.198 A 
ATOM     56  F   UNL A   1      42.349  29.598  27.566  1.00  0.00    -0.203 F 
ATOM     57  F   UNL A   1      39.537  24.935  27.217  1.00  0.00    -0.200 F 
ATOM     58  C   UNL A   1      40.955  26.537  26.217  1.00  0.00     0.200 A 
ATOM     59  F   UNL A   1      42.359  28.176  25.257  1.00  0.00    -0.200 F 
ATOM     60  F   UNL A   1      40.951  25.847  25.069  1.00  0.00    -0.200 F 
ENDBRANCH  26  50
BRANCH  38  61
ATOM     61  C   UNL A   1      44.055  28.394  34.843  1.00  0.00     0.064 A 
ATOM     62  C   UNL A   1      45.369  28.880  34.776  1.00  0.00     0.173 A 
ATOM     63  C   UNL A   1      43.826  27.202  35.545  1.00  0.00     0.173 A 
ATOM     64  F   UNL A   1      45.638  30.008  34.102  1.00  0.00    -0.203 F 
ATOM     65  C   UNL A   1      46.416  28.191  35.379  1.00  0.00     0.198 A 
ATOM     66  C   UNL A   1      44.871  26.529  36.169  1.00  0.00     0.198 A 
ATOM     67  F   UNL A   1      42.585  26.701  35.640  1.00  0.00    -0.203 F 
ATOM     68  F   UNL A   1      47.669  28.653  35.273  1.00  0.00    -0.200 F 
ATOM     69  C   UNL A   1      46.165  27.021  36.083  1.00  0.00     0.200 A 
ATOM     70  F   UNL A   1      44.627  25.406  36.858  1.00  0.00    -0.200 F 
ATOM     71  F   UNL A   1      47.174  26.365  36.672  1.00  0.00    -0.200 F 
ENDBRANCH  38  61
ENDBRANCH  12  13
ENDBRANCH   5   7
ENDBRANCH   4   5
ENDBRANCH   3   4
ENDBRANCH   2   3
ENDBRANCH   1   2
BRANCH   1  72
ATOM     72  C   UNL A   1      31.126  30.305  25.012  1.00  0.00     0.202 C 
BRANCH  72  73
ATOM     73  C   UNL A   1      31.455  28.877  24.581  1.00  0.00     0.261 C 
BRANCH  73  74
ATOM     74  O   UNL A   1      32.864  28.669  24.729  1.00  0.00    -0.460 OA
BRANCH  74  75
ATOM     75  C   UNL A   1      33.523  28.234  23.628  1.00  0.00     0.341 C 
ATOM     76  O   UNL A   1      34.150  28.904  22.824  1.00  0.00    -0.246 OA
BRANCH  75  77
ATOM     77  C   UNL A   1      33.595  26.760  23.691  1.00  0.00     0.101 A 
ATOM     78  C   UNL A   1      33.659  26.176  24.966  1.00  0.00     0.020 A 
ATOM     79  C   UNL A   1      33.535  25.949  22.555  1.00  0.00     0.130 A 
ATOM     80  C   UNL A   1      33.627  24.789  25.108  1.00  0.00     0.010 A 
ATOM     81  C   UNL A   1      33.515  24.564  22.693  1.00  0.00     0.055 A 
ATOM     82  C   UNL A   1      33.562  23.981  23.969  1.00  0.00    -0.014 A 
BRANCH  79  83
ATOM     83  O   UNL A   1      33.536  26.499  21.305  1.00  0.00    -0.507 OA
ATOM     84  H   UNL A   1      33.899  26.023  20.584  1.00  0.00     0.293 HD
ENDBRANCH  79  83
BRANCH  82  85
ATOM     85  C   UNL A   1      33.674  22.520  24.069  1.00  0.00    -0.011 A 
ATOM     86  C   UNL A   1      32.525  21.674  23.824  1.00  0.00     0.027 A 
ATOM     87  C   UNL A   1      34.835  21.968  24.459  1.00  0.00     0.080 A 
ATOM     88  C   UNL A   1      32.590  20.361  24.055  1.00  0.00     0.095 A 
ATOM     89  C   UNL A   1      34.929  20.497  24.692  1.00  0.00     0.255 A 
ATOM     90  N   UNL A   1      33.760  19.777  24.500  1.00  0.00    -0.258 N 
ATOM     91  O   UNL A   1      36.005  20.031  25.055  1.00  0.00    -0.269 OA
BRANCH  90  92
ATOM     92  C   UNL A   1      33.794  18.370  24.809  1.00  0.00     0.451 C 
ATOM     93  F   UNL A   1      32.606  17.944  25.299  1.00  0.00    -0.185 F 
ATOM     94  F   UNL A   1      34.081  17.642  23.702  1.00  0.00    -0.185 F 
ENDBRANCH  90  92
ENDBRANCH  82  85
ENDBRANCH  75  77
ENDBRANCH  74  75
ENDBRANCH  73  74
ENDBRANCH  72  73
ENDBRANCH   1  72
TORSDOF 17
ENDMDL
