MODEL 1
REMARK VINA RESULT:     -12.3      0.000      0.000
REMARK SMILES O=C(OCCOCCOC(=O)c1ccc(-c2c3nc(c(-c4c(F)c(F)c(F)c(F)c4F)c4ccc([nH]4)c(-c4c(F)c(F)c(F)c(F)c4F)c4nc(c(-c5c(F)c(F)c(F)c(F)c5F)c5ccc2[nH]5)C=C4)C=C3)cc1)C1=Cc2cc(S(F)(F)(F)(F)F)cc(Br)c2O[C@H]1C(F)(F)F
REMARK SMILES IDX 7 1 6 2 5 3 4 4 3 5 2 6 1 7 75 8 76 9 91 10 77 11 90 12
REMARK SMILES IDX 78 13 89 14 79 15 87 16 86 17 88 18 92 19 93 20 94 21 95 22
REMARK SMILES IDX 80 23 81 24 82 25 83 26 84 27 85 28 8 29 9 30 10 31 11 32
REMARK SMILES IDX 12 33 13 34 74 35 14 36 73 37 15 38 16 39 17 40 67 41 18 42
REMARK SMILES IDX 72 43 66 44 68 45 19 46 71 47 65 48 64 49 20 51 52 52 32 53
REMARK SMILES IDX 51 54 33 55 36 56 50 57 69 58 34 59 35 60 49 62 70 63 37 64
REMARK SMILES IDX 21 65 22 66 30 67 23 68 24 69 28 70 31 71 25 72 26 73 29 74
REMARK SMILES IDX 27 75 53 76 54 77 62 78 55 79 56 80 60 81 63 82 57 83 58 84
REMARK SMILES IDX 61 85 59 86 38 87 39 88 47 89 40 90 41 91 45 92 48 93 42 94
REMARK SMILES IDX 43 95 46 96 44 97
REMARK H PARENT 68 50 36 61
REMARK Flexibility Score: inf
ROOT
ATOM      1  C   UNL A   1      37.959  19.898  24.926  1.00  0.00     0.202 C 
ENDROOT
BRANCH   1   2
ATOM      2  O   UNL A   1      36.923  20.816  25.245  1.00  0.00    -0.374 OA
BRANCH   2   3
ATOM      3  C   UNL A   1      37.251  22.097  24.728  1.00  0.00     0.202 C 
BRANCH   3   4
ATOM      4  C   UNL A   1      36.159  22.553  23.774  1.00  0.00     0.261 C 
BRANCH   4   5
ATOM      5  O   UNL A   1      35.017  22.951  24.518  1.00  0.00    -0.460 OA
BRANCH   5   6
ATOM      6  C   UNL A   1      33.714  22.674  24.023  1.00  0.00     0.338 C 
ATOM      7  O   UNL A   1      33.531  22.495  22.779  1.00  0.00    -0.246 OA
BRANCH   6   8
ATOM      8  C   UNL A   1      32.539  22.593  24.985  1.00  0.00     0.087 C 
ATOM      9  C   UNL A   1      32.003  23.730  25.503  1.00  0.00     0.027 C 
ATOM     10  C   UNL A   1      31.965  21.238  25.368  1.00  0.00     0.316 C 
ATOM     11  C   UNL A   1      32.579  25.084  25.120  1.00  0.00     0.020 A 
ATOM     12  O   UNL A   1      32.797  24.323  22.879  1.00  0.00    -0.474 OA
ATOM     13  C   UNL A   1      32.781  26.022  26.118  1.00  0.00     0.036 A 
ATOM     14  C   UNL A   1      32.863  25.356  23.852  1.00  0.00     0.142 A 
ATOM     15  C   UNL A   1      33.020  27.331  25.636  1.00  0.00     0.109 A 
ATOM     16  C   UNL A   1      33.222  26.627  23.472  1.00  0.00     0.062 A 
ATOM     17  C   UNL A   1      33.383  27.619  24.400  1.00  0.00     0.044 A 
ATOM     18  Br  UNL A   1      33.506  27.024  21.574  1.00  0.00    -0.047 Br
BRANCH  10  19
ATOM     19  C   UNL A   1      32.738  20.140  24.657  1.00  0.00     0.430 C 
ATOM     20  F   UNL A   1      32.250  19.004  25.149  1.00  0.00    -0.167 F 
ATOM     21  F   UNL A   1      32.613  20.138  23.333  1.00  0.00    -0.167 F 
ATOM     22  F   UNL A   1      34.023  20.248  24.982  1.00  0.00    -0.167 F 
ENDBRANCH  10  19
BRANCH  15  23
ATOM     23  S   UNL A   1      32.813  28.706  26.795  1.00  0.00     0.310 S 
ATOM     24  F   UNL A   1      32.192  27.758  27.904  1.00  0.00    -0.094 F 
ATOM     25  F   UNL A   1      31.350  28.910  26.248  1.00  0.00    -0.094 F 
ATOM     26  F   UNL A   1      32.635  29.887  27.791  1.00  0.00    -0.094 F 
ATOM     27  F   UNL A   1      34.228  28.397  27.425  1.00  0.00    -0.094 F 
ATOM     28  F   UNL A   1      32.966  27.435  25.868  1.00  0.00    -0.094 F 
ENDBRANCH  15  23
ENDBRANCH   6   8
ENDBRANCH   5   6
ENDBRANCH   4   5
ENDBRANCH   3   4
ENDBRANCH   2   3
ENDBRANCH   1   2
BRANCH   1  29
ATOM     29  C   UNL A   1      39.236  20.307  25.644  1.00  0.00     0.261 C 
BRANCH  29  30
ATOM     30  O   UNL A   1      40.060  19.166  25.831  1.00  0.00    -0.460 OA
BRANCH  30  31
ATOM     31  C   UNL A   1      41.461  19.321  26.001  1.00  0.00     0.338 C 
ATOM     32  O   UNL A   1      42.235  18.328  25.827  1.00  0.00    -0.246 OA
BRANCH  31  33
ATOM     33  C   UNL A   1      42.034  20.674  26.390  1.00  0.00     0.060 A 
ATOM     34  C   UNL A   1      42.035  21.021  27.731  1.00  0.00     0.016 A 
ATOM     35  C   UNL A   1      42.484  21.508  25.462  1.00  0.00     0.016 A 
ATOM     36  C   UNL A   1      42.269  22.397  27.966  1.00  0.00     0.010 A 
ATOM     37  C   UNL A   1      42.823  22.800  25.787  1.00  0.00     0.010 A 
ATOM     38  C   UNL A   1      42.791  23.229  27.084  1.00  0.00    -0.014 A 
BRANCH  38  39
ATOM     39  C   UNL A   1      43.330  24.592  27.491  1.00  0.00     0.031 A 
ATOM     40  C   UNL A   1      44.706  24.828  27.492  1.00  0.00     0.074 A 
ATOM     41  C   UNL A   1      42.380  25.545  27.816  1.00  0.00     0.049 A 
ATOM     42  N   UNL A   1      45.334  25.973  27.761  1.00  0.00    -0.248 NA
ATOM     43  C   UNL A   1      45.717  23.807  27.180  1.00  0.00     0.031 C 
ATOM     44  C   UNL A   1      40.991  25.316  27.809  1.00  0.00     0.029 A 
ATOM     45  N   UNL A   1      42.591  26.852  28.197  1.00  0.00    -0.354 N 
ATOM     46  C   UNL A   1      46.654  25.814  27.642  1.00  0.00     0.074 A 
ATOM     47  C   UNL A   1      46.919  24.417  27.272  1.00  0.00     0.031 C 
ATOM     48  C   UNL A   1      40.373  26.464  28.192  1.00  0.00     0.029 A 
ATOM     49  C   UNL A   1      41.365  27.431  28.443  1.00  0.00     0.049 A 
ATOM     50  H   UNL A   1      43.466  27.295  28.279  1.00  0.00     0.167 HD
ATOM     51  C   UNL A   1      47.646  26.779  27.824  1.00  0.00     0.037 A 
ATOM     52  C   UNL A   1      41.109  28.725  28.866  1.00  0.00     0.037 A 
ATOM     53  C   UNL A   1      47.385  28.086  28.204  1.00  0.00     0.049 A 
ATOM     54  C   UNL A   1      42.104  29.675  29.105  1.00  0.00     0.074 A 
ATOM     55  C   UNL A   1      48.372  29.074  28.386  1.00  0.00     0.029 A 
ATOM     56  N   UNL A   1      46.161  28.659  28.474  1.00  0.00    -0.354 N 
ATOM     57  N   UNL A   1      43.420  29.527  28.947  1.00  0.00    -0.248 NA
ATOM     58  C   UNL A   1      41.846  31.039  29.584  1.00  0.00     0.031 C 
ATOM     59  C   UNL A   1      47.755  30.223  28.768  1.00  0.00     0.029 A 
ATOM     60  C   UNL A   1      46.371  29.972  28.833  1.00  0.00     0.049 A 
ATOM     61  H   UNL A   1      45.289  28.206  28.420  1.00  0.00     0.167 HD
ATOM     62  C   UNL A   1      44.052  30.661  29.256  1.00  0.00     0.074 A 
ATOM     63  C   UNL A   1      43.047  31.648  29.677  1.00  0.00     0.031 C 
ATOM     64  C   UNL A   1      45.423  30.914  29.201  1.00  0.00     0.037 A 
BRANCH  51  65
ATOM     65  C   UNL A   1      49.092  26.374  27.593  1.00  0.00     0.064 A 
ATOM     66  C   UNL A   1      49.858  26.008  28.688  1.00  0.00     0.173 A 
ATOM     67  C   UNL A   1      49.580  26.312  26.360  1.00  0.00     0.173 A 
ATOM     68  F   UNL A   1      49.345  25.812  29.899  1.00  0.00    -0.203 F 
ATOM     69  C   UNL A   1      51.236  25.861  28.400  1.00  0.00     0.198 A 
ATOM     70  C   UNL A   1      50.908  26.029  26.146  1.00  0.00     0.198 A 
ATOM     71  F   UNL A   1      48.776  26.525  25.322  1.00  0.00    -0.203 F 
ATOM     72  F   UNL A   1      52.086  25.870  29.423  1.00  0.00    -0.200 F 
ATOM     73  C   UNL A   1      51.736  25.716  27.187  1.00  0.00     0.200 A 
ATOM     74  F   UNL A   1      51.393  26.061  24.907  1.00  0.00    -0.200 F 
ATOM     75  F   UNL A   1      52.980  25.288  26.989  1.00  0.00    -0.200 F 
ENDBRANCH  51  65
BRANCH  52  76
ATOM     76  C   UNL A   1      39.660  29.135  29.081  1.00  0.00     0.064 A 
ATOM     77  C   UNL A   1      39.130  29.104  30.361  1.00  0.00     0.173 A 
ATOM     78  C   UNL A   1      38.909  29.444  28.032  1.00  0.00     0.173 A 
ATOM     79  F   UNL A   1      39.881  29.051  31.456  1.00  0.00    -0.203 F 
ATOM     80  C   UNL A   1      37.716  29.135  30.396  1.00  0.00     0.198 A 
ATOM     81  C   UNL A   1      37.549  29.592  28.163  1.00  0.00     0.198 A 
ATOM     82  F   UNL A   1      39.478  29.611  26.841  1.00  0.00    -0.203 F 
ATOM     83  F   UNL A   1      37.116  28.752  31.519  1.00  0.00    -0.200 F 
ATOM     84  C   UNL A   1      36.950  29.516  29.390  1.00  0.00     0.200 A 
ATOM     85  F   UNL A   1      36.807  29.813  27.082  1.00  0.00    -0.200 F 
ATOM     86  F   UNL A   1      35.664  29.811  29.560  1.00  0.00    -0.200 F 
ENDBRANCH  52  76
BRANCH  64  87
ATOM     87  C   UNL A   1      45.907  32.308  29.567  1.00  0.00     0.064 A 
ATOM     88  C   UNL A   1      46.206  32.561  30.895  1.00  0.00     0.173 A 
ATOM     89  C   UNL A   1      46.000  33.260  28.646  1.00  0.00     0.173 A 
ATOM     90  F   UNL A   1      46.373  31.598  31.798  1.00  0.00    -0.203 F 
ATOM     91  C   UNL A   1      46.317  33.937  31.206  1.00  0.00     0.198 A 
ATOM     92  C   UNL A   1      46.246  34.562  29.009  1.00  0.00     0.198 A 
ATOM     93  F   UNL A   1      45.853  32.950  27.361  1.00  0.00    -0.203 F 
ATOM     94  F   UNL A   1      46.242  34.292  32.485  1.00  0.00    -0.200 F 
ATOM     95  C   UNL A   1      46.492  34.894  30.313  1.00  0.00     0.200 A 
ATOM     96  F   UNL A   1      46.245  35.513  28.080  1.00  0.00    -0.200 F 
ATOM     97  F   UNL A   1      46.884  36.116  30.662  1.00  0.00    -0.200 F 
ENDBRANCH  64  87
ENDBRANCH  38  39
ENDBRANCH  31  33
ENDBRANCH  30  31
ENDBRANCH  29  30
ENDBRANCH   1  29
TORSDOF 16
ENDMDL
MODEL 2
REMARK VINA RESULT:     -12.3      5.480     10.574
REMARK SMILES O=C(OCCOCCOC(=O)c1ccc(-c2c3nc(c(-c4c(F)c(F)c(F)c(F)c4F)c4ccc([nH]4)c(-c4c(F)c(F)c(F)c(F)c4F)c4nc(c(-c5c(F)c(F)c(F)c(F)c5F)c5ccc2[nH]5)C=C4)C=C3)cc1)C1=Cc2cc(S(F)(F)(F)(F)F)cc(Br)c2O[C@H]1C(F)(F)F
REMARK SMILES IDX 7 1 6 2 5 3 4 4 3 5 2 6 1 7 75 8 76 9 91 10 77 11 90 12
REMARK SMILES IDX 78 13 89 14 79 15 87 16 86 17 88 18 92 19 93 20 94 21 95 22
REMARK SMILES IDX 80 23 81 24 82 25 83 26 84 27 85 28 8 29 9 30 10 31 11 32
REMARK SMILES IDX 12 33 13 34 74 35 14 36 73 37 15 38 16 39 17 40 67 41 18 42
REMARK SMILES IDX 72 43 66 44 68 45 19 46 71 47 65 48 64 49 20 51 52 52 32 53
REMARK SMILES IDX 51 54 33 55 36 56 50 57 69 58 34 59 35 60 49 62 70 63 37 64
REMARK SMILES IDX 21 65 22 66 30 67 23 68 24 69 28 70 31 71 25 72 26 73 29 74
REMARK SMILES IDX 27 75 53 76 54 77 62 78 55 79 56 80 60 81 63 82 57 83 58 84
REMARK SMILES IDX 61 85 59 86 38 87 39 88 47 89 40 90 41 91 45 92 48 93 42 94
REMARK SMILES IDX 43 95 46 96 44 97
REMARK H PARENT 68 50 36 61
REMARK Flexibility Score: inf
ROOT
ATOM      1  C   UNL A   1      31.420  31.968  26.841  1.00  0.00     0.202 C 
ENDROOT
BRANCH   1   2
ATOM      2  O   UNL A   1      31.904  30.892  26.050  1.00  0.00    -0.374 OA
BRANCH   2   3
ATOM      3  C   UNL A   1      31.778  29.679  26.776  1.00  0.00     0.202 C 
BRANCH   3   4
ATOM      4  C   UNL A   1      32.165  28.511  25.882  1.00  0.00     0.261 C 
BRANCH   4   5
ATOM      5  O   UNL A   1      31.118  27.553  25.876  1.00  0.00    -0.460 OA
BRANCH   5   6
ATOM      6  C   UNL A   1      30.558  27.118  24.645  1.00  0.00     0.338 C 
ATOM      7  O   UNL A   1      29.418  26.558  24.627  1.00  0.00    -0.246 OA
BRANCH   6   8
ATOM      8  C   UNL A   1      31.326  27.321  23.349  1.00  0.00     0.087 C 
ATOM      9  C   UNL A   1      32.411  26.549  23.072  1.00  0.00     0.027 C 
ATOM     10  C   UNL A   1      30.881  28.390  22.363  1.00  0.00     0.316 C 
ATOM     11  C   UNL A   1      32.856  25.481  24.058  1.00  0.00     0.020 A 
ATOM     12  O   UNL A   1      30.576  24.921  24.431  1.00  0.00    -0.474 OA
ATOM     13  C   UNL A   1      34.206  25.365  24.342  1.00  0.00     0.036 A 
ATOM     14  C   UNL A   1      31.962  24.674  24.617  1.00  0.00     0.142 A 
ATOM     15  C   UNL A   1      34.550  24.168  25.014  1.00  0.00     0.109 A 
ATOM     16  C   UNL A   1      32.367  23.600  25.375  1.00  0.00     0.062 A 
ATOM     17  C   UNL A   1      33.691  23.391  25.647  1.00  0.00     0.044 A 
ATOM     18  Br  UNL A   1      31.027  22.353  26.076  1.00  0.00    -0.047 Br
BRANCH  10  19
ATOM     19  C   UNL A   1      29.656  29.104  22.909  1.00  0.00     0.430 C 
ATOM     20  F   UNL A   1      29.356  30.019  21.990  1.00  0.00    -0.167 F 
ATOM     21  F   UNL A   1      28.600  28.322  23.115  1.00  0.00    -0.167 F 
ATOM     22  F   UNL A   1      29.988  29.709  24.046  1.00  0.00    -0.167 F 
ENDBRANCH  10  19
BRANCH  15  23
ATOM     23  S   UNL A   1      36.290  23.668  25.005  1.00  0.00     0.310 S 
ATOM     24  F   UNL A   1      35.948  22.248  25.624  1.00  0.00    -0.094 F 
ATOM     25  F   UNL A   1      36.422  24.203  26.481  1.00  0.00    -0.094 F 
ATOM     26  F   UNL A   1      37.784  23.238  24.998  1.00  0.00    -0.094 F 
ATOM     27  F   UNL A   1      36.102  23.013  23.581  1.00  0.00    -0.094 F 
ATOM     28  F   UNL A   1      34.744  23.997  25.041  1.00  0.00    -0.094 F 
ENDBRANCH  15  23
ENDBRANCH   6   8
ENDBRANCH   5   6
ENDBRANCH   4   5
ENDBRANCH   3   4
ENDBRANCH   2   3
ENDBRANCH   1   2
BRANCH   1  29
ATOM     29  C   UNL A   1      32.594  32.786  27.356  1.00  0.00     0.261 C 
BRANCH  29  30
ATOM     30  O   UNL A   1      32.166  34.113  27.624  1.00  0.00    -0.460 OA
BRANCH  30  31
ATOM     31  C   UNL A   1      32.879  34.916  28.553  1.00  0.00     0.338 C 
ATOM     32  O   UNL A   1      32.528  36.121  28.751  1.00  0.00    -0.246 OA
BRANCH  31  33
ATOM     33  C   UNL A   1      34.062  34.334  29.309  1.00  0.00     0.060 A 
ATOM     34  C   UNL A   1      35.335  34.574  28.816  1.00  0.00     0.016 A 
ATOM     35  C   UNL A   1      33.871  33.587  30.389  1.00  0.00     0.016 A 
ATOM     36  C   UNL A   1      36.331  33.737  29.373  1.00  0.00     0.010 A 
ATOM     37  C   UNL A   1      34.918  32.904  30.961  1.00  0.00     0.010 A 
ATOM     38  C   UNL A   1      36.193  33.048  30.490  1.00  0.00    -0.014 A 
BRANCH  38  39
ATOM     39  C   UNL A   1      37.387  32.447  31.213  1.00  0.00     0.031 A 
ATOM     40  C   UNL A   1      37.757  32.926  32.471  1.00  0.00     0.074 A 
ATOM     41  C   UNL A   1      38.030  31.409  30.560  1.00  0.00     0.049 A 
ATOM     42  N   UNL A   1      38.733  32.474  33.259  1.00  0.00    -0.248 NA
ATOM     43  C   UNL A   1      37.097  34.051  33.151  1.00  0.00     0.031 C 
ATOM     44  C   UNL A   1      37.658  30.914  29.296  1.00  0.00     0.029 A 
ATOM     45  N   UNL A   1      39.117  30.682  30.995  1.00  0.00    -0.354 N 
ATOM     46  C   UNL A   1      38.771  33.175  34.395  1.00  0.00     0.074 A 
ATOM     47  C   UNL A   1      37.723  34.203  34.338  1.00  0.00     0.031 C 
ATOM     48  C   UNL A   1      38.514  29.912  28.966  1.00  0.00     0.029 A 
ATOM     49  C   UNL A   1      39.436  29.762  30.020  1.00  0.00     0.049 A 
ATOM     50  H   UNL A   1      39.584  30.800  31.853  1.00  0.00     0.167 HD
ATOM     51  C   UNL A   1      39.635  32.995  35.475  1.00  0.00     0.037 A 
ATOM     52  C   UNL A   1      40.469  28.840  30.031  1.00  0.00     0.037 A 
ATOM     53  C   UNL A   1      40.642  32.042  35.503  1.00  0.00     0.049 A 
ATOM     54  C   UNL A   1      41.372  28.698  31.087  1.00  0.00     0.074 A 
ATOM     55  C   UNL A   1      41.518  31.843  36.588  1.00  0.00     0.029 A 
ATOM     56  N   UNL A   1      40.976  31.138  34.519  1.00  0.00    -0.354 N 
ATOM     57  N   UNL A   1      41.384  29.372  32.238  1.00  0.00    -0.248 NA
ATOM     58  C   UNL A   1      42.490  27.745  31.096  1.00  0.00     0.031 C 
ATOM     59  C   UNL A   1      42.375  30.840  36.259  1.00  0.00     0.029 A 
ATOM     60  C   UNL A   1      42.048  30.397  34.963  1.00  0.00     0.049 A 
ATOM     61  H   UNL A   1      40.527  31.041  33.649  1.00  0.00     0.167 HD
ATOM     62  C   UNL A   1      42.387  28.946  33.010  1.00  0.00     0.074 A 
ATOM     63  C   UNL A   1      43.117  27.898  32.282  1.00  0.00     0.031 C 
ATOM     64  C   UNL A   1      42.720  29.387  34.292  1.00  0.00     0.037 A 
BRANCH  51  65
ATOM     65  C   UNL A   1      39.466  33.895  36.688  1.00  0.00     0.064 A 
ATOM     66  C   UNL A   1      40.061  35.146  36.671  1.00  0.00     0.173 A 
ATOM     67  C   UNL A   1      38.706  33.507  37.706  1.00  0.00     0.173 A 
ATOM     68  F   UNL A   1      40.613  35.671  35.581  1.00  0.00    -0.203 F 
ATOM     69  C   UNL A   1      40.030  35.813  37.919  1.00  0.00     0.198 A 
ATOM     70  C   UNL A   1      38.614  34.276  38.842  1.00  0.00     0.198 A 
ATOM     71  F   UNL A   1      38.028  32.366  37.625  1.00  0.00    -0.203 F 
ATOM     72  F   UNL A   1      40.869  36.829  38.098  1.00  0.00    -0.200 F 
ATOM     73  C   UNL A   1      39.225  35.496  38.916  1.00  0.00     0.200 A 
ATOM     74  F   UNL A   1      37.919  33.825  39.883  1.00  0.00    -0.200 F 
ATOM     75  F   UNL A   1      39.021  36.321  39.941  1.00  0.00    -0.200 F 
ENDBRANCH  51  65
BRANCH  52  76
ATOM     76  C   UNL A   1      40.629  27.928  28.824  1.00  0.00     0.064 A 
ATOM     77  C   UNL A   1      41.455  28.320  27.783  1.00  0.00     0.173 A 
ATOM     78  C   UNL A   1      39.919  26.809  28.756  1.00  0.00     0.173 A 
ATOM     79  F   UNL A   1      42.366  29.281  27.902  1.00  0.00    -0.203 F 
ATOM     80  C   UNL A   1      41.242  27.604  26.582  1.00  0.00     0.198 A 
ATOM     81  C   UNL A   1      39.863  26.085  27.589  1.00  0.00     0.198 A 
ATOM     82  F   UNL A   1      39.254  26.384  29.827  1.00  0.00    -0.203 F 
ATOM     83  F   UNL A   1      41.711  28.132  25.455  1.00  0.00    -0.200 F 
ATOM     84  C   UNL A   1      40.608  26.448  26.501  1.00  0.00     0.200 A 
ATOM     85  F   UNL A   1      39.074  25.017  27.518  1.00  0.00    -0.200 F 
ATOM     86  F   UNL A   1      40.690  25.678  25.420  1.00  0.00    -0.200 F 
ENDBRANCH  52  76
BRANCH  64  87
ATOM     87  C   UNL A   1      43.890  28.718  34.994  1.00  0.00     0.064 A 
ATOM     88  C   UNL A   1      45.155  29.244  34.788  1.00  0.00     0.173 A 
ATOM     89  C   UNL A   1      43.707  27.640  35.748  1.00  0.00     0.173 A 
ATOM     90  F   UNL A   1      45.364  30.447  34.261  1.00  0.00    -0.203 F 
ATOM     91  C   UNL A   1      46.206  28.384  35.188  1.00  0.00     0.198 A 
ATOM     92  C   UNL A   1      44.781  26.925  36.218  1.00  0.00     0.198 A 
ATOM     93  F   UNL A   1      42.472  27.249  36.049  1.00  0.00    -0.203 F 
ATOM     94  F   UNL A   1      47.423  28.631  34.712  1.00  0.00    -0.200 F 
ATOM     95  C   UNL A   1      46.061  27.354  36.002  1.00  0.00     0.200 A 
ATOM     96  F   UNL A   1      44.574  25.799  36.895  1.00  0.00    -0.200 F 
ATOM     97  F   UNL A   1      47.105  26.765  36.579  1.00  0.00    -0.200 F 
ENDBRANCH  64  87
ENDBRANCH  38  39
ENDBRANCH  31  33
ENDBRANCH  30  31
ENDBRANCH  29  30
ENDBRANCH   1  29
TORSDOF 16
ENDMDL
MODEL 3
REMARK VINA RESULT:     -12.2      5.368     10.357
REMARK SMILES O=C(OCCOCCOC(=O)c1ccc(-c2c3nc(c(-c4c(F)c(F)c(F)c(F)c4F)c4ccc([nH]4)c(-c4c(F)c(F)c(F)c(F)c4F)c4nc(c(-c5c(F)c(F)c(F)c(F)c5F)c5ccc2[nH]5)C=C4)C=C3)cc1)C1=Cc2cc(S(F)(F)(F)(F)F)cc(Br)c2O[C@H]1C(F)(F)F
REMARK SMILES IDX 7 1 6 2 5 3 4 4 3 5 2 6 1 7 75 8 76 9 91 10 77 11 90 12
REMARK SMILES IDX 78 13 89 14 79 15 87 16 86 17 88 18 92 19 93 20 94 21 95 22
REMARK SMILES IDX 80 23 81 24 82 25 83 26 84 27 85 28 8 29 9 30 10 31 11 32
REMARK SMILES IDX 12 33 13 34 74 35 14 36 73 37 15 38 16 39 17 40 67 41 18 42
REMARK SMILES IDX 72 43 66 44 68 45 19 46 71 47 65 48 64 49 20 51 52 52 32 53
REMARK SMILES IDX 51 54 33 55 36 56 50 57 69 58 34 59 35 60 49 62 70 63 37 64
REMARK SMILES IDX 21 65 22 66 30 67 23 68 24 69 28 70 31 71 25 72 26 73 29 74
REMARK SMILES IDX 27 75 53 76 54 77 62 78 55 79 56 80 60 81 63 82 57 83 58 84
REMARK SMILES IDX 61 85 59 86 38 87 39 88 47 89 40 90 41 91 45 92 48 93 42 94
REMARK SMILES IDX 43 95 46 96 44 97
REMARK H PARENT 68 50 36 61
REMARK Flexibility Score: inf
ROOT
ATOM      1  C   UNL A   1      31.418  31.803  26.538  1.00  0.00     0.202 C 
ENDROOT
BRANCH   1   2
ATOM      2  O   UNL A   1      31.872  30.589  25.959  1.00  0.00    -0.374 OA
BRANCH   2   3
ATOM      3  C   UNL A   1      32.380  29.740  26.977  1.00  0.00     0.202 C 
BRANCH   3   4
ATOM      4  C   UNL A   1      31.841  28.332  26.778  1.00  0.00     0.261 C 
BRANCH   4   5
ATOM      5  O   UNL A   1      32.276  27.832  25.522  1.00  0.00    -0.460 OA
BRANCH   5   6
ATOM      6  C   UNL A   1      31.376  27.108  24.696  1.00  0.00     0.338 C 
ATOM      7  O   UNL A   1      30.253  26.731  25.155  1.00  0.00    -0.246 OA
BRANCH   6   8
ATOM      8  C   UNL A   1      31.758  26.782  23.261  1.00  0.00     0.087 C 
ATOM      9  C   UNL A   1      32.625  25.767  23.001  1.00  0.00     0.027 C 
ATOM     10  C   UNL A   1      31.171  27.594  22.117  1.00  0.00     0.316 C 
ATOM     11  C   UNL A   1      33.212  24.957  24.145  1.00  0.00     0.020 A 
ATOM     12  O   UNL A   1      31.087  24.981  25.210  1.00  0.00    -0.474 OA
ATOM     13  C   UNL A   1      34.565  24.664  24.122  1.00  0.00     0.036 A 
ATOM     14  C   UNL A   1      32.432  24.531  25.132  1.00  0.00     0.142 A 
ATOM     15  C   UNL A   1      34.952  23.664  25.045  1.00  0.00     0.109 A 
ATOM     16  C   UNL A   1      32.914  23.659  26.078  1.00  0.00     0.062 A 
ATOM     17  C   UNL A   1      34.229  23.281  26.081  1.00  0.00     0.044 A 
ATOM     18  Br  UNL A   1      31.701  22.947  27.444  1.00  0.00    -0.047 Br
BRANCH  10  19
ATOM     19  C   UNL A   1      30.241  28.657  22.675  1.00  0.00     0.430 C 
ATOM     20  F   UNL A   1      29.934  29.425  21.632  1.00  0.00    -0.167 F 
ATOM     21  F   UNL A   1      29.123  28.189  23.222  1.00  0.00    -0.167 F 
ATOM     22  F   UNL A   1      30.908  29.376  23.573  1.00  0.00    -0.167 F 
ENDBRANCH  10  19
BRANCH  15  23
ATOM     23  S   UNL A   1      36.549  22.853  24.787  1.00  0.00     0.310 S 
ATOM     24  F   UNL A   1      36.674  23.431  23.315  1.00  0.00    -0.094 F 
ATOM     25  F   UNL A   1      35.791  21.620  24.164  1.00  0.00    -0.094 F 
ATOM     26  F   UNL A   1      37.922  22.156  24.564  1.00  0.00    -0.094 F 
ATOM     27  F   UNL A   1      37.298  24.152  25.284  1.00  0.00    -0.094 F 
ATOM     28  F   UNL A   1      35.171  23.616  24.914  1.00  0.00    -0.094 F 
ENDBRANCH  15  23
ENDBRANCH   6   8
ENDBRANCH   5   6
ENDBRANCH   4   5
ENDBRANCH   3   4
ENDBRANCH   2   3
ENDBRANCH   1   2
BRANCH   1  29
ATOM     29  C   UNL A   1      32.566  32.473  27.276  1.00  0.00     0.261 C 
BRANCH  29  30
ATOM     30  O   UNL A   1      32.226  33.823  27.557  1.00  0.00    -0.460 OA
BRANCH  30  31
ATOM     31  C   UNL A   1      32.998  34.573  28.482  1.00  0.00     0.338 C 
ATOM     32  O   UNL A   1      32.664  35.765  28.767  1.00  0.00    -0.246 OA
BRANCH  31  33
ATOM     33  C   UNL A   1      34.223  33.949  29.131  1.00  0.00     0.060 A 
ATOM     34  C   UNL A   1      34.027  33.043  30.160  1.00  0.00     0.016 A 
ATOM     35  C   UNL A   1      35.443  34.296  28.741  1.00  0.00     0.016 A 
ATOM     36  C   UNL A   1      35.193  32.772  30.914  1.00  0.00     0.010 A 
ATOM     37  C   UNL A   1      36.547  33.883  29.448  1.00  0.00     0.010 A 
ATOM     38  C   UNL A   1      36.423  33.034  30.512  1.00  0.00    -0.014 A 
BRANCH  38  39
ATOM     39  C   UNL A   1      37.636  32.424  31.196  1.00  0.00     0.031 A 
ATOM     40  C   UNL A   1      38.037  32.884  32.452  1.00  0.00     0.074 A 
ATOM     41  C   UNL A   1      38.264  31.398  30.510  1.00  0.00     0.049 A 
ATOM     42  N   UNL A   1      39.033  32.420  33.208  1.00  0.00    -0.248 NA
ATOM     43  C   UNL A   1      37.392  33.996  33.165  1.00  0.00     0.031 C 
ATOM     44  C   UNL A   1      37.861  30.923  29.247  1.00  0.00     0.029 A 
ATOM     45  N   UNL A   1      39.363  30.667  30.905  1.00  0.00    -0.354 N 
ATOM     46  C   UNL A   1      39.098  33.103  34.353  1.00  0.00     0.074 A 
ATOM     47  C   UNL A   1      38.047  34.130  34.339  1.00  0.00     0.031 C 
ATOM     48  C   UNL A   1      38.711  29.928  28.880  1.00  0.00     0.029 A 
ATOM     49  C   UNL A   1      39.659  29.763  29.908  1.00  0.00     0.049 A 
ATOM     50  H   UNL A   1      39.851  30.771  31.753  1.00  0.00     0.167 HD
ATOM     51  C   UNL A   1      39.989  32.908  35.408  1.00  0.00     0.037 A 
ATOM     52  C   UNL A   1      40.694  28.843  29.878  1.00  0.00     0.037 A 
ATOM     53  C   UNL A   1      40.998  31.956  35.396  1.00  0.00     0.049 A 
ATOM     54  C   UNL A   1      41.622  28.686  30.909  1.00  0.00     0.074 A 
ATOM     55  C   UNL A   1      41.901  31.741  36.454  1.00  0.00     0.029 A 
ATOM     56  N   UNL A   1      41.309  31.069  34.389  1.00  0.00    -0.354 N 
ATOM     57  N   UNL A   1      41.663  29.341  32.070  1.00  0.00    -0.248 NA
ATOM     58  C   UNL A   1      42.742  27.735  30.874  1.00  0.00     0.031 C 
ATOM     59  C   UNL A   1      42.752  30.746  36.088  1.00  0.00     0.029 A 
ATOM     60  C   UNL A   1      42.393  30.323  34.794  1.00  0.00     0.049 A 
ATOM     61  H   UNL A   1      40.838  30.985  33.529  1.00  0.00     0.167 HD
ATOM     62  C   UNL A   1      42.685  28.905  32.809  1.00  0.00     0.074 A 
ATOM     63  C   UNL A   1      43.398  27.870  32.047  1.00  0.00     0.031 C 
ATOM     64  C   UNL A   1      43.050  29.326  34.089  1.00  0.00     0.037 A 
BRANCH  51  65
ATOM     65  C   UNL A   1      39.849  33.787  36.639  1.00  0.00     0.064 A 
ATOM     66  C   UNL A   1      39.091  33.321  37.701  1.00  0.00     0.173 A 
ATOM     67  C   UNL A   1      40.497  34.943  36.712  1.00  0.00     0.173 A 
ATOM     68  F   UNL A   1      38.637  32.073  37.775  1.00  0.00    -0.203 F 
ATOM     69  C   UNL A   1      38.842  34.292  38.699  1.00  0.00     0.198 A 
ATOM     70  C   UNL A   1      40.310  35.784  37.783  1.00  0.00     0.198 A 
ATOM     71  F   UNL A   1      41.334  35.291  35.740  1.00  0.00    -0.203 F 
ATOM     72  F   UNL A   1      37.850  34.062  39.554  1.00  0.00    -0.200 F 
ATOM     73  C   UNL A   1      39.527  35.412  38.840  1.00  0.00     0.200 A 
ATOM     74  F   UNL A   1      40.901  36.976  37.791  1.00  0.00    -0.200 F 
ATOM     75  F   UNL A   1      39.459  36.140  39.952  1.00  0.00    -0.200 F 
ENDBRANCH  51  65
BRANCH  52  76
ATOM     76  C   UNL A   1      40.824  27.951  28.653  1.00  0.00     0.064 A 
ATOM     77  C   UNL A   1      41.623  28.362  27.598  1.00  0.00     0.173 A 
ATOM     78  C   UNL A   1      40.115  26.832  28.585  1.00  0.00     0.173 A 
ATOM     79  F   UNL A   1      42.535  29.323  27.710  1.00  0.00    -0.203 F 
ATOM     80  C   UNL A   1      41.381  27.664  26.391  1.00  0.00     0.198 A 
ATOM     81  C   UNL A   1      40.031  26.126  27.408  1.00  0.00     0.198 A 
ATOM     82  F   UNL A   1      39.478  26.388  29.665  1.00  0.00    -0.203 F 
ATOM     83  F   UNL A   1      41.821  28.211  25.262  1.00  0.00    -0.200 F 
ATOM     84  C   UNL A   1      40.748  26.509  26.308  1.00  0.00     0.200 A 
ATOM     85  F   UNL A   1      39.242  25.058  27.339  1.00  0.00    -0.200 F 
ATOM     86  F   UNL A   1      40.804  25.756  25.213  1.00  0.00    -0.200 F 
ENDBRANCH  52  76
BRANCH  64  87
ATOM     87  C   UNL A   1      44.238  28.648  34.752  1.00  0.00     0.064 A 
ATOM     88  C   UNL A   1      43.995  27.518  35.516  1.00  0.00     0.173 A 
ATOM     89  C   UNL A   1      45.462  29.149  34.634  1.00  0.00     0.173 A 
ATOM     90  F   UNL A   1      42.852  26.838  35.463  1.00  0.00    -0.203 F 
ATOM     91  C   UNL A   1      45.072  27.152  36.358  1.00  0.00     0.198 A 
ATOM     92  C   UNL A   1      46.496  28.653  35.389  1.00  0.00     0.198 A 
ATOM     93  F   UNL A   1      45.687  30.141  33.777  1.00  0.00    -0.203 F 
ATOM     94  F   UNL A   1      44.815  26.326  37.368  1.00  0.00    -0.200 F 
ATOM     95  C   UNL A   1      46.314  27.575  36.210  1.00  0.00     0.200 A 
ATOM     96  F   UNL A   1      47.693  29.229  35.321  1.00  0.00    -0.200 F 
ATOM     97  F   UNL A   1      47.333  26.984  36.827  1.00  0.00    -0.200 F 
ENDBRANCH  64  87
ENDBRANCH  38  39
ENDBRANCH  31  33
ENDBRANCH  30  31
ENDBRANCH  29  30
ENDBRANCH   1  29
TORSDOF 16
ENDMDL
