MODEL 1
REMARK VINA RESULT:     -12.0      0.000      0.000
REMARK SMILES Cc1c(C#N)c2ccccc2n1CC(=O)N1CC[C@H](O)C[C@@H]1C(=O)OCCOCCOC(=O)c1ccc(-c2c3nc(c(-c4c(F)c(F)c(F)c(F)c4F)c4ccc([nH]4)c(-c4c(F)c(F)c(F)c(F)c4F)c4nc(c(-c5c(F)c(F)c(F)c(F)c5F)c5ccc2[nH]5)C=C4)C=C3)cc1
REMARK SMILES IDX 27 1 26 2 25 3 23 4 24 5 22 6 16 7 17 8 18 9 21 10 19 11
REMARK SMILES IDX 14 12 15 13 13 14 12 15 1 16 2 17 3 18 6 19 11 20 7 21 10 22
REMARK SMILES IDX 8 23 9 24 4 25 5 26 20 27 28 29 29 30 30 31 31 32 32 33
REMARK SMILES IDX 33 34 34 35 35 36 96 37 36 38 95 39 37 40 38 41 39 42 89 43
REMARK SMILES IDX 40 44 94 45 88 46 90 47 41 48 93 49 87 50 86 51 42 53 74 54
REMARK SMILES IDX 54 55 73 56 55 57 58 58 72 59 91 60 56 61 57 62 71 64 92 65
REMARK SMILES IDX 59 66 43 67 44 68 52 69 45 70 46 71 50 72 53 73 47 74 48 75
REMARK SMILES IDX 51 76 49 77 75 78 76 79 84 80 77 81 78 82 82 83 85 84 79 85
REMARK SMILES IDX 80 86 83 87 81 88 60 89 61 90 69 91 62 92 63 93 67 94 70 95
REMARK SMILES IDX 64 96 65 97 68 98 66 99
REMARK H PARENT 20 28 90 52 58 63
REMARK Flexibility Score: inf
ROOT
ATOM      1  C   UNL A   1      34.281  30.861  27.331  1.00  0.00     0.202 C 
ENDROOT
BRANCH   1   2
ATOM      2  C   UNL A   1      33.527  29.675  26.717  1.00  0.00     0.261 C 
BRANCH   2   3
ATOM      3  O   UNL A   1      32.797  29.994  25.546  1.00  0.00    -0.462 OA
BRANCH   3   4
ATOM      4  C   UNL A   1      33.061  29.063  24.601  1.00  0.00     0.329 C 
ATOM      5  O   UNL A   1      33.704  29.302  23.580  1.00  0.00    -0.250 OA
BRANCH   4   6
ATOM      6  C   UNL A   1      32.467  27.697  24.937  1.00  0.00     0.197 C 
ATOM      7  N   UNL A   1      32.887  26.733  23.894  1.00  0.00    -0.327 N 
ATOM      8  C   UNL A   1      32.451  27.079  22.539  1.00  0.00     0.123 C 
ATOM      9  C   UNL A   1      30.976  27.491  22.456  1.00  0.00     0.053 C 
ATOM     10  C   UNL A   1      30.955  27.813  24.989  1.00  0.00     0.069 C 
ATOM     11  C   UNL A   1      30.391  28.261  23.642  1.00  0.00     0.118 C 
BRANCH   7  12
ATOM     12  C   UNL A   1      33.681  25.663  24.275  1.00  0.00     0.243 C 
ATOM     13  O   UNL A   1      34.344  25.748  25.320  1.00  0.00    -0.273 OA
BRANCH  12  14
ATOM     14  C   UNL A   1      33.968  24.454  23.387  1.00  0.00     0.222 C 
BRANCH  14  15
ATOM     15  N   UNL A   1      34.066  23.133  23.986  1.00  0.00    -0.334 N 
ATOM     16  C   UNL A   1      31.572  22.638  23.994  1.00  0.00     0.066 C 
ATOM     17  C   UNL A   1      33.002  22.285  24.243  1.00  0.00     0.034 A 
ATOM     18  C   UNL A   1      33.547  21.072  24.635  1.00  0.00     0.080 A 
ATOM     19  C   UNL A   1      34.960  21.211  24.706  1.00  0.00     0.018 A 
ATOM     20  C   UNL A   1      35.262  22.528  24.344  1.00  0.00     0.050 A 
ATOM     21  C   UNL A   1      36.019  20.332  25.022  1.00  0.00     0.012 A 
ATOM     22  C   UNL A   1      36.587  23.001  24.326  1.00  0.00     0.027 A 
ATOM     23  C   UNL A   1      37.338  20.795  24.996  1.00  0.00     0.001 A 
ATOM     24  C   UNL A   1      37.614  22.115  24.662  1.00  0.00     0.002 A 
BRANCH  18  25
ATOM     25  C   UNL A   1      32.803  19.865  24.859  1.00  0.00     0.102 C 
ATOM     26  N   UNL A   1      32.176  18.915  25.047  1.00  0.00    -0.192 NA
ENDBRANCH  18  25
ENDBRANCH  14  15
ENDBRANCH  12  14
ENDBRANCH   7  12
BRANCH  11  27
ATOM     27  O   UNL A   1      30.536  29.671  23.482  1.00  0.00    -0.393 OA
ATOM     28  H   UNL A   1      29.844  30.126  23.988  1.00  0.00     0.210 HD
ENDBRANCH  11  27
ENDBRANCH   4   6
ENDBRANCH   3   4
ENDBRANCH   2   3
ENDBRANCH   1   2
BRANCH   1  29
ATOM     29  O   UNL A   1      33.564  32.004  27.773  1.00  0.00    -0.374 OA
BRANCH  29  30
ATOM     30  C   UNL A   1      34.289  33.146  28.224  1.00  0.00     0.202 C 
BRANCH  30  31
ATOM     31  C   UNL A   1      34.384  33.523  29.718  1.00  0.00     0.261 C 
BRANCH  31  32
ATOM     32  O   UNL A   1      34.316  32.394  30.602  1.00  0.00    -0.460 OA
BRANCH  32  33
ATOM     33  C   UNL A   1      35.376  32.239  31.449  1.00  0.00     0.338 C 
ATOM     34  O   UNL A   1      35.371  32.341  32.663  1.00  0.00    -0.246 OA
BRANCH  33  35
ATOM     35  C   UNL A   1      36.409  31.497  30.684  1.00  0.00     0.060 A 
ATOM     36  C   UNL A   1      36.330  30.114  30.505  1.00  0.00     0.016 A 
ATOM     37  C   UNL A   1      37.629  32.174  30.516  1.00  0.00     0.016 A 
ATOM     38  C   UNL A   1      37.513  29.396  30.324  1.00  0.00     0.010 A 
ATOM     39  C   UNL A   1      38.810  31.446  30.421  1.00  0.00     0.010 A 
ATOM     40  C   UNL A   1      38.762  30.051  30.408  1.00  0.00    -0.014 A 
BRANCH  40  41
ATOM     41  C   UNL A   1      40.005  29.282  30.216  1.00  0.00     0.031 A 
ATOM     42  C   UNL A   1      40.653  29.091  31.544  1.00  0.00     0.074 A 
ATOM     43  C   UNL A   1      40.466  28.695  29.080  1.00  0.00     0.049 A 
ATOM     44  N   UNL A   1      41.793  29.555  31.935  1.00  0.00    -0.248 NA
ATOM     45  C   UNL A   1      39.831  28.526  32.633  1.00  0.00     0.031 C 
ATOM     46  C   UNL A   1      39.857  28.636  27.749  1.00  0.00     0.029 A 
ATOM     47  N   UNL A   1      41.601  27.932  28.896  1.00  0.00    -0.354 N 
ATOM     48  C   UNL A   1      41.911  29.163  33.263  1.00  0.00     0.074 A 
ATOM     49  C   UNL A   1      40.608  28.737  33.693  1.00  0.00     0.031 C 
ATOM     50  C   UNL A   1      40.481  27.712  26.980  1.00  0.00     0.029 A 
ATOM     51  C   UNL A   1      41.603  27.170  27.711  1.00  0.00     0.049 A 
ATOM     52  H   UNL A   1      42.346  27.921  29.539  1.00  0.00     0.167 HD
ATOM     53  C   UNL A   1      43.127  28.948  33.828  1.00  0.00     0.037 A 
ATOM     54  C   UNL A   1      42.438  26.131  27.403  1.00  0.00     0.037 A 
ATOM     55  C   UNL A   1      44.170  29.600  33.088  1.00  0.00     0.049 A 
ATOM     56  C   UNL A   1      43.637  26.273  28.266  1.00  0.00     0.074 A 
ATOM     57  C   UNL A   1      44.450  30.918  32.789  1.00  0.00     0.029 A 
ATOM     58  N   UNL A   1      44.869  28.846  32.177  1.00  0.00    -0.354 N 
ATOM     59  N   UNL A   1      44.487  27.256  28.138  1.00  0.00    -0.248 NA
ATOM     60  C   UNL A   1      43.554  25.661  29.585  1.00  0.00     0.031 C 
ATOM     61  C   UNL A   1      44.888  30.902  31.434  1.00  0.00     0.029 A 
ATOM     62  C   UNL A   1      44.958  29.575  31.017  1.00  0.00     0.049 A 
ATOM     63  H   UNL A   1      45.238  27.946  32.329  1.00  0.00     0.167 HD
ATOM     64  C   UNL A   1      44.699  27.685  29.437  1.00  0.00     0.074 A 
ATOM     65  C   UNL A   1      44.092  26.661  30.288  1.00  0.00     0.031 C 
ATOM     66  C   UNL A   1      45.064  28.968  29.714  1.00  0.00     0.037 A 
BRANCH  53  67
ATOM     67  C   UNL A   1      43.379  27.840  34.808  1.00  0.00     0.064 A 
ATOM     68  C   UNL A   1      43.748  28.147  36.128  1.00  0.00     0.173 A 
ATOM     69  C   UNL A   1      43.535  26.488  34.425  1.00  0.00     0.173 A 
ATOM     70  F   UNL A   1      43.692  29.410  36.573  1.00  0.00    -0.203 F 
ATOM     71  C   UNL A   1      44.257  27.173  36.991  1.00  0.00     0.198 A 
ATOM     72  C   UNL A   1      43.986  25.509  35.304  1.00  0.00     0.198 A 
ATOM     73  F   UNL A   1      43.369  26.083  33.158  1.00  0.00    -0.203 F 
ATOM     74  F   UNL A   1      44.694  27.526  38.207  1.00  0.00    -0.200 F 
ATOM     75  C   UNL A   1      44.370  25.856  36.581  1.00  0.00     0.200 A 
ATOM     76  F   UNL A   1      44.117  24.247  34.873  1.00  0.00    -0.200 F 
ATOM     77  F   UNL A   1      44.894  24.930  37.394  1.00  0.00    -0.200 F 
ENDBRANCH  53  67
BRANCH  54  78
ATOM     78  C   UNL A   1      42.111  24.831  26.736  1.00  0.00     0.064 A 
ATOM     79  C   UNL A   1      42.970  24.234  25.790  1.00  0.00     0.173 A 
ATOM     80  C   UNL A   1      41.094  24.000  27.243  1.00  0.00     0.173 A 
ATOM     81  F   UNL A   1      44.005  24.922  25.286  1.00  0.00    -0.203 F 
ATOM     82  C   UNL A   1      42.827  22.892  25.397  1.00  0.00     0.198 A 
ATOM     83  C   UNL A   1      40.953  22.664  26.852  1.00  0.00     0.198 A 
ATOM     84  F   UNL A   1      40.271  24.435  28.206  1.00  0.00    -0.203 F 
ATOM     85  F   UNL A   1      43.699  22.344  24.535  1.00  0.00    -0.200 F 
ATOM     86  C   UNL A   1      41.825  22.106  25.938  1.00  0.00     0.200 A 
ATOM     87  F   UNL A   1      40.005  21.905  27.419  1.00  0.00    -0.200 F 
ATOM     88  F   UNL A   1      41.726  20.808  25.617  1.00  0.00    -0.200 F 
ENDBRANCH  54  78
BRANCH  66  89
ATOM     89  C   UNL A   1      45.427  29.881  28.577  1.00  0.00     0.064 A 
ATOM     90  C   UNL A   1      44.500  30.646  27.847  1.00  0.00     0.173 A 
ATOM     91  C   UNL A   1      46.787  30.142  28.366  1.00  0.00     0.173 A 
ATOM     92  F   UNL A   1      43.183  30.519  28.059  1.00  0.00    -0.203 F 
ATOM     93  C   UNL A   1      44.926  31.617  26.937  1.00  0.00     0.198 A 
ATOM     94  C   UNL A   1      47.207  31.136  27.489  1.00  0.00     0.198 A 
ATOM     95  F   UNL A   1      47.714  29.476  29.074  1.00  0.00    -0.203 F 
ATOM     96  F   UNL A   1      44.026  32.342  26.256  1.00  0.00    -0.200 F 
ATOM     97  C   UNL A   1      46.278  31.869  26.770  1.00  0.00     0.200 A 
ATOM     98  F   UNL A   1      48.514  31.410  27.374  1.00  0.00    -0.200 F 
ATOM     99  F   UNL A   1      46.688  32.840  25.942  1.00  0.00    -0.200 F 
ENDBRANCH  66  89
ENDBRANCH  40  41
ENDBRANCH  33  35
ENDBRANCH  32  33
ENDBRANCH  31  32
ENDBRANCH  30  31
ENDBRANCH  29  30
ENDBRANCH   1  29
TORSDOF 19
ENDMDL
MODEL 2
REMARK VINA RESULT:     -11.9      3.352      8.773
REMARK SMILES Cc1c(C#N)c2ccccc2n1CC(=O)N1CC[C@H](O)C[C@@H]1C(=O)OCCOCCOC(=O)c1ccc(-c2c3nc(c(-c4c(F)c(F)c(F)c(F)c4F)c4ccc([nH]4)c(-c4c(F)c(F)c(F)c(F)c4F)c4nc(c(-c5c(F)c(F)c(F)c(F)c5F)c5ccc2[nH]5)C=C4)C=C3)cc1
REMARK SMILES IDX 27 1 26 2 25 3 23 4 24 5 22 6 16 7 17 8 18 9 21 10 19 11
REMARK SMILES IDX 14 12 15 13 13 14 12 15 1 16 2 17 3 18 6 19 11 20 7 21 10 22
REMARK SMILES IDX 8 23 9 24 4 25 5 26 20 27 28 29 29 30 30 31 31 32 32 33
REMARK SMILES IDX 33 34 34 35 35 36 96 37 36 38 95 39 37 40 38 41 39 42 89 43
REMARK SMILES IDX 40 44 94 45 88 46 90 47 41 48 93 49 87 50 86 51 42 53 74 54
REMARK SMILES IDX 54 55 73 56 55 57 58 58 72 59 91 60 56 61 57 62 71 64 92 65
REMARK SMILES IDX 59 66 43 67 44 68 52 69 45 70 46 71 50 72 53 73 47 74 48 75
REMARK SMILES IDX 51 76 49 77 75 78 76 79 84 80 77 81 78 82 82 83 85 84 79 85
REMARK SMILES IDX 80 86 83 87 81 88 60 89 61 90 69 91 62 92 63 93 67 94 70 95
REMARK SMILES IDX 64 96 65 97 68 98 66 99
REMARK H PARENT 20 28 90 52 58 63
REMARK Flexibility Score: inf
ROOT
ATOM      1  C   UNL A   1      37.409  21.337  24.818  1.00  0.00     0.202 C 
ENDROOT
BRANCH   1   2
ATOM      2  C   UNL A   1      35.877  21.373  24.772  1.00  0.00     0.261 C 
BRANCH   2   3
ATOM      3  O   UNL A   1      35.292  22.333  25.634  1.00  0.00    -0.462 OA
BRANCH   3   4
ATOM      4  C   UNL A   1      33.998  22.503  25.281  1.00  0.00     0.329 C 
ATOM      5  O   UNL A   1      33.293  21.596  24.842  1.00  0.00    -0.250 OA
BRANCH   4   6
ATOM      6  C   UNL A   1      33.518  23.939  25.479  1.00  0.00     0.197 C 
ATOM      7  N   UNL A   1      32.056  23.983  25.240  1.00  0.00    -0.327 N 
ATOM      8  C   UNL A   1      31.649  23.564  23.897  1.00  0.00     0.123 C 
ATOM      9  C   UNL A   1      32.486  24.197  22.778  1.00  0.00     0.053 C 
ATOM     10  C   UNL A   1      34.251  24.845  24.506  1.00  0.00     0.069 C 
ATOM     11  C   UNL A   1      33.970  24.442  23.060  1.00  0.00     0.118 C 
BRANCH   7  12
ATOM     12  C   UNL A   1      31.232  24.340  26.296  1.00  0.00     0.243 C 
ATOM     13  O   UNL A   1      31.103  23.558  27.250  1.00  0.00    -0.273 OA
BRANCH  12  14
ATOM     14  C   UNL A   1      30.297  25.548  26.279  1.00  0.00     0.222 C 
BRANCH  14  15
ATOM     15  N   UNL A   1      30.649  26.714  25.485  1.00  0.00    -0.334 N 
ATOM     16  C   UNL A   1      29.169  26.160  23.494  1.00  0.00     0.066 C 
ATOM     17  C   UNL A   1      30.132  27.025  24.239  1.00  0.00     0.034 A 
ATOM     18  C   UNL A   1      30.585  28.298  23.928  1.00  0.00     0.080 A 
ATOM     19  C   UNL A   1      31.465  28.731  24.957  1.00  0.00     0.018 A 
ATOM     20  C   UNL A   1      31.532  27.701  25.901  1.00  0.00     0.050 A 
ATOM     21  C   UNL A   1      32.196  29.916  25.191  1.00  0.00     0.012 A 
ATOM     22  C   UNL A   1      32.338  27.805  27.050  1.00  0.00     0.027 A 
ATOM     23  C   UNL A   1      32.990  30.029  26.335  1.00  0.00     0.001 A 
ATOM     24  C   UNL A   1      33.066  28.982  27.245  1.00  0.00     0.002 A 
BRANCH  18  25
ATOM     25  C   UNL A   1      30.170  29.068  22.789  1.00  0.00     0.102 C 
ATOM     26  N   UNL A   1      29.872  29.686  21.861  1.00  0.00    -0.192 NA
ENDBRANCH  18  25
ENDBRANCH  14  15
ENDBRANCH  12  14
ENDBRANCH   7  12
BRANCH  11  27
ATOM     27  O   UNL A   1      34.772  23.323  22.687  1.00  0.00    -0.393 OA
ATOM     28  H   UNL A   1      34.643  23.133  21.744  1.00  0.00     0.210 HD
ENDBRANCH  11  27
ENDBRANCH   4   6
ENDBRANCH   3   4
ENDBRANCH   2   3
ENDBRANCH   1   2
BRANCH   1  29
ATOM     29  O   UNL A   1      38.096  21.833  25.957  1.00  0.00    -0.374 OA
BRANCH  29  30
ATOM     30  C   UNL A   1      39.473  21.509  26.134  1.00  0.00     0.202 C 
BRANCH  30  31
ATOM     31  C   UNL A   1      40.438  22.417  26.925  1.00  0.00     0.261 C 
BRANCH  31  32
ATOM     32  O   UNL A   1      41.815  22.023  26.821  1.00  0.00    -0.460 OA
BRANCH  32  33
ATOM     33  C   UNL A   1      42.539  22.645  25.844  1.00  0.00     0.338 C 
ATOM     34  O   UNL A   1      42.661  22.296  24.683  1.00  0.00    -0.246 OA
BRANCH  33  35
ATOM     35  C   UNL A   1      42.771  24.030  26.323  1.00  0.00     0.060 A 
ATOM     36  C   UNL A   1      43.509  24.287  27.480  1.00  0.00     0.016 A 
ATOM     37  C   UNL A   1      41.894  24.997  25.801  1.00  0.00     0.016 A 
ATOM     38  C   UNL A   1      43.236  25.450  28.201  1.00  0.00     0.010 A 
ATOM     39  C   UNL A   1      41.566  26.110  26.567  1.00  0.00     0.010 A 
ATOM     40  C   UNL A   1      42.175  26.297  27.808  1.00  0.00    -0.014 A 
BRANCH  40  41
ATOM     41  C   UNL A   1      41.895  27.522  28.579  1.00  0.00     0.031 A 
ATOM     42  C   UNL A   1      42.974  28.512  28.305  1.00  0.00     0.074 A 
ATOM     43  C   UNL A   1      40.793  27.819  29.318  1.00  0.00     0.049 A 
ATOM     44  N   UNL A   1      43.836  28.987  29.141  1.00  0.00    -0.248 NA
ATOM     45  C   UNL A   1      43.276  28.820  26.892  1.00  0.00     0.031 C 
ATOM     46  C   UNL A   1      39.577  27.033  29.534  1.00  0.00     0.029 A 
ATOM     47  N   UNL A   1      40.495  28.979  30.004  1.00  0.00    -0.354 N 
ATOM     48  C   UNL A   1      44.662  29.810  28.385  1.00  0.00     0.074 A 
ATOM     49  C   UNL A   1      44.415  29.501  27.004  1.00  0.00     0.031 C 
ATOM     50  C   UNL A   1      38.603  27.800  30.079  1.00  0.00     0.029 A 
ATOM     51  C   UNL A   1      39.137  29.115  30.353  1.00  0.00     0.049 A 
ATOM     52  H   UNL A   1      41.175  29.654  30.231  1.00  0.00     0.167 HD
ATOM     53  C   UNL A   1      45.282  30.883  28.939  1.00  0.00     0.037 A 
ATOM     54  C   UNL A   1      38.506  30.253  30.775  1.00  0.00     0.037 A 
ATOM     55  C   UNL A   1      45.356  30.766  30.368  1.00  0.00     0.049 A 
ATOM     56  C   UNL A   1      39.560  31.163  31.289  1.00  0.00     0.074 A 
ATOM     57  C   UNL A   1      45.964  29.869  31.224  1.00  0.00     0.029 A 
ATOM     58  N   UNL A   1      44.391  31.404  31.108  1.00  0.00    -0.354 N 
ATOM     59  N   UNL A   1      40.249  30.907  32.368  1.00  0.00    -0.248 NA
ATOM     60  C   UNL A   1      40.201  32.023  30.304  1.00  0.00     0.031 C 
ATOM     61  C   UNL A   1      45.020  29.662  32.269  1.00  0.00     0.029 A 
ATOM     62  C   UNL A   1      43.943  30.519  32.057  1.00  0.00     0.049 A 
ATOM     63  H   UNL A   1      44.078  32.329  30.981  1.00  0.00     0.167 HD
ATOM     64  C   UNL A   1      41.556  31.179  32.001  1.00  0.00     0.074 A 
ATOM     65  C   UNL A   1      41.462  31.864  30.711  1.00  0.00     0.031 C 
ATOM     66  C   UNL A   1      42.611  30.562  32.604  1.00  0.00     0.037 A 
BRANCH  53  67
ATOM     67  C   UNL A   1      45.458  32.183  28.209  1.00  0.00     0.064 A 
ATOM     68  C   UNL A   1      44.336  32.977  27.921  1.00  0.00     0.173 A 
ATOM     69  C   UNL A   1      46.653  32.544  27.546  1.00  0.00     0.173 A 
ATOM     70  F   UNL A   1      43.140  32.685  28.454  1.00  0.00    -0.203 F 
ATOM     71  C   UNL A   1      44.404  34.040  27.016  1.00  0.00     0.198 A 
ATOM     72  C   UNL A   1      46.733  33.638  26.692  1.00  0.00     0.198 A 
ATOM     73  F   UNL A   1      47.757  31.787  27.607  1.00  0.00    -0.203 F 
ATOM     74  F   UNL A   1      43.290  34.708  26.690  1.00  0.00    -0.200 F 
ATOM     75  C   UNL A   1      45.602  34.373  26.408  1.00  0.00     0.200 A 
ATOM     76  F   UNL A   1      47.896  33.920  26.090  1.00  0.00    -0.200 F 
ATOM     77  F   UNL A   1      45.660  35.366  25.513  1.00  0.00    -0.200 F 
ENDBRANCH  53  67
BRANCH  54  78
ATOM     78  C   UNL A   1      37.151  30.768  30.401  1.00  0.00     0.064 A 
ATOM     79  C   UNL A   1      36.263  31.313  31.352  1.00  0.00     0.173 A 
ATOM     80  C   UNL A   1      36.823  31.014  29.053  1.00  0.00     0.173 A 
ATOM     81  F   UNL A   1      36.513  31.183  32.663  1.00  0.00    -0.203 F 
ATOM     82  C   UNL A   1      35.139  32.068  30.976  1.00  0.00     0.198 A 
ATOM     83  C   UNL A   1      35.704  31.765  28.680  1.00  0.00     0.198 A 
ATOM     84  F   UNL A   1      37.637  30.614  28.067  1.00  0.00    -0.203 F 
ATOM     85  F   UNL A   1      34.349  32.616  31.912  1.00  0.00    -0.200 F 
ATOM     86  C   UNL A   1      34.868  32.302  29.639  1.00  0.00     0.200 A 
ATOM     87  F   UNL A   1      35.482  32.020  27.383  1.00  0.00    -0.200 F 
ATOM     88  F   UNL A   1      33.835  33.077  29.276  1.00  0.00    -0.200 F 
ENDBRANCH  54  78
BRANCH  66  89
ATOM     89  C   UNL A   1      42.356  29.712  33.817  1.00  0.00     0.064 A 
ATOM     90  C   UNL A   1      41.939  28.370  33.773  1.00  0.00     0.173 A 
ATOM     91  C   UNL A   1      42.756  30.223  35.059  1.00  0.00     0.173 A 
ATOM     92  F   UNL A   1      41.628  27.783  32.609  1.00  0.00    -0.203 F 
ATOM     93  C   UNL A   1      41.911  27.586  34.929  1.00  0.00     0.198 A 
ATOM     94  C   UNL A   1      42.764  29.429  36.201  1.00  0.00     0.198 A 
ATOM     95  F   UNL A   1      43.211  31.483  35.149  1.00  0.00    -0.203 F 
ATOM     96  F   UNL A   1      41.519  26.306  34.865  1.00  0.00    -0.200 F 
ATOM     97  C   UNL A   1      42.337  28.113  36.138  1.00  0.00     0.200 A 
ATOM     98  F   UNL A   1      43.229  29.931  37.354  1.00  0.00    -0.200 F 
ATOM     99  F   UNL A   1      42.368  27.347  37.237  1.00  0.00    -0.200 F 
ENDBRANCH  66  89
ENDBRANCH  40  41
ENDBRANCH  33  35
ENDBRANCH  32  33
ENDBRANCH  31  32
ENDBRANCH  30  31
ENDBRANCH  29  30
ENDBRANCH   1  29
TORSDOF 19
ENDMDL
MODEL 3
REMARK VINA RESULT:     -11.4      3.276      8.949
REMARK SMILES Cc1c(C#N)c2ccccc2n1CC(=O)N1CC[C@H](O)C[C@@H]1C(=O)OCCOCCOC(=O)c1ccc(-c2c3nc(c(-c4c(F)c(F)c(F)c(F)c4F)c4ccc([nH]4)c(-c4c(F)c(F)c(F)c(F)c4F)c4nc(c(-c5c(F)c(F)c(F)c(F)c5F)c5ccc2[nH]5)C=C4)C=C3)cc1
REMARK SMILES IDX 27 1 26 2 25 3 23 4 24 5 22 6 16 7 17 8 18 9 21 10 19 11
REMARK SMILES IDX 14 12 15 13 13 14 12 15 1 16 2 17 3 18 6 19 11 20 7 21 10 22
REMARK SMILES IDX 8 23 9 24 4 25 5 26 20 27 28 29 29 30 30 31 31 32 32 33
REMARK SMILES IDX 33 34 34 35 35 36 96 37 36 38 95 39 37 40 38 41 39 42 89 43
REMARK SMILES IDX 40 44 94 45 88 46 90 47 41 48 93 49 87 50 86 51 42 53 74 54
REMARK SMILES IDX 54 55 73 56 55 57 58 58 72 59 91 60 56 61 57 62 71 64 92 65
REMARK SMILES IDX 59 66 43 67 44 68 52 69 45 70 46 71 50 72 53 73 47 74 48 75
REMARK SMILES IDX 51 76 49 77 75 78 76 79 84 80 77 81 78 82 82 83 85 84 79 85
REMARK SMILES IDX 80 86 83 87 81 88 60 89 61 90 69 91 62 92 63 93 67 94 70 95
REMARK SMILES IDX 64 96 65 97 68 98 66 99
REMARK H PARENT 20 28 90 52 58 63
REMARK Flexibility Score: inf
ROOT
ATOM      1  C   UNL A   1      35.908  23.269  26.125  1.00  0.00     0.202 C 
ENDROOT
BRANCH   1   2
ATOM      2  C   UNL A   1      35.618  24.157  24.910  1.00  0.00     0.261 C 
BRANCH   2   3
ATOM      3  O   UNL A   1      34.279  24.096  24.452  1.00  0.00    -0.462 OA
BRANCH   3   4
ATOM      4  C   UNL A   1      34.246  23.396  23.295  1.00  0.00     0.329 C 
ATOM      5  O   UNL A   1      35.254  22.958  22.742  1.00  0.00    -0.250 OA
BRANCH   4   6
ATOM      6  C   UNL A   1      32.829  23.222  22.753  1.00  0.00     0.197 C 
ATOM      7  N   UNL A   1      31.884  23.869  23.692  1.00  0.00    -0.327 N 
ATOM      8  C   UNL A   1      31.906  23.317  25.048  1.00  0.00     0.123 C 
ATOM      9  C   UNL A   1      31.878  21.784  25.088  1.00  0.00     0.053 C 
ATOM     10  C   UNL A   1      32.528  21.740  22.618  1.00  0.00     0.069 C 
ATOM     11  C   UNL A   1      32.612  21.037  23.971  1.00  0.00     0.118 C 
BRANCH   7  12
ATOM     12  C   UNL A   1      31.139  24.944  23.233  1.00  0.00     0.243 C 
ATOM     13  O   UNL A   1      31.405  25.429  22.123  1.00  0.00    -0.273 OA
BRANCH  12  14
ATOM     14  C   UNL A   1      30.139  25.718  24.089  1.00  0.00     0.222 C 
BRANCH  14  15
ATOM     15  N   UNL A   1      30.402  27.110  24.413  1.00  0.00    -0.334 N 
ATOM     16  C   UNL A   1      32.234  26.665  26.119  1.00  0.00     0.066 C 
ATOM     17  C   UNL A   1      31.360  27.562  25.305  1.00  0.00     0.034 A 
ATOM     18  C   UNL A   1      31.405  28.942  25.174  1.00  0.00     0.080 A 
ATOM     19  C   UNL A   1      30.395  29.344  24.258  1.00  0.00     0.018 A 
ATOM     20  C   UNL A   1      29.743  28.183  23.830  1.00  0.00     0.050 A 
ATOM     21  C   UNL A   1      29.986  30.588  23.730  1.00  0.00     0.012 A 
ATOM     22  C   UNL A   1      28.670  28.234  22.921  1.00  0.00     0.027 A 
ATOM     23  C   UNL A   1      28.928  30.643  22.819  1.00  0.00     0.001 A 
ATOM     24  C   UNL A   1      28.274  29.481  22.429  1.00  0.00     0.002 A 
BRANCH  18  25
ATOM     25  C   UNL A   1      32.363  29.802  25.809  1.00  0.00     0.102 C 
ATOM     26  N   UNL A   1      33.144  30.465  26.340  1.00  0.00    -0.192 NA
ENDBRANCH  18  25
ENDBRANCH  14  15
ENDBRANCH  12  14
ENDBRANCH   7  12
BRANCH  11  27
ATOM     27  O   UNL A   1      33.970  20.773  24.316  1.00  0.00    -0.393 OA
ATOM     28  H   UNL A   1      34.555  21.160  23.645  1.00  0.00     0.210 HD
ENDBRANCH  11  27
ENDBRANCH   4   6
ENDBRANCH   3   4
ENDBRANCH   2   3
ENDBRANCH   1   2
BRANCH   1  29
ATOM     29  O   UNL A   1      36.329  21.927  25.938  1.00  0.00    -0.374 OA
BRANCH  29  30
ATOM     30  C   UNL A   1      37.479  21.665  25.136  1.00  0.00     0.202 C 
BRANCH  30  31
ATOM     31  C   UNL A   1      38.834  21.256  25.750  1.00  0.00     0.261 C 
BRANCH  31  32
ATOM     32  O   UNL A   1      39.459  22.300  26.513  1.00  0.00    -0.460 OA
BRANCH  32  33
ATOM     33  C   UNL A   1      40.821  22.361  26.433  1.00  0.00     0.338 C 
ATOM     34  O   UNL A   1      41.564  21.559  25.896  1.00  0.00    -0.246 OA
BRANCH  33  35
ATOM     35  C   UNL A   1      41.187  23.771  26.713  1.00  0.00     0.060 A 
ATOM     36  C   UNL A   1      42.269  24.093  27.536  1.00  0.00     0.016 A 
ATOM     37  C   UNL A   1      40.177  24.713  26.453  1.00  0.00     0.016 A 
ATOM     38  C   UNL A   1      42.242  25.305  28.228  1.00  0.00     0.010 A 
ATOM     39  C   UNL A   1      40.115  25.878  27.209  1.00  0.00     0.010 A 
ATOM     40  C   UNL A   1      41.103  26.139  28.159  1.00  0.00    -0.014 A 
BRANCH  40  41
ATOM     41  C   UNL A   1      41.086  27.415  28.897  1.00  0.00     0.031 A 
ATOM     42  C   UNL A   1      42.214  28.258  28.410  1.00  0.00     0.074 A 
ATOM     43  C   UNL A   1      40.153  27.868  29.775  1.00  0.00     0.049 A 
ATOM     44  N   UNL A   1      43.244  28.655  29.082  1.00  0.00    -0.248 NA
ATOM     45  C   UNL A   1      42.327  28.477  26.954  1.00  0.00     0.031 C 
ATOM     46  C   UNL A   1      38.904  27.241  30.213  1.00  0.00     0.029 A 
ATOM     47  N   UNL A   1      40.098  29.078  30.435  1.00  0.00    -0.354 N 
ATOM     48  C   UNL A   1      44.030  29.346  28.167  1.00  0.00     0.074 A 
ATOM     49  C   UNL A   1      43.539  29.020  26.857  1.00  0.00     0.031 C 
ATOM     50  C   UNL A   1      38.120  28.139  30.857  1.00  0.00     0.029 A 
ATOM     51  C   UNL A   1      38.835  29.389  30.977  1.00  0.00     0.049 A 
ATOM     52  H   UNL A   1      40.877  29.675  30.521  1.00  0.00     0.167 HD
ATOM     53  C   UNL A   1      44.846  30.356  28.563  1.00  0.00     0.037 A 
ATOM     54  C   UNL A   1      38.410  30.608  31.426  1.00  0.00     0.037 A 
ATOM     55  C   UNL A   1      45.127  30.282  29.969  1.00  0.00     0.049 A 
ATOM     56  C   UNL A   1      39.627  31.403  31.727  1.00  0.00     0.074 A 
ATOM     57  C   UNL A   1      45.755  29.350  30.771  1.00  0.00     0.029 A 
ATOM     58  N   UNL A   1      44.368  31.057  30.810  1.00  0.00    -0.354 N 
ATOM     59  N   UNL A   1      40.442  31.105  32.702  1.00  0.00    -0.248 NA
ATOM     60  C   UNL A   1      40.200  32.145  30.612  1.00  0.00     0.031 C 
ATOM     61  C   UNL A   1      44.968  29.295  31.956  1.00  0.00     0.029 A 
ATOM     62  C   UNL A   1      43.975  30.267  31.862  1.00  0.00     0.049 A 
ATOM     63  H   UNL A   1      44.145  32.008  30.682  1.00  0.00     0.167 HD
ATOM     64  C   UNL A   1      41.698  31.205  32.129  1.00  0.00     0.074 A 
ATOM     65  C   UNL A   1      41.483  31.850  30.833  1.00  0.00     0.031 C 
ATOM     66  C   UNL A   1      42.757  30.488  32.600  1.00  0.00     0.037 A 
BRANCH  53  67
ATOM     67  C   UNL A   1      45.052  31.598  27.746  1.00  0.00     0.064 A 
ATOM     68  C   UNL A   1      46.296  31.836  27.139  1.00  0.00     0.173 A 
ATOM     69  C   UNL A   1      44.156  32.692  27.761  1.00  0.00     0.173 A 
ATOM     70  F   UNL A   1      47.238  30.882  27.123  1.00  0.00    -0.203 F 
ATOM     71  C   UNL A   1      46.625  33.086  26.609  1.00  0.00     0.198 A 
ATOM     72  C   UNL A   1      44.463  33.918  27.180  1.00  0.00     0.198 A 
ATOM     73  F   UNL A   1      43.000  32.657  28.437  1.00  0.00    -0.203 F 
ATOM     74  F   UNL A   1      47.858  33.302  26.133  1.00  0.00    -0.200 F 
ATOM     75  C   UNL A   1      45.707  34.123  26.624  1.00  0.00     0.200 A 
ATOM     76  F   UNL A   1      43.571  34.916  27.237  1.00  0.00    -0.200 F 
ATOM     77  F   UNL A   1      46.035  35.331  26.152  1.00  0.00    -0.200 F 
ENDBRANCH  53  67
BRANCH  54  78
ATOM     78  C   UNL A   1      37.080  31.269  31.232  1.00  0.00     0.064 A 
ATOM     79  C   UNL A   1      36.322  31.766  32.313  1.00  0.00     0.173 A 
ATOM     80  C   UNL A   1      36.670  31.697  29.955  1.00  0.00     0.173 A 
ATOM     81  F   UNL A   1      36.661  31.462  33.575  1.00  0.00    -0.203 F 
ATOM     82  C   UNL A   1      35.241  32.645  32.123  1.00  0.00     0.198 A 
ATOM     83  C   UNL A   1      35.596  32.572  29.767  1.00  0.00     0.198 A 
ATOM     84  F   UNL A   1      37.366  31.353  28.862  1.00  0.00    -0.203 F 
ATOM     85  F   UNL A   1      34.579  33.139  33.181  1.00  0.00    -0.200 F 
ATOM     86  C   UNL A   1      34.888  33.056  30.850  1.00  0.00     0.200 A 
ATOM     87  F   UNL A   1      35.296  32.995  28.531  1.00  0.00    -0.200 F 
ATOM     88  F   UNL A   1      33.902  33.946  30.668  1.00  0.00    -0.200 F 
ENDBRANCH  54  78
BRANCH  66  89
ATOM     89  C   UNL A   1      42.600  29.719  33.881  1.00  0.00     0.064 A 
ATOM     90  C   UNL A   1      42.041  28.432  33.970  1.00  0.00     0.173 A 
ATOM     91  C   UNL A   1      43.233  30.228  35.022  1.00  0.00     0.173 A 
ATOM     92  F   UNL A   1      41.499  27.840  32.897  1.00  0.00    -0.203 F 
ATOM     93  C   UNL A   1      42.105  27.700  35.159  1.00  0.00     0.198 A 
ATOM     94  C   UNL A   1      43.329  29.482  36.192  1.00  0.00     0.198 A 
ATOM     95  F   UNL A   1      43.827  31.432  34.977  1.00  0.00    -0.203 F 
ATOM     96  F   UNL A   1      41.574  26.470  35.222  1.00  0.00    -0.200 F 
ATOM     97  C   UNL A   1      42.762  28.221  36.263  1.00  0.00     0.200 A 
ATOM     98  F   UNL A   1      44.012  29.972  37.237  1.00  0.00    -0.200 F 
ATOM     99  F   UNL A   1      42.876  27.498  37.386  1.00  0.00    -0.200 F 
ENDBRANCH  66  89
ENDBRANCH  40  41
ENDBRANCH  33  35
ENDBRANCH  32  33
ENDBRANCH  31  32
ENDBRANCH  30  31
ENDBRANCH  29  30
ENDBRANCH   1  29
TORSDOF 19
ENDMDL
