MODEL 1
REMARK VINA RESULT:     -13.1      0.000      0.000
REMARK SMILES CN1C(=O)C[C@@H](C(=O)OCCOCCOC(=O)c2ccc(-c3c4nc(c(-c5c(F)c(F)c(F)c(F)c5F)c5ccc([nH]5)c(-c5c(F)c(F)c(F)c(F)c5F)c5nc(c(-c6c(F)c(F)c(F)c(F)c6F)c6ccc3[nH]6)C=C5)C=C4)cc2)C12CCN(C(=O)c1cccc3ccccc13)CC2
REMARK SMILES IDX 13 1 12 2 11 3 10 4 9 5 7 6 8 7 6 8 1 9 2 10 3 11 81 12 4 13
REMARK SMILES IDX 5 14 82 15 98 16 83 17 97 18 84 19 85 20 86 21 87 22 88 23
REMARK SMILES IDX 96 24 89 25 91 26 95 27 90 28 92 29 94 30 93 31 14 32 15 33
REMARK SMILES IDX 16 34 17 35 18 36 19 37 80 38 20 39 79 40 21 41 22 42 23 43
REMARK SMILES IDX 73 44 24 45 78 46 72 47 74 48 25 49 77 50 71 51 70 52 26 54
REMARK SMILES IDX 58 55 38 56 57 57 39 58 42 59 56 60 75 61 40 62 41 63 55 65
REMARK SMILES IDX 76 66 43 67 27 68 28 69 36 70 29 71 30 72 34 73 37 74 31 75
REMARK SMILES IDX 32 76 35 77 33 78 59 79 60 80 68 81 61 82 62 83 66 84 69 85
REMARK SMILES IDX 63 86 64 87 67 88 65 89 44 90 45 91 53 92 46 93 47 94 51 95
REMARK SMILES IDX 54 96 48 97 49 98 52 99 50 100
REMARK H PARENT 74 53 42 64
REMARK Flexibility Score: inf
ROOT
ATOM      1  C   UNL A   1      31.778  32.288  26.943  1.00  0.00     0.202 C 
ENDROOT
BRANCH   1   2
ATOM      2  O   UNL A   1      32.856  31.358  26.898  1.00  0.00    -0.374 OA
BRANCH   2   3
ATOM      3  C   UNL A   1      32.589  30.005  27.259  1.00  0.00     0.202 C 
BRANCH   3   4
ATOM      4  C   UNL A   1      31.937  29.103  26.204  1.00  0.00     0.261 C 
BRANCH   4   5
ATOM      5  O   UNL A   1      31.714  29.705  24.906  1.00  0.00    -0.463 OA
BRANCH   5   6
ATOM      6  C   UNL A   1      32.437  29.171  23.893  1.00  0.00     0.311 C 
ATOM      7  O   UNL A   1      33.649  29.327  23.762  1.00  0.00    -0.252 OA
BRANCH   6   8
ATOM      8  C   UNL A   1      31.644  28.453  22.817  1.00  0.00     0.134 C 
ATOM      9  C   UNL A   1      28.572  26.415  23.626  1.00  0.00     0.147 C 
ATOM     10  N   UNL A   1      29.598  27.394  23.307  1.00  0.00    -0.339 N 
ATOM     11  C   UNL A   1      29.271  28.708  23.015  1.00  0.00     0.223 C 
ATOM     12  C   UNL A   1      30.995  27.053  22.984  1.00  0.00     0.060 C 
ATOM     13  O   UNL A   1      28.174  29.229  23.127  1.00  0.00    -0.275 OA
ATOM     14  C   UNL A   1      30.484  29.389  22.453  1.00  0.00     0.118 C 
ATOM     15  C   UNL A   1      31.622  26.126  24.042  1.00  0.00     0.051 C 
ATOM     16  C   UNL A   1      31.029  26.301  21.613  1.00  0.00     0.051 C 
ATOM     17  C   UNL A   1      33.019  25.657  23.648  1.00  0.00     0.122 C 
ATOM     18  C   UNL A   1      32.391  25.694  21.271  1.00  0.00     0.122 C 
ATOM     19  N   UNL A   1      32.959  24.938  22.386  1.00  0.00    -0.338 N 
ATOM     20  C   UNL A   1      33.532  23.691  22.117  1.00  0.00     0.254 C 
ATOM     21  O   UNL A   1      33.462  23.163  21.007  1.00  0.00    -0.269 OA
BRANCH  20  22
ATOM     22  C   UNL A   1      34.357  22.973  23.126  1.00  0.00     0.047 A 
ATOM     23  C   UNL A   1      35.721  23.318  23.112  1.00  0.00     0.014 A 
ATOM     24  C   UNL A   1      33.890  21.908  23.945  1.00  0.00    -0.006 A 
ATOM     25  C   UNL A   1      36.635  22.629  23.898  1.00  0.00     0.001 A 
ATOM     26  C   UNL A   1      34.841  21.223  24.749  1.00  0.00    -0.018 A 
ATOM     27  C   UNL A   1      32.547  21.463  24.010  1.00  0.00     0.009 A 
ATOM     28  C   UNL A   1      36.196  21.584  24.707  1.00  0.00     0.009 A 
ATOM     29  C   UNL A   1      34.435  20.167  25.579  1.00  0.00     0.009 A 
ATOM     30  C   UNL A   1      32.153  20.436  24.874  1.00  0.00     0.001 A 
ATOM     31  C   UNL A   1      33.098  19.786  25.655  1.00  0.00     0.001 A 
ENDBRANCH  20  22
ENDBRANCH   6   8
ENDBRANCH   5   6
ENDBRANCH   4   5
ENDBRANCH   3   4
ENDBRANCH   2   3
ENDBRANCH   1   2
BRANCH   1  32
ATOM     32  C   UNL A   1      32.166  33.744  27.215  1.00  0.00     0.261 C 
BRANCH  32  33
ATOM     33  O   UNL A   1      32.393  33.970  28.619  1.00  0.00    -0.460 OA
BRANCH  33  34
ATOM     34  C   UNL A   1      33.504  34.703  28.872  1.00  0.00     0.338 C 
ATOM     35  O   UNL A   1      33.561  35.897  29.105  1.00  0.00    -0.246 OA
BRANCH  34  36
ATOM     36  C   UNL A   1      34.665  33.814  29.047  1.00  0.00     0.060 A 
ATOM     37  C   UNL A   1      34.464  32.623  29.757  1.00  0.00     0.016 A 
ATOM     38  C   UNL A   1      35.948  34.203  28.660  1.00  0.00     0.016 A 
ATOM     39  C   UNL A   1      35.558  31.849  30.141  1.00  0.00     0.010 A 
ATOM     40  C   UNL A   1      37.046  33.421  29.047  1.00  0.00     0.010 A 
ATOM     41  C   UNL A   1      36.860  32.266  29.829  1.00  0.00    -0.014 A 
BRANCH  41  42
ATOM     42  C   UNL A   1      38.008  31.563  30.460  1.00  0.00     0.031 A 
ATOM     43  C   UNL A   1      38.358  31.866  31.893  1.00  0.00     0.074 A 
ATOM     44  C   UNL A   1      38.687  30.615  29.790  1.00  0.00     0.049 A 
ATOM     45  N   UNL A   1      39.263  31.316  32.663  1.00  0.00    -0.248 NA
ATOM     46  C   UNL A   1      37.581  32.930  32.546  1.00  0.00     0.031 C 
ATOM     47  C   UNL A   1      38.432  30.215  28.408  1.00  0.00     0.029 A 
ATOM     48  N   UNL A   1      39.726  29.810  30.188  1.00  0.00    -0.354 N 
ATOM     49  C   UNL A   1      39.156  31.958  33.891  1.00  0.00     0.074 A 
ATOM     50  C   UNL A   1      38.128  32.967  33.752  1.00  0.00     0.031 C 
ATOM     51  C   UNL A   1      39.288  29.235  28.074  1.00  0.00     0.029 A 
ATOM     52  C   UNL A   1      40.162  28.950  29.210  1.00  0.00     0.049 A 
ATOM     53  H   UNL A   1      40.120  29.845  31.090  1.00  0.00     0.167 HD
ATOM     54  C   UNL A   1      39.841  31.716  35.036  1.00  0.00     0.037 A 
ATOM     55  C   UNL A   1      41.154  28.038  29.232  1.00  0.00     0.037 A 
ATOM     56  C   UNL A   1      40.866  30.715  35.173  1.00  0.00     0.049 A 
ATOM     57  C   UNL A   1      41.940  27.829  30.500  1.00  0.00     0.074 A 
ATOM     58  C   UNL A   1      41.603  30.382  36.297  1.00  0.00     0.029 A 
ATOM     59  N   UNL A   1      41.306  29.891  34.148  1.00  0.00    -0.354 N 
ATOM     60  N   UNL A   1      41.797  28.407  31.668  1.00  0.00    -0.248 NA
ATOM     61  C   UNL A   1      43.019  26.831  30.455  1.00  0.00     0.031 C 
ATOM     62  C   UNL A   1      42.522  29.390  35.939  1.00  0.00     0.029 A 
ATOM     63  C   UNL A   1      42.324  29.069  34.605  1.00  0.00     0.049 A 
ATOM     64  H   UNL A   1      40.948  29.891  33.231  1.00  0.00     0.167 HD
ATOM     65  C   UNL A   1      42.747  27.828  32.501  1.00  0.00     0.074 A 
ATOM     66  C   UNL A   1      43.452  26.841  31.709  1.00  0.00     0.031 C 
ATOM     67  C   UNL A   1      43.011  28.089  33.805  1.00  0.00     0.037 A 
BRANCH  54  68
ATOM     68  C   UNL A   1      39.512  32.564  36.230  1.00  0.00     0.064 A 
ATOM     69  C   UNL A   1      40.201  33.757  36.497  1.00  0.00     0.173 A 
ATOM     70  C   UNL A   1      38.475  32.197  37.101  1.00  0.00     0.173 A 
ATOM     71  F   UNL A   1      41.209  34.147  35.702  1.00  0.00    -0.203 F 
ATOM     72  C   UNL A   1      39.881  34.537  37.607  1.00  0.00     0.198 A 
ATOM     73  C   UNL A   1      38.141  32.992  38.193  1.00  0.00     0.198 A 
ATOM     74  F   UNL A   1      37.782  31.067  36.889  1.00  0.00    -0.203 F 
ATOM     75  F   UNL A   1      40.582  35.649  37.867  1.00  0.00    -0.200 F 
ATOM     76  C   UNL A   1      38.847  34.157  38.450  1.00  0.00     0.200 A 
ATOM     77  F   UNL A   1      37.135  32.628  39.002  1.00  0.00    -0.200 F 
ATOM     78  F   UNL A   1      38.539  34.910  39.515  1.00  0.00    -0.200 F 
ENDBRANCH  54  68
BRANCH  55  79
ATOM     79  C   UNL A   1      41.457  27.244  28.012  1.00  0.00     0.064 A 
ATOM     80  C   UNL A   1      40.862  25.994  27.793  1.00  0.00     0.173 A 
ATOM     81  C   UNL A   1      42.359  27.715  27.046  1.00  0.00     0.173 A 
ATOM     82  F   UNL A   1      40.015  25.489  28.700  1.00  0.00    -0.203 F 
ATOM     83  C   UNL A   1      41.170  25.240  26.662  1.00  0.00     0.198 A 
ATOM     84  C   UNL A   1      42.644  26.972  25.903  1.00  0.00     0.198 A 
ATOM     85  F   UNL A   1      42.957  28.904  27.211  1.00  0.00    -0.203 F 
ATOM     86  F   UNL A   1      40.619  24.029  26.498  1.00  0.00    -0.200 F 
ATOM     87  C   UNL A   1      42.054  25.732  25.715  1.00  0.00     0.200 A 
ATOM     88  F   UNL A   1      43.494  27.457  24.987  1.00  0.00    -0.200 F 
ATOM     89  F   UNL A   1      42.346  25.007  24.626  1.00  0.00    -0.200 F 
ENDBRANCH  55  79
BRANCH  67  90
ATOM     90  C   UNL A   1      44.090  27.280  34.466  1.00  0.00     0.064 A 
ATOM     91  C   UNL A   1      43.818  26.037  35.056  1.00  0.00     0.173 A 
ATOM     92  C   UNL A   1      45.418  27.733  34.468  1.00  0.00     0.173 A 
ATOM     93  F   UNL A   1      42.563  25.566  35.091  1.00  0.00    -0.203 F 
ATOM     94  C   UNL A   1      44.834  25.287  35.645  1.00  0.00     0.198 A 
ATOM     95  C   UNL A   1      46.435  26.969  35.033  1.00  0.00     0.198 A 
ATOM     96  F   UNL A   1      45.732  28.911  33.910  1.00  0.00    -0.203 F 
ATOM     97  F   UNL A   1      44.545  24.123  36.242  1.00  0.00    -0.200 F 
ATOM     98  C   UNL A   1      46.141  25.750  35.627  1.00  0.00     0.200 A 
ATOM     99  F   UNL A   1      47.699  27.410  35.003  1.00  0.00    -0.200 F 
ATOM    100  F   UNL A   1      47.118  25.025  36.189  1.00  0.00    -0.200 F 
ENDBRANCH  67  90
ENDBRANCH  41  42
ENDBRANCH  34  36
ENDBRANCH  33  34
ENDBRANCH  32  33
ENDBRANCH   1  32
TORSDOF 15
ENDMDL
MODEL 2
REMARK VINA RESULT:     -12.9      0.988      2.192
REMARK SMILES CN1C(=O)C[C@@H](C(=O)OCCOCCOC(=O)c2ccc(-c3c4nc(c(-c5c(F)c(F)c(F)c(F)c5F)c5ccc([nH]5)c(-c5c(F)c(F)c(F)c(F)c5F)c5nc(c(-c6c(F)c(F)c(F)c(F)c6F)c6ccc3[nH]6)C=C5)C=C4)cc2)C12CCN(C(=O)c1cccc3ccccc13)CC2
REMARK SMILES IDX 13 1 12 2 11 3 10 4 9 5 7 6 8 7 6 8 1 9 2 10 3 11 81 12 4 13
REMARK SMILES IDX 5 14 82 15 98 16 83 17 97 18 84 19 85 20 86 21 87 22 88 23
REMARK SMILES IDX 96 24 89 25 91 26 95 27 90 28 92 29 94 30 93 31 14 32 15 33
REMARK SMILES IDX 16 34 17 35 18 36 19 37 80 38 20 39 79 40 21 41 22 42 23 43
REMARK SMILES IDX 73 44 24 45 78 46 72 47 74 48 25 49 77 50 71 51 70 52 26 54
REMARK SMILES IDX 58 55 38 56 57 57 39 58 42 59 56 60 75 61 40 62 41 63 55 65
REMARK SMILES IDX 76 66 43 67 27 68 28 69 36 70 29 71 30 72 34 73 37 74 31 75
REMARK SMILES IDX 32 76 35 77 33 78 59 79 60 80 68 81 61 82 62 83 66 84 69 85
REMARK SMILES IDX 63 86 64 87 67 88 65 89 44 90 45 91 53 92 46 93 47 94 51 95
REMARK SMILES IDX 54 96 48 97 49 98 52 99 50 100
REMARK H PARENT 74 53 42 64
REMARK Flexibility Score: inf
ROOT
ATOM      1  C   UNL A   1      32.456  31.620  27.243  1.00  0.00     0.202 C 
ENDROOT
BRANCH   1   2
ATOM      2  O   UNL A   1      33.617  31.218  27.966  1.00  0.00    -0.374 OA
BRANCH   2   3
ATOM      3  C   UNL A   1      34.653  30.550  27.251  1.00  0.00     0.202 C 
BRANCH   3   4
ATOM      4  C   UNL A   1      34.543  29.028  27.095  1.00  0.00     0.261 C 
BRANCH   4   5
ATOM      5  O   UNL A   1      34.114  28.554  25.797  1.00  0.00    -0.463 OA
BRANCH   5   6
ATOM      6  C   UNL A   1      32.773  28.456  25.635  1.00  0.00     0.311 C 
ATOM      7  O   UNL A   1      31.980  28.330  26.566  1.00  0.00    -0.252 OA
BRANCH   6   8
ATOM      8  C   UNL A   1      32.279  28.376  24.203  1.00  0.00     0.134 C 
ATOM      9  C   UNL A   1      28.754  27.315  23.365  1.00  0.00     0.147 C 
ATOM     10  N   UNL A   1      30.014  27.952  23.713  1.00  0.00    -0.339 N 
ATOM     11  C   UNL A   1      30.107  29.326  23.863  1.00  0.00     0.223 C 
ATOM     12  C   UNL A   1      31.324  27.280  23.658  1.00  0.00     0.060 C 
ATOM     13  O   UNL A   1      29.184  30.122  23.876  1.00  0.00    -0.275 OA
ATOM     14  C   UNL A   1      31.557  29.703  23.931  1.00  0.00     0.118 C 
ATOM     15  C   UNL A   1      31.316  25.937  24.414  1.00  0.00     0.051 C 
ATOM     16  C   UNL A   1      31.678  26.982  22.164  1.00  0.00     0.051 C 
ATOM     17  C   UNL A   1      32.624  25.170  24.247  1.00  0.00     0.122 C 
ATOM     18  C   UNL A   1      32.907  26.087  21.984  1.00  0.00     0.122 C 
ATOM     19  N   UNL A   1      32.861  24.902  22.838  1.00  0.00    -0.338 N 
ATOM     20  C   UNL A   1      33.206  23.668  22.279  1.00  0.00     0.254 C 
ATOM     21  O   UNL A   1      33.422  23.532  21.074  1.00  0.00    -0.269 OA
BRANCH  20  22
ATOM     22  C   UNL A   1      33.441  22.463  23.120  1.00  0.00     0.047 A 
ATOM     23  C   UNL A   1      32.294  21.678  23.342  1.00  0.00     0.014 A 
ATOM     24  C   UNL A   1      34.658  22.172  23.796  1.00  0.00    -0.006 A 
ATOM     25  C   UNL A   1      32.330  20.604  24.221  1.00  0.00     0.001 A 
ATOM     26  C   UNL A   1      34.674  21.062  24.683  1.00  0.00    -0.018 A 
ATOM     27  C   UNL A   1      35.856  22.914  23.666  1.00  0.00     0.009 A 
ATOM     28  C   UNL A   1      33.512  20.303  24.891  1.00  0.00     0.009 A 
ATOM     29  C   UNL A   1      35.848  20.726  25.375  1.00  0.00     0.009 A 
ATOM     30  C   UNL A   1      37.029  22.541  24.330  1.00  0.00     0.001 A 
ATOM     31  C   UNL A   1      37.024  21.449  25.187  1.00  0.00     0.001 A 
ENDBRANCH  20  22
ENDBRANCH   6   8
ENDBRANCH   5   6
ENDBRANCH   4   5
ENDBRANCH   3   4
ENDBRANCH   2   3
ENDBRANCH   1   2
BRANCH   1  32
ATOM     32  C   UNL A   1      32.151  33.120  27.255  1.00  0.00     0.261 C 
BRANCH  32  33
ATOM     33  O   UNL A   1      33.355  33.897  27.394  1.00  0.00    -0.460 OA
BRANCH  33  34
ATOM     34  C   UNL A   1      33.383  34.648  28.522  1.00  0.00     0.338 C 
ATOM     35  O   UNL A   1      32.525  35.416  28.916  1.00  0.00    -0.246 OA
BRANCH  34  36
ATOM     36  C   UNL A   1      34.529  34.255  29.361  1.00  0.00     0.060 A 
ATOM     37  C   UNL A   1      35.810  34.435  28.826  1.00  0.00     0.016 A 
ATOM     38  C   UNL A   1      34.351  33.590  30.575  1.00  0.00     0.016 A 
ATOM     39  C   UNL A   1      36.917  33.889  29.474  1.00  0.00     0.010 A 
ATOM     40  C   UNL A   1      35.467  33.043  31.224  1.00  0.00     0.010 A 
ATOM     41  C   UNL A   1      36.750  33.150  30.653  1.00  0.00    -0.014 A 
BRANCH  41  42
ATOM     42  C   UNL A   1      37.901  32.373  31.183  1.00  0.00     0.031 A 
ATOM     43  C   UNL A   1      38.392  32.647  32.580  1.00  0.00     0.074 A 
ATOM     44  C   UNL A   1      38.458  31.386  30.459  1.00  0.00     0.049 A 
ATOM     45  N   UNL A   1      39.322  32.038  33.271  1.00  0.00    -0.248 NA
ATOM     46  C   UNL A   1      37.743  33.757  33.296  1.00  0.00     0.031 C 
ATOM     47  C   UNL A   1      38.059  31.008  29.105  1.00  0.00     0.029 A 
ATOM     48  N   UNL A   1      39.473  30.514  30.768  1.00  0.00    -0.354 N 
ATOM     49  C   UNL A   1      39.363  32.680  34.503  1.00  0.00     0.074 A 
ATOM     50  C   UNL A   1      38.394  33.754  34.450  1.00  0.00     0.031 C 
ATOM     51  C   UNL A   1      38.819  29.976  28.700  1.00  0.00     0.029 A 
ATOM     52  C   UNL A   1      39.767  29.631  29.758  1.00  0.00     0.049 A 
ATOM     53  H   UNL A   1      39.945  30.521  31.632  1.00  0.00     0.167 HD
ATOM     54  C   UNL A   1      40.127  32.392  35.584  1.00  0.00     0.037 A 
ATOM     55  C   UNL A   1      40.696  28.658  29.696  1.00  0.00     0.037 A 
ATOM     56  C   UNL A   1      41.094  31.326  35.635  1.00  0.00     0.049 A 
ATOM     57  C   UNL A   1      41.574  28.394  30.892  1.00  0.00     0.074 A 
ATOM     58  C   UNL A   1      41.902  30.943  36.691  1.00  0.00     0.029 A 
ATOM     59  N   UNL A   1      41.390  30.480  34.577  1.00  0.00    -0.354 N 
ATOM     60  N   UNL A   1      41.570  28.976  32.066  1.00  0.00    -0.248 NA
ATOM     61  C   UNL A   1      42.579  27.330  30.755  1.00  0.00     0.031 C 
ATOM     62  C   UNL A   1      42.721  29.895  36.257  1.00  0.00     0.029 A 
ATOM     63  C   UNL A   1      42.388  29.592  34.946  1.00  0.00     0.049 A 
ATOM     64  H   UNL A   1      40.955  30.505  33.694  1.00  0.00     0.167 HD
ATOM     65  C   UNL A   1      42.549  28.334  32.815  1.00  0.00     0.074 A 
ATOM     66  C   UNL A   1      43.118  27.308  31.967  1.00  0.00     0.031 C 
ATOM     67  C   UNL A   1      42.941  28.574  34.091  1.00  0.00     0.037 A 
BRANCH  54  68
ATOM     68  C   UNL A   1      39.957  33.254  36.801  1.00  0.00     0.064 A 
ATOM     69  C   UNL A   1      38.957  32.998  37.750  1.00  0.00     0.173 A 
ATOM     70  C   UNL A   1      40.827  34.329  37.039  1.00  0.00     0.173 A 
ATOM     71  F   UNL A   1      38.092  31.989  37.565  1.00  0.00    -0.203 F 
ATOM     72  C   UNL A   1      38.815  33.803  38.879  1.00  0.00     0.198 A 
ATOM     73  C   UNL A   1      40.700  35.115  38.180  1.00  0.00     0.198 A 
ATOM     74  F   UNL A   1      41.805  34.614  36.165  1.00  0.00    -0.203 F 
ATOM     75  F   UNL A   1      37.824  33.567  39.749  1.00  0.00    -0.200 F 
ATOM     76  C   UNL A   1      39.691  34.857  39.096  1.00  0.00     0.200 A 
ATOM     77  F   UNL A   1      41.552  36.127  38.394  1.00  0.00    -0.200 F 
ATOM     78  F   UNL A   1      39.556  35.628  40.183  1.00  0.00    -0.200 F 
ENDBRANCH  54  68
BRANCH  55  79
ATOM     79  C   UNL A   1      40.842  27.851  28.455  1.00  0.00     0.064 A 
ATOM     80  C   UNL A   1      40.165  26.634  28.298  1.00  0.00     0.173 A 
ATOM     81  C   UNL A   1      41.673  28.276  27.407  1.00  0.00     0.173 A 
ATOM     82  F   UNL A   1      39.380  26.173  29.281  1.00  0.00    -0.203 F 
ATOM     83  C   UNL A   1      40.325  25.866  27.146  1.00  0.00     0.198 A 
ATOM     84  C   UNL A   1      41.811  27.520  26.246  1.00  0.00     0.198 A 
ATOM     85  F   UNL A   1      42.346  29.431  27.511  1.00  0.00    -0.203 F 
ATOM     86  F   UNL A   1      39.699  24.686  27.038  1.00  0.00    -0.200 F 
ATOM     87  C   UNL A   1      41.142  26.313  26.118  1.00  0.00     0.200 A 
ATOM     88  F   UNL A   1      42.595  27.960  25.252  1.00  0.00    -0.200 F 
ATOM     89  F   UNL A   1      41.292  25.575  25.009  1.00  0.00    -0.200 F 
ENDBRANCH  55  79
BRANCH  67  90
ATOM     90  C   UNL A   1      44.018  27.694  34.658  1.00  0.00     0.064 A 
ATOM     91  C   UNL A   1      45.369  28.066  34.613  1.00  0.00     0.173 A 
ATOM     92  C   UNL A   1      43.689  26.487  35.294  1.00  0.00     0.173 A 
ATOM     93  F   UNL A   1      45.737  29.204  34.004  1.00  0.00    -0.203 F 
ATOM     94  C   UNL A   1      46.355  27.250  35.163  1.00  0.00     0.198 A 
ATOM     95  C   UNL A   1      44.673  25.688  35.867  1.00  0.00     0.198 A 
ATOM     96  F   UNL A   1      42.410  26.091  35.371  1.00  0.00    -0.203 F 
ATOM     97  F   UNL A   1      47.644  27.604  35.070  1.00  0.00    -0.200 F 
ATOM     98  C   UNL A   1      46.006  26.066  35.796  1.00  0.00     0.200 A 
ATOM     99  F   UNL A   1      44.334  24.551  36.490  1.00  0.00    -0.200 F 
ATOM    100  F   UNL A   1      46.955  25.285  36.330  1.00  0.00    -0.200 F 
ENDBRANCH  67  90
ENDBRANCH  41  42
ENDBRANCH  34  36
ENDBRANCH  33  34
ENDBRANCH  32  33
ENDBRANCH   1  32
TORSDOF 15
ENDMDL
MODEL 3
REMARK VINA RESULT:     -12.8      1.280      2.195
REMARK SMILES CN1C(=O)C[C@@H](C(=O)OCCOCCOC(=O)c2ccc(-c3c4nc(c(-c5c(F)c(F)c(F)c(F)c5F)c5ccc([nH]5)c(-c5c(F)c(F)c(F)c(F)c5F)c5nc(c(-c6c(F)c(F)c(F)c(F)c6F)c6ccc3[nH]6)C=C5)C=C4)cc2)C12CCN(C(=O)c1cccc3ccccc13)CC2
REMARK SMILES IDX 13 1 12 2 11 3 10 4 9 5 7 6 8 7 6 8 1 9 2 10 3 11 81 12 4 13
REMARK SMILES IDX 5 14 82 15 98 16 83 17 97 18 84 19 85 20 86 21 87 22 88 23
REMARK SMILES IDX 96 24 89 25 91 26 95 27 90 28 92 29 94 30 93 31 14 32 15 33
REMARK SMILES IDX 16 34 17 35 18 36 19 37 80 38 20 39 79 40 21 41 22 42 23 43
REMARK SMILES IDX 73 44 24 45 78 46 72 47 74 48 25 49 77 50 71 51 70 52 26 54
REMARK SMILES IDX 58 55 38 56 57 57 39 58 42 59 56 60 75 61 40 62 41 63 55 65
REMARK SMILES IDX 76 66 43 67 27 68 28 69 36 70 29 71 30 72 34 73 37 74 31 75
REMARK SMILES IDX 32 76 35 77 33 78 59 79 60 80 68 81 61 82 62 83 66 84 69 85
REMARK SMILES IDX 63 86 64 87 67 88 65 89 44 90 45 91 53 92 46 93 47 94 51 95
REMARK SMILES IDX 54 96 48 97 49 98 52 99 50 100
REMARK H PARENT 74 53 42 64
REMARK Flexibility Score: inf
ROOT
ATOM      1  C   UNL A   1      33.787  32.049  28.017  1.00  0.00     0.202 C 
ENDROOT
BRANCH   1   2
ATOM      2  O   UNL A   1      34.065  31.053  27.036  1.00  0.00    -0.374 OA
BRANCH   2   3
ATOM      3  C   UNL A   1      34.771  29.886  27.450  1.00  0.00     0.202 C 
BRANCH   3   4
ATOM      4  C   UNL A   1      34.402  28.556  26.781  1.00  0.00     0.261 C 
BRANCH   4   5
ATOM      5  O   UNL A   1      33.889  28.648  25.430  1.00  0.00    -0.463 OA
BRANCH   5   6
ATOM      6  C   UNL A   1      32.539  28.601  25.324  1.00  0.00     0.311 C 
ATOM      7  O   UNL A   1      31.777  28.622  26.288  1.00  0.00    -0.252 OA
BRANCH   6   8
ATOM      8  C   UNL A   1      31.988  28.386  23.927  1.00  0.00     0.134 C 
ATOM      9  C   UNL A   1      28.511  27.041  23.339  1.00  0.00     0.147 C 
ATOM     10  N   UNL A   1      29.738  27.782  23.580  1.00  0.00    -0.339 N 
ATOM     11  C   UNL A   1      29.743  29.166  23.630  1.00  0.00     0.223 C 
ATOM     12  C   UNL A   1      31.087  27.194  23.507  1.00  0.00     0.060 C 
ATOM     13  O   UNL A   1      28.769  29.899  23.633  1.00  0.00    -0.275 OA
ATOM     14  C   UNL A   1      31.166  29.640  23.600  1.00  0.00     0.118 C 
ATOM     15  C   UNL A   1      31.205  25.912  24.353  1.00  0.00     0.051 C 
ATOM     16  C   UNL A   1      31.394  26.812  22.022  1.00  0.00     0.051 C 
ATOM     17  C   UNL A   1      32.554  25.221  24.175  1.00  0.00     0.122 C 
ATOM     18  C   UNL A   1      32.671  25.988  21.842  1.00  0.00     0.122 C 
ATOM     19  N   UNL A   1      32.746  24.868  22.778  1.00  0.00    -0.338 N 
ATOM     20  C   UNL A   1      33.148  23.621  22.289  1.00  0.00     0.254 C 
ATOM     21  O   UNL A   1      33.319  23.413  21.087  1.00  0.00    -0.269 OA
BRANCH  20  22
ATOM     22  C   UNL A   1      33.502  22.498  23.198  1.00  0.00     0.047 A 
ATOM     23  C   UNL A   1      32.429  21.643  23.509  1.00  0.00     0.014 A 
ATOM     24  C   UNL A   1      34.757  22.350  23.852  1.00  0.00    -0.006 A 
ATOM     25  C   UNL A   1      32.575  20.637  24.455  1.00  0.00     0.001 A 
ATOM     26  C   UNL A   1      34.887  21.307  24.808  1.00  0.00    -0.018 A 
ATOM     27  C   UNL A   1      35.888  23.173  23.634  1.00  0.00     0.009 A 
ATOM     28  C   UNL A   1      33.796  20.475  25.103  1.00  0.00     0.009 A 
ATOM     29  C   UNL A   1      36.103  21.112  25.481  1.00  0.00     0.009 A 
ATOM     30  C   UNL A   1      37.105  22.939  24.282  1.00  0.00     0.001 A 
ATOM     31  C   UNL A   1      37.211  21.910  25.208  1.00  0.00     0.001 A 
ENDBRANCH  20  22
ENDBRANCH   6   8
ENDBRANCH   5   6
ENDBRANCH   4   5
ENDBRANCH   3   4
ENDBRANCH   2   3
ENDBRANCH   1   2
BRANCH   1  32
ATOM     32  C   UNL A   1      32.937  33.231  27.542  1.00  0.00     0.261 C 
BRANCH  32  33
ATOM     33  O   UNL A   1      32.413  33.978  28.655  1.00  0.00    -0.460 OA
BRANCH  33  34
ATOM     34  C   UNL A   1      33.132  35.090  28.942  1.00  0.00     0.338 C 
ATOM     35  O   UNL A   1      32.802  36.248  28.762  1.00  0.00    -0.246 OA
BRANCH  34  36
ATOM     36  C   UNL A   1      34.329  34.729  29.723  1.00  0.00     0.060 A 
ATOM     37  C   UNL A   1      35.570  34.828  29.082  1.00  0.00     0.016 A 
ATOM     38  C   UNL A   1      34.228  34.166  30.995  1.00  0.00     0.016 A 
ATOM     39  C   UNL A   1      36.709  34.301  29.688  1.00  0.00     0.010 A 
ATOM     40  C   UNL A   1      35.376  33.637  31.602  1.00  0.00     0.010 A 
ATOM     41  C   UNL A   1      36.614  33.660  30.931  1.00  0.00    -0.014 A 
BRANCH  41  42
ATOM     42  C   UNL A   1      37.783  32.893  31.435  1.00  0.00     0.031 A 
ATOM     43  C   UNL A   1      38.399  33.274  32.755  1.00  0.00     0.074 A 
ATOM     44  C   UNL A   1      38.246  31.823  30.763  1.00  0.00     0.049 A 
ATOM     45  N   UNL A   1      39.367  32.696  33.421  1.00  0.00    -0.248 NA
ATOM     46  C   UNL A   1      37.847  34.468  33.415  1.00  0.00     0.031 C 
ATOM     47  C   UNL A   1      37.722  31.340  29.488  1.00  0.00     0.029 A 
ATOM     48  N   UNL A   1      39.258  30.946  31.068  1.00  0.00    -0.354 N 
ATOM     49  C   UNL A   1      39.532  33.446  34.579  1.00  0.00     0.074 A 
ATOM     50  C   UNL A   1      38.594  34.546  34.506  1.00  0.00     0.031 C 
ATOM     51  C   UNL A   1      38.413  30.248  29.120  1.00  0.00     0.029 A 
ATOM     52  C   UNL A   1      39.438  29.965  30.124  1.00  0.00     0.049 A 
ATOM     53  H   UNL A   1      39.802  31.014  31.885  1.00  0.00     0.167 HD
ATOM     54  C   UNL A   1      40.377  33.228  35.616  1.00  0.00     0.037 A 
ATOM     55  C   UNL A   1      40.330  28.956  30.077  1.00  0.00     0.037 A 
ATOM     56  C   UNL A   1      41.313  32.136  35.686  1.00  0.00     0.049 A 
ATOM     57  C   UNL A   1      41.298  28.770  31.216  1.00  0.00     0.074 A 
ATOM     58  C   UNL A   1      42.197  31.821  36.704  1.00  0.00     0.029 A 
ATOM     59  N   UNL A   1      41.492  31.187  34.691  1.00  0.00    -0.354 N 
ATOM     60  N   UNL A   1      41.412  29.455  32.327  1.00  0.00    -0.248 NA
ATOM     61  C   UNL A   1      42.256  27.660  31.097  1.00  0.00     0.031 C 
ATOM     62  C   UNL A   1      42.944  30.708  36.304  1.00  0.00     0.029 A 
ATOM     63  C   UNL A   1      42.492  30.300  35.059  1.00  0.00     0.049 A 
ATOM     64  H   UNL A   1      40.984  31.148  33.849  1.00  0.00     0.167 HD
ATOM     65  C   UNL A   1      42.432  28.848  33.049  1.00  0.00     0.074 A 
ATOM     66  C   UNL A   1      42.895  27.728  32.257  1.00  0.00     0.031 C 
ATOM     67  C   UNL A   1      42.938  29.188  34.261  1.00  0.00     0.037 A 
BRANCH  54  68
ATOM     68  C   UNL A   1      40.338  34.203  36.757  1.00  0.00     0.064 A 
ATOM     69  C   UNL A   1      41.167  35.335  36.785  1.00  0.00     0.173 A 
ATOM     70  C   UNL A   1      39.438  34.022  37.818  1.00  0.00     0.173 A 
ATOM     71  F   UNL A   1      42.053  35.548  35.801  1.00  0.00    -0.203 F 
ATOM     72  C   UNL A   1      41.115  36.235  37.848  1.00  0.00     0.198 A 
ATOM     73  C   UNL A   1      39.371  34.938  38.865  1.00  0.00     0.198 A 
ATOM     74  F   UNL A   1      38.620  32.959  37.837  1.00  0.00    -0.203 F 
ATOM     75  F   UNL A   1      41.948  37.285  37.875  1.00  0.00    -0.200 F 
ATOM     76  C   UNL A   1      40.213  36.039  38.883  1.00  0.00     0.200 A 
ATOM     77  F   UNL A   1      38.492  34.752  39.860  1.00  0.00    -0.200 F 
ATOM     78  F   UNL A   1      40.163  36.907  39.903  1.00  0.00    -0.200 F 
ENDBRANCH  54  68
BRANCH  55  79
ATOM     79  C   UNL A   1      40.345  28.035  28.910  1.00  0.00     0.064 A 
ATOM     80  C   UNL A   1      41.075  28.340  27.753  1.00  0.00     0.173 A 
ATOM     81  C   UNL A   1      39.619  26.834  28.924  1.00  0.00     0.173 A 
ATOM     82  F   UNL A   1      41.764  29.488  27.681  1.00  0.00    -0.203 F 
ATOM     83  C   UNL A   1      41.066  27.488  26.651  1.00  0.00     0.198 A 
ATOM     84  C   UNL A   1      39.632  25.971  27.831  1.00  0.00     0.198 A 
ATOM     85  F   UNL A   1      38.901  26.498  30.006  1.00  0.00    -0.203 F 
ATOM     86  F   UNL A   1      41.738  27.825  25.541  1.00  0.00    -0.200 F 
ATOM     87  C   UNL A   1      40.351  26.301  26.693  1.00  0.00     0.200 A 
ATOM     88  F   UNL A   1      38.946  24.821  27.881  1.00  0.00    -0.200 F 
ATOM     89  F   UNL A   1      40.345  25.481  25.633  1.00  0.00    -0.200 F 
ENDBRANCH  55  79
BRANCH  67  90
ATOM     90  C   UNL A   1      44.034  28.324  34.816  1.00  0.00     0.064 A 
ATOM     91  C   UNL A   1      43.753  27.178  35.574  1.00  0.00     0.173 A 
ATOM     92  C   UNL A   1      45.379  28.622  34.549  1.00  0.00     0.173 A 
ATOM     93  F   UNL A   1      42.484  26.858  35.869  1.00  0.00    -0.203 F 
ATOM     94  C   UNL A   1      44.779  26.375  36.064  1.00  0.00     0.198 A 
ATOM     95  C   UNL A   1      46.401  27.802  35.016  1.00  0.00     0.198 A 
ATOM     96  F   UNL A   1      45.700  29.702  33.822  1.00  0.00    -0.203 F 
ATOM     97  F   UNL A   1      44.490  25.308  36.824  1.00  0.00    -0.200 F 
ATOM     98  C   UNL A   1      46.101  26.682  35.779  1.00  0.00     0.200 A 
ATOM     99  F   UNL A   1      47.677  28.092  34.729  1.00  0.00    -0.200 F 
ATOM    100  F   UNL A   1      47.088  25.904  36.246  1.00  0.00    -0.200 F 
ENDBRANCH  67  90
ENDBRANCH  41  42
ENDBRANCH  34  36
ENDBRANCH  33  34
ENDBRANCH  32  33
ENDBRANCH   1  32
TORSDOF 15
ENDMDL
