MODEL 1
REMARK VINA RESULT:     -11.3      0.000      0.000
REMARK SMILES O=C(C[C@H]([NH2+]Cc1ccco1)C(=O)OCCOCCOC(=O)c1ccc(-c2c3nc(c(-c4c(F)c(F)c(F)c(F)c4F)c4ccc([nH]4)c(-c4c(F)c(F)c(F)c(F)c4F)c4nc(c(-c5c(F)c(F)c(F)c(F)c5F)c5ccc2[nH]5)C=C4)C=C3)cc1)Nc1ccc(O)cc1
REMARK SMILES IDX 16 1 15 2 14 3 12 4 13 5 4 6 3 7 2 8 1 9 86 10 87 12 88 13
REMARK SMILES IDX 93 14 89 15 92 16 90 17 91 18 5 20 6 23 7 24 8 25 11 26 9 27
REMARK SMILES IDX 10 28 17 29 18 30 19 31 20 32 21 33 22 34 23 35 24 36 85 37
REMARK SMILES IDX 25 38 84 39 26 40 27 41 28 42 78 43 29 44 83 45 77 46 79 47
REMARK SMILES IDX 30 48 82 49 76 50 75 51 31 53 63 54 43 55 62 56 44 57 47 58
REMARK SMILES IDX 61 59 80 60 45 61 46 62 60 64 81 65 48 66 32 67 33 68 41 69
REMARK SMILES IDX 34 70 35 71 39 72 42 73 36 74 37 75 40 76 38 77 64 78 65 79
REMARK SMILES IDX 73 80 66 81 67 82 71 83 74 84 68 85 69 86 72 87 70 88 49 89
REMARK SMILES IDX 50 90 58 91 51 92 52 93 56 94 59 95 53 96 54 97 57 98 55 99
REMARK H PARENT 86 11 91 19 5 21 5 22 79 52 47 63
REMARK Flexibility Score: inf
ROOT
ATOM      1  C   UNL A   1      31.301  28.070  25.884  1.00  0.00     0.202 C 
ENDROOT
BRANCH   1   2
ATOM      2  C   UNL A   1      30.960  26.607  25.596  1.00  0.00     0.261 C 
BRANCH   2   3
ATOM      3  O   UNL A   1      31.197  25.810  26.775  1.00  0.00    -0.459 OA
BRANCH   3   4
ATOM      4  C   UNL A   1      31.152  24.461  26.597  1.00  0.00     0.365 C 
ATOM      5  O   UNL A   1      30.455  23.694  27.251  1.00  0.00    -0.245 OA
BRANCH   4   6
ATOM      6  C   UNL A   1      32.107  23.970  25.491  1.00  0.00     0.303 C 
BRANCH   6   7
ATOM      7  C   UNL A   1      31.430  23.007  24.504  1.00  0.00     0.177 C 
BRANCH   7   8
ATOM      8  C   UNL A   1      32.343  21.981  23.861  1.00  0.00     0.231 C 
ATOM      9  O   UNL A   1      32.986  22.266  22.857  1.00  0.00    -0.274 OA
ATOM     10  N   UNL A   1      32.324  20.757  24.503  1.00  0.00    -0.326 N 
ATOM     11  H   UNL A   1      31.898  20.721  25.390  1.00  0.00     0.169 HD
BRANCH  10  12
ATOM     12  C   UNL A   1      32.859  19.558  23.998  1.00  0.00     0.041 A 
ATOM     13  C   UNL A   1      34.014  19.078  24.624  1.00  0.00     0.030 A 
ATOM     14  C   UNL A   1      32.255  18.797  22.995  1.00  0.00     0.030 A 
ATOM     15  C   UNL A   1      34.488  17.804  24.325  1.00  0.00     0.048 A 
ATOM     16  C   UNL A   1      32.777  17.549  22.644  1.00  0.00     0.048 A 
ATOM     17  C   UNL A   1      33.879  17.055  23.329  1.00  0.00     0.115 A 
BRANCH  17  18
ATOM     18  O   UNL A   1      34.402  15.829  23.049  1.00  0.00    -0.508 OA
ATOM     19  H   UNL A   1      34.715  15.639  22.186  1.00  0.00     0.293 HD
ENDBRANCH  17  18
ENDBRANCH  10  12
ENDBRANCH   7   8
ENDBRANCH   6   7
BRANCH   6  20
ATOM     20  N   UNL A   1      33.394  23.426  26.036  1.00  0.00    -0.328 N 
ATOM     21  H   UNL A   1      33.511  22.460  25.729  1.00  0.00     0.347 HD
ATOM     22  H   UNL A   1      33.370  23.462  27.055  1.00  0.00     0.347 HD
BRANCH  20  23
ATOM     23  C   UNL A   1      34.524  24.234  25.548  1.00  0.00     0.337 C 
BRANCH  23  24
ATOM     24  C   UNL A   1      35.736  23.409  25.294  1.00  0.00     0.157 A 
ATOM     25  C   UNL A   1      36.009  22.330  24.478  1.00  0.00     0.052 A 
ATOM     26  O   UNL A   1      36.832  23.702  26.054  1.00  0.00    -0.463 OA
ATOM     27  C   UNL A   1      37.334  21.925  24.778  1.00  0.00     0.042 A 
ATOM     28  C   UNL A   1      37.788  22.789  25.746  1.00  0.00     0.195 A 
ENDBRANCH  23  24
ENDBRANCH  20  23
ENDBRANCH   6  20
ENDBRANCH   4   6
ENDBRANCH   3   4
ENDBRANCH   2   3
ENDBRANCH   1   2
BRANCH   1  29
ATOM     29  O   UNL A   1      31.173  28.953  24.766  1.00  0.00    -0.374 OA
BRANCH  29  30
ATOM     30  C   UNL A   1      31.088  30.347  25.046  1.00  0.00     0.202 C 
BRANCH  30  31
ATOM     31  C   UNL A   1      31.642  30.795  26.403  1.00  0.00     0.261 C 
BRANCH  31  32
ATOM     32  O   UNL A   1      33.078  30.767  26.487  1.00  0.00    -0.460 OA
BRANCH  32  33
ATOM     33  C   UNL A   1      33.603  31.701  27.314  1.00  0.00     0.338 C 
ATOM     34  O   UNL A   1      33.047  32.703  27.750  1.00  0.00    -0.246 OA
BRANCH  33  35
ATOM     35  C   UNL A   1      34.962  31.321  27.742  1.00  0.00     0.060 A 
ATOM     36  C   UNL A   1      35.210  29.966  27.987  1.00  0.00     0.016 A 
ATOM     37  C   UNL A   1      35.949  32.277  28.003  1.00  0.00     0.016 A 
ATOM     38  C   UNL A   1      36.427  29.568  28.537  1.00  0.00     0.010 A 
ATOM     39  C   UNL A   1      37.171  31.875  28.563  1.00  0.00     0.010 A 
ATOM     40  C   UNL A   1      37.403  30.523  28.863  1.00  0.00    -0.014 A 
BRANCH  40  41
ATOM     41  C   UNL A   1      38.603  30.088  29.623  1.00  0.00     0.031 A 
ATOM     42  C   UNL A   1      38.775  30.529  31.045  1.00  0.00     0.074 A 
ATOM     43  C   UNL A   1      39.497  29.247  29.075  1.00  0.00     0.049 A 
ATOM     44  N   UNL A   1      39.691  30.182  31.913  1.00  0.00    -0.248 NA
ATOM     45  C   UNL A   1      37.801  31.507  31.550  1.00  0.00     0.031 C 
ATOM     46  C   UNL A   1      39.458  28.791  27.697  1.00  0.00     0.029 A 
ATOM     47  N   UNL A   1      40.592  28.611  29.606  1.00  0.00    -0.354 N 
ATOM     48  C   UNL A   1      39.412  30.905  33.063  1.00  0.00     0.074 A 
ATOM     49  C   UNL A   1      38.254  31.727  32.775  1.00  0.00     0.031 C 
ATOM     50  C   UNL A   1      40.431  27.889  27.496  1.00  0.00     0.029 A 
ATOM     51  C   UNL A   1      41.204  27.750  28.725  1.00  0.00     0.049 A 
ATOM     52  H   UNL A   1      40.909  28.757  30.526  1.00  0.00     0.167 HD
ATOM     53  C   UNL A   1      40.065  30.883  34.248  1.00  0.00     0.037 A 
ATOM     54  C   UNL A   1      42.272  26.946  28.888  1.00  0.00     0.037 A 
ATOM     55  C   UNL A   1      41.223  30.071  34.524  1.00  0.00     0.049 A 
ATOM     56  C   UNL A   1      42.972  26.934  30.220  1.00  0.00     0.074 A 
ATOM     57  C   UNL A   1      41.946  29.968  35.699  1.00  0.00     0.029 A 
ATOM     58  N   UNL A   1      41.833  29.227  33.606  1.00  0.00    -0.354 N 
ATOM     59  N   UNL A   1      42.676  27.592  31.314  1.00  0.00    -0.248 NA
ATOM     60  C   UNL A   1      44.160  26.079  30.334  1.00  0.00     0.031 C 
ATOM     61  C   UNL A   1      43.020  29.099  35.479  1.00  0.00     0.029 A 
ATOM     62  C   UNL A   1      42.937  28.617  34.182  1.00  0.00     0.049 A 
ATOM     63  H   UNL A   1      41.527  29.081  32.682  1.00  0.00     0.167 HD
ATOM     64  C   UNL A   1      43.637  27.230  32.247  1.00  0.00     0.074 A 
ATOM     65  C   UNL A   1      44.503  26.265  31.601  1.00  0.00     0.031 C 
ATOM     66  C   UNL A   1      43.797  27.669  33.520  1.00  0.00     0.037 A 
BRANCH  53  67
ATOM     67  C   UNL A   1      39.559  31.795  35.325  1.00  0.00     0.064 A 
ATOM     68  C   UNL A   1      40.002  33.121  35.438  1.00  0.00     0.173 A 
ATOM     69  C   UNL A   1      38.608  31.338  36.251  1.00  0.00     0.173 A 
ATOM     70  F   UNL A   1      40.924  33.600  34.589  1.00  0.00    -0.203 F 
ATOM     71  C   UNL A   1      39.532  33.949  36.455  1.00  0.00     0.198 A 
ATOM     72  C   UNL A   1      38.119  32.177  37.249  1.00  0.00     0.198 A 
ATOM     73  F   UNL A   1      38.153  30.078  36.186  1.00  0.00    -0.203 F 
ATOM     74  F   UNL A   1      40.007  35.196  36.576  1.00  0.00    -0.200 F 
ATOM     75  C   UNL A   1      38.587  33.477  37.356  1.00  0.00     0.200 A 
ATOM     76  F   UNL A   1      37.201  31.723  38.113  1.00  0.00    -0.200 F 
ATOM     77  F   UNL A   1      38.135  34.275  38.333  1.00  0.00    -0.200 F 
ENDBRANCH  53  67
BRANCH  54  78
ATOM     78  C   UNL A   1      42.747  26.093  27.767  1.00  0.00     0.064 A 
ATOM     79  C   UNL A   1      42.213  24.814  27.555  1.00  0.00     0.173 A 
ATOM     80  C   UNL A   1      43.749  26.531  26.889  1.00  0.00     0.173 A 
ATOM     81  F   UNL A   1      41.271  24.336  28.382  1.00  0.00    -0.203 F 
ATOM     82  C   UNL A   1      42.675  24.001  26.521  1.00  0.00     0.198 A 
ATOM     83  C   UNL A   1      44.187  25.732  25.836  1.00  0.00     0.198 A 
ATOM     84  F   UNL A   1      44.297  27.745  27.047  1.00  0.00    -0.203 F 
ATOM     85  F   UNL A   1      42.180  22.765  26.371  1.00  0.00    -0.200 F 
ATOM     86  C   UNL A   1      43.656  24.464  25.658  1.00  0.00     0.200 A 
ATOM     87  F   UNL A   1      45.125  26.189  24.994  1.00  0.00    -0.200 F 
ATOM     88  F   UNL A   1      44.094  23.686  24.658  1.00  0.00    -0.200 F 
ENDBRANCH  54  78
BRANCH  66  89
ATOM     89  C   UNL A   1      44.951  27.100  34.293  1.00  0.00     0.064 A 
ATOM     90  C   UNL A   1      46.205  27.729  34.309  1.00  0.00     0.173 A 
ATOM     91  C   UNL A   1      44.798  25.918  35.034  1.00  0.00     0.173 A 
ATOM     92  F   UNL A   1      46.406  28.851  33.602  1.00  0.00    -0.203 F 
ATOM     93  C   UNL A   1      47.273  27.177  35.010  1.00  0.00     0.198 A 
ATOM     94  C   UNL A   1      45.861  25.386  35.759  1.00  0.00     0.198 A 
ATOM     95  F   UNL A   1      43.618  25.281  35.057  1.00  0.00    -0.203 F 
ATOM     96  F   UNL A   1      48.477  27.764  34.964  1.00  0.00    -0.200 F 
ATOM     97  C   UNL A   1      47.100  26.010  35.739  1.00  0.00     0.200 A 
ATOM     98  F   UNL A   1      45.689  24.265  36.472  1.00  0.00    -0.200 F 
ATOM     99  F   UNL A   1      48.129  25.480  36.413  1.00  0.00    -0.200 F 
ENDBRANCH  66  89
ENDBRANCH  40  41
ENDBRANCH  33  35
ENDBRANCH  32  33
ENDBRANCH  31  32
ENDBRANCH  30  31
ENDBRANCH  29  30
ENDBRANCH   1  29
TORSDOF 21
ENDMDL
MODEL 2
REMARK VINA RESULT:     -11.2      4.033     10.124
REMARK SMILES O=C(C[C@H]([NH2+]Cc1ccco1)C(=O)OCCOCCOC(=O)c1ccc(-c2c3nc(c(-c4c(F)c(F)c(F)c(F)c4F)c4ccc([nH]4)c(-c4c(F)c(F)c(F)c(F)c4F)c4nc(c(-c5c(F)c(F)c(F)c(F)c5F)c5ccc2[nH]5)C=C4)C=C3)cc1)Nc1ccc(O)cc1
REMARK SMILES IDX 16 1 15 2 14 3 12 4 13 5 4 6 3 7 2 8 1 9 86 10 87 12 88 13
REMARK SMILES IDX 93 14 89 15 92 16 90 17 91 18 5 20 6 23 7 24 8 25 11 26 9 27
REMARK SMILES IDX 10 28 17 29 18 30 19 31 20 32 21 33 22 34 23 35 24 36 85 37
REMARK SMILES IDX 25 38 84 39 26 40 27 41 28 42 78 43 29 44 83 45 77 46 79 47
REMARK SMILES IDX 30 48 82 49 76 50 75 51 31 53 63 54 43 55 62 56 44 57 47 58
REMARK SMILES IDX 61 59 80 60 45 61 46 62 60 64 81 65 48 66 32 67 33 68 41 69
REMARK SMILES IDX 34 70 35 71 39 72 42 73 36 74 37 75 40 76 38 77 64 78 65 79
REMARK SMILES IDX 73 80 66 81 67 82 71 83 74 84 68 85 69 86 72 87 70 88 49 89
REMARK SMILES IDX 50 90 58 91 51 92 52 93 56 94 59 95 53 96 54 97 57 98 55 99
REMARK H PARENT 86 11 91 19 5 21 5 22 79 52 47 63
REMARK Flexibility Score: inf
ROOT
ATOM      1  C   UNL A   1      33.804  23.013  25.397  1.00  0.00     0.202 C 
ENDROOT
BRANCH   1   2
ATOM      2  C   UNL A   1      33.267  24.158  24.535  1.00  0.00     0.261 C 
BRANCH   2   3
ATOM      3  O   UNL A   1      31.825  24.108  24.503  1.00  0.00    -0.459 OA
BRANCH   3   4
ATOM      4  C   UNL A   1      31.193  24.498  25.643  1.00  0.00     0.365 C 
ATOM      5  O   UNL A   1      31.111  23.823  26.662  1.00  0.00    -0.245 OA
BRANCH   4   6
ATOM      6  C   UNL A   1      30.545  25.892  25.523  1.00  0.00     0.303 C 
BRANCH   6   7
ATOM      7  C   UNL A   1      30.638  26.472  24.104  1.00  0.00     0.177 C 
BRANCH   7   8
ATOM      8  C   UNL A   1      29.575  27.492  23.743  1.00  0.00     0.231 C 
ATOM      9  O   UNL A   1      28.410  27.145  23.585  1.00  0.00    -0.274 OA
ATOM     10  N   UNL A   1      30.077  28.772  23.598  1.00  0.00    -0.326 N 
ATOM     11  H   UNL A   1      30.993  28.936  23.921  1.00  0.00     0.169 HD
BRANCH  10  12
ATOM     12  C   UNL A   1      29.393  29.861  23.027  1.00  0.00     0.041 A 
ATOM     13  C   UNL A   1      29.130  30.943  23.872  1.00  0.00     0.030 A 
ATOM     14  C   UNL A   1      29.059  29.948  21.674  1.00  0.00     0.030 A 
ATOM     15  C   UNL A   1      28.644  32.136  23.343  1.00  0.00     0.048 A 
ATOM     16  C   UNL A   1      28.502  31.122  21.159  1.00  0.00     0.048 A 
ATOM     17  C   UNL A   1      28.319  32.214  21.996  1.00  0.00     0.115 A 
BRANCH  17  18
ATOM     18  O   UNL A   1      27.814  33.391  21.533  1.00  0.00    -0.508 OA
ATOM     19  H   UNL A   1      27.486  34.029  22.136  1.00  0.00     0.293 HD
ENDBRANCH  17  18
ENDBRANCH  10  12
ENDBRANCH   7   8
ENDBRANCH   6   7
BRANCH   6  20
ATOM     20  N   UNL A   1      31.030  26.850  26.570  1.00  0.00    -0.328 N 
ATOM     21  H   UNL A   1      31.027  26.388  27.479  1.00  0.00     0.347 HD
ATOM     22  H   UNL A   1      30.412  27.662  26.595  1.00  0.00     0.347 HD
BRANCH  20  23
ATOM     23  C   UNL A   1      32.399  27.289  26.249  1.00  0.00     0.337 C 
BRANCH  23  24
ATOM     24  C   UNL A   1      32.605  28.735  26.535  1.00  0.00     0.157 A 
ATOM     25  C   UNL A   1      33.555  29.449  27.235  1.00  0.00     0.052 A 
ATOM     26  O   UNL A   1      31.636  29.581  26.076  1.00  0.00    -0.463 OA
ATOM     27  C   UNL A   1      33.127  30.800  27.228  1.00  0.00     0.042 A 
ATOM     28  C   UNL A   1      31.953  30.826  26.515  1.00  0.00     0.195 A 
ENDBRANCH  23  24
ENDBRANCH  20  23
ENDBRANCH   6  20
ENDBRANCH   4   6
ENDBRANCH   3   4
ENDBRANCH   2   3
ENDBRANCH   1   2
BRANCH   1  29
ATOM     29  O   UNL A   1      34.637  22.077  24.708  1.00  0.00    -0.374 OA
BRANCH  29  30
ATOM     30  C   UNL A   1      35.309  21.101  25.500  1.00  0.00     0.202 C 
BRANCH  30  31
ATOM     31  C   UNL A   1      36.723  20.724  25.046  1.00  0.00     0.261 C 
BRANCH  31  32
ATOM     32  O   UNL A   1      37.677  21.796  25.155  1.00  0.00    -0.460 OA
BRANCH  32  33
ATOM     33  C   UNL A   1      38.794  21.475  25.850  1.00  0.00     0.338 C 
ATOM     34  O   UNL A   1      39.385  20.401  25.849  1.00  0.00    -0.246 OA
BRANCH  33  35
ATOM     35  C   UNL A   1      39.313  22.645  26.582  1.00  0.00     0.060 A 
ATOM     36  C   UNL A   1      38.739  23.891  26.303  1.00  0.00     0.016 A 
ATOM     37  C   UNL A   1      40.411  22.551  27.443  1.00  0.00     0.016 A 
ATOM     38  C   UNL A   1      39.289  25.049  26.848  1.00  0.00     0.010 A 
ATOM     39  C   UNL A   1      40.966  23.719  27.985  1.00  0.00     0.010 A 
ATOM     40  C   UNL A   1      40.429  24.976  27.665  1.00  0.00    -0.014 A 
BRANCH  40  41
ATOM     41  C   UNL A   1      41.102  26.238  28.068  1.00  0.00     0.031 A 
ATOM     42  C   UNL A   1      42.498  26.512  27.599  1.00  0.00     0.074 A 
ATOM     43  C   UNL A   1      40.448  27.167  28.788  1.00  0.00     0.049 A 
ATOM     44  N   UNL A   1      43.225  27.590  27.750  1.00  0.00    -0.248 NA
ATOM     45  C   UNL A   1      43.174  25.421  26.883  1.00  0.00     0.031 C 
ATOM     46  C   UNL A   1      39.114  26.993  29.334  1.00  0.00     0.029 A 
ATOM     47  N   UNL A   1      40.799  28.439  29.164  1.00  0.00    -0.354 N 
ATOM     48  C   UNL A   1      44.447  27.305  27.160  1.00  0.00     0.074 A 
ATOM     49  C   UNL A   1      44.371  25.945  26.666  1.00  0.00     0.031 C 
ATOM     50  C   UNL A   1      38.715  28.135  29.914  1.00  0.00     0.029 A 
ATOM     51  C   UNL A   1      39.799  29.107  29.830  1.00  0.00     0.049 A 
ATOM     52  H   UNL A   1      41.680  28.834  28.977  1.00  0.00     0.167 HD
ATOM     53  C   UNL A   1      45.530  28.108  27.044  1.00  0.00     0.037 A 
ATOM     54  C   UNL A   1      39.763  30.360  30.325  1.00  0.00     0.037 A 
ATOM     55  C   UNL A   1      45.602  29.456  27.546  1.00  0.00     0.049 A 
ATOM     56  C   UNL A   1      40.979  31.233  30.172  1.00  0.00     0.074 A 
ATOM     57  C   UNL A   1      46.651  30.354  27.464  1.00  0.00     0.029 A 
ATOM     58  N   UNL A   1      44.582  30.098  28.236  1.00  0.00    -0.354 N 
ATOM     59  N   UNL A   1      42.115  30.968  29.576  1.00  0.00    -0.248 NA
ATOM     60  C   UNL A   1      40.910  32.573  30.769  1.00  0.00     0.031 C 
ATOM     61  C   UNL A   1      46.284  31.521  28.143  1.00  0.00     0.029 A 
ATOM     62  C   UNL A   1      44.986  31.372  28.604  1.00  0.00     0.049 A 
ATOM     63  H   UNL A   1      43.701  29.706  28.434  1.00  0.00     0.167 HD
ATOM     64  C   UNL A   1      42.897  32.106  29.724  1.00  0.00     0.074 A 
ATOM     65  C   UNL A   1      42.089  33.077  30.433  1.00  0.00     0.031 C 
ATOM     66  C   UNL A   1      44.173  32.322  29.322  1.00  0.00     0.037 A 
BRANCH  53  67
ATOM     67  C   UNL A   1      46.741  27.529  26.374  1.00  0.00     0.064 A 
ATOM     68  C   UNL A   1      46.932  27.622  24.987  1.00  0.00     0.173 A 
ATOM     69  C   UNL A   1      47.728  26.881  27.132  1.00  0.00     0.173 A 
ATOM     70  F   UNL A   1      46.008  28.215  24.216  1.00  0.00    -0.203 F 
ATOM     71  C   UNL A   1      48.055  27.064  24.381  1.00  0.00     0.198 A 
ATOM     72  C   UNL A   1      48.863  26.349  26.526  1.00  0.00     0.198 A 
ATOM     73  F   UNL A   1      47.591  26.765  28.461  1.00  0.00    -0.203 F 
ATOM     74  F   UNL A   1      48.193  27.119  23.049  1.00  0.00    -0.200 F 
ATOM     75  C   UNL A   1      49.021  26.433  25.151  1.00  0.00     0.200 A 
ATOM     76  F   UNL A   1      49.799  25.748  27.272  1.00  0.00    -0.200 F 
ATOM     77  F   UNL A   1      50.102  25.898  24.567  1.00  0.00    -0.200 F 
ENDBRANCH  53  67
BRANCH  54  78
ATOM     78  C   UNL A   1      38.544  30.860  31.012  1.00  0.00     0.064 A 
ATOM     79  C   UNL A   1      37.446  31.338  30.281  1.00  0.00     0.173 A 
ATOM     80  C   UNL A   1      38.450  30.882  32.412  1.00  0.00     0.173 A 
ATOM     81  F   UNL A   1      37.494  31.365  28.941  1.00  0.00    -0.203 F 
ATOM     82  C   UNL A   1      36.312  31.834  30.924  1.00  0.00     0.198 A 
ATOM     83  C   UNL A   1      37.303  31.345  33.052  1.00  0.00     0.198 A 
ATOM     84  F   UNL A   1      39.471  30.439  33.159  1.00  0.00    -0.203 F 
ATOM     85  F   UNL A   1      35.297  32.327  30.201  1.00  0.00    -0.200 F 
ATOM     86  C   UNL A   1      36.239  31.829  32.308  1.00  0.00     0.200 A 
ATOM     87  F   UNL A   1      37.230  31.325  34.390  1.00  0.00    -0.200 F 
ATOM     88  F   UNL A   1      35.145  32.296  32.925  1.00  0.00    -0.200 F 
ENDBRANCH  54  78
BRANCH  66  89
ATOM     89  C   UNL A   1      44.766  33.663  29.639  1.00  0.00     0.064 A 
ATOM     90  C   UNL A   1      45.487  33.886  30.822  1.00  0.00     0.173 A 
ATOM     91  C   UNL A   1      44.621  34.735  28.746  1.00  0.00     0.173 A 
ATOM     92  F   UNL A   1      45.639  32.897  31.716  1.00  0.00    -0.203 F 
ATOM     93  C   UNL A   1      46.011  35.142  31.115  1.00  0.00     0.198 A 
ATOM     94  C   UNL A   1      45.172  35.982  29.029  1.00  0.00     0.198 A 
ATOM     95  F   UNL A   1      43.946  34.574  27.598  1.00  0.00    -0.203 F 
ATOM     96  F   UNL A   1      46.646  35.346  32.278  1.00  0.00    -0.200 F 
ATOM     97  C   UNL A   1      45.858  36.188  30.217  1.00  0.00     0.200 A 
ATOM     98  F   UNL A   1      45.034  36.988  28.155  1.00  0.00    -0.200 F 
ATOM     99  F   UNL A   1      46.362  37.396  30.501  1.00  0.00    -0.200 F 
ENDBRANCH  66  89
ENDBRANCH  40  41
ENDBRANCH  33  35
ENDBRANCH  32  33
ENDBRANCH  31  32
ENDBRANCH  30  31
ENDBRANCH  29  30
ENDBRANCH   1  29
TORSDOF 21
ENDMDL
MODEL 3
REMARK VINA RESULT:     -11.1      4.041     10.043
REMARK SMILES O=C(C[C@H]([NH2+]Cc1ccco1)C(=O)OCCOCCOC(=O)c1ccc(-c2c3nc(c(-c4c(F)c(F)c(F)c(F)c4F)c4ccc([nH]4)c(-c4c(F)c(F)c(F)c(F)c4F)c4nc(c(-c5c(F)c(F)c(F)c(F)c5F)c5ccc2[nH]5)C=C4)C=C3)cc1)Nc1ccc(O)cc1
REMARK SMILES IDX 16 1 15 2 14 3 12 4 13 5 4 6 3 7 2 8 1 9 86 10 87 12 88 13
REMARK SMILES IDX 93 14 89 15 92 16 90 17 91 18 5 20 6 23 7 24 8 25 11 26 9 27
REMARK SMILES IDX 10 28 17 29 18 30 19 31 20 32 21 33 22 34 23 35 24 36 85 37
REMARK SMILES IDX 25 38 84 39 26 40 27 41 28 42 78 43 29 44 83 45 77 46 79 47
REMARK SMILES IDX 30 48 82 49 76 50 75 51 31 53 63 54 43 55 62 56 44 57 47 58
REMARK SMILES IDX 61 59 80 60 45 61 46 62 60 64 81 65 48 66 32 67 33 68 41 69
REMARK SMILES IDX 34 70 35 71 39 72 42 73 36 74 37 75 40 76 38 77 64 78 65 79
REMARK SMILES IDX 73 80 66 81 67 82 71 83 74 84 68 85 69 86 72 87 70 88 49 89
REMARK SMILES IDX 50 90 58 91 51 92 52 93 56 94 59 95 53 96 54 97 57 98 55 99
REMARK H PARENT 86 11 91 19 5 21 5 22 79 52 47 63
REMARK Flexibility Score: inf
ROOT
ATOM      1  C   UNL A   1      34.536  22.754  26.690  1.00  0.00     0.202 C 
ENDROOT
BRANCH   1   2
ATOM      2  C   UNL A   1      33.161  23.405  26.532  1.00  0.00     0.261 C 
BRANCH   2   3
ATOM      3  O   UNL A   1      33.317  24.774  26.103  1.00  0.00    -0.459 OA
BRANCH   3   4
ATOM      4  C   UNL A   1      32.207  25.556  26.201  1.00  0.00     0.365 C 
ATOM      5  O   UNL A   1      31.244  25.315  26.920  1.00  0.00    -0.245 OA
BRANCH   4   6
ATOM      6  C   UNL A   1      32.259  26.790  25.279  1.00  0.00     0.303 C 
BRANCH   6   7
ATOM      7  C   UNL A   1      30.867  27.350  24.953  1.00  0.00     0.177 C 
BRANCH   7   8
ATOM      8  C   UNL A   1      30.850  28.652  24.175  1.00  0.00     0.231 C 
ATOM      9  O   UNL A   1      31.852  29.355  24.120  1.00  0.00    -0.274 OA
ATOM     10  N   UNL A   1      29.622  28.927  23.603  1.00  0.00    -0.326 N 
ATOM     11  H   UNL A   1      28.961  28.198  23.582  1.00  0.00     0.169 HD
BRANCH  10  12
ATOM     12  C   UNL A   1      29.235  30.161  23.047  1.00  0.00     0.041 A 
ATOM     13  C   UNL A   1      29.005  30.179  21.669  1.00  0.00     0.030 A 
ATOM     14  C   UNL A   1      28.985  31.310  23.801  1.00  0.00     0.030 A 
ATOM     15  C   UNL A   1      28.425  31.297  21.075  1.00  0.00     0.048 A 
ATOM     16  C   UNL A   1      28.473  32.457  23.190  1.00  0.00     0.048 A 
ATOM     17  C   UNL A   1      28.178  32.433  21.833  1.00  0.00     0.115 A 
BRANCH  17  18
ATOM     18  O   UNL A   1      27.643  33.513  21.200  1.00  0.00    -0.508 OA
ATOM     19  H   UNL A   1      26.980  33.394  20.549  1.00  0.00     0.293 HD
ENDBRANCH  17  18
ENDBRANCH  10  12
ENDBRANCH   7   8
ENDBRANCH   6   7
BRANCH   6  20
ATOM     20  N   UNL A   1      33.090  26.562  24.051  1.00  0.00    -0.328 N 
ATOM     21  H   UNL A   1      33.815  25.873  24.255  1.00  0.00     0.347 HD
ATOM     22  H   UNL A   1      33.522  27.442  23.769  1.00  0.00     0.347 HD
BRANCH  20  23
ATOM     23  C   UNL A   1      32.239  26.065  22.957  1.00  0.00     0.337 C 
BRANCH  23  24
ATOM     24  C   UNL A   1      32.265  24.581  22.856  1.00  0.00     0.157 A 
ATOM     25  C   UNL A   1      31.456  23.571  23.338  1.00  0.00     0.052 A 
ATOM     26  O   UNL A   1      33.337  24.042  22.204  1.00  0.00    -0.463 OA
ATOM     27  C   UNL A   1      32.085  22.351  22.986  1.00  0.00     0.042 A 
ATOM     28  C   UNL A   1      33.227  22.692  22.302  1.00  0.00     0.195 A 
ENDBRANCH  23  24
ENDBRANCH  20  23
ENDBRANCH   6  20
ENDBRANCH   4   6
ENDBRANCH   3   4
ENDBRANCH   2   3
ENDBRANCH   1   2
BRANCH   1  29
ATOM     29  O   UNL A   1      34.618  21.398  26.244  1.00  0.00    -0.374 OA
BRANCH  29  30
ATOM     30  C   UNL A   1      35.313  21.157  25.024  1.00  0.00     0.202 C 
BRANCH  30  31
ATOM     31  C   UNL A   1      36.794  20.786  25.155  1.00  0.00     0.261 C 
BRANCH  31  32
ATOM     32  O   UNL A   1      37.668  21.917  25.316  1.00  0.00    -0.460 OA
BRANCH  32  33
ATOM     33  C   UNL A   1      38.848  21.625  25.913  1.00  0.00     0.338 C 
ATOM     34  O   UNL A   1      39.486  20.583  25.824  1.00  0.00    -0.246 OA
BRANCH  33  35
ATOM     35  C   UNL A   1      39.367  22.792  26.651  1.00  0.00     0.060 A 
ATOM     36  C   UNL A   1      38.822  24.044  26.350  1.00  0.00     0.016 A 
ATOM     37  C   UNL A   1      40.440  22.685  27.542  1.00  0.00     0.016 A 
ATOM     38  C   UNL A   1      39.377  25.197  26.902  1.00  0.00     0.010 A 
ATOM     39  C   UNL A   1      41.000  23.847  28.092  1.00  0.00     0.010 A 
ATOM     40  C   UNL A   1      40.493  25.110  27.750  1.00  0.00    -0.014 A 
BRANCH  40  41
ATOM     41  C   UNL A   1      41.176  26.363  28.163  1.00  0.00     0.031 A 
ATOM     42  C   UNL A   1      42.578  26.626  27.702  1.00  0.00     0.074 A 
ATOM     43  C   UNL A   1      40.529  27.294  28.886  1.00  0.00     0.049 A 
ATOM     44  N   UNL A   1      43.314  27.696  27.863  1.00  0.00    -0.248 NA
ATOM     45  C   UNL A   1      43.246  25.533  26.983  1.00  0.00     0.031 C 
ATOM     46  C   UNL A   1      39.190  27.130  29.425  1.00  0.00     0.029 A 
ATOM     47  N   UNL A   1      40.890  28.560  29.271  1.00  0.00    -0.354 N 
ATOM     48  C   UNL A   1      44.535  27.403  27.276  1.00  0.00     0.074 A 
ATOM     49  C   UNL A   1      44.449  26.047  26.774  1.00  0.00     0.031 C 
ATOM     50  C   UNL A   1      38.800  28.272  30.010  1.00  0.00     0.029 A 
ATOM     51  C   UNL A   1      39.893  29.234  29.937  1.00  0.00     0.049 A 
ATOM     52  H   UNL A   1      41.776  28.948  29.090  1.00  0.00     0.167 HD
ATOM     53  C   UNL A   1      45.628  28.196  27.169  1.00  0.00     0.037 A 
ATOM     54  C   UNL A   1      39.868  30.484  30.439  1.00  0.00     0.037 A 
ATOM     55  C   UNL A   1      45.710  29.540  27.680  1.00  0.00     0.049 A 
ATOM     56  C   UNL A   1      41.092  31.347  30.295  1.00  0.00     0.074 A 
ATOM     57  C   UNL A   1      46.768  30.429  27.608  1.00  0.00     0.029 A 
ATOM     58  N   UNL A   1      44.693  30.188  28.369  1.00  0.00    -0.354 N 
ATOM     59  N   UNL A   1      42.229  31.075  29.703  1.00  0.00    -0.248 NA
ATOM     60  C   UNL A   1      41.034  32.684  30.901  1.00  0.00     0.031 C 
ATOM     61  C   UNL A   1      46.410  31.596  28.293  1.00  0.00     0.029 A 
ATOM     62  C   UNL A   1      45.108  31.456  28.747  1.00  0.00     0.049 A 
ATOM     63  H   UNL A   1      43.807  29.804  28.561  1.00  0.00     0.167 HD
ATOM     64  C   UNL A   1      43.021  32.203  29.861  1.00  0.00     0.074 A 
ATOM     65  C   UNL A   1      42.219  33.178  30.572  1.00  0.00     0.031 C 
ATOM     66  C   UNL A   1      44.301  32.409  29.467  1.00  0.00     0.037 A 
BRANCH  53  67
ATOM     67  C   UNL A   1      46.835  27.609  26.501  1.00  0.00     0.064 A 
ATOM     68  C   UNL A   1      47.822  26.927  27.228  1.00  0.00     0.173 A 
ATOM     69  C   UNL A   1      47.002  27.724  25.113  1.00  0.00     0.173 A 
ATOM     70  F   UNL A   1      47.719  26.807  28.560  1.00  0.00    -0.203 F 
ATOM     71  C   UNL A   1      48.945  26.403  26.592  1.00  0.00     0.198 A 
ATOM     72  C   UNL A   1      48.111  27.174  24.476  1.00  0.00     0.198 A 
ATOM     73  F   UNL A   1      46.087  28.368  24.373  1.00  0.00    -0.203 F 
ATOM     74  F   UNL A   1      49.901  25.800  27.312  1.00  0.00    -0.200 F 
ATOM     75  C   UNL A   1      49.086  26.522  25.217  1.00  0.00     0.200 A 
ATOM     76  F   UNL A   1      48.242  27.283  23.147  1.00  0.00    -0.200 F 
ATOM     77  F   UNL A   1      50.166  26.017  24.606  1.00  0.00    -0.200 F 
ENDBRANCH  53  67
BRANCH  54  78
ATOM     78  C   UNL A   1      38.650  30.993  31.123  1.00  0.00     0.064 A 
ATOM     79  C   UNL A   1      37.587  31.545  30.394  1.00  0.00     0.173 A 
ATOM     80  C   UNL A   1      38.525  30.948  32.520  1.00  0.00     0.173 A 
ATOM     81  F   UNL A   1      37.668  31.636  29.058  1.00  0.00    -0.203 F 
ATOM     82  C   UNL A   1      36.456  32.047  31.035  1.00  0.00     0.198 A 
ATOM     83  C   UNL A   1      37.379  31.419  33.157  1.00  0.00     0.198 A 
ATOM     84  F   UNL A   1      39.512  30.433  33.266  1.00  0.00    -0.203 F 
ATOM     85  F   UNL A   1      35.476  32.612  30.316  1.00  0.00    -0.200 F 
ATOM     86  C   UNL A   1      36.350  31.976  32.415  1.00  0.00     0.200 A 
ATOM     87  F   UNL A   1      37.274  31.335  34.491  1.00  0.00    -0.200 F 
ATOM     88  F   UNL A   1      35.257  32.451  33.031  1.00  0.00    -0.200 F 
ENDBRANCH  54  78
BRANCH  66  89
ATOM     89  C   UNL A   1      44.906  33.743  29.794  1.00  0.00     0.064 A 
ATOM     90  C   UNL A   1      44.789  34.836  28.923  1.00  0.00     0.173 A 
ATOM     91  C   UNL A   1      45.601  33.934  30.998  1.00  0.00     0.173 A 
ATOM     92  F   UNL A   1      44.148  34.700  27.751  1.00  0.00    -0.203 F 
ATOM     93  C   UNL A   1      45.375  36.061  29.228  1.00  0.00     0.198 A 
ATOM     94  C   UNL A   1      46.160  35.169  31.314  1.00  0.00     0.198 A 
ATOM     95  F   UNL A   1      45.736  32.923  31.869  1.00  0.00    -0.203 F 
ATOM     96  F   UNL A   1      45.300  37.074  28.354  1.00  0.00    -0.200 F 
ATOM     97  C   UNL A   1      46.055  36.229  30.425  1.00  0.00     0.200 A 
ATOM     98  F   UNL A   1      46.807  35.333  32.475  1.00  0.00    -0.200 F 
ATOM     99  F   UNL A   1      46.620  37.408  30.716  1.00  0.00    -0.200 F 
ENDBRANCH  66  89
ENDBRANCH  40  41
ENDBRANCH  33  35
ENDBRANCH  32  33
ENDBRANCH  31  32
ENDBRANCH  30  31
ENDBRANCH  29  30
ENDBRANCH   1  29
TORSDOF 21
ENDMDL
