MODEL 1
REMARK VINA RESULT:     -11.3      0.000      0.000
REMARK SMILES COC(=O)[C@H]1Sc2nnc(CCC(=O)OCCOCCOC(=O)c3ccc(-c4c5nc(c(-c6c(F)c(F)c(F)c(F)c6F)c6ccc([nH]6)c(-c6c(F)c(F)c(F)c(F)c6F)c6nc(c(-c7c(F)c(F)c(F)c(F)c7F)c7ccc4[nH]7)C=C6)C=C5)cc3)c(=O)n2N=C1C
REMARK SMILES IDX 17 1 16 2 15 3 13 4 14 5 12 6 11 7 10 8 5 9 6 10 91 11 7 12
REMARK SMILES IDX 90 13 92 14 8 15 89 16 9 17 87 18 88 19 3 20 4 21 2 22 1 23
REMARK SMILES IDX 18 24 19 25 20 26 21 27 22 28 23 29 24 30 25 31 86 32 26 33
REMARK SMILES IDX 85 34 27 35 28 36 29 37 79 38 30 39 84 40 78 41 80 42 31 43
REMARK SMILES IDX 83 44 77 45 76 46 32 48 64 49 44 50 63 51 45 52 48 53 62 54
REMARK SMILES IDX 81 55 46 56 47 57 61 59 82 60 49 61 33 62 34 63 42 64 35 65
REMARK SMILES IDX 36 66 40 67 43 68 37 69 38 70 41 71 39 72 65 73 66 74 74 75
REMARK SMILES IDX 67 76 68 77 72 78 75 79 69 80 70 81 73 82 71 83 50 84 51 85
REMARK SMILES IDX 59 86 52 87 53 88 57 89 60 90 54 91 55 92 58 93 56 94
REMARK H PARENT 80 47 48 58
REMARK Flexibility Score: inf
ROOT
ATOM      1  C   UNL A   1      37.292  22.236  25.344  1.00  0.00     0.202 C 
ENDROOT
BRANCH   1   2
ATOM      2  C   UNL A   1      35.942  21.638  25.747  1.00  0.00     0.261 C 
BRANCH   2   3
ATOM      3  O   UNL A   1      35.164  21.209  24.605  1.00  0.00    -0.463 OA
BRANCH   3   4
ATOM      4  C   UNL A   1      34.083  21.964  24.276  1.00  0.00     0.306 C 
ATOM      5  O   UNL A   1      32.963  21.845  24.752  1.00  0.00    -0.252 OA
BRANCH   4   6
ATOM      6  C   UNL A   1      34.426  22.954  23.179  1.00  0.00     0.129 C 
BRANCH   6   7
ATOM      7  C   UNL A   1      33.289  23.264  22.209  1.00  0.00     0.076 C 
BRANCH   7   8
ATOM      8  C   UNL A   1      32.917  24.728  22.214  1.00  0.00     0.131 A 
ATOM      9  C   UNL A   1      31.740  28.912  24.815  1.00  0.00     0.210 C 
ATOM     10  S   UNL A   1      31.846  28.907  23.028  1.00  0.00    -0.063 SA
ATOM     11  C   UNL A   1      31.418  27.574  25.424  1.00  0.00     0.061 C 
ATOM     12  C   UNL A   1      32.372  27.273  22.773  1.00  0.00     0.214 A 
ATOM     13  N   UNL A   1      31.318  26.441  24.817  1.00  0.00    -0.171 NA
ATOM     14  C   UNL A   1      31.313  27.498  26.924  1.00  0.00     0.065 C 
ATOM     15  N   UNL A   1      33.178  26.997  21.795  1.00  0.00    -0.123 NA
ATOM     16  N   UNL A   1      31.789  26.319  23.551  1.00  0.00    -0.169 N 
ATOM     17  N   UNL A   1      33.631  25.653  21.653  1.00  0.00    -0.147 NA
ATOM     18  C   UNL A   1      31.696  25.085  22.985  1.00  0.00     0.296 A 
ATOM     19  O   UNL A   1      30.772  24.303  23.016  1.00  0.00    -0.265 OA
BRANCH   9  20
ATOM     20  C   UNL A   1      33.013  29.428  25.426  1.00  0.00     0.325 C 
ATOM     21  O   UNL A   1      34.086  28.839  25.410  1.00  0.00    -0.250 OA
BRANCH  20  22
ATOM     22  O   UNL A   1      32.723  30.514  26.192  1.00  0.00    -0.468 OA
ATOM     23  C   UNL A   1      33.650  30.730  27.244  1.00  0.00     0.282 C 
ENDBRANCH  20  22
ENDBRANCH   9  20
ENDBRANCH   7   8
ENDBRANCH   6   7
ENDBRANCH   4   6
ENDBRANCH   3   4
ENDBRANCH   2   3
ENDBRANCH   1   2
BRANCH   1  24
ATOM     24  O   UNL A   1      38.427  21.460  25.730  1.00  0.00    -0.374 OA
BRANCH  24  25
ATOM     25  C   UNL A   1      38.536  20.189  25.090  1.00  0.00     0.202 C 
BRANCH  25  26
ATOM     26  C   UNL A   1      39.516  19.202  25.760  1.00  0.00     0.261 C 
BRANCH  26  27
ATOM     27  O   UNL A   1      40.910  19.524  25.552  1.00  0.00    -0.460 OA
BRANCH  27  28
ATOM     28  C   UNL A   1      41.634  19.800  26.660  1.00  0.00     0.338 C 
ATOM     29  O   UNL A   1      42.277  19.006  27.326  1.00  0.00    -0.246 OA
BRANCH  28  30
ATOM     30  C   UNL A   1      41.674  21.269  26.921  1.00  0.00     0.060 A 
ATOM     31  C   UNL A   1      41.784  22.120  25.811  1.00  0.00     0.016 A 
ATOM     32  C   UNL A   1      41.648  21.827  28.201  1.00  0.00     0.016 A 
ATOM     33  C   UNL A   1      41.902  23.513  25.968  1.00  0.00     0.010 A 
ATOM     34  C   UNL A   1      41.760  23.224  28.356  1.00  0.00     0.010 A 
ATOM     35  C   UNL A   1      41.911  24.087  27.243  1.00  0.00    -0.014 A 
BRANCH  35  36
ATOM     36  C   UNL A   1      42.242  25.535  27.453  1.00  0.00     0.031 A 
ATOM     37  C   UNL A   1      43.662  25.977  27.202  1.00  0.00     0.074 A 
ATOM     38  C   UNL A   1      41.352  26.487  27.821  1.00  0.00     0.049 A 
ATOM     39  N   UNL A   1      44.189  27.168  27.339  1.00  0.00    -0.248 NA
ATOM     40  C   UNL A   1      44.588  24.967  26.667  1.00  0.00     0.031 C 
ATOM     41  C   UNL A   1      39.905  26.341  27.898  1.00  0.00     0.029 A 
ATOM     42  N   UNL A   1      41.557  27.779  28.268  1.00  0.00    -0.354 N 
ATOM     43  C   UNL A   1      45.462  27.073  26.801  1.00  0.00     0.074 A 
ATOM     44  C   UNL A   1      45.689  25.681  26.482  1.00  0.00     0.031 C 
ATOM     45  C   UNL A   1      39.378  27.399  28.545  1.00  0.00     0.029 A 
ATOM     46  C   UNL A   1      40.441  28.348  28.847  1.00  0.00     0.049 A 
ATOM     47  H   UNL A   1      42.417  28.249  28.180  1.00  0.00     0.167 HD
ATOM     48  C   UNL A   1      46.325  28.070  26.502  1.00  0.00     0.037 A 
ATOM     49  C   UNL A   1      40.297  29.497  29.543  1.00  0.00     0.037 A 
ATOM     50  C   UNL A   1      46.125  29.454  26.834  1.00  0.00     0.049 A 
ATOM     51  C   UNL A   1      41.412  30.498  29.539  1.00  0.00     0.074 A 
ATOM     52  C   UNL A   1      46.925  30.540  26.525  1.00  0.00     0.029 A 
ATOM     53  N   UNL A   1      45.063  29.940  27.578  1.00  0.00    -0.354 N 
ATOM     54  N   UNL A   1      42.586  30.412  28.971  1.00  0.00    -0.248 NA
ATOM     55  C   UNL A   1      41.140  31.795  30.177  1.00  0.00     0.031 C 
ATOM     56  C   UNL A   1      46.385  31.672  27.144  1.00  0.00     0.029 A 
ATOM     57  C   UNL A   1      45.218  31.301  27.790  1.00  0.00     0.049 A 
ATOM     58  H   UNL A   1      44.309  29.400  27.908  1.00  0.00     0.167 HD
ATOM     59  C   UNL A   1      43.153  31.671  29.092  1.00  0.00     0.074 A 
ATOM     60  C   UNL A   1      42.223  32.483  29.848  1.00  0.00     0.031 C 
ATOM     61  C   UNL A   1      44.313  32.118  28.556  1.00  0.00     0.037 A 
BRANCH  48  62
ATOM     62  C   UNL A   1      47.549  27.695  25.724  1.00  0.00     0.064 A 
ATOM     63  C   UNL A   1      48.744  27.358  26.381  1.00  0.00     0.173 A 
ATOM     64  C   UNL A   1      47.523  27.634  24.326  1.00  0.00     0.173 A 
ATOM     65  F   UNL A   1      48.819  27.414  27.720  1.00  0.00    -0.203 F 
ATOM     66  C   UNL A   1      49.877  26.995  25.661  1.00  0.00     0.198 A 
ATOM     67  C   UNL A   1      48.652  27.245  23.610  1.00  0.00     0.198 A 
ATOM     68  F   UNL A   1      46.403  27.944  23.657  1.00  0.00    -0.203 F 
ATOM     69  F   UNL A   1      51.019  26.720  26.306  1.00  0.00    -0.200 F 
ATOM     70  C   UNL A   1      49.828  26.932  24.277  1.00  0.00     0.200 A 
ATOM     71  F   UNL A   1      48.601  27.173  22.274  1.00  0.00    -0.200 F 
ATOM     72  F   UNL A   1      50.918  26.576  23.583  1.00  0.00    -0.200 F 
ENDBRANCH  48  62
BRANCH  49  73
ATOM     73  C   UNL A   1      39.048  29.817  30.286  1.00  0.00     0.064 A 
ATOM     74  C   UNL A   1      38.817  29.369  31.590  1.00  0.00     0.173 A 
ATOM     75  C   UNL A   1      38.026  30.544  29.657  1.00  0.00     0.173 A 
ATOM     76  F   UNL A   1      39.733  28.612  32.207  1.00  0.00    -0.203 F 
ATOM     77  C   UNL A   1      37.632  29.685  32.257  1.00  0.00     0.198 A 
ATOM     78  C   UNL A   1      36.854  30.883  30.332  1.00  0.00     0.198 A 
ATOM     79  F   UNL A   1      38.181  30.955  28.390  1.00  0.00    -0.203 F 
ATOM     80  F   UNL A   1      37.431  29.241  33.505  1.00  0.00    -0.200 F 
ATOM     81  C   UNL A   1      36.661  30.458  31.636  1.00  0.00     0.200 A 
ATOM     82  F   UNL A   1      35.929  31.640  29.727  1.00  0.00    -0.200 F 
ATOM     83  F   UNL A   1      35.541  30.791  32.291  1.00  0.00    -0.200 F 
ENDBRANCH  49  73
BRANCH  61  84
ATOM     84  C   UNL A   1      44.632  33.573  28.713  1.00  0.00     0.064 A 
ATOM     85  C   UNL A   1      45.407  34.052  29.777  1.00  0.00     0.173 A 
ATOM     86  C   UNL A   1      44.182  34.498  27.757  1.00  0.00     0.173 A 
ATOM     87  F   UNL A   1      45.834  33.212  30.731  1.00  0.00    -0.203 F 
ATOM     88  C   UNL A   1      45.711  35.406  29.886  1.00  0.00     0.198 A 
ATOM     89  C   UNL A   1      44.516  35.845  27.850  1.00  0.00     0.198 A 
ATOM     90  F   UNL A   1      43.430  34.091  26.723  1.00  0.00    -0.203 F 
ATOM     91  F   UNL A   1      46.415  35.850  30.935  1.00  0.00    -0.200 F 
ATOM     92  C   UNL A   1      45.275  36.299  28.917  1.00  0.00     0.200 A 
ATOM     93  F   UNL A   1      44.102  36.703  26.907  1.00  0.00    -0.200 F 
ATOM     94  F   UNL A   1      45.582  37.599  29.016  1.00  0.00    -0.200 F 
ENDBRANCH  61  84
ENDBRANCH  35  36
ENDBRANCH  28  30
ENDBRANCH  27  28
ENDBRANCH  26  27
ENDBRANCH  25  26
ENDBRANCH  24  25
ENDBRANCH   1  24
TORSDOF 18
ENDMDL
MODEL 2
REMARK VINA RESULT:     -11.0      1.178      2.168
REMARK SMILES COC(=O)[C@H]1Sc2nnc(CCC(=O)OCCOCCOC(=O)c3ccc(-c4c5nc(c(-c6c(F)c(F)c(F)c(F)c6F)c6ccc([nH]6)c(-c6c(F)c(F)c(F)c(F)c6F)c6nc(c(-c7c(F)c(F)c(F)c(F)c7F)c7ccc4[nH]7)C=C6)C=C5)cc3)c(=O)n2N=C1C
REMARK SMILES IDX 17 1 16 2 15 3 13 4 14 5 12 6 11 7 10 8 5 9 6 10 91 11 7 12
REMARK SMILES IDX 90 13 92 14 8 15 89 16 9 17 87 18 88 19 3 20 4 21 2 22 1 23
REMARK SMILES IDX 18 24 19 25 20 26 21 27 22 28 23 29 24 30 25 31 86 32 26 33
REMARK SMILES IDX 85 34 27 35 28 36 29 37 79 38 30 39 84 40 78 41 80 42 31 43
REMARK SMILES IDX 83 44 77 45 76 46 32 48 64 49 44 50 63 51 45 52 48 53 62 54
REMARK SMILES IDX 81 55 46 56 47 57 61 59 82 60 49 61 33 62 34 63 42 64 35 65
REMARK SMILES IDX 36 66 40 67 43 68 37 69 38 70 41 71 39 72 65 73 66 74 74 75
REMARK SMILES IDX 67 76 68 77 72 78 75 79 69 80 70 81 73 82 71 83 50 84 51 85
REMARK SMILES IDX 59 86 52 87 53 88 57 89 60 90 54 91 55 92 58 93 56 94
REMARK H PARENT 80 47 48 58
REMARK Flexibility Score: inf
ROOT
ATOM      1  C   UNL A   1      37.247  21.853  25.723  1.00  0.00     0.202 C 
ENDROOT
BRANCH   1   2
ATOM      2  C   UNL A   1      36.206  21.428  24.683  1.00  0.00     0.261 C 
BRANCH   2   3
ATOM      3  O   UNL A   1      35.175  20.583  25.245  1.00  0.00    -0.463 OA
BRANCH   3   4
ATOM      4  C   UNL A   1      34.166  21.202  25.913  1.00  0.00     0.306 C 
ATOM      5  O   UNL A   1      34.204  21.560  27.081  1.00  0.00    -0.252 OA
BRANCH   4   6
ATOM      6  C   UNL A   1      32.938  21.343  25.033  1.00  0.00     0.129 C 
BRANCH   6   7
ATOM      7  C   UNL A   1      31.669  21.782  25.759  1.00  0.00     0.076 C 
BRANCH   7   8
ATOM      8  C   UNL A   1      31.096  23.056  25.186  1.00  0.00     0.131 A 
ATOM      9  C   UNL A   1      31.023  28.118  25.043  1.00  0.00     0.210 C 
ATOM     10  S   UNL A   1      29.961  27.127  23.997  1.00  0.00    -0.063 SA
ATOM     11  C   UNL A   1      31.449  27.443  26.318  1.00  0.00     0.061 C 
ATOM     12  C   UNL A   1      30.525  25.544  24.429  1.00  0.00     0.214 A 
ATOM     13  N   UNL A   1      31.220  26.225  26.673  1.00  0.00    -0.171 NA
ATOM     14  C   UNL A   1      32.344  28.214  27.251  1.00  0.00     0.065 C 
ATOM     15  N   UNL A   1      30.554  24.601  23.539  1.00  0.00    -0.123 NA
ATOM     16  N   UNL A   1      30.785  25.332  25.750  1.00  0.00    -0.169 N 
ATOM     17  N   UNL A   1      31.076  23.331  23.919  1.00  0.00    -0.147 NA
ATOM     18  C   UNL A   1      30.609  24.052  26.178  1.00  0.00     0.296 A 
ATOM     19  O   UNL A   1      30.104  23.659  27.206  1.00  0.00    -0.265 OA
BRANCH   9  20
ATOM     20  C   UNL A   1      32.250  28.559  24.296  1.00  0.00     0.325 C 
ATOM     21  O   UNL A   1      32.903  29.563  24.552  1.00  0.00    -0.250 OA
BRANCH  20  22
ATOM     22  O   UNL A   1      32.369  27.811  23.165  1.00  0.00    -0.468 OA
ATOM     23  C   UNL A   1      33.617  27.145  23.054  1.00  0.00     0.282 C 
ENDBRANCH  20  22
ENDBRANCH   9  20
ENDBRANCH   7   8
ENDBRANCH   6   7
ENDBRANCH   4   6
ENDBRANCH   3   4
ENDBRANCH   2   3
ENDBRANCH   1   2
BRANCH   1  24
ATOM     24  O   UNL A   1      38.580  21.427  25.442  1.00  0.00    -0.374 OA
BRANCH  24  25
ATOM     25  C   UNL A   1      38.710  20.056  25.066  1.00  0.00     0.202 C 
BRANCH  25  26
ATOM     26  C   UNL A   1      39.602  19.205  25.994  1.00  0.00     0.261 C 
BRANCH  26  27
ATOM     27  O   UNL A   1      41.000  19.202  25.626  1.00  0.00    -0.460 OA
BRANCH  27  28
ATOM     28  C   UNL A   1      41.879  19.514  26.606  1.00  0.00     0.338 C 
ATOM     29  O   UNL A   1      42.653  18.751  27.159  1.00  0.00    -0.246 OA
BRANCH  28  30
ATOM     30  C   UNL A   1      41.896  20.984  26.861  1.00  0.00     0.060 A 
ATOM     31  C   UNL A   1      42.004  21.833  25.749  1.00  0.00     0.016 A 
ATOM     32  C   UNL A   1      41.849  21.548  28.138  1.00  0.00     0.016 A 
ATOM     33  C   UNL A   1      42.102  23.227  25.900  1.00  0.00     0.010 A 
ATOM     34  C   UNL A   1      41.940  22.947  28.288  1.00  0.00     0.010 A 
ATOM     35  C   UNL A   1      42.090  23.807  27.172  1.00  0.00    -0.014 A 
BRANCH  35  36
ATOM     36  C   UNL A   1      42.399  25.261  27.380  1.00  0.00     0.031 A 
ATOM     37  C   UNL A   1      43.818  25.719  27.154  1.00  0.00     0.074 A 
ATOM     38  C   UNL A   1      41.490  26.204  27.723  1.00  0.00     0.049 A 
ATOM     39  N   UNL A   1      44.327  26.917  27.294  1.00  0.00    -0.248 NA
ATOM     40  C   UNL A   1      44.767  24.717  26.644  1.00  0.00     0.031 C 
ATOM     41  C   UNL A   1      40.043  26.040  27.773  1.00  0.00     0.029 A 
ATOM     42  N   UNL A   1      41.670  27.501  28.166  1.00  0.00    -0.354 N 
ATOM     43  C   UNL A   1      45.611  26.835  26.781  1.00  0.00     0.074 A 
ATOM     44  C   UNL A   1      45.862  25.443  26.476  1.00  0.00     0.031 C 
ATOM     45  C   UNL A   1      39.490  27.095  28.402  1.00  0.00     0.029 A 
ATOM     46  C   UNL A   1      40.536  28.060  28.719  1.00  0.00     0.049 A 
ATOM     47  H   UNL A   1      42.525  27.981  28.092  1.00  0.00     0.167 HD
ATOM     48  C   UNL A   1      46.468  27.841  26.493  1.00  0.00     0.037 A 
ATOM     49  C   UNL A   1      40.363  29.211  29.404  1.00  0.00     0.037 A 
ATOM     50  C   UNL A   1      46.244  29.224  26.811  1.00  0.00     0.049 A 
ATOM     51  C   UNL A   1      41.466  30.226  29.416  1.00  0.00     0.074 A 
ATOM     52  C   UNL A   1      47.037  30.318  26.511  1.00  0.00     0.029 A 
ATOM     53  N   UNL A   1      45.162  29.702  27.531  1.00  0.00    -0.354 N 
ATOM     54  N   UNL A   1      42.652  30.151  28.872  1.00  0.00    -0.248 NA
ATOM     55  C   UNL A   1      41.165  31.523  30.040  1.00  0.00     0.031 C 
ATOM     56  C   UNL A   1      46.471  31.447  27.112  1.00  0.00     0.029 A 
ATOM     57  C   UNL A   1      45.296  31.066  27.737  1.00  0.00     0.049 A 
ATOM     58  H   UNL A   1      44.408  29.154  27.850  1.00  0.00     0.167 HD
ATOM     59  C   UNL A   1      43.200  31.418  28.995  1.00  0.00     0.074 A 
ATOM     60  C   UNL A   1      42.246  32.223  29.727  1.00  0.00     0.031 C 
ATOM     61  C   UNL A   1      44.365  31.876  28.480  1.00  0.00     0.037 A 
BRANCH  48  62
ATOM     62  C   UNL A   1      47.711  27.476  25.742  1.00  0.00     0.064 A 
ATOM     63  C   UNL A   1      47.738  27.500  24.338  1.00  0.00     0.173 A 
ATOM     64  C   UNL A   1      48.889  27.139  26.419  1.00  0.00     0.173 A 
ATOM     65  F   UNL A   1      46.628  27.805  23.646  1.00  0.00    -0.203 F 
ATOM     66  C   UNL A   1      48.895  27.175  23.639  1.00  0.00     0.198 A 
ATOM     67  C   UNL A   1      50.053  26.841  25.716  1.00  0.00     0.198 A 
ATOM     68  F   UNL A   1      48.912  27.106  27.759  1.00  0.00    -0.203 F 
ATOM     69  F   UNL A   1      48.885  27.162  22.299  1.00  0.00    -0.200 F 
ATOM     70  C   UNL A   1      50.054  26.853  24.329  1.00  0.00     0.200 A 
ATOM     71  F   UNL A   1      51.176  26.540  26.383  1.00  0.00    -0.200 F 
ATOM     72  F   UNL A   1      51.171  26.547  23.655  1.00  0.00    -0.200 F 
ENDBRANCH  48  62
BRANCH  49  73
ATOM     73  C   UNL A   1      39.096  29.520  30.120  1.00  0.00     0.064 A 
ATOM     74  C   UNL A   1      38.836  29.060  31.414  1.00  0.00     0.173 A 
ATOM     75  C   UNL A   1      38.086  30.249  29.474  1.00  0.00     0.173 A 
ATOM     76  F   UNL A   1      39.740  28.301  32.047  1.00  0.00    -0.203 F 
ATOM     77  C   UNL A   1      37.634  29.366  32.056  1.00  0.00     0.198 A 
ATOM     78  C   UNL A   1      36.897  30.577  30.123  1.00  0.00     0.198 A 
ATOM     79  F   UNL A   1      38.269  30.670  28.214  1.00  0.00    -0.203 F 
ATOM     80  F   UNL A   1      37.405  28.911  33.295  1.00  0.00    -0.200 F 
ATOM     81  C   UNL A   1      36.675  30.140  31.419  1.00  0.00     0.200 A 
ATOM     82  F   UNL A   1      35.984  31.336  29.503  1.00  0.00    -0.200 F 
ATOM     83  F   UNL A   1      35.538  30.464  32.051  1.00  0.00    -0.200 F 
ENDBRANCH  49  73
BRANCH  61  84
ATOM     84  C   UNL A   1      44.663  33.336  28.633  1.00  0.00     0.064 A 
ATOM     85  C   UNL A   1      44.224  34.285  27.701  1.00  0.00     0.173 A 
ATOM     86  C   UNL A   1      45.373  33.794  29.755  1.00  0.00     0.173 A 
ATOM     87  F   UNL A   1      43.569  33.892  26.598  1.00  0.00    -0.203 F 
ATOM     88  C   UNL A   1      44.492  35.638  27.880  1.00  0.00     0.198 A 
ATOM     89  C   UNL A   1      45.610  35.151  29.948  1.00  0.00     0.198 A 
ATOM     90  F   UNL A   1      45.822  32.925  30.673  1.00  0.00    -0.203 F 
ATOM     91  F   UNL A   1      44.101  36.524  26.954  1.00  0.00    -0.200 F 
ATOM     92  C   UNL A   1      45.174  36.072  29.008  1.00  0.00     0.200 A 
ATOM     93  F   UNL A   1      46.260  35.567  31.044  1.00  0.00    -0.200 F 
ATOM     94  F   UNL A   1      45.418  37.377  29.185  1.00  0.00    -0.200 F 
ENDBRANCH  61  84
ENDBRANCH  35  36
ENDBRANCH  28  30
ENDBRANCH  27  28
ENDBRANCH  26  27
ENDBRANCH  25  26
ENDBRANCH  24  25
ENDBRANCH   1  24
TORSDOF 18
ENDMDL
MODEL 3
REMARK VINA RESULT:     -10.9      1.472      7.159
REMARK SMILES COC(=O)[C@H]1Sc2nnc(CCC(=O)OCCOCCOC(=O)c3ccc(-c4c5nc(c(-c6c(F)c(F)c(F)c(F)c6F)c6ccc([nH]6)c(-c6c(F)c(F)c(F)c(F)c6F)c6nc(c(-c7c(F)c(F)c(F)c(F)c7F)c7ccc4[nH]7)C=C6)C=C5)cc3)c(=O)n2N=C1C
REMARK SMILES IDX 17 1 16 2 15 3 13 4 14 5 12 6 11 7 10 8 5 9 6 10 91 11 7 12
REMARK SMILES IDX 90 13 92 14 8 15 89 16 9 17 87 18 88 19 3 20 4 21 2 22 1 23
REMARK SMILES IDX 18 24 19 25 20 26 21 27 22 28 23 29 24 30 25 31 86 32 26 33
REMARK SMILES IDX 85 34 27 35 28 36 29 37 79 38 30 39 84 40 78 41 80 42 31 43
REMARK SMILES IDX 83 44 77 45 76 46 32 48 64 49 44 50 63 51 45 52 48 53 62 54
REMARK SMILES IDX 81 55 46 56 47 57 61 59 82 60 49 61 33 62 34 63 42 64 35 65
REMARK SMILES IDX 36 66 40 67 43 68 37 69 38 70 41 71 39 72 65 73 66 74 74 75
REMARK SMILES IDX 67 76 68 77 72 78 75 79 69 80 70 81 73 82 71 83 50 84 51 85
REMARK SMILES IDX 59 86 52 87 53 88 57 89 60 90 54 91 55 92 58 93 56 94
REMARK H PARENT 80 47 48 58
REMARK Flexibility Score: inf
ROOT
ATOM      1  C   UNL A   1      37.350  22.142  25.745  1.00  0.00     0.202 C 
ENDROOT
BRANCH   1   2
ATOM      2  C   UNL A   1      36.535  21.683  24.533  1.00  0.00     0.261 C 
BRANCH   2   3
ATOM      3  O   UNL A   1      35.229  21.182  24.901  1.00  0.00    -0.463 OA
BRANCH   3   4
ATOM      4  C   UNL A   1      34.152  21.882  24.459  1.00  0.00     0.306 C 
ATOM      5  O   UNL A   1      33.006  21.748  24.860  1.00  0.00    -0.252 OA
BRANCH   4   6
ATOM      6  C   UNL A   1      34.542  22.828  23.338  1.00  0.00     0.129 C 
BRANCH   6   7
ATOM      7  C   UNL A   1      33.441  23.114  22.321  1.00  0.00     0.076 C 
BRANCH   7   8
ATOM      8  C   UNL A   1      33.056  24.574  22.292  1.00  0.00     0.131 A 
ATOM      9  C   UNL A   1      31.855  28.810  24.794  1.00  0.00     0.210 C 
ATOM     10  S   UNL A   1      31.952  28.763  23.008  1.00  0.00    -0.063 SA
ATOM     11  C   UNL A   1      31.548  27.485  25.438  1.00  0.00     0.061 C 
ATOM     12  C   UNL A   1      32.492  27.127  22.791  1.00  0.00     0.214 A 
ATOM     13  N   UNL A   1      31.454  26.336  24.860  1.00  0.00    -0.171 NA
ATOM     14  C   UNL A   1      31.450  27.445  26.940  1.00  0.00     0.065 C 
ATOM     15  N   UNL A   1      33.295  26.834  21.815  1.00  0.00    -0.123 NA
ATOM     16  N   UNL A   1      31.920  26.187  23.594  1.00  0.00    -0.169 N 
ATOM     17  N   UNL A   1      33.759  25.492  21.704  1.00  0.00    -0.147 NA
ATOM     18  C   UNL A   1      31.836  24.939  23.060  1.00  0.00     0.296 A 
ATOM     19  O   UNL A   1      30.919  24.150  23.114  1.00  0.00    -0.265 OA
BRANCH   9  20
ATOM     20  C   UNL A   1      33.126  29.352  25.386  1.00  0.00     0.325 C 
ATOM     21  O   UNL A   1      34.174  28.729  25.482  1.00  0.00    -0.250 OA
BRANCH  20  22
ATOM     22  O   UNL A   1      32.854  30.534  26.003  1.00  0.00    -0.468 OA
ATOM     23  C   UNL A   1      33.243  30.565  27.367  1.00  0.00     0.282 C 
ENDBRANCH  20  22
ENDBRANCH   9  20
ENDBRANCH   7   8
ENDBRANCH   6   7
ENDBRANCH   4   6
ENDBRANCH   3   4
ENDBRANCH   2   3
ENDBRANCH   1   2
BRANCH   1  24
ATOM     24  O   UNL A   1      38.719  21.737  25.731  1.00  0.00    -0.374 OA
BRANCH  24  25
ATOM     25  C   UNL A   1      38.954  20.416  25.244  1.00  0.00     0.202 C 
BRANCH  25  26
ATOM     26  C   UNL A   1      39.813  19.523  26.164  1.00  0.00     0.261 C 
BRANCH  26  27
ATOM     27  O   UNL A   1      40.947  18.917  25.503  1.00  0.00    -0.460 OA
BRANCH  27  28
ATOM     28  C   UNL A   1      42.149  19.083  26.100  1.00  0.00     0.338 C 
ATOM     29  O   UNL A   1      43.018  18.237  26.235  1.00  0.00    -0.246 OA
BRANCH  28  30
ATOM     30  C   UNL A   1      42.366  20.510  26.480  1.00  0.00     0.060 A 
ATOM     31  C   UNL A   1      42.823  21.383  25.481  1.00  0.00     0.016 A 
ATOM     32  C   UNL A   1      42.176  21.003  27.772  1.00  0.00     0.016 A 
ATOM     33  C   UNL A   1      43.124  22.726  25.766  1.00  0.00     0.010 A 
ATOM     34  C   UNL A   1      42.472  22.353  28.056  1.00  0.00     0.010 A 
ATOM     35  C   UNL A   1      42.971  23.229  27.062  1.00  0.00    -0.014 A 
BRANCH  35  36
ATOM     36  C   UNL A   1      43.477  24.590  27.444  1.00  0.00     0.031 A 
ATOM     37  C   UNL A   1      42.471  25.706  27.572  1.00  0.00     0.074 A 
ATOM     38  C   UNL A   1      44.770  24.886  27.716  1.00  0.00     0.049 A 
ATOM     39  N   UNL A   1      42.673  26.965  27.867  1.00  0.00    -0.248 NA
ATOM     40  C   UNL A   1      41.053  25.344  27.414  1.00  0.00     0.031 C 
ATOM     41  C   UNL A   1      45.865  23.938  27.875  1.00  0.00     0.029 A 
ATOM     42  N   UNL A   1      45.399  26.110  27.847  1.00  0.00    -0.354 N 
ATOM     43  C   UNL A   1      41.411  27.511  28.042  1.00  0.00     0.074 A 
ATOM     44  C   UNL A   1      40.451  26.496  27.668  1.00  0.00     0.031 C 
ATOM     45  C   UNL A   1      47.038  24.599  27.875  1.00  0.00     0.029 A 
ATOM     46  C   UNL A   1      46.776  26.032  27.812  1.00  0.00     0.049 A 
ATOM     47  H   UNL A   1      44.910  26.957  27.957  1.00  0.00     0.167 HD
ATOM     48  C   UNL A   1      41.081  28.713  28.566  1.00  0.00     0.037 A 
ATOM     49  C   UNL A   1      47.714  27.001  27.733  1.00  0.00     0.037 A 
ATOM     50  C   UNL A   1      42.021  29.739  28.921  1.00  0.00     0.049 A 
ATOM     51  C   UNL A   1      47.309  28.428  27.950  1.00  0.00     0.074 A 
ATOM     52  C   UNL A   1      41.777  30.969  29.505  1.00  0.00     0.029 A 
ATOM     53  N   UNL A   1      43.386  29.670  28.694  1.00  0.00    -0.354 N 
ATOM     54  N   UNL A   1      46.117  28.914  28.175  1.00  0.00    -0.248 NA
ATOM     55  C   UNL A   1      48.392  29.421  28.011  1.00  0.00     0.031 C 
ATOM     56  C   UNL A   1      42.984  31.673  29.566  1.00  0.00     0.029 A 
ATOM     57  C   UNL A   1      43.989  30.859  29.071  1.00  0.00     0.049 A 
ATOM     58  H   UNL A   1      43.858  28.891  28.319  1.00  0.00     0.167 HD
ATOM     59  C   UNL A   1      46.313  30.246  28.505  1.00  0.00     0.074 A 
ATOM     60  C   UNL A   1      47.732  30.508  28.384  1.00  0.00     0.031 C 
ATOM     61  C   UNL A   1      45.395  31.142  28.938  1.00  0.00     0.037 A 
BRANCH  48  62
ATOM     62  C   UNL A   1      39.628  28.954  28.839  1.00  0.00     0.064 A 
ATOM     63  C   UNL A   1      39.094  28.758  30.123  1.00  0.00     0.173 A 
ATOM     64  C   UNL A   1      38.773  29.418  27.832  1.00  0.00     0.173 A 
ATOM     65  F   UNL A   1      39.873  28.302  31.117  1.00  0.00    -0.203 F 
ATOM     66  C   UNL A   1      37.748  28.995  30.382  1.00  0.00     0.198 A 
ATOM     67  C   UNL A   1      37.433  29.680  28.101  1.00  0.00     0.198 A 
ATOM     68  F   UNL A   1      39.239  29.623  26.592  1.00  0.00    -0.203 F 
ATOM     69  F   UNL A   1      37.251  28.759  31.604  1.00  0.00    -0.200 F 
ATOM     70  C   UNL A   1      36.920  29.463  29.373  1.00  0.00     0.200 A 
ATOM     71  F   UNL A   1      36.635  30.142  27.129  1.00  0.00    -0.200 F 
ATOM     72  F   UNL A   1      35.625  29.698  29.624  1.00  0.00    -0.200 F 
ENDBRANCH  48  62
BRANCH  49  73
ATOM     73  C   UNL A   1      49.145  26.693  27.472  1.00  0.00     0.064 A 
ATOM     74  C   UNL A   1      49.663  26.576  26.178  1.00  0.00     0.173 A 
ATOM     75  C   UNL A   1      50.017  26.451  28.545  1.00  0.00     0.173 A 
ATOM     76  F   UNL A   1      48.855  26.729  25.121  1.00  0.00    -0.203 F 
ATOM     77  C   UNL A   1      51.012  26.283  25.969  1.00  0.00     0.198 A 
ATOM     78  C   UNL A   1      51.370  26.185  28.337  1.00  0.00     0.198 A 
ATOM     79  F   UNL A   1      49.557  26.504  29.803  1.00  0.00    -0.203 F 
ATOM     80  F   UNL A   1      51.484  26.171  24.720  1.00  0.00    -0.200 F 
ATOM     81  C   UNL A   1      51.867  26.108  27.047  1.00  0.00     0.200 A 
ATOM     82  F   UNL A   1      52.189  26.030  29.385  1.00  0.00    -0.200 F 
ATOM     83  F   UNL A   1      53.170  25.863  26.844  1.00  0.00    -0.200 F 
ENDBRANCH  49  73
BRANCH  61  84
ATOM     84  C   UNL A   1      45.891  32.486  29.372  1.00  0.00     0.064 A 
ATOM     85  C   UNL A   1      46.353  32.722  30.674  1.00  0.00     0.173 A 
ATOM     86  C   UNL A   1      45.936  33.548  28.455  1.00  0.00     0.173 A 
ATOM     87  F   UNL A   1      46.301  31.747  31.594  1.00  0.00    -0.203 F 
ATOM     88  C   UNL A   1      46.832  33.975  31.045  1.00  0.00     0.198 A 
ATOM     89  C   UNL A   1      46.448  34.790  28.820  1.00  0.00     0.198 A 
ATOM     90  F   UNL A   1      45.498  33.377  27.199  1.00  0.00    -0.203 F 
ATOM     91  F   UNL A   1      47.228  34.191  32.307  1.00  0.00    -0.200 F 
ATOM     92  C   UNL A   1      46.891  35.003  30.116  1.00  0.00     0.200 A 
ATOM     93  F   UNL A   1      46.511  35.778  27.917  1.00  0.00    -0.200 F 
ATOM     94  F   UNL A   1      47.367  36.204  30.471  1.00  0.00    -0.200 F 
ENDBRANCH  61  84
ENDBRANCH  35  36
ENDBRANCH  28  30
ENDBRANCH  27  28
ENDBRANCH  26  27
ENDBRANCH  25  26
ENDBRANCH  24  25
ENDBRANCH   1  24
TORSDOF 18
ENDMDL
