MODEL 1
REMARK VINA RESULT:     -11.2      0.000      0.000
REMARK SMILES C[C@@H](C(=O)OCCOCCOC(=O)c1ccc(-c2c3nc(c(-c4c(F)c(F)c(F)c(F)c4F)c4ccc([nH]4)c(-c4c(F)c(F)c(F)c(F)c4F)c4nc(c(-c5c(F)c(F)c(F)c(F)c5F)c5ccc2[nH]5)C=C4)C=C3)cc1)N1C(=O)c2nccnc2C1=O
REMARK SMILES IDX 9 1 8 2 7 3 6 4 5 5 3 6 4 7 2 8 1 9 77 10 78 11 86 12 79 13
REMARK SMILES IDX 80 14 85 15 87 16 81 17 84 18 82 19 83 20 10 21 11 22 12 23
REMARK SMILES IDX 13 24 14 25 15 26 76 27 16 28 75 29 17 30 18 31 19 32 69 33
REMARK SMILES IDX 20 34 74 35 68 36 70 37 21 38 73 39 67 40 66 41 22 43 54 44
REMARK SMILES IDX 34 45 53 46 35 47 38 48 52 49 71 50 36 51 37 52 51 54 72 55
REMARK SMILES IDX 39 56 23 57 24 58 32 59 25 60 26 61 30 62 33 63 27 64 28 65
REMARK SMILES IDX 31 66 29 67 55 68 56 69 64 70 57 71 58 72 62 73 65 74 59 75
REMARK SMILES IDX 60 76 63 77 61 78 40 79 41 80 49 81 42 82 43 83 47 84 50 85
REMARK SMILES IDX 44 86 45 87 48 88 46 89
REMARK H PARENT 70 42 38 53
REMARK Flexibility Score: inf
ROOT
ATOM      1  C   UNL A   1      36.503  20.851  24.995  1.00  0.00     0.202 C 
ENDROOT
BRANCH   1   2
ATOM      2  O   UNL A   1      36.484  22.244  24.685  1.00  0.00    -0.374 OA
BRANCH   2   3
ATOM      3  C   UNL A   1      35.650  23.096  25.465  1.00  0.00     0.202 C 
BRANCH   3   4
ATOM      4  C   UNL A   1      35.115  24.380  24.823  1.00  0.00     0.261 C 
BRANCH   4   5
ATOM      5  O   UNL A   1      33.712  24.314  24.523  1.00  0.00    -0.462 OA
BRANCH   5   6
ATOM      6  C   UNL A   1      33.406  23.628  23.385  1.00  0.00     0.329 C 
ATOM      7  O   UNL A   1      34.193  23.439  22.464  1.00  0.00    -0.250 OA
BRANCH   6   8
ATOM      8  C   UNL A   1      31.952  23.132  23.370  1.00  0.00     0.201 C 
ATOM      9  C   UNL A   1      30.977  23.920  24.242  1.00  0.00     0.044 C 
BRANCH   8  10
ATOM     10  N   UNL A   1      32.022  21.705  23.707  1.00  0.00    -0.257 N 
ATOM     11  C   UNL A   1      32.290  21.173  24.946  1.00  0.00     0.282 C 
ATOM     12  C   UNL A   1      32.091  20.742  22.729  1.00  0.00     0.282 C 
ATOM     13  O   UNL A   1      32.391  21.749  26.011  1.00  0.00    -0.267 OA
ATOM     14  C   UNL A   1      32.479  19.734  24.745  1.00  0.00     0.160 A 
ATOM     15  C   UNL A   1      32.383  19.479  23.403  1.00  0.00     0.160 A 
ATOM     16  O   UNL A   1      31.949  20.896  21.528  1.00  0.00    -0.267 OA
ATOM     17  N   UNL A   1      32.707  18.793  25.682  1.00  0.00    -0.247 NA
ATOM     18  N   UNL A   1      32.517  18.258  22.850  1.00  0.00    -0.247 NA
ATOM     19  C   UNL A   1      32.845  17.549  25.149  1.00  0.00     0.132 A 
ATOM     20  C   UNL A   1      32.761  17.291  23.773  1.00  0.00     0.132 A 
ENDBRANCH   8  10
ENDBRANCH   6   8
ENDBRANCH   5   6
ENDBRANCH   4   5
ENDBRANCH   3   4
ENDBRANCH   2   3
ENDBRANCH   1   2
BRANCH   1  21
ATOM     21  C   UNL A   1      37.849  20.188  25.308  1.00  0.00     0.261 C 
BRANCH  21  22
ATOM     22  O   UNL A   1      38.947  21.118  25.317  1.00  0.00    -0.460 OA
BRANCH  22  23
ATOM     23  C   UNL A   1      39.810  20.946  26.349  1.00  0.00     0.338 C 
ATOM     24  O   UNL A   1      40.368  19.916  26.688  1.00  0.00    -0.246 OA
BRANCH  23  25
ATOM     25  C   UNL A   1      40.161  22.249  26.944  1.00  0.00     0.060 A 
ATOM     26  C   UNL A   1      39.484  23.377  26.463  1.00  0.00     0.016 A 
ATOM     27  C   UNL A   1      41.195  22.383  27.872  1.00  0.00     0.016 A 
ATOM     28  C   UNL A   1      39.879  24.651  26.860  1.00  0.00     0.010 A 
ATOM     29  C   UNL A   1      41.593  23.665  28.268  1.00  0.00     0.010 A 
ATOM     30  C   UNL A   1      40.965  24.806  27.732  1.00  0.00    -0.014 A 
BRANCH  30  31
ATOM     31  C   UNL A   1      41.527  26.159  27.965  1.00  0.00     0.031 A 
ATOM     32  C   UNL A   1      42.900  26.483  27.441  1.00  0.00     0.074 A 
ATOM     33  C   UNL A   1      40.808  27.100  28.602  1.00  0.00     0.049 A 
ATOM     34  N   UNL A   1      43.598  27.584  27.561  1.00  0.00    -0.248 NA
ATOM     35  C   UNL A   1      43.578  25.421  26.680  1.00  0.00     0.031 C 
ATOM     36  C   UNL A   1      39.451  26.921  29.113  1.00  0.00     0.029 A 
ATOM     37  N   UNL A   1      41.127  28.395  28.931  1.00  0.00    -0.354 N 
ATOM     38  C   UNL A   1      44.800  27.343  26.905  1.00  0.00     0.074 A 
ATOM     39  C   UNL A   1      44.749  25.983  26.416  1.00  0.00     0.031 C 
ATOM     40  C   UNL A   1      39.052  28.064  29.697  1.00  0.00     0.029 A 
ATOM     41  C   UNL A   1      40.140  29.039  29.636  1.00  0.00     0.049 A 
ATOM     42  H   UNL A   1      41.979  28.820  28.685  1.00  0.00     0.167 HD
ATOM     43  C   UNL A   1      45.845  28.185  26.724  1.00  0.00     0.037 A 
ATOM     44  C   UNL A   1      40.129  30.266  30.191  1.00  0.00     0.037 A 
ATOM     45  C   UNL A   1      45.886  29.541  27.206  1.00  0.00     0.049 A 
ATOM     46  C   UNL A   1      41.338  31.154  30.041  1.00  0.00     0.074 A 
ATOM     47  C   UNL A   1      46.887  30.483  27.047  1.00  0.00     0.029 A 
ATOM     48  N   UNL A   1      44.884  30.146  27.952  1.00  0.00    -0.354 N 
ATOM     49  N   UNL A   1      42.457  30.931  29.397  1.00  0.00    -0.248 NA
ATOM     50  C   UNL A   1      41.278  32.469  30.695  1.00  0.00     0.031 C 
ATOM     51  C   UNL A   1      46.523  31.633  27.754  1.00  0.00     0.029 A 
ATOM     52  C   UNL A   1      45.261  31.437  28.291  1.00  0.00     0.049 A 
ATOM     53  H   UNL A   1      44.032  29.721  28.203  1.00  0.00     0.167 HD
ATOM     54  C   UNL A   1      43.217  32.086  29.536  1.00  0.00     0.074 A 
ATOM     55  C   UNL A   1      42.425  33.013  30.315  1.00  0.00     0.031 C 
ATOM     56  C   UNL A   1      44.458  32.355  29.059  1.00  0.00     0.037 A 
BRANCH  43  57
ATOM     57  C   UNL A   1      47.051  27.655  26.001  1.00  0.00     0.064 A 
ATOM     58  C   UNL A   1      47.165  27.709  24.603  1.00  0.00     0.173 A 
ATOM     59  C   UNL A   1      48.132  27.125  26.725  1.00  0.00     0.173 A 
ATOM     60  F   UNL A   1      46.159  28.196  23.862  1.00  0.00    -0.203 F 
ATOM     61  C   UNL A   1      48.303  27.229  23.957  1.00  0.00     0.198 A 
ATOM     62  C   UNL A   1      49.281  26.678  26.078  1.00  0.00     0.198 A 
ATOM     63  F   UNL A   1      48.080  27.055  28.064  1.00  0.00    -0.203 F 
ATOM     64  F   UNL A   1      48.368  27.247  22.619  1.00  0.00    -0.200 F 
ATOM     65  C   UNL A   1      49.362  26.722  24.695  1.00  0.00     0.200 A 
ATOM     66  F   UNL A   1      50.309  26.204  26.795  1.00  0.00    -0.200 F 
ATOM     67  F   UNL A   1      50.459  26.271  24.072  1.00  0.00    -0.200 F 
ENDBRANCH  43  57
BRANCH  44  68
ATOM     68  C   UNL A   1      38.939  30.729  30.955  1.00  0.00     0.064 A 
ATOM     69  C   UNL A   1      38.864  30.567  32.345  1.00  0.00     0.173 A 
ATOM     70  C   UNL A   1      37.841  31.315  30.308  1.00  0.00     0.173 A 
ATOM     71  F   UNL A   1      39.876  29.988  33.007  1.00  0.00    -0.203 F 
ATOM     72  C   UNL A   1      37.727  30.951  33.055  1.00  0.00     0.198 A 
ATOM     73  C   UNL A   1      36.720  31.731  31.022  1.00  0.00     0.198 A 
ATOM     74  F   UNL A   1      37.860  31.493  28.978  1.00  0.00    -0.203 F 
ATOM     75  F   UNL A   1      37.659  30.732  34.375  1.00  0.00    -0.200 F 
ATOM     76  C   UNL A   1      36.659  31.538  32.393  1.00  0.00     0.200 A 
ATOM     77  F   UNL A   1      35.697  32.312  30.381  1.00  0.00    -0.200 F 
ATOM     78  F   UNL A   1      35.567  31.910  33.076  1.00  0.00    -0.200 F 
ENDBRANCH  44  68
BRANCH  56  79
ATOM     79  C   UNL A   1      45.021  33.724  29.322  1.00  0.00     0.064 A 
ATOM     80  C   UNL A   1      45.819  33.997  30.444  1.00  0.00     0.173 A 
ATOM     81  C   UNL A   1      44.788  34.771  28.415  1.00  0.00     0.173 A 
ATOM     82  F   UNL A   1      46.063  33.037  31.348  1.00  0.00    -0.203 F 
ATOM     83  C   UNL A   1      46.336  35.272  30.663  1.00  0.00     0.198 A 
ATOM     84  C   UNL A   1      45.336  36.034  28.619  1.00  0.00     0.198 A 
ATOM     85  F   UNL A   1      44.039  34.564  27.321  1.00  0.00    -0.203 F 
ATOM     86  F   UNL A   1      47.047  35.522  31.770  1.00  0.00    -0.200 F 
ATOM     87  C   UNL A   1      46.101  36.286  29.746  1.00  0.00     0.200 A 
ATOM     88  F   UNL A   1      45.125  37.007  27.721  1.00  0.00    -0.200 F 
ATOM     89  F   UNL A   1      46.607  37.509  29.955  1.00  0.00    -0.200 F 
ENDBRANCH  56  79
ENDBRANCH  30  31
ENDBRANCH  23  25
ENDBRANCH  22  23
ENDBRANCH  21  22
ENDBRANCH   1  21
TORSDOF 15
ENDMDL
MODEL 2
REMARK VINA RESULT:     -11.2      0.543      2.085
REMARK SMILES C[C@@H](C(=O)OCCOCCOC(=O)c1ccc(-c2c3nc(c(-c4c(F)c(F)c(F)c(F)c4F)c4ccc([nH]4)c(-c4c(F)c(F)c(F)c(F)c4F)c4nc(c(-c5c(F)c(F)c(F)c(F)c5F)c5ccc2[nH]5)C=C4)C=C3)cc1)N1C(=O)c2nccnc2C1=O
REMARK SMILES IDX 9 1 8 2 7 3 6 4 5 5 3 6 4 7 2 8 1 9 77 10 78 11 86 12 79 13
REMARK SMILES IDX 80 14 85 15 87 16 81 17 84 18 82 19 83 20 10 21 11 22 12 23
REMARK SMILES IDX 13 24 14 25 15 26 76 27 16 28 75 29 17 30 18 31 19 32 69 33
REMARK SMILES IDX 20 34 74 35 68 36 70 37 21 38 73 39 67 40 66 41 22 43 54 44
REMARK SMILES IDX 34 45 53 46 35 47 38 48 52 49 71 50 36 51 37 52 51 54 72 55
REMARK SMILES IDX 39 56 23 57 24 58 32 59 25 60 26 61 30 62 33 63 27 64 28 65
REMARK SMILES IDX 31 66 29 67 55 68 56 69 64 70 57 71 58 72 62 73 65 74 59 75
REMARK SMILES IDX 60 76 63 77 61 78 40 79 41 80 49 81 42 82 43 83 47 84 50 85
REMARK SMILES IDX 44 86 45 87 48 88 46 89
REMARK H PARENT 70 42 38 53
REMARK Flexibility Score: inf
ROOT
ATOM      1  C   UNL A   1      37.621  19.680  24.968  1.00  0.00     0.202 C 
ENDROOT
BRANCH   1   2
ATOM      2  O   UNL A   1      37.316  21.032  24.630  1.00  0.00    -0.374 OA
BRANCH   2   3
ATOM      3  C   UNL A   1      35.953  21.444  24.662  1.00  0.00     0.202 C 
BRANCH   3   4
ATOM      4  C   UNL A   1      35.614  22.880  24.250  1.00  0.00     0.261 C 
BRANCH   4   5
ATOM      5  O   UNL A   1      34.523  22.954  23.319  1.00  0.00    -0.462 OA
BRANCH   5   6
ATOM      6  C   UNL A   1      33.429  23.625  23.778  1.00  0.00     0.329 C 
ATOM      7  O   UNL A   1      33.481  24.586  24.539  1.00  0.00    -0.250 OA
BRANCH   6   8
ATOM      8  C   UNL A   1      32.111  23.032  23.255  1.00  0.00     0.201 C 
ATOM      9  C   UNL A   1      30.844  23.782  23.662  1.00  0.00     0.044 C 
BRANCH   8  10
ATOM     10  N   UNL A   1      32.123  21.626  23.673  1.00  0.00    -0.257 N 
ATOM     11  C   UNL A   1      32.327  21.156  24.948  1.00  0.00     0.282 C 
ATOM     12  C   UNL A   1      32.196  20.607  22.752  1.00  0.00     0.282 C 
ATOM     13  O   UNL A   1      32.407  21.787  25.983  1.00  0.00    -0.267 OA
ATOM     14  C   UNL A   1      32.476  19.702  24.834  1.00  0.00     0.160 A 
ATOM     15  C   UNL A   1      32.421  19.376  23.505  1.00  0.00     0.160 A 
ATOM     16  O   UNL A   1      32.104  20.699  21.540  1.00  0.00    -0.267 OA
ATOM     17  N   UNL A   1      32.638  18.809  25.829  1.00  0.00    -0.247 NA
ATOM     18  N   UNL A   1      32.536  18.123  23.026  1.00  0.00    -0.247 NA
ATOM     19  C   UNL A   1      32.756  17.533  25.371  1.00  0.00     0.132 A 
ATOM     20  C   UNL A   1      32.714  17.202  24.008  1.00  0.00     0.132 A 
ENDBRANCH   8  10
ENDBRANCH   6   8
ENDBRANCH   5   6
ENDBRANCH   4   5
ENDBRANCH   3   4
ENDBRANCH   2   3
ENDBRANCH   1   2
BRANCH   1  21
ATOM     21  C   UNL A   1      39.009  19.361  25.534  1.00  0.00     0.261 C 
BRANCH  21  22
ATOM     22  O   UNL A   1      39.823  20.533  25.726  1.00  0.00    -0.460 OA
BRANCH  22  23
ATOM     23  C   UNL A   1      40.527  20.535  26.885  1.00  0.00     0.338 C 
ATOM     24  O   UNL A   1      41.066  19.586  27.429  1.00  0.00    -0.246 OA
BRANCH  23  25
ATOM     25  C   UNL A   1      40.736  21.918  27.353  1.00  0.00     0.060 A 
ATOM     26  C   UNL A   1      40.068  22.937  26.661  1.00  0.00     0.016 A 
ATOM     27  C   UNL A   1      41.638  22.224  28.373  1.00  0.00     0.016 A 
ATOM     28  C   UNL A   1      40.347  24.271  26.944  1.00  0.00     0.010 A 
ATOM     29  C   UNL A   1      41.920  23.566  28.653  1.00  0.00     0.010 A 
ATOM     30  C   UNL A   1      41.307  24.594  27.912  1.00  0.00    -0.014 A 
BRANCH  30  31
ATOM     31  C   UNL A   1      41.768  25.999  28.042  1.00  0.00     0.031 A 
ATOM     32  C   UNL A   1      43.105  26.387  27.474  1.00  0.00     0.074 A 
ATOM     33  C   UNL A   1      40.987  26.925  28.625  1.00  0.00     0.049 A 
ATOM     34  N   UNL A   1      43.720  27.543  27.506  1.00  0.00    -0.248 NA
ATOM     35  C   UNL A   1      43.853  25.329  26.776  1.00  0.00     0.031 C 
ATOM     36  C   UNL A   1      39.653  26.681  29.171  1.00  0.00     0.029 A 
ATOM     37  N   UNL A   1      41.210  28.259  28.860  1.00  0.00    -0.354 N 
ATOM     38  C   UNL A   1      44.928  27.347  26.849  1.00  0.00     0.074 A 
ATOM     39  C   UNL A   1      44.975  25.957  26.454  1.00  0.00     0.031 C 
ATOM     40  C   UNL A   1      39.176  27.829  29.681  1.00  0.00     0.029 A 
ATOM     41  C   UNL A   1      40.186  28.876  29.536  1.00  0.00     0.049 A 
ATOM     42  H   UNL A   1      42.025  28.730  28.571  1.00  0.00     0.167 HD
ATOM     43  C   UNL A   1      45.905  28.250  26.593  1.00  0.00     0.037 A 
ATOM     44  C   UNL A   1      40.088  30.134  30.006  1.00  0.00     0.037 A 
ATOM     45  C   UNL A   1      45.848  29.636  26.980  1.00  0.00     0.049 A 
ATOM     46  C   UNL A   1      41.225  31.097  29.775  1.00  0.00     0.074 A 
ATOM     47  C   UNL A   1      46.774  30.637  26.740  1.00  0.00     0.029 A 
ATOM     48  N   UNL A   1      44.813  30.215  27.699  1.00  0.00    -0.354 N 
ATOM     49  N   UNL A   1      42.350  30.914  29.129  1.00  0.00    -0.248 NA
ATOM     50  C   UNL A   1      41.074  32.446  30.338  1.00  0.00     0.031 C 
ATOM     51  C   UNL A   1      46.331  31.803  27.373  1.00  0.00     0.029 A 
ATOM     52  C   UNL A   1      45.094  31.551  27.944  1.00  0.00     0.049 A 
ATOM     53  H   UNL A   1      43.998  29.746  27.993  1.00  0.00     0.167 HD
ATOM     54  C   UNL A   1      43.022  32.130  29.176  1.00  0.00     0.074 A 
ATOM     55  C   UNL A   1      42.171  33.047  29.903  1.00  0.00     0.031 C 
ATOM     56  C   UNL A   1      44.234  32.457  28.660  1.00  0.00     0.037 A 
BRANCH  43  57
ATOM     57  C   UNL A   1      47.139  27.763  25.888  1.00  0.00     0.064 A 
ATOM     58  C   UNL A   1      48.250  27.268  26.587  1.00  0.00     0.173 A 
ATOM     59  C   UNL A   1      47.191  27.750  24.484  1.00  0.00     0.173 A 
ATOM     60  F   UNL A   1      48.258  27.266  27.929  1.00  0.00    -0.203 F 
ATOM     61  C   UNL A   1      49.376  26.803  25.909  1.00  0.00     0.198 A 
ATOM     62  C   UNL A   1      48.304  27.253  23.810  1.00  0.00     0.198 A 
ATOM     63  F   UNL A   1      46.155  28.206  23.764  1.00  0.00    -0.203 F 
ATOM     64  F   UNL A   1      50.443  26.380  26.599  1.00  0.00    -0.200 F 
ATOM     65  C   UNL A   1      49.397  26.788  24.522  1.00  0.00     0.200 A 
ATOM     66  F   UNL A   1      48.315  27.225  22.470  1.00  0.00    -0.200 F 
ATOM     67  F   UNL A   1      50.477  26.331  23.873  1.00  0.00    -0.200 F 
ENDBRANCH  43  57
BRANCH  44  68
ATOM     68  C   UNL A   1      38.876  30.558  30.756  1.00  0.00     0.064 A 
ATOM     69  C   UNL A   1      37.759  31.081  30.088  1.00  0.00     0.173 A 
ATOM     70  C   UNL A   1      38.818  30.477  32.155  1.00  0.00     0.173 A 
ATOM     71  F   UNL A   1      37.774  31.203  28.753  1.00  0.00    -0.203 F 
ATOM     72  C   UNL A   1      36.643  31.528  30.794  1.00  0.00     0.198 A 
ATOM     73  C   UNL A   1      37.689  30.892  32.857  1.00  0.00     0.198 A 
ATOM     74  F   UNL A   1      39.860  29.986  32.844  1.00  0.00    -0.203 F 
ATOM     75  F   UNL A   1      35.613  32.076  30.134  1.00  0.00    -0.200 F 
ATOM     76  C   UNL A   1      36.607  31.428  32.176  1.00  0.00     0.200 A 
ATOM     77  F   UNL A   1      37.653  30.779  34.191  1.00  0.00    -0.200 F 
ATOM     78  F   UNL A   1      35.532  31.856  32.854  1.00  0.00    -0.200 F 
ENDBRANCH  44  68
BRANCH  56  79
ATOM     79  C   UNL A   1      44.694  33.880  28.820  1.00  0.00     0.064 A 
ATOM     80  C   UNL A   1      44.359  34.878  27.893  1.00  0.00     0.173 A 
ATOM     81  C   UNL A   1      45.451  34.256  29.942  1.00  0.00     0.173 A 
ATOM     82  F   UNL A   1      43.648  34.572  26.798  1.00  0.00    -0.203 F 
ATOM     83  C   UNL A   1      44.790  36.191  28.067  1.00  0.00     0.198 A 
ATOM     84  C   UNL A   1      45.849  35.577  30.130  1.00  0.00     0.198 A 
ATOM     85  F   UNL A   1      45.792  33.344  30.865  1.00  0.00    -0.203 F 
ATOM     86  F   UNL A   1      44.506  37.115  27.139  1.00  0.00    -0.200 F 
ATOM     87  C   UNL A   1      45.527  36.541  29.189  1.00  0.00     0.200 A 
ATOM     88  F   UNL A   1      46.544  35.915  31.226  1.00  0.00    -0.200 F 
ATOM     89  F   UNL A   1      45.933  37.807  29.358  1.00  0.00    -0.200 F 
ENDBRANCH  56  79
ENDBRANCH  30  31
ENDBRANCH  23  25
ENDBRANCH  22  23
ENDBRANCH  21  22
ENDBRANCH   1  21
TORSDOF 15
ENDMDL
MODEL 3
REMARK VINA RESULT:     -11.1      5.262     10.561
REMARK SMILES C[C@@H](C(=O)OCCOCCOC(=O)c1ccc(-c2c3nc(c(-c4c(F)c(F)c(F)c(F)c4F)c4ccc([nH]4)c(-c4c(F)c(F)c(F)c(F)c4F)c4nc(c(-c5c(F)c(F)c(F)c(F)c5F)c5ccc2[nH]5)C=C4)C=C3)cc1)N1C(=O)c2nccnc2C1=O
REMARK SMILES IDX 9 1 8 2 7 3 6 4 5 5 3 6 4 7 2 8 1 9 77 10 78 11 86 12 79 13
REMARK SMILES IDX 80 14 85 15 87 16 81 17 84 18 82 19 83 20 10 21 11 22 12 23
REMARK SMILES IDX 13 24 14 25 15 26 76 27 16 28 75 29 17 30 18 31 19 32 69 33
REMARK SMILES IDX 20 34 74 35 68 36 70 37 21 38 73 39 67 40 66 41 22 43 54 44
REMARK SMILES IDX 34 45 53 46 35 47 38 48 52 49 71 50 36 51 37 52 51 54 72 55
REMARK SMILES IDX 39 56 23 57 24 58 32 59 25 60 26 61 30 62 33 63 27 64 28 65
REMARK SMILES IDX 31 66 29 67 55 68 56 69 64 70 57 71 58 72 62 73 65 74 59 75
REMARK SMILES IDX 60 76 63 77 61 78 40 79 41 80 49 81 42 82 43 83 47 84 50 85
REMARK SMILES IDX 44 86 45 87 48 88 46 89
REMARK H PARENT 70 42 38 53
REMARK Flexibility Score: inf
ROOT
ATOM      1  C   UNL A   1      31.403  32.039  26.682  1.00  0.00     0.202 C 
ENDROOT
BRANCH   1   2
ATOM      2  O   UNL A   1      31.713  30.663  26.893  1.00  0.00    -0.374 OA
BRANCH   2   3
ATOM      3  C   UNL A   1      33.059  30.238  26.700  1.00  0.00     0.202 C 
BRANCH   3   4
ATOM      4  C   UNL A   1      33.438  28.809  27.102  1.00  0.00     0.261 C 
BRANCH   4   5
ATOM      5  O   UNL A   1      33.368  27.881  26.008  1.00  0.00    -0.462 OA
BRANCH   5   6
ATOM      6  C   UNL A   1      32.242  27.114  25.986  1.00  0.00     0.329 C 
ATOM      7  O   UNL A   1      31.452  27.024  26.919  1.00  0.00    -0.250 OA
BRANCH   6   8
ATOM      8  C   UNL A   1      32.077  26.347  24.664  1.00  0.00     0.201 C 
ATOM      9  C   UNL A   1      33.376  25.957  23.962  1.00  0.00     0.044 C 
BRANCH   8  10
ATOM     10  N   UNL A   1      31.189  27.176  23.839  1.00  0.00    -0.257 N 
ATOM     11  C   UNL A   1      31.555  28.273  23.097  1.00  0.00     0.282 C 
ATOM     12  C   UNL A   1      29.821  27.086  23.950  1.00  0.00     0.282 C 
ATOM     13  O   UNL A   1      32.672  28.694  22.869  1.00  0.00    -0.267 OA
ATOM     14  C   UNL A   1      30.310  28.896  22.639  1.00  0.00     0.160 A 
ATOM     15  C   UNL A   1      29.265  28.193  23.176  1.00  0.00     0.160 A 
ATOM     16  O   UNL A   1      29.183  26.258  24.577  1.00  0.00    -0.267 OA
ATOM     17  N   UNL A   1      30.171  29.968  21.834  1.00  0.00    -0.247 NA
ATOM     18  N   UNL A   1      27.967  28.493  22.977  1.00  0.00    -0.247 NA
ATOM     19  C   UNL A   1      28.868  30.291  21.617  1.00  0.00     0.132 A 
ATOM     20  C   UNL A   1      27.798  29.578  22.178  1.00  0.00     0.132 A 
ENDBRANCH   8  10
ENDBRANCH   6   8
ENDBRANCH   5   6
ENDBRANCH   4   5
ENDBRANCH   3   4
ENDBRANCH   2   3
ENDBRANCH   1   2
BRANCH   1  21
ATOM     21  C   UNL A   1      32.511  33.080  26.884  1.00  0.00     0.261 C 
BRANCH  21  22
ATOM     22  O   UNL A   1      32.423  33.759  28.151  1.00  0.00    -0.460 OA
BRANCH  22  23
ATOM     23  C   UNL A   1      33.510  34.510  28.453  1.00  0.00     0.338 C 
ATOM     24  O   UNL A   1      33.556  35.715  28.628  1.00  0.00    -0.246 OA
BRANCH  23  25
ATOM     25  C   UNL A   1      34.666  33.640  28.742  1.00  0.00     0.060 A 
ATOM     26  C   UNL A   1      34.414  32.443  29.424  1.00  0.00     0.016 A 
ATOM     27  C   UNL A   1      35.974  34.028  28.447  1.00  0.00     0.016 A 
ATOM     28  C   UNL A   1      35.472  31.657  29.871  1.00  0.00     0.010 A 
ATOM     29  C   UNL A   1      37.037  33.239  28.901  1.00  0.00     0.010 A 
ATOM     30  C   UNL A   1      36.792  32.072  29.650  1.00  0.00    -0.014 A 
BRANCH  30  31
ATOM     31  C   UNL A   1      37.904  31.360  30.327  1.00  0.00     0.031 A 
ATOM     32  C   UNL A   1      38.212  31.680  31.765  1.00  0.00     0.074 A 
ATOM     33  C   UNL A   1      38.605  30.412  29.682  1.00  0.00     0.049 A 
ATOM     34  N   UNL A   1      39.157  31.209  32.538  1.00  0.00    -0.248 NA
ATOM     35  C   UNL A   1      37.337  32.667  32.418  1.00  0.00     0.031 C 
ATOM     36  C   UNL A   1      38.370  29.981  28.305  1.00  0.00     0.029 A 
ATOM     37  N   UNL A   1      39.664  29.645  30.101  1.00  0.00    -0.354 N 
ATOM     38  C   UNL A   1      39.001  31.851  33.761  1.00  0.00     0.074 A 
ATOM     39  C   UNL A   1      37.890  32.766  33.619  1.00  0.00     0.031 C 
ATOM     40  C   UNL A   1      39.263  29.027  27.990  1.00  0.00     0.029 A 
ATOM     41  C   UNL A   1      40.156  28.811  29.127  1.00  0.00     0.049 A 
ATOM     42  H   UNL A   1      40.035  29.689  31.012  1.00  0.00     0.167 HD
ATOM     43  C   UNL A   1      39.716  31.684  34.899  1.00  0.00     0.037 A 
ATOM     44  C   UNL A   1      41.222  27.988  29.146  1.00  0.00     0.037 A 
ATOM     45  C   UNL A   1      40.815  30.764  35.037  1.00  0.00     0.049 A 
ATOM     46  C   UNL A   1      42.048  27.880  30.402  1.00  0.00     0.074 A 
ATOM     47  C   UNL A   1      41.583  30.500  36.158  1.00  0.00     0.029 A 
ATOM     48  N   UNL A   1      41.311  29.965  34.017  1.00  0.00    -0.354 N 
ATOM     49  N   UNL A   1      41.877  28.467  31.561  1.00  0.00    -0.248 NA
ATOM     50  C   UNL A   1      43.216  26.989  30.351  1.00  0.00     0.031 C 
ATOM     51  C   UNL A   1      42.586  29.594  35.798  1.00  0.00     0.029 A 
ATOM     52  C   UNL A   1      42.398  29.235  34.473  1.00  0.00     0.049 A 
ATOM     53  H   UNL A   1      40.944  29.922  33.104  1.00  0.00     0.167 HD
ATOM     54  C   UNL A   1      42.890  27.991  32.386  1.00  0.00     0.074 A 
ATOM     55  C   UNL A   1      43.663  27.056  31.596  1.00  0.00     0.031 C 
ATOM     56  C   UNL A   1      43.154  28.298  33.680  1.00  0.00     0.037 A 
BRANCH  43  57
ATOM     57  C   UNL A   1      39.356  32.538  36.082  1.00  0.00     0.064 A 
ATOM     58  C   UNL A   1      38.454  32.106  37.066  1.00  0.00     0.173 A 
ATOM     59  C   UNL A   1      39.961  33.794  36.255  1.00  0.00     0.173 A 
ATOM     60  F   UNL A   1      37.840  30.920  36.945  1.00  0.00    -0.203 F 
ATOM     61  C   UNL A   1      38.152  32.909  38.164  1.00  0.00     0.198 A 
ATOM     62  C   UNL A   1      39.682  34.578  37.372  1.00  0.00     0.198 A 
ATOM     63  F   UNL A   1      40.836  34.255  35.349  1.00  0.00    -0.203 F 
ATOM     64  F   UNL A   1      37.251  32.496  39.066  1.00  0.00    -0.200 F 
ATOM     65  C   UNL A   1      38.773  34.140  38.320  1.00  0.00     0.200 A 
ATOM     66  F   UNL A   1      40.296  35.760  37.527  1.00  0.00    -0.200 F 
ATOM     67  F   UNL A   1      38.488  34.906  39.383  1.00  0.00    -0.200 F 
ENDBRANCH  43  57
BRANCH  44  68
ATOM     68  C   UNL A   1      41.582  27.207  27.932  1.00  0.00     0.064 A 
ATOM     69  C   UNL A   1      41.103  25.903  27.743  1.00  0.00     0.173 A 
ATOM     70  C   UNL A   1      42.434  27.736  26.951  1.00  0.00     0.173 A 
ATOM     71  F   UNL A   1      40.306  25.342  28.664  1.00  0.00    -0.203 F 
ATOM     72  C   UNL A   1      41.483  25.151  26.632  1.00  0.00     0.198 A 
ATOM     73  C   UNL A   1      42.785  26.996  25.824  1.00  0.00     0.198 A 
ATOM     74  F   UNL A   1      42.921  28.979  27.083  1.00  0.00    -0.203 F 
ATOM     75  F   UNL A   1      41.056  23.886  26.506  1.00  0.00    -0.200 F 
ATOM     76  C   UNL A   1      42.318  25.700  25.672  1.00  0.00     0.200 A 
ATOM     77  F   UNL A   1      43.580  27.537  24.891  1.00  0.00    -0.200 F 
ATOM     78  F   UNL A   1      42.681  24.977  24.603  1.00  0.00    -0.200 F 
ENDBRANCH  44  68
BRANCH  56  79
ATOM     79  C   UNL A   1      44.297  27.583  34.344  1.00  0.00     0.064 A 
ATOM     80  C   UNL A   1      45.591  28.124  34.383  1.00  0.00     0.173 A 
ATOM     81  C   UNL A   1      44.084  26.351  34.985  1.00  0.00     0.173 A 
ATOM     82  F   UNL A   1      45.853  29.291  33.776  1.00  0.00    -0.203 F 
ATOM     83  C   UNL A   1      46.633  27.446  35.011  1.00  0.00     0.198 A 
ATOM     84  C   UNL A   1      45.120  25.695  35.643  1.00  0.00     0.198 A 
ATOM     85  F   UNL A   1      42.865  25.791  34.987  1.00  0.00    -0.203 F 
ATOM     86  F   UNL A   1      47.872  27.956  34.986  1.00  0.00    -0.200 F 
ATOM     87  C   UNL A   1      46.395  26.237  35.647  1.00  0.00     0.200 A 
ATOM     88  F   UNL A   1      44.883  24.536  36.275  1.00  0.00    -0.200 F 
ATOM     89  F   UNL A   1      47.398  25.591  36.259  1.00  0.00    -0.200 F 
ENDBRANCH  56  79
ENDBRANCH  30  31
ENDBRANCH  23  25
ENDBRANCH  22  23
ENDBRANCH  21  22
ENDBRANCH   1  21
TORSDOF 15
ENDMDL
