MODEL 1
REMARK VINA RESULT:     -13.2      0.000      0.000
REMARK SMILES Cc1cccc(CC(=O)N2CCC3(CCC(=O)N([C@H](C)C(=O)OCCOCCOC(=O)c4ccc(-c5c6nc(c(-c7c(F)c(F)c(F)c(F)c7F)c7ccc([nH]7)c(-c7c(F)c(F)c(F)c(F)c7F)c7nc(c(-c8c(F)c(F)c(F)c(F)c8F)c8ccc5[nH]8)C=C7)C=C6)cc4)C3)CC2)c1
REMARK SMILES IDX 25 1 24 2 23 3 21 4 22 5 19 6 20 7 18 8 8 9 9 10 10 11 11 12
REMARK SMILES IDX 97 13 12 14 96 15 13 16 14 17 95 18 15 19 16 20 17 21 7 22
REMARK SMILES IDX 6 23 1 24 2 25 3 26 98 27 4 28 5 29 26 30 27 31 28 32 29 33
REMARK SMILES IDX 30 34 31 35 32 36 33 37 94 38 34 39 93 40 35 41 36 42 37 43
REMARK SMILES IDX 87 44 38 45 92 46 86 47 88 48 39 49 91 50 85 51 84 52 40 54
REMARK SMILES IDX 72 55 52 56 71 57 53 58 56 59 70 60 89 61 54 62 55 63 69 65
REMARK SMILES IDX 90 66 57 67 41 68 42 69 50 70 43 71 44 72 48 73 51 74 45 75
REMARK SMILES IDX 46 76 49 77 47 78 73 79 74 80 82 81 75 82 76 83 80 84 83 85
REMARK SMILES IDX 77 86 78 87 81 88 79 89 58 90 59 91 67 92 60 93 61 94 65 95
REMARK SMILES IDX 68 96 62 97 63 98 66 99 64 100
REMARK H PARENT 88 53 56 64
REMARK Flexibility Score: inf
ROOT
ATOM      1  C   UNL A   1      33.863  31.556  27.647  1.00  0.00     0.202 C 
ENDROOT
BRANCH   1   2
ATOM      2  C   UNL A   1      32.896  30.525  27.122  1.00  0.00     0.261 C 
BRANCH   2   3
ATOM      3  O   UNL A   1      32.924  30.247  25.708  1.00  0.00    -0.462 OA
BRANCH   3   4
ATOM      4  C   UNL A   1      33.344  29.076  25.180  1.00  0.00     0.328 C 
ATOM      5  O   UNL A   1      34.064  28.263  25.747  1.00  0.00    -0.250 OA
BRANCH   4   6
ATOM      6  C   UNL A   1      32.943  28.964  23.718  1.00  0.00     0.192 C 
ATOM      7  C   UNL A   1      34.134  28.730  22.795  1.00  0.00     0.044 C 
BRANCH   6   8
ATOM      8  N   UNL A   1      31.853  27.991  23.519  1.00  0.00    -0.329 N 
ATOM      9  C   UNL A   1      32.062  22.648  26.695  1.00  0.00     0.226 C 
ATOM     10  O   UNL A   1      31.922  22.843  27.910  1.00  0.00    -0.275 OA
ATOM     11  N   UNL A   1      31.418  23.459  25.771  1.00  0.00    -0.342 N 
ATOM     12  C   UNL A   1      30.978  24.772  26.211  1.00  0.00     0.120 C 
ATOM     13  C   UNL A   1      31.130  23.181  24.363  1.00  0.00     0.120 C 
ATOM     14  C   UNL A   1      31.683  25.814  25.357  1.00  0.00     0.030 C 
ATOM     15  C   UNL A   1      31.839  24.181  23.452  1.00  0.00     0.030 C 
ATOM     16  C   UNL A   1      31.424  25.616  23.832  1.00  0.00    -0.008 C 
ATOM     17  C   UNL A   1      29.967  25.860  23.395  1.00  0.00     0.019 C 
ATOM     18  C   UNL A   1      32.236  26.657  23.066  1.00  0.00     0.127 C 
ATOM     19  C   UNL A   1      29.488  27.243  23.767  1.00  0.00     0.101 C 
ATOM     20  C   UNL A   1      30.516  28.350  23.691  1.00  0.00     0.223 C 
ATOM     21  O   UNL A   1      30.135  29.499  23.915  1.00  0.00    -0.275 OA
BRANCH   9  22
ATOM     22  C   UNL A   1      33.128  21.656  26.248  1.00  0.00     0.135 C 
BRANCH  22  23
ATOM     23  C   UNL A   1      34.456  22.212  25.822  1.00  0.00    -0.038 A 
ATOM     24  C   UNL A   1      37.918  20.843  25.013  1.00  0.00     0.044 C 
ATOM     25  C   UNL A   1      36.795  21.798  25.285  1.00  0.00    -0.051 A 
ATOM     26  C   UNL A   1      37.048  23.168  25.417  1.00  0.00     0.003 A 
ATOM     27  C   UNL A   1      35.489  21.331  25.457  1.00  0.00     0.007 A 
ATOM     28  C   UNL A   1      36.013  24.059  25.715  1.00  0.00     0.001 A 
ATOM     29  C   UNL A   1      34.717  23.586  25.910  1.00  0.00     0.004 A 
ENDBRANCH  22  23
ENDBRANCH   9  22
ENDBRANCH   6   8
ENDBRANCH   4   6
ENDBRANCH   3   4
ENDBRANCH   2   3
ENDBRANCH   1   2
BRANCH   1  30
ATOM     30  O   UNL A   1      33.109  32.616  28.200  1.00  0.00    -0.374 OA
BRANCH  30  31
ATOM     31  C   UNL A   1      33.356  33.908  27.675  1.00  0.00     0.202 C 
BRANCH  31  32
ATOM     32  C   UNL A   1      33.282  35.008  28.741  1.00  0.00     0.261 C 
BRANCH  32  33
ATOM     33  O   UNL A   1      33.084  34.419  30.046  1.00  0.00    -0.460 OA
BRANCH  33  34
ATOM     34  C   UNL A   1      34.129  34.526  30.913  1.00  0.00     0.338 C 
ATOM     35  O   UNL A   1      34.403  35.524  31.566  1.00  0.00    -0.246 OA
BRANCH  34  36
ATOM     36  C   UNL A   1      35.045  33.357  30.757  1.00  0.00     0.060 A 
ATOM     37  C   UNL A   1      34.924  32.231  31.595  1.00  0.00     0.016 A 
ATOM     38  C   UNL A   1      36.209  33.543  30.020  1.00  0.00     0.016 A 
ATOM     39  C   UNL A   1      36.028  31.386  31.815  1.00  0.00     0.010 A 
ATOM     40  C   UNL A   1      37.321  32.805  30.355  1.00  0.00     0.010 A 
ATOM     41  C   UNL A   1      37.257  31.730  31.259  1.00  0.00    -0.014 A 
BRANCH  41  42
ATOM     42  C   UNL A   1      38.567  31.127  31.533  1.00  0.00     0.031 A 
ATOM     43  C   UNL A   1      38.963  29.941  30.728  1.00  0.00     0.074 A 
ATOM     44  C   UNL A   1      39.532  31.803  32.205  1.00  0.00     0.049 A 
ATOM     45  N   UNL A   1      40.083  29.320  30.853  1.00  0.00    -0.248 NA
ATOM     46  C   UNL A   1      38.103  29.323  29.724  1.00  0.00     0.031 C 
ATOM     47  C   UNL A   1      40.978  31.721  31.975  1.00  0.00     0.029 A 
ATOM     48  N   UNL A   1      39.426  32.737  33.244  1.00  0.00    -0.354 N 
ATOM     49  C   UNL A   1      40.239  28.483  29.773  1.00  0.00     0.074 A 
ATOM     50  C   UNL A   1      38.935  28.440  29.166  1.00  0.00     0.031 C 
ATOM     51  C   UNL A   1      41.632  32.334  32.971  1.00  0.00     0.029 A 
ATOM     52  C   UNL A   1      40.646  32.725  33.953  1.00  0.00     0.049 A 
ATOM     53  H   UNL A   1      38.644  33.298  33.444  1.00  0.00     0.167 HD
ATOM     54  C   UNL A   1      41.498  28.035  29.495  1.00  0.00     0.037 A 
ATOM     55  C   UNL A   1      40.695  32.467  35.287  1.00  0.00     0.037 A 
ATOM     56  C   UNL A   1      42.424  28.427  30.573  1.00  0.00     0.049 A 
ATOM     57  C   UNL A   1      41.468  31.205  35.534  1.00  0.00     0.074 A 
ATOM     58  C   UNL A   1      43.438  29.366  30.677  1.00  0.00     0.029 A 
ATOM     59  N   UNL A   1      42.154  28.006  31.877  1.00  0.00    -0.354 N 
ATOM     60  N   UNL A   1      41.657  30.318  34.595  1.00  0.00    -0.248 NA
ATOM     61  C   UNL A   1      42.156  30.862  36.770  1.00  0.00     0.031 C 
ATOM     62  C   UNL A   1      43.752  29.523  32.056  1.00  0.00     0.029 A 
ATOM     63  C   UNL A   1      42.950  28.664  32.793  1.00  0.00     0.049 A 
ATOM     64  H   UNL A   1      41.480  27.328  32.113  1.00  0.00     0.167 HD
ATOM     65  C   UNL A   1      42.499  29.347  35.038  1.00  0.00     0.074 A 
ATOM     66  C   UNL A   1      42.763  29.711  36.418  1.00  0.00     0.031 C 
ATOM     67  C   UNL A   1      42.899  28.334  34.218  1.00  0.00     0.037 A 
BRANCH  54  68
ATOM     68  C   UNL A   1      41.973  27.385  28.199  1.00  0.00     0.064 A 
ATOM     69  C   UNL A   1      42.575  26.104  28.223  1.00  0.00     0.173 A 
ATOM     70  C   UNL A   1      41.922  27.961  26.912  1.00  0.00     0.173 A 
ATOM     71  F   UNL A   1      42.687  25.403  29.360  1.00  0.00    -0.203 F 
ATOM     72  C   UNL A   1      43.098  25.483  27.080  1.00  0.00     0.198 A 
ATOM     73  C   UNL A   1      42.438  27.339  25.768  1.00  0.00     0.198 A 
ATOM     74  F   UNL A   1      41.373  29.150  26.675  1.00  0.00    -0.203 F 
ATOM     75  F   UNL A   1      43.675  24.278  27.183  1.00  0.00    -0.200 F 
ATOM     76  C   UNL A   1      43.031  26.103  25.851  1.00  0.00     0.200 A 
ATOM     77  F   UNL A   1      42.352  27.963  24.584  1.00  0.00    -0.200 F 
ATOM     78  F   UNL A   1      43.530  25.514  24.756  1.00  0.00    -0.200 F 
ENDBRANCH  54  68
BRANCH  55  79
ATOM     79  C   UNL A   1      39.501  33.014  35.990  1.00  0.00     0.064 A 
ATOM     80  C   UNL A   1      38.604  32.047  36.498  1.00  0.00     0.173 A 
ATOM     81  C   UNL A   1      39.574  34.243  36.663  1.00  0.00     0.173 A 
ATOM     82  F   UNL A   1      38.480  30.865  35.874  1.00  0.00    -0.203 F 
ATOM     83  C   UNL A   1      37.969  32.224  37.726  1.00  0.00     0.198 A 
ATOM     84  C   UNL A   1      38.936  34.412  37.897  1.00  0.00     0.198 A 
ATOM     85  F   UNL A   1      40.400  35.203  36.227  1.00  0.00    -0.203 F 
ATOM     86  F   UNL A   1      37.244  31.229  38.259  1.00  0.00    -0.200 F 
ATOM     87  C   UNL A   1      38.179  33.387  38.448  1.00  0.00     0.200 A 
ATOM     88  F   UNL A   1      39.145  35.529  38.610  1.00  0.00    -0.200 F 
ATOM     89  F   UNL A   1      37.698  33.498  39.695  1.00  0.00    -0.200 F 
ENDBRANCH  55  79
BRANCH  67  90
ATOM     90  C   UNL A   1      43.351  26.975  34.687  1.00  0.00     0.064 A 
ATOM     91  C   UNL A   1      42.470  25.918  34.974  1.00  0.00     0.173 A 
ATOM     92  C   UNL A   1      44.725  26.629  34.678  1.00  0.00     0.173 A 
ATOM     93  F   UNL A   1      41.141  26.065  34.894  1.00  0.00    -0.203 F 
ATOM     94  C   UNL A   1      42.926  24.639  35.294  1.00  0.00     0.198 A 
ATOM     95  C   UNL A   1      45.171  25.333  34.925  1.00  0.00     0.198 A 
ATOM     96  F   UNL A   1      45.680  27.524  34.391  1.00  0.00    -0.203 F 
ATOM     97  F   UNL A   1      42.040  23.683  35.608  1.00  0.00    -0.200 F 
ATOM     98  C   UNL A   1      44.273  24.342  35.254  1.00  0.00     0.200 A 
ATOM     99  F   UNL A   1      46.476  25.050  34.814  1.00  0.00    -0.200 F 
ATOM    100  F   UNL A   1      44.701  23.100  35.507  1.00  0.00    -0.200 F 
ENDBRANCH  67  90
ENDBRANCH  41  42
ENDBRANCH  34  36
ENDBRANCH  33  34
ENDBRANCH  32  33
ENDBRANCH  31  32
ENDBRANCH  30  31
ENDBRANCH   1  30
TORSDOF 17
ENDMDL
MODEL 2
REMARK VINA RESULT:     -13.0      4.767     11.068
REMARK SMILES Cc1cccc(CC(=O)N2CCC3(CCC(=O)N([C@H](C)C(=O)OCCOCCOC(=O)c4ccc(-c5c6nc(c(-c7c(F)c(F)c(F)c(F)c7F)c7ccc([nH]7)c(-c7c(F)c(F)c(F)c(F)c7F)c7nc(c(-c8c(F)c(F)c(F)c(F)c8F)c8ccc5[nH]8)C=C7)C=C6)cc4)C3)CC2)c1
REMARK SMILES IDX 25 1 24 2 23 3 21 4 22 5 19 6 20 7 18 8 8 9 9 10 10 11 11 12
REMARK SMILES IDX 97 13 12 14 96 15 13 16 14 17 95 18 15 19 16 20 17 21 7 22
REMARK SMILES IDX 6 23 1 24 2 25 3 26 98 27 4 28 5 29 26 30 27 31 28 32 29 33
REMARK SMILES IDX 30 34 31 35 32 36 33 37 94 38 34 39 93 40 35 41 36 42 37 43
REMARK SMILES IDX 87 44 38 45 92 46 86 47 88 48 39 49 91 50 85 51 84 52 40 54
REMARK SMILES IDX 72 55 52 56 71 57 53 58 56 59 70 60 89 61 54 62 55 63 69 65
REMARK SMILES IDX 90 66 57 67 41 68 42 69 50 70 43 71 44 72 48 73 51 74 45 75
REMARK SMILES IDX 46 76 49 77 47 78 73 79 74 80 82 81 75 82 76 83 80 84 83 85
REMARK SMILES IDX 77 86 78 87 81 88 79 89 58 90 59 91 67 92 60 93 61 94 65 95
REMARK SMILES IDX 68 96 62 97 63 98 66 99 64 100
REMARK H PARENT 88 53 56 64
REMARK Flexibility Score: inf
ROOT
ATOM      1  C   UNL A   1      39.394  20.904  26.066  1.00  0.00     0.202 C 
ENDROOT
BRANCH   1   2
ATOM      2  C   UNL A   1      38.071  20.734  25.365  1.00  0.00     0.261 C 
BRANCH   2   3
ATOM      3  O   UNL A   1      37.776  21.630  24.275  1.00  0.00    -0.462 OA
BRANCH   3   4
ATOM      4  C   UNL A   1      36.646  22.367  24.192  1.00  0.00     0.328 C 
ATOM      5  O   UNL A   1      36.205  22.873  23.168  1.00  0.00    -0.250 OA
BRANCH   4   6
ATOM      6  C   UNL A   1      36.068  22.632  25.574  1.00  0.00     0.192 C 
ATOM      7  C   UNL A   1      36.532  23.960  26.163  1.00  0.00     0.044 C 
BRANCH   6   8
ATOM      8  N   UNL A   1      34.603  22.464  25.599  1.00  0.00    -0.329 N 
ATOM      9  C   UNL A   1      31.121  26.495  22.388  1.00  0.00     0.226 C 
ATOM     10  O   UNL A   1      31.304  26.373  21.170  1.00  0.00    -0.275 OA
ATOM     11  N   UNL A   1      31.197  25.392  23.227  1.00  0.00    -0.342 N 
ATOM     12  C   UNL A   1      31.927  24.227  22.753  1.00  0.00     0.120 C 
ATOM     13  C   UNL A   1      30.648  25.236  24.575  1.00  0.00     0.120 C 
ATOM     14  C   UNL A   1      33.074  23.969  23.717  1.00  0.00     0.030 C 
ATOM     15  C   UNL A   1      31.761  25.002  25.595  1.00  0.00     0.030 C 
ATOM     16  C   UNL A   1      32.591  23.770  25.187  1.00  0.00    -0.008 C 
ATOM     17  C   UNL A   1      31.761  22.494  25.418  1.00  0.00     0.019 C 
ATOM     18  C   UNL A   1      33.819  23.598  26.078  1.00  0.00     0.127 C 
ATOM     19  C   UNL A   1      32.509  21.249  25.007  1.00  0.00     0.101 C 
ATOM     20  C   UNL A   1      34.004  21.255  25.247  1.00  0.00     0.223 C 
ATOM     21  O   UNL A   1      34.627  20.225  24.993  1.00  0.00    -0.275 OA
BRANCH   9  22
ATOM     22  C   UNL A   1      31.044  27.903  22.963  1.00  0.00     0.135 C 
BRANCH  22  23
ATOM     23  C   UNL A   1      29.761  28.661  22.771  1.00  0.00    -0.038 A 
ATOM     24  C   UNL A   1      28.733  32.256  22.043  1.00  0.00     0.044 C 
ATOM     25  C   UNL A   1      28.660  30.798  22.383  1.00  0.00    -0.051 A 
ATOM     26  C   UNL A   1      27.449  30.226  22.790  1.00  0.00     0.003 A 
ATOM     27  C   UNL A   1      29.807  30.000  22.345  1.00  0.00     0.007 A 
ATOM     28  C   UNL A   1      27.384  28.878  23.151  1.00  0.00     0.001 A 
ATOM     29  C   UNL A   1      28.534  28.091  23.136  1.00  0.00     0.004 A 
ENDBRANCH  22  23
ENDBRANCH   9  22
ENDBRANCH   6   8
ENDBRANCH   4   6
ENDBRANCH   3   4
ENDBRANCH   2   3
ENDBRANCH   1   2
BRANCH   1  30
ATOM     30  O   UNL A   1      40.185  19.767  25.781  1.00  0.00    -0.374 OA
BRANCH  30  31
ATOM     31  C   UNL A   1      41.151  19.408  26.753  1.00  0.00     0.202 C 
BRANCH  31  32
ATOM     32  C   UNL A   1      42.457  18.897  26.135  1.00  0.00     0.261 C 
BRANCH  32  33
ATOM     33  O   UNL A   1      42.871  19.770  25.061  1.00  0.00    -0.460 OA
BRANCH  33  34
ATOM     34  C   UNL A   1      43.863  20.654  25.359  1.00  0.00     0.338 C 
ATOM     35  O   UNL A   1      45.026  20.352  25.597  1.00  0.00    -0.246 OA
BRANCH  34  36
ATOM     36  C   UNL A   1      43.286  22.006  25.617  1.00  0.00     0.060 A 
ATOM     37  C   UNL A   1      43.416  23.038  24.666  1.00  0.00     0.016 A 
ATOM     38  C   UNL A   1      42.932  22.317  26.924  1.00  0.00     0.016 A 
ATOM     39  C   UNL A   1      43.350  24.386  25.067  1.00  0.00     0.010 A 
ATOM     40  C   UNL A   1      43.017  23.629  27.333  1.00  0.00     0.010 A 
ATOM     41  C   UNL A   1      43.238  24.678  26.423  1.00  0.00    -0.014 A 
BRANCH  41  42
ATOM     42  C   UNL A   1      43.371  25.987  27.074  1.00  0.00     0.031 A 
ATOM     43  C   UNL A   1      42.126  26.756  27.338  1.00  0.00     0.074 A 
ATOM     44  C   UNL A   1      44.500  26.337  27.739  1.00  0.00     0.049 A 
ATOM     45  N   UNL A   1      42.091  27.909  27.909  1.00  0.00    -0.248 NA
ATOM     46  C   UNL A   1      40.796  26.301  26.942  1.00  0.00     0.031 C 
ATOM     47  C   UNL A   1      44.580  27.166  28.946  1.00  0.00     0.029 A 
ATOM     48  N   UNL A   1      45.838  26.009  27.487  1.00  0.00    -0.354 N 
ATOM     49  C   UNL A   1      40.790  28.183  28.258  1.00  0.00     0.074 A 
ATOM     50  C   UNL A   1      40.016  27.208  27.535  1.00  0.00     0.031 C 
ATOM     51  C   UNL A   1      45.857  27.499  29.184  1.00  0.00     0.029 A 
ATOM     52  C   UNL A   1      46.641  27.011  28.072  1.00  0.00     0.049 A 
ATOM     53  H   UNL A   1      46.160  25.223  26.991  1.00  0.00     0.167 HD
ATOM     54  C   UNL A   1      40.576  29.142  29.206  1.00  0.00     0.037 A 
ATOM     55  C   UNL A   1      47.531  27.732  27.339  1.00  0.00     0.037 A 
ATOM     56  C   UNL A   1      41.842  29.824  29.529  1.00  0.00     0.049 A 
ATOM     57  C   UNL A   1      47.136  29.179  27.338  1.00  0.00     0.074 A 
ATOM     58  C   UNL A   1      42.697  29.800  30.619  1.00  0.00     0.029 A 
ATOM     59  N   UNL A   1      42.545  30.459  28.503  1.00  0.00    -0.354 N 
ATOM     60  N   UNL A   1      45.920  29.562  27.621  1.00  0.00    -0.248 NA
ATOM     61  C   UNL A   1      48.036  30.302  27.118  1.00  0.00     0.031 C 
ATOM     62  C   UNL A   1      43.927  30.401  30.227  1.00  0.00     0.029 A 
ATOM     63  C   UNL A   1      43.816  30.814  28.908  1.00  0.00     0.049 A 
ATOM     64  H   UNL A   1      42.180  30.630  27.605  1.00  0.00     0.167 HD
ATOM     65  C   UNL A   1      45.866  30.919  27.684  1.00  0.00     0.074 A 
ATOM     66  C   UNL A   1      47.208  31.344  27.331  1.00  0.00     0.031 C 
ATOM     67  C   UNL A   1      44.712  31.561  28.025  1.00  0.00     0.037 A 
BRANCH  54  68
ATOM     68  C   UNL A   1      39.287  29.389  29.982  1.00  0.00     0.064 A 
ATOM     69  C   UNL A   1      38.306  30.273  29.469  1.00  0.00     0.173 A 
ATOM     70  C   UNL A   1      38.956  28.848  31.241  1.00  0.00     0.173 A 
ATOM     71  F   UNL A   1      38.448  30.862  28.274  1.00  0.00    -0.203 F 
ATOM     72  C   UNL A   1      37.134  30.600  30.166  1.00  0.00     0.198 A 
ATOM     73  C   UNL A   1      37.782  29.169  31.935  1.00  0.00     0.198 A 
ATOM     74  F   UNL A   1      39.735  27.979  31.880  1.00  0.00    -0.203 F 
ATOM     75  F   UNL A   1      36.260  31.463  29.628  1.00  0.00    -0.200 F 
ATOM     76  C   UNL A   1      36.873  30.049  31.401  1.00  0.00     0.200 A 
ATOM     77  F   UNL A   1      37.551  28.611  33.132  1.00  0.00    -0.200 F 
ATOM     78  F   UNL A   1      35.754  30.359  32.070  1.00  0.00    -0.200 F 
ENDBRANCH  54  68
BRANCH  55  79
ATOM     79  C   UNL A   1      48.147  26.904  26.265  1.00  0.00     0.064 A 
ATOM     80  C   UNL A   1      47.718  27.203  24.952  1.00  0.00     0.173 A 
ATOM     81  C   UNL A   1      49.443  26.390  26.419  1.00  0.00     0.173 A 
ATOM     82  F   UNL A   1      46.477  27.674  24.750  1.00  0.00    -0.203 F 
ATOM     83  C   UNL A   1      48.607  27.181  23.879  1.00  0.00     0.198 A 
ATOM     84  C   UNL A   1      50.330  26.373  25.338  1.00  0.00     0.198 A 
ATOM     85  F   UNL A   1      49.905  26.080  27.638  1.00  0.00    -0.203 F 
ATOM     86  F   UNL A   1      48.216  27.615  22.671  1.00  0.00    -0.200 F 
ATOM     87  C   UNL A   1      49.926  26.816  24.085  1.00  0.00     0.200 A 
ATOM     88  F   UNL A   1      51.614  26.035  25.531  1.00  0.00    -0.200 F 
ATOM     89  F   UNL A   1      50.820  26.942  23.093  1.00  0.00    -0.200 F 
ENDBRANCH  55  79
BRANCH  67  90
ATOM     90  C   UNL A   1      44.363  32.972  27.624  1.00  0.00     0.064 A 
ATOM     91  C   UNL A   1      43.904  33.326  26.344  1.00  0.00     0.173 A 
ATOM     92  C   UNL A   1      44.297  34.001  28.595  1.00  0.00     0.173 A 
ATOM     93  F   UNL A   1      43.789  32.425  25.361  1.00  0.00    -0.203 F 
ATOM     94  C   UNL A   1      43.479  34.621  26.041  1.00  0.00     0.198 A 
ATOM     95  C   UNL A   1      43.802  35.271  28.307  1.00  0.00     0.198 A 
ATOM     96  F   UNL A   1      44.670  33.803  29.867  1.00  0.00    -0.203 F 
ATOM     97  F   UNL A   1      43.100  34.913  24.789  1.00  0.00    -0.200 F 
ATOM     98  C   UNL A   1      43.413  35.587  27.024  1.00  0.00     0.200 A 
ATOM     99  F   UNL A   1      43.681  36.174  29.289  1.00  0.00    -0.200 F 
ATOM    100  F   UNL A   1      42.952  36.811  26.740  1.00  0.00    -0.200 F 
ENDBRANCH  67  90
ENDBRANCH  41  42
ENDBRANCH  34  36
ENDBRANCH  33  34
ENDBRANCH  32  33
ENDBRANCH  31  32
ENDBRANCH  30  31
ENDBRANCH   1  30
TORSDOF 17
ENDMDL
MODEL 3
REMARK VINA RESULT:     -12.7      5.035     11.113
REMARK SMILES Cc1cccc(CC(=O)N2CCC3(CCC(=O)N([C@H](C)C(=O)OCCOCCOC(=O)c4ccc(-c5c6nc(c(-c7c(F)c(F)c(F)c(F)c7F)c7ccc([nH]7)c(-c7c(F)c(F)c(F)c(F)c7F)c7nc(c(-c8c(F)c(F)c(F)c(F)c8F)c8ccc5[nH]8)C=C7)C=C6)cc4)C3)CC2)c1
REMARK SMILES IDX 25 1 24 2 23 3 21 4 22 5 19 6 20 7 18 8 8 9 9 10 10 11 11 12
REMARK SMILES IDX 97 13 12 14 96 15 13 16 14 17 95 18 15 19 16 20 17 21 7 22
REMARK SMILES IDX 6 23 1 24 2 25 3 26 98 27 4 28 5 29 26 30 27 31 28 32 29 33
REMARK SMILES IDX 30 34 31 35 32 36 33 37 94 38 34 39 93 40 35 41 36 42 37 43
REMARK SMILES IDX 87 44 38 45 92 46 86 47 88 48 39 49 91 50 85 51 84 52 40 54
REMARK SMILES IDX 72 55 52 56 71 57 53 58 56 59 70 60 89 61 54 62 55 63 69 65
REMARK SMILES IDX 90 66 57 67 41 68 42 69 50 70 43 71 44 72 48 73 51 74 45 75
REMARK SMILES IDX 46 76 49 77 47 78 73 79 74 80 82 81 75 82 76 83 80 84 83 85
REMARK SMILES IDX 77 86 78 87 81 88 79 89 58 90 59 91 67 92 60 93 61 94 65 95
REMARK SMILES IDX 68 96 62 97 63 98 66 99 64 100
REMARK H PARENT 88 53 56 64
REMARK Flexibility Score: inf
ROOT
ATOM      1  C   UNL A   1      40.093  20.467  25.864  1.00  0.00     0.202 C 
ENDROOT
BRANCH   1   2
ATOM      2  C   UNL A   1      38.686  19.936  25.756  1.00  0.00     0.261 C 
BRANCH   2   3
ATOM      3  O   UNL A   1      37.906  20.348  24.616  1.00  0.00    -0.462 OA
BRANCH   3   4
ATOM      4  C   UNL A   1      37.121  21.448  24.600  1.00  0.00     0.328 C 
ATOM      5  O   UNL A   1      37.198  22.359  23.785  1.00  0.00    -0.250 OA
BRANCH   4   6
ATOM      6  C   UNL A   1      36.228  21.496  25.829  1.00  0.00     0.192 C 
ATOM      7  C   UNL A   1      36.437  22.755  26.663  1.00  0.00     0.044 C 
BRANCH   6   8
ATOM      8  N   UNL A   1      34.813  21.250  25.492  1.00  0.00    -0.329 N 
ATOM      9  C   UNL A   1      31.813  25.513  22.099  1.00  0.00     0.226 C 
ATOM     10  O   UNL A   1      32.273  25.576  20.952  1.00  0.00    -0.275 OA
ATOM     11  N   UNL A   1      31.791  24.307  22.785  1.00  0.00    -0.342 N 
ATOM     12  C   UNL A   1      32.703  23.261  22.350  1.00  0.00     0.120 C 
ATOM     13  C   UNL A   1      30.970  23.931  23.938  1.00  0.00     0.120 C 
ATOM     14  C   UNL A   1      33.624  22.927  23.513  1.00  0.00     0.030 C 
ATOM     15  C   UNL A   1      31.843  23.612  25.150  1.00  0.00     0.030 C 
ATOM     16  C   UNL A   1      32.843  22.496  24.792  1.00  0.00    -0.008 C 
ATOM     17  C   UNL A   1      32.091  21.158  24.660  1.00  0.00     0.019 C 
ATOM     18  C   UNL A   1      33.850  22.262  25.916  1.00  0.00     0.127 C 
ATOM     19  C   UNL A   1      33.013  20.025  24.280  1.00  0.00     0.101 C 
ATOM     20  C   UNL A   1      34.410  20.074  24.859  1.00  0.00     0.223 C 
ATOM     21  O   UNL A   1      35.158  19.125  24.627  1.00  0.00    -0.275 OA
BRANCH   9  22
ATOM     22  C   UNL A   1      31.492  26.818  22.815  1.00  0.00     0.135 C 
BRANCH  22  23
ATOM     23  C   UNL A   1      32.242  27.117  24.082  1.00  0.00    -0.038 A 
ATOM     24  C   UNL A   1      31.388  28.204  27.631  1.00  0.00     0.044 C 
ATOM     25  C   UNL A   1      32.170  27.850  26.402  1.00  0.00    -0.051 A 
ATOM     26  C   UNL A   1      33.552  28.069  26.356  1.00  0.00     0.003 A 
ATOM     27  C   UNL A   1      31.526  27.343  25.270  1.00  0.00     0.007 A 
ATOM     28  C   UNL A   1      34.280  27.784  25.197  1.00  0.00     0.001 A 
ATOM     29  C   UNL A   1      33.631  27.301  24.063  1.00  0.00     0.004 A 
ENDBRANCH  22  23
ENDBRANCH   9  22
ENDBRANCH   6   8
ENDBRANCH   4   6
ENDBRANCH   3   4
ENDBRANCH   2   3
ENDBRANCH   1   2
BRANCH   1  30
ATOM     30  O   UNL A   1      40.972  19.471  25.381  1.00  0.00    -0.374 OA
BRANCH  30  31
ATOM     31  C   UNL A   1      41.839  18.878  26.331  1.00  0.00     0.202 C 
BRANCH  31  32
ATOM     32  C   UNL A   1      43.218  18.545  25.750  1.00  0.00     0.261 C 
BRANCH  32  33
ATOM     33  O   UNL A   1      43.550  19.476  24.696  1.00  0.00    -0.460 OA
BRANCH  33  34
ATOM     34  C   UNL A   1      44.537  20.371  24.979  1.00  0.00     0.338 C 
ATOM     35  O   UNL A   1      45.690  20.078  25.269  1.00  0.00    -0.246 OA
BRANCH  34  36
ATOM     36  C   UNL A   1      43.958  21.736  25.150  1.00  0.00     0.060 A 
ATOM     37  C   UNL A   1      44.269  22.768  24.242  1.00  0.00     0.016 A 
ATOM     38  C   UNL A   1      43.400  22.051  26.383  1.00  0.00     0.016 A 
ATOM     39  C   UNL A   1      44.170  24.116  24.637  1.00  0.00     0.010 A 
ATOM     40  C   UNL A   1      43.449  23.358  26.811  1.00  0.00     0.010 A 
ATOM     41  C   UNL A   1      43.843  24.405  25.958  1.00  0.00    -0.014 A 
BRANCH  41  42
ATOM     42  C   UNL A   1      43.898  25.708  26.633  1.00  0.00     0.031 A 
ATOM     43  C   UNL A   1      42.620  26.448  26.811  1.00  0.00     0.074 A 
ATOM     44  C   UNL A   1      44.966  26.072  27.385  1.00  0.00     0.049 A 
ATOM     45  N   UNL A   1      42.519  27.592  27.391  1.00  0.00    -0.248 NA
ATOM     46  C   UNL A   1      41.335  25.971  26.311  1.00  0.00     0.031 C 
ATOM     47  C   UNL A   1      44.938  26.886  28.605  1.00  0.00     0.029 A 
ATOM     48  N   UNL A   1      46.326  25.775  27.231  1.00  0.00    -0.354 N 
ATOM     49  C   UNL A   1      41.189  27.834  27.645  1.00  0.00     0.074 A 
ATOM     50  C   UNL A   1      40.493  26.853  26.854  1.00  0.00     0.031 C 
ATOM     51  C   UNL A   1      46.185  27.242  28.943  1.00  0.00     0.029 A 
ATOM     52  C   UNL A   1      47.061  26.785  27.887  1.00  0.00     0.049 A 
ATOM     53  H   UNL A   1      46.701  25.002  26.752  1.00  0.00     0.167 HD
ATOM     54  C   UNL A   1      40.884  28.776  28.585  1.00  0.00     0.037 A 
ATOM     55  C   UNL A   1      47.988  27.534  27.232  1.00  0.00     0.037 A 
ATOM     56  C   UNL A   1      42.107  29.480  29.010  1.00  0.00     0.049 A 
ATOM     57  C   UNL A   1      47.563  28.973  27.218  1.00  0.00     0.074 A 
ATOM     58  C   UNL A   1      42.878  29.458  30.162  1.00  0.00     0.029 A 
ATOM     59  N   UNL A   1      42.871  30.143  28.048  1.00  0.00    -0.354 N 
ATOM     60  N   UNL A   1      46.322  29.327  27.413  1.00  0.00    -0.248 NA
ATOM     61  C   UNL A   1      48.453  30.117  27.079  1.00  0.00     0.031 C 
ATOM     62  C   UNL A   1      44.121  30.090  29.870  1.00  0.00     0.029 A 
ATOM     63  C   UNL A   1      44.100  30.518  28.552  1.00  0.00     0.049 A 
ATOM     64  H   UNL A   1      42.572  30.318  27.127  1.00  0.00     0.167 HD
ATOM     65  C   UNL A   1      46.234  30.681  27.488  1.00  0.00     0.074 A 
ATOM     66  C   UNL A   1      47.589  31.138  27.242  1.00  0.00     0.031 C 
ATOM     67  C   UNL A   1      45.044  31.295  27.748  1.00  0.00     0.037 A 
BRANCH  54  68
ATOM     68  C   UNL A   1      39.535  28.987  29.264  1.00  0.00     0.064 A 
ATOM     69  C   UNL A   1      38.433  29.478  28.522  1.00  0.00     0.173 A 
ATOM     70  C   UNL A   1      39.249  28.782  30.630  1.00  0.00     0.173 A 
ATOM     71  F   UNL A   1      38.521  29.710  27.205  1.00  0.00    -0.203 F 
ATOM     72  C   UNL A   1      37.188  29.763  29.101  1.00  0.00     0.198 A 
ATOM     73  C   UNL A   1      38.004  29.059  31.208  1.00  0.00     0.198 A 
ATOM     74  F   UNL A   1      40.144  28.302  31.490  1.00  0.00    -0.203 F 
ATOM     75  F   UNL A   1      36.197  30.249  28.340  1.00  0.00    -0.200 F 
ATOM     76  C   UNL A   1      36.974  29.555  30.446  1.00  0.00     0.200 A 
ATOM     77  F   UNL A   1      37.822  28.840  32.518  1.00  0.00    -0.200 F 
ATOM     78  F   UNL A   1      35.786  29.827  31.003  1.00  0.00    -0.200 F 
ENDBRANCH  54  68
BRANCH  55  79
ATOM     79  C   UNL A   1      48.701  26.733  26.198  1.00  0.00     0.064 A 
ATOM     80  C   UNL A   1      48.452  27.116  24.861  1.00  0.00     0.173 A 
ATOM     81  C   UNL A   1      49.946  26.153  26.481  1.00  0.00     0.173 A 
ATOM     82  F   UNL A   1      47.266  27.654  24.534  1.00  0.00    -0.203 F 
ATOM     83  C   UNL A   1      49.467  27.108  23.905  1.00  0.00     0.198 A 
ATOM     84  C   UNL A   1      50.960  26.150  25.519  1.00  0.00     0.198 A 
ATOM     85  F   UNL A   1      50.239  25.761  27.729  1.00  0.00    -0.203 F 
ATOM     86  F   UNL A   1      49.248  27.619  22.685  1.00  0.00    -0.200 F 
ATOM     87  C   UNL A   1      50.735  26.672  24.252  1.00  0.00     0.200 A 
ATOM     88  F   UNL A   1      52.195  25.744  25.850  1.00  0.00    -0.200 F 
ATOM     89  F   UNL A   1      51.750  26.806  23.386  1.00  0.00    -0.200 F 
ENDBRANCH  55  79
BRANCH  67  90
ATOM     90  C   UNL A   1      44.696  32.704  27.339  1.00  0.00     0.064 A 
ATOM     91  C   UNL A   1      44.053  33.027  26.132  1.00  0.00     0.173 A 
ATOM     92  C   UNL A   1      44.832  33.775  28.256  1.00  0.00     0.173 A 
ATOM     93  F   UNL A   1      43.742  32.092  25.225  1.00  0.00    -0.203 F 
ATOM     94  C   UNL A   1      43.641  34.327  25.837  1.00  0.00     0.198 A 
ATOM     95  C   UNL A   1      44.352  35.054  27.987  1.00  0.00     0.198 A 
ATOM     96  F   UNL A   1      45.397  33.611  29.461  1.00  0.00    -0.203 F 
ATOM     97  F   UNL A   1      43.077  34.586  24.648  1.00  0.00    -0.200 F 
ATOM     98  C   UNL A   1      43.775  35.336  26.769  1.00  0.00     0.200 A 
ATOM     99  F   UNL A   1      44.430  36.003  28.931  1.00  0.00    -0.200 F 
ATOM    100  F   UNL A   1      43.328  36.569  26.502  1.00  0.00    -0.200 F 
ENDBRANCH  67  90
ENDBRANCH  41  42
ENDBRANCH  34  36
ENDBRANCH  33  34
ENDBRANCH  32  33
ENDBRANCH  31  32
ENDBRANCH  30  31
ENDBRANCH   1  30
TORSDOF 17
ENDMDL
