MODEL 1
REMARK VINA RESULT:     -10.7      0.000      0.000
REMARK SMILES O=C(C[N@@H+]1CCC[C@@H]1C(=O)OCCOCCOC(=O)c1ccc(-c2c3nc(c(-c4c(F)c(F)c(F)c(F)c4F)c4ccc([nH]4)c(-c4c(F)c(F)c(F)c(F)c4F)c4nc(c(-c5c(F)c(F)c(F)c(F)c5F)c5ccc2[nH]5)C=C4)C=C3)cc1)NCc1ccc(Cl)cc1
REMARK SMILES IDX 13 1 12 2 11 3 9 4 10 5 8 6 4 7 5 8 6 10 7 11 3 12 2 13 1 14
REMARK SMILES IDX 83 15 84 17 85 18 86 19 91 20 87 21 90 22 88 23 89 24 14 25
REMARK SMILES IDX 15 26 16 27 17 28 18 29 19 30 20 31 21 32 82 33 22 34 81 35
REMARK SMILES IDX 23 36 24 37 25 38 75 39 26 40 80 41 74 42 76 43 27 44 79 45
REMARK SMILES IDX 73 46 72 47 28 49 60 50 40 51 59 52 41 53 44 54 58 55 77 56
REMARK SMILES IDX 42 57 43 58 57 60 78 61 45 62 29 63 30 64 38 65 31 66 32 67
REMARK SMILES IDX 36 68 39 69 33 70 34 71 37 72 35 73 61 74 62 75 70 76 63 77
REMARK SMILES IDX 64 78 68 79 71 80 65 81 66 82 69 83 67 84 46 85 47 86 55 87
REMARK SMILES IDX 48 88 49 89 53 90 56 91 50 92 51 93 54 94 52 95
REMARK H PARENT 4 9 83 16 76 48 44 59
REMARK Flexibility Score: inf
ROOT
ATOM      1  C   UNL A   1      34.315  34.775  29.569  1.00  0.00     0.202 C 
ENDROOT
BRANCH   1   2
ATOM      2  C   UNL A   1      34.330  33.788  28.366  1.00  0.00     0.261 C 
BRANCH   2   3
ATOM      3  O   UNL A   1      34.033  32.407  28.707  1.00  0.00    -0.459 OA
BRANCH   3   4
ATOM      4  C   UNL A   1      34.327  31.427  27.828  1.00  0.00     0.365 C 
ATOM      5  O   UNL A   1      35.481  31.057  27.621  1.00  0.00    -0.245 OA
BRANCH   4   6
ATOM      6  C   UNL A   1      33.119  30.647  27.270  1.00  0.00     0.295 C 
ATOM      7  N   UNL A   1      33.210  29.283  26.672  1.00  0.00    -0.315 N 
ATOM      8  C   UNL A   1      31.769  28.993  26.435  1.00  0.00     0.263 C 
ATOM      9  H   UNL A   1      33.789  28.747  27.319  1.00  0.00     0.349 HD
ATOM     10  C   UNL A   1      31.213  30.285  25.839  1.00  0.00     0.068 C 
ATOM     11  C   UNL A   1      32.040  31.393  26.490  1.00  0.00     0.083 C 
BRANCH   7  12
ATOM     12  C   UNL A   1      33.952  28.945  25.428  1.00  0.00     0.364 C 
BRANCH  12  13
ATOM     13  C   UNL A   1      33.641  27.633  24.745  1.00  0.00     0.275 C 
ATOM     14  O   UNL A   1      33.231  27.557  23.591  1.00  0.00    -0.268 OA
ATOM     15  N   UNL A   1      33.891  26.530  25.525  1.00  0.00    -0.347 N 
ATOM     16  H   UNL A   1      34.529  26.590  26.273  1.00  0.00     0.164 HD
BRANCH  15  17
ATOM     17  C   UNL A   1      33.221  25.286  25.252  1.00  0.00     0.151 C 
BRANCH  17  18
ATOM     18  C   UNL A   1      34.104  24.102  25.293  1.00  0.00    -0.029 A 
ATOM     19  C   UNL A   1      33.866  23.141  26.703  1.00  0.00     0.007 A 
ATOM     20  C   UNL A   1      35.238  23.698  23.946  1.00  0.00     0.007 A 
ATOM     21  C   UNL A   1      34.791  21.673  26.830  1.00  0.00     0.021 A 
ATOM     22  C   UNL A   1      36.223  22.222  23.942  1.00  0.00     0.021 A 
ATOM     23  C   UNL A   1      36.079  21.115  25.367  1.00  0.00     0.041 A 
ATOM     24  Cl  UNL A   1      37.217  19.765  24.999  1.00  0.00    -0.084 Cl
ENDBRANCH  17  18
ENDBRANCH  15  17
ENDBRANCH  12  13
ENDBRANCH   7  12
ENDBRANCH   4   6
ENDBRANCH   3   4
ENDBRANCH   2   3
ENDBRANCH   1   2
BRANCH   1  25
ATOM     25  O   UNL A   1      33.615  34.489  30.785  1.00  0.00    -0.374 OA
BRANCH  25  26
ATOM     26  C   UNL A   1      33.921  35.180  31.995  1.00  0.00     0.202 C 
BRANCH  26  27
ATOM     27  C   UNL A   1      35.388  35.085  32.474  1.00  0.00     0.261 C 
BRANCH  27  28
ATOM     28  O   UNL A   1      35.593  33.894  33.272  1.00  0.00    -0.460 OA
BRANCH  28  29
ATOM     29  C   UNL A   1      35.658  32.723  32.579  1.00  0.00     0.338 C 
ATOM     30  O   UNL A   1      34.760  31.889  32.606  1.00  0.00    -0.246 OA
BRANCH  29  31
ATOM     31  C   UNL A   1      36.952  32.468  31.679  1.00  0.00     0.060 A 
ATOM     32  C   UNL A   1      37.462  32.420  29.709  1.00  0.00     0.016 A 
ATOM     33  C   UNL A   1      38.059  31.594  32.814  1.00  0.00     0.016 A 
ATOM     34  C   UNL A   1      38.898  31.528  29.183  1.00  0.00     0.010 A 
ATOM     35  C   UNL A   1      39.501  30.807  32.162  1.00  0.00     0.010 A 
ATOM     36  C   UNL A   1      39.905  30.790  30.412  1.00  0.00    -0.014 A 
BRANCH  36  37
ATOM     37  C   UNL A   1      41.204  30.322  29.893  1.00  0.00     0.031 A 
ATOM     38  C   UNL A   1      41.272  28.920  29.423  1.00  0.00     0.074 A 
ATOM     39  C   UNL A   1      42.189  31.225  29.685  1.00  0.00     0.049 A 
ATOM     40  N   UNL A   1      42.043  28.402  28.511  1.00  0.00    -0.248 NA
ATOM     41  C   UNL A   1      40.289  27.985  29.976  1.00  0.00     0.031 C 
ATOM     42  C   UNL A   1      42.182  32.635  30.113  1.00  0.00     0.029 A 
ATOM     43  N   UNL A   1      43.375  31.117  29.009  1.00  0.00    -0.354 N 
ATOM     44  C   UNL A   1      41.554  27.118  28.322  1.00  0.00     0.074 A 
ATOM     45  C   UNL A   1      40.436  26.931  29.203  1.00  0.00     0.031 C 
ATOM     46  C   UNL A   1      43.258  33.267  29.623  1.00  0.00     0.029 A 
ATOM     47  C   UNL A   1      44.079  32.299  28.916  1.00  0.00     0.049 A 
ATOM     48  H   UNL A   1      43.697  30.270  28.623  1.00  0.00     0.167 HD
ATOM     49  C   UNL A   1      42.046  26.148  27.529  1.00  0.00     0.037 A 
ATOM     50  C   UNL A   1      45.265  32.552  28.332  1.00  0.00     0.037 A 
ATOM     51  C   UNL A   1      43.336  26.273  26.925  1.00  0.00     0.049 A 
ATOM     52  C   UNL A   1      45.903  31.391  27.619  1.00  0.00     0.074 A 
ATOM     53  C   UNL A   1      44.110  25.308  26.322  1.00  0.00     0.029 A 
ATOM     54  N   UNL A   1      44.087  27.447  26.959  1.00  0.00    -0.354 N 
ATOM     55  N   UNL A   1      45.418  30.184  27.420  1.00  0.00    -0.248 NA
ATOM     56  C   UNL A   1      47.238  31.606  27.061  1.00  0.00     0.031 C 
ATOM     57  C   UNL A   1      45.373  25.869  26.095  1.00  0.00     0.029 A 
ATOM     58  C   UNL A   1      45.347  27.214  26.449  1.00  0.00     0.049 A 
ATOM     59  H   UNL A   1      43.766  28.314  27.297  1.00  0.00     0.167 HD
ATOM     60  C   UNL A   1      46.383  29.490  26.714  1.00  0.00     0.074 A 
ATOM     61  C   UNL A   1      47.470  30.431  26.491  1.00  0.00     0.031 C 
ATOM     62  C   UNL A   1      46.390  28.200  26.290  1.00  0.00     0.037 A 
BRANCH  49  63
ATOM     63  C   UNL A   1      41.271  24.863  27.542  1.00  0.00     0.064 A 
ATOM     64  C   UNL A   1      41.787  23.702  28.148  1.00  0.00     0.173 A 
ATOM     65  C   UNL A   1      40.124  24.733  26.746  1.00  0.00     0.173 A 
ATOM     66  F   UNL A   1      42.928  23.758  28.852  1.00  0.00    -0.203 F 
ATOM     67  C   UNL A   1      41.199  22.457  27.925  1.00  0.00     0.198 A 
ATOM     68  C   UNL A   1      39.529  23.491  26.546  1.00  0.00     0.198 A 
ATOM     69  F   UNL A   1      39.632  25.796  26.094  1.00  0.00    -0.203 F 
ATOM     70  F   UNL A   1      41.762  21.350  28.430  1.00  0.00    -0.200 F 
ATOM     71  C   UNL A   1      40.073  22.354  27.124  1.00  0.00     0.200 A 
ATOM     72  F   UNL A   1      38.459  23.388  25.746  1.00  0.00    -0.200 F 
ATOM     73  F   UNL A   1      39.533  21.152  26.874  1.00  0.00    -0.200 F 
ENDBRANCH  49  63
BRANCH  50  74
ATOM     74  C   UNL A   1      45.915  33.893  28.447  1.00  0.00     0.064 A 
ATOM     75  C   UNL A   1      45.771  34.884  27.465  1.00  0.00     0.173 A 
ATOM     76  C   UNL A   1      46.707  34.216  29.563  1.00  0.00     0.173 A 
ATOM     77  F   UNL A   1      45.047  34.637  26.363  1.00  0.00    -0.203 F 
ATOM     78  C   UNL A   1      46.393  36.131  27.591  1.00  0.00     0.198 A 
ATOM     79  C   UNL A   1      47.302  35.470  29.705  1.00  0.00     0.198 A 
ATOM     80  F   UNL A   1      46.896  33.312  30.537  1.00  0.00    -0.203 F 
ATOM     81  F   UNL A   1      46.267  37.044  26.618  1.00  0.00    -0.200 F 
ATOM     82  C   UNL A   1      47.150  36.426  28.716  1.00  0.00     0.200 A 
ATOM     83  F   UNL A   1      48.020  35.750  30.801  1.00  0.00    -0.200 F 
ATOM     84  F   UNL A   1      47.736  37.625  28.841  1.00  0.00    -0.200 F 
ENDBRANCH  50  74
BRANCH  62  85
ATOM     85  C   UNL A   1      47.602  27.762  25.533  1.00  0.00     0.064 A 
ATOM     86  C   UNL A   1      48.752  27.294  26.183  1.00  0.00     0.173 A 
ATOM     87  C   UNL A   1      47.585  27.773  24.132  1.00  0.00     0.173 A 
ATOM     88  F   UNL A   1      48.811  27.273  27.525  1.00  0.00    -0.203 F 
ATOM     89  C   UNL A   1      49.864  26.896  25.453  1.00  0.00     0.198 A 
ATOM     90  C   UNL A   1      48.681  27.332  23.405  1.00  0.00     0.198 A 
ATOM     91  F   UNL A   1      46.496  28.197  23.471  1.00  0.00    -0.203 F 
ATOM     92  F   UNL A   1      50.980  26.518  26.090  1.00  0.00    -0.200 F 
ATOM     93  C   UNL A   1      49.824  26.908  24.065  1.00  0.00     0.200 A 
ATOM     94  F   UNL A   1      48.632  27.320  22.066  1.00  0.00    -0.200 F 
ATOM     95  F   UNL A   1      50.895  26.518  23.362  1.00  0.00    -0.200 F 
ENDBRANCH  62  85
ENDBRANCH  36  37
ENDBRANCH  29  31
ENDBRANCH  28  29
ENDBRANCH  27  28
ENDBRANCH  26  27
ENDBRANCH  25  26
ENDBRANCH   1  25
TORSDOF 18
ENDMDL
MODEL 2
REMARK VINA RESULT:     -10.5      5.939     11.503
REMARK SMILES O=C(C[N@@H+]1CCC[C@@H]1C(=O)OCCOCCOC(=O)c1ccc(-c2c3nc(c(-c4c(F)c(F)c(F)c(F)c4F)c4ccc([nH]4)c(-c4c(F)c(F)c(F)c(F)c4F)c4nc(c(-c5c(F)c(F)c(F)c(F)c5F)c5ccc2[nH]5)C=C4)C=C3)cc1)NCc1ccc(Cl)cc1
REMARK SMILES IDX 13 1 12 2 11 3 9 4 10 5 8 6 4 7 5 8 6 10 7 11 3 12 2 13 1 14
REMARK SMILES IDX 83 15 84 17 85 18 86 19 91 20 87 21 90 22 88 23 89 24 14 25
REMARK SMILES IDX 15 26 16 27 17 28 18 29 19 30 20 31 21 32 82 33 22 34 81 35
REMARK SMILES IDX 23 36 24 37 25 38 75 39 26 40 80 41 74 42 76 43 27 44 79 45
REMARK SMILES IDX 73 46 72 47 28 49 60 50 40 51 59 52 41 53 44 54 58 55 77 56
REMARK SMILES IDX 42 57 43 58 57 60 78 61 45 62 29 63 30 64 38 65 31 66 32 67
REMARK SMILES IDX 36 68 39 69 33 70 34 71 37 72 35 73 61 74 62 75 70 76 63 77
REMARK SMILES IDX 64 78 68 79 71 80 65 81 66 82 69 83 67 84 46 85 47 86 55 87
REMARK SMILES IDX 48 88 49 89 53 90 56 91 50 92 51 93 54 94 52 95
REMARK H PARENT 4 9 83 16 76 48 44 59
REMARK Flexibility Score: inf
ROOT
ATOM      1  C   UNL A   1      42.844  20.817  26.355  1.00  0.00     0.202 C 
ENDROOT
BRANCH   1   2
ATOM      2  C   UNL A   1      41.921  19.959  27.268  1.00  0.00     0.261 C 
BRANCH   2   3
ATOM      3  O   UNL A   1      40.655  20.585  27.613  1.00  0.00    -0.459 OA
BRANCH   3   4
ATOM      4  C   UNL A   1      40.020  21.347  26.698  1.00  0.00     0.365 C 
ATOM      5  O   UNL A   1      39.406  20.859  25.751  1.00  0.00    -0.245 OA
BRANCH   4   6
ATOM      6  C   UNL A   1      39.917  22.848  27.038  1.00  0.00     0.295 C 
ATOM      7  N   UNL A   1      38.632  23.604  27.099  1.00  0.00    -0.315 N 
ATOM      8  C   UNL A   1      39.116  24.927  27.579  1.00  0.00     0.263 C 
ATOM      9  H   UNL A   1      38.000  23.011  27.638  1.00  0.00     0.349 HD
ATOM     10  C   UNL A   1      40.370  25.199  26.750  1.00  0.00     0.068 C 
ATOM     11  C   UNL A   1      40.964  23.814  26.491  1.00  0.00     0.083 C 
BRANCH   7  12
ATOM     12  C   UNL A   1      37.727  23.844  25.942  1.00  0.00     0.364 C 
BRANCH  12  13
ATOM     13  C   UNL A   1      36.392  23.136  25.922  1.00  0.00     0.275 C 
ATOM     14  O   UNL A   1      36.276  21.925  25.763  1.00  0.00    -0.268 OA
ATOM     15  N   UNL A   1      35.320  23.970  26.129  1.00  0.00    -0.347 N 
ATOM     16  H   UNL A   1      35.448  24.830  26.593  1.00  0.00     0.164 HD
BRANCH  15  17
ATOM     17  C   UNL A   1      34.011  23.590  25.670  1.00  0.00     0.151 C 
BRANCH  17  18
ATOM     18  C   UNL A   1      33.151  24.728  25.283  1.00  0.00    -0.029 A 
ATOM     19  C   UNL A   1      31.825  24.959  26.358  1.00  0.00     0.007 A 
ATOM     20  C   UNL A   1      33.534  25.789  23.873  1.00  0.00     0.007 A 
ATOM     21  C   UNL A   1      30.783  26.318  26.056  1.00  0.00     0.021 A 
ATOM     22  C   UNL A   1      32.565  27.219  23.466  1.00  0.00     0.021 A 
ATOM     23  C   UNL A   1      31.132  27.584  24.511  1.00  0.00     0.041 A 
ATOM     24  Cl  UNL A   1      30.420  29.074  23.786  1.00  0.00    -0.084 Cl
ENDBRANCH  17  18
ENDBRANCH  15  17
ENDBRANCH  12  13
ENDBRANCH   7  12
ENDBRANCH   4   6
ENDBRANCH   3   4
ENDBRANCH   2   3
ENDBRANCH   1   2
BRANCH   1  25
ATOM     25  O   UNL A   1      43.417  20.304  25.147  1.00  0.00    -0.374 OA
BRANCH  25  26
ATOM     26  C   UNL A   1      44.818  20.400  24.894  1.00  0.00     0.202 C 
BRANCH  26  27
ATOM     27  C   UNL A   1      45.300  21.724  24.256  1.00  0.00     0.261 C 
BRANCH  27  28
ATOM     28  O   UNL A   1      44.675  22.862  24.898  1.00  0.00    -0.460 OA
BRANCH  28  29
ATOM     29  C   UNL A   1      45.449  23.530  25.798  1.00  0.00     0.338 C 
ATOM     30  O   UNL A   1      46.640  23.286  25.955  1.00  0.00    -0.246 OA
BRANCH  29  31
ATOM     31  C   UNL A   1      44.758  24.693  26.647  1.00  0.00     0.060 A 
ATOM     32  C   UNL A   1      44.906  26.709  26.885  1.00  0.00     0.016 A 
ATOM     33  C   UNL A   1      43.964  23.783  27.995  1.00  0.00     0.016 A 
ATOM     34  C   UNL A   1      44.310  27.476  28.366  1.00  0.00     0.010 A 
ATOM     35  C   UNL A   1      43.346  24.685  29.383  1.00  0.00     0.010 A 
ATOM     36  C   UNL A   1      43.506  26.466  29.550  1.00  0.00    -0.014 A 
BRANCH  36  37
ATOM     37  C   UNL A   1      42.811  27.241  30.595  1.00  0.00     0.031 A 
ATOM     38  C   UNL A   1      43.518  27.411  31.884  1.00  0.00     0.074 A 
ATOM     39  C   UNL A   1      41.683  27.913  30.270  1.00  0.00     0.049 A 
ATOM     40  N   UNL A   1      43.424  28.384  32.744  1.00  0.00    -0.248 NA
ATOM     41  C   UNL A   1      44.533  26.410  32.223  1.00  0.00     0.031 C 
ATOM     42  C   UNL A   1      40.937  27.801  29.005  1.00  0.00     0.029 A 
ATOM     43  N   UNL A   1      40.985  28.873  30.953  1.00  0.00    -0.354 N 
ATOM     44  C   UNL A   1      44.442  28.151  33.655  1.00  0.00     0.074 A 
ATOM     45  C   UNL A   1      45.136  26.958  33.256  1.00  0.00     0.031 C 
ATOM     46  C   UNL A   1      39.950  28.708  28.974  1.00  0.00     0.029 A 
ATOM     47  C   UNL A   1      39.932  29.412  30.244  1.00  0.00     0.049 A 
ATOM     48  H   UNL A   1      41.216  29.155  31.868  1.00  0.00     0.167 HD
ATOM     49  C   UNL A   1      44.731  28.837  34.777  1.00  0.00     0.037 A 
ATOM     50  C   UNL A   1      39.048  30.362  30.605  1.00  0.00     0.037 A 
ATOM     51  C   UNL A   1      43.821  29.809  35.299  1.00  0.00     0.049 A 
ATOM     52  C   UNL A   1      39.266  30.978  31.960  1.00  0.00     0.074 A 
ATOM     53  C   UNL A   1      43.804  30.404  36.540  1.00  0.00     0.029 A 
ATOM     54  N   UNL A   1      42.686  30.243  34.615  1.00  0.00    -0.354 N 
ATOM     55  N   UNL A   1      40.253  30.771  32.805  1.00  0.00    -0.248 NA
ATOM     56  C   UNL A   1      38.265  31.939  32.422  1.00  0.00     0.031 C 
ATOM     57  C   UNL A   1      42.597  31.107  36.648  1.00  0.00     0.029 A 
ATOM     58  C   UNL A   1      41.921  31.045  35.434  1.00  0.00     0.049 A 
ATOM     59  H   UNL A   1      42.464  30.010  33.684  1.00  0.00     0.167 HD
ATOM     60  C   UNL A   1      39.998  31.574  33.902  1.00  0.00     0.074 A 
ATOM     61  C   UNL A   1      38.775  32.298  33.592  1.00  0.00     0.031 C 
ATOM     62  C   UNL A   1      40.692  31.706  35.061  1.00  0.00     0.037 A 
BRANCH  49  63
ATOM     63  C   UNL A   1      45.915  28.331  35.546  1.00  0.00     0.064 A 
ATOM     64  C   UNL A   1      47.226  28.717  35.210  1.00  0.00     0.173 A 
ATOM     65  C   UNL A   1      45.754  27.280  36.460  1.00  0.00     0.173 A 
ATOM     66  F   UNL A   1      47.436  29.660  34.280  1.00  0.00    -0.203 F 
ATOM     67  C   UNL A   1      48.327  28.043  35.739  1.00  0.00     0.198 A 
ATOM     68  C   UNL A   1      46.857  26.627  37.002  1.00  0.00     0.198 A 
ATOM     69  F   UNL A   1      44.527  26.831  36.762  1.00  0.00    -0.203 F 
ATOM     70  F   UNL A   1      49.565  28.360  35.332  1.00  0.00    -0.200 F 
ATOM     71  C   UNL A   1      48.141  27.000  36.632  1.00  0.00     0.200 A 
ATOM     72  F   UNL A   1      46.675  25.598  37.841  1.00  0.00    -0.200 F 
ATOM     73  F   UNL A   1      49.197  26.325  37.107  1.00  0.00    -0.200 F 
ENDBRANCH  49  63
BRANCH  50  74
ATOM     74  C   UNL A   1      37.898  30.724  29.722  1.00  0.00     0.064 A 
ATOM     75  C   UNL A   1      37.784  31.982  29.111  1.00  0.00     0.173 A 
ATOM     76  C   UNL A   1      36.868  29.800  29.465  1.00  0.00     0.173 A 
ATOM     77  F   UNL A   1      38.719  32.919  29.330  1.00  0.00    -0.203 F 
ATOM     78  C   UNL A   1      36.696  32.300  28.293  1.00  0.00     0.198 A 
ATOM     79  C   UNL A   1      35.798  30.106  28.624  1.00  0.00     0.198 A 
ATOM     80  F   UNL A   1      36.906  28.580  30.024  1.00  0.00    -0.203 F 
ATOM     81  F   UNL A   1      36.598  33.524  27.755  1.00  0.00    -0.200 F 
ATOM     82  C   UNL A   1      35.709  31.358  28.042  1.00  0.00     0.200 A 
ATOM     83  F   UNL A   1      34.857  29.184  28.377  1.00  0.00    -0.200 F 
ATOM     84  F   UNL A   1      34.671  31.660  27.249  1.00  0.00    -0.200 F 
ENDBRANCH  50  74
BRANCH  62  85
ATOM     85  C   UNL A   1      40.141  32.683  36.051  1.00  0.00     0.064 A 
ATOM     86  C   UNL A   1      40.607  34.002  36.125  1.00  0.00     0.173 A 
ATOM     87  C   UNL A   1      39.099  32.292  36.902  1.00  0.00     0.173 A 
ATOM     88  F   UNL A   1      41.608  34.414  35.331  1.00  0.00    -0.203 F 
ATOM     89  C   UNL A   1      40.078  34.886  37.056  1.00  0.00     0.198 A 
ATOM     90  C   UNL A   1      38.541  33.191  37.800  1.00  0.00     0.198 A 
ATOM     91  F   UNL A   1      38.612  31.042  36.849  1.00  0.00    -0.203 F 
ATOM     92  F   UNL A   1      40.581  36.123  37.164  1.00  0.00    -0.200 F 
ATOM     93  C   UNL A   1      39.041  34.482  37.887  1.00  0.00     0.200 A 
ATOM     94  F   UNL A   1      37.524  32.807  38.582  1.00  0.00    -0.200 F 
ATOM     95  F   UNL A   1      38.527  35.337  38.780  1.00  0.00    -0.200 F 
ENDBRANCH  62  85
ENDBRANCH  36  37
ENDBRANCH  29  31
ENDBRANCH  28  29
ENDBRANCH  27  28
ENDBRANCH  26  27
ENDBRANCH  25  26
ENDBRANCH   1  25
TORSDOF 18
ENDMDL
MODEL 3
REMARK VINA RESULT:     -10.4      5.838     11.590
REMARK SMILES O=C(C[N@@H+]1CCC[C@@H]1C(=O)OCCOCCOC(=O)c1ccc(-c2c3nc(c(-c4c(F)c(F)c(F)c(F)c4F)c4ccc([nH]4)c(-c4c(F)c(F)c(F)c(F)c4F)c4nc(c(-c5c(F)c(F)c(F)c(F)c5F)c5ccc2[nH]5)C=C4)C=C3)cc1)NCc1ccc(Cl)cc1
REMARK SMILES IDX 13 1 12 2 11 3 9 4 10 5 8 6 4 7 5 8 6 10 7 11 3 12 2 13 1 14
REMARK SMILES IDX 83 15 84 17 85 18 86 19 91 20 87 21 90 22 88 23 89 24 14 25
REMARK SMILES IDX 15 26 16 27 17 28 18 29 19 30 20 31 21 32 82 33 22 34 81 35
REMARK SMILES IDX 23 36 24 37 25 38 75 39 26 40 80 41 74 42 76 43 27 44 79 45
REMARK SMILES IDX 73 46 72 47 28 49 60 50 40 51 59 52 41 53 44 54 58 55 77 56
REMARK SMILES IDX 42 57 43 58 57 60 78 61 45 62 29 63 30 64 38 65 31 66 32 67
REMARK SMILES IDX 36 68 39 69 33 70 34 71 37 72 35 73 61 74 62 75 70 76 63 77
REMARK SMILES IDX 64 78 68 79 71 80 65 81 66 82 69 83 67 84 46 85 47 86 55 87
REMARK SMILES IDX 48 88 49 89 53 90 56 91 50 92 51 93 54 94 52 95
REMARK H PARENT 4 9 83 16 76 48 44 59
REMARK Flexibility Score: inf
ROOT
ATOM      1  C   UNL A   1      43.577  21.415  25.712  1.00  0.00     0.202 C 
ENDROOT
BRANCH   1   2
ATOM      2  C   UNL A   1      42.470  20.335  25.887  1.00  0.00     0.261 C 
BRANCH   2   3
ATOM      3  O   UNL A   1      41.116  20.858  25.962  1.00  0.00    -0.459 OA
BRANCH   3   4
ATOM      4  C   UNL A   1      40.635  21.289  27.146  1.00  0.00     0.365 C 
ATOM      5  O   UNL A   1      40.818  20.669  28.192  1.00  0.00    -0.245 OA
BRANCH   4   6
ATOM      6  C   UNL A   1      40.043  22.713  27.147  1.00  0.00     0.295 C 
ATOM      7  N   UNL A   1      38.602  23.018  26.912  1.00  0.00    -0.315 N 
ATOM      8  C   UNL A   1      38.592  24.489  27.149  1.00  0.00     0.263 C 
ATOM      9  H   UNL A   1      38.091  22.356  27.496  1.00  0.00     0.349 HD
ATOM     10  C   UNL A   1      39.830  25.001  26.415  1.00  0.00     0.068 C 
ATOM     11  C   UNL A   1      40.837  23.856  26.520  1.00  0.00     0.083 C 
BRANCH   7  12
ATOM     12  C   UNL A   1      37.870  22.758  25.643  1.00  0.00     0.364 C 
BRANCH  12  13
ATOM     13  C   UNL A   1      36.370  22.944  25.633  1.00  0.00     0.275 C 
ATOM     14  O   UNL A   1      35.596  22.191  26.215  1.00  0.00    -0.268 OA
ATOM     15  N   UNL A   1      35.954  24.054  24.938  1.00  0.00    -0.347 N 
ATOM     16  H   UNL A   1      36.574  24.806  24.795  1.00  0.00     0.164 HD
BRANCH  15  17
ATOM     17  C   UNL A   1      34.615  24.119  24.418  1.00  0.00     0.151 C 
BRANCH  17  18
ATOM     18  C   UNL A   1      33.983  25.450  24.539  1.00  0.00    -0.029 A 
ATOM     19  C   UNL A   1      33.914  26.295  23.040  1.00  0.00     0.007 A 
ATOM     20  C   UNL A   1      33.294  26.050  26.097  1.00  0.00     0.007 A 
ATOM     21  C   UNL A   1      33.119  27.843  23.035  1.00  0.00     0.021 A 
ATOM     22  C   UNL A   1      32.441  27.601  26.225  1.00  0.00     0.021 A 
ATOM     23  C   UNL A   1      32.295  28.603  24.725  1.00  0.00     0.041 A 
ATOM     24  Cl  UNL A   1      31.392  30.071  25.256  1.00  0.00    -0.084 Cl
ENDBRANCH  17  18
ENDBRANCH  15  17
ENDBRANCH  12  13
ENDBRANCH   7  12
ENDBRANCH   4   6
ENDBRANCH   3   4
ENDBRANCH   2   3
ENDBRANCH   1   2
BRANCH   1  25
ATOM     25  O   UNL A   1      44.363  21.520  24.520  1.00  0.00    -0.374 OA
BRANCH  25  26
ATOM     26  C   UNL A   1      45.782  21.656  24.579  1.00  0.00     0.202 C 
BRANCH  26  27
ATOM     27  C   UNL A   1      46.346  23.033  24.158  1.00  0.00     0.261 C 
BRANCH  27  28
ATOM     28  O   UNL A   1      45.419  24.094  24.494  1.00  0.00    -0.460 OA
BRANCH  28  29
ATOM     29  C   UNL A   1      45.983  25.294  24.806  1.00  0.00     0.338 C 
ATOM     30  O   UNL A   1      47.054  25.662  24.337  1.00  0.00    -0.246 OA
BRANCH  29  31
ATOM     31  C   UNL A   1      45.179  26.252  25.800  1.00  0.00     0.060 A 
ATOM     32  C   UNL A   1      45.194  28.198  26.396  1.00  0.00     0.016 A 
ATOM     33  C   UNL A   1      44.372  25.078  26.916  1.00  0.00     0.016 A 
ATOM     34  C   UNL A   1      44.475  28.659  27.947  1.00  0.00     0.010 A 
ATOM     35  C   UNL A   1      43.628  25.687  28.399  1.00  0.00     0.010 A 
ATOM     36  C   UNL A   1      43.672  27.416  28.884  1.00  0.00    -0.014 A 
BRANCH  36  37
ATOM     37  C   UNL A   1      42.877  27.957  30.002  1.00  0.00     0.031 A 
ATOM     38  C   UNL A   1      43.554  28.064  31.314  1.00  0.00     0.074 A 
ATOM     39  C   UNL A   1      41.668  28.504  29.742  1.00  0.00     0.049 A 
ATOM     40  N   UNL A   1      43.328  28.905  32.283  1.00  0.00    -0.248 NA
ATOM     41  C   UNL A   1      44.697  27.177  31.548  1.00  0.00     0.031 C 
ATOM     42  C   UNL A   1      40.944  28.447  28.460  1.00  0.00     0.029 A 
ATOM     43  N   UNL A   1      40.845  29.272  30.523  1.00  0.00    -0.354 N 
ATOM     44  C   UNL A   1      44.368  28.703  33.176  1.00  0.00     0.074 A 
ATOM     45  C   UNL A   1      45.219  27.673  32.648  1.00  0.00     0.031 C 
ATOM     46  C   UNL A   1      39.843  29.209  28.521  1.00  0.00     0.029 A 
ATOM     47  C   UNL A   1      39.728  29.745  29.866  1.00  0.00     0.049 A 
ATOM     48  H   UNL A   1      41.035  29.470  31.468  1.00  0.00     0.167 HD
ATOM     49  C   UNL A   1      44.560  29.282  34.377  1.00  0.00     0.037 A 
ATOM     50  C   UNL A   1      38.723  30.515  30.323  1.00  0.00     0.037 A 
ATOM     51  C   UNL A   1      43.526  30.051  34.997  1.00  0.00     0.049 A 
ATOM     52  C   UNL A   1      38.855  30.987  31.745  1.00  0.00     0.074 A 
ATOM     53  C   UNL A   1      43.427  30.483  36.300  1.00  0.00     0.029 A 
ATOM     54  N   UNL A   1      42.343  30.406  34.350  1.00  0.00    -0.354 N 
ATOM     55  N   UNL A   1      39.860  30.814  32.576  1.00  0.00    -0.248 NA
ATOM     56  C   UNL A   1      37.732  31.740  32.302  1.00  0.00     0.031 C 
ATOM     57  C   UNL A   1      42.136  30.998  36.471  1.00  0.00     0.029 A 
ATOM     58  C   UNL A   1      41.475  30.992  35.247  1.00  0.00     0.049 A 
ATOM     59  H   UNL A   1      42.155  30.259  33.395  1.00  0.00     0.167 HD
ATOM     60  C   UNL A   1      39.498  31.437  33.757  1.00  0.00     0.074 A 
ATOM     61  C   UNL A   1      38.188  32.021  33.516  1.00  0.00     0.031 C 
ATOM     62  C   UNL A   1      40.168  31.520  34.935  1.00  0.00     0.037 A 
BRANCH  49  63
ATOM     63  C   UNL A   1      45.802  28.851  35.099  1.00  0.00     0.064 A 
ATOM     64  C   UNL A   1      47.050  29.442  34.828  1.00  0.00     0.173 A 
ATOM     65  C   UNL A   1      45.783  27.691  35.886  1.00  0.00     0.173 A 
ATOM     66  F   UNL A   1      47.131  30.505  34.013  1.00  0.00    -0.203 F 
ATOM     67  C   UNL A   1      48.231  28.864  35.291  1.00  0.00     0.198 A 
ATOM     68  C   UNL A   1      46.964  27.132  36.365  1.00  0.00     0.198 A 
ATOM     69  F   UNL A   1      44.627  27.052  36.119  1.00  0.00    -0.203 F 
ATOM     70  F   UNL A   1      49.416  29.386  34.940  1.00  0.00    -0.200 F 
ATOM     71  C   UNL A   1      48.186  27.710  36.058  1.00  0.00     0.200 A 
ATOM     72  F   UNL A   1      46.921  25.998  37.079  1.00  0.00    -0.200 F 
ATOM     73  F   UNL A   1      49.323  27.130  36.467  1.00  0.00    -0.200 F 
ENDBRANCH  49  63
BRANCH  50  74
ATOM     74  C   UNL A   1      37.534  30.822  29.471  1.00  0.00     0.064 A 
ATOM     75  C   UNL A   1      36.547  29.867  29.186  1.00  0.00     0.173 A 
ATOM     76  C   UNL A   1      37.357  32.102  28.915  1.00  0.00     0.173 A 
ATOM     77  F   UNL A   1      36.663  28.619  29.665  1.00  0.00    -0.203 F 
ATOM     78  C   UNL A   1      35.445  30.174  28.381  1.00  0.00     0.198 A 
ATOM     79  C   UNL A   1      36.242  32.418  28.138  1.00  0.00     0.198 A 
ATOM     80  F   UNL A   1      38.267  33.063  29.138  1.00  0.00    -0.203 F 
ATOM     81  F   UNL A   1      34.539  29.228  28.096  1.00  0.00    -0.200 F 
ATOM     82  C   UNL A   1      35.288  31.453  27.867  1.00  0.00     0.200 A 
ATOM     83  F   UNL A   1      36.093  33.661  27.657  1.00  0.00    -0.200 F 
ATOM     84  F   UNL A   1      34.226  31.750  27.105  1.00  0.00    -0.200 F 
ENDBRANCH  50  74
BRANCH  62  85
ATOM     85  C   UNL A   1      39.488  32.287  36.025  1.00  0.00     0.064 A 
ATOM     86  C   UNL A   1      38.541  31.691  36.868  1.00  0.00     0.173 A 
ATOM     87  C   UNL A   1      39.833  33.626  36.248  1.00  0.00     0.173 A 
ATOM     88  F   UNL A   1      38.179  30.411  36.685  1.00  0.00    -0.203 F 
ATOM     89  C   UNL A   1      37.925  32.429  37.871  1.00  0.00     0.198 A 
ATOM     90  C   UNL A   1      39.249  34.348  37.279  1.00  0.00     0.198 A 
ATOM     91  F   UNL A   1      40.750  34.228  35.473  1.00  0.00    -0.203 F 
ATOM     92  F   UNL A   1      36.971  31.866  38.624  1.00  0.00    -0.200 F 
ATOM     93  C   UNL A   1      38.286  33.754  38.080  1.00  0.00     0.200 A 
ATOM     94  F   UNL A   1      39.617  35.617  37.496  1.00  0.00    -0.200 F 
ATOM     95  F   UNL A   1      37.695  34.462  39.051  1.00  0.00    -0.200 F 
ENDBRANCH  62  85
ENDBRANCH  36  37
ENDBRANCH  29  31
ENDBRANCH  28  29
ENDBRANCH  27  28
ENDBRANCH  26  27
ENDBRANCH  25  26
ENDBRANCH   1  25
TORSDOF 18
ENDMDL
