MODEL 1
REMARK VINA RESULT:     -11.1      0.000      0.000
REMARK SMILES CO[C@@H]1C[C@H](C(=O)OCCOCCOC(=O)c2ccc(-c3c4nc(c(-c5c(F)c(F)c(F)c(F)c5F)c5ccc([nH]5)c(-c5c(F)c(F)c(F)c(F)c5F)c5nc(c(-c6c(F)c(F)c(F)c(F)c6F)c6ccc3[nH]6)C=C5)C=C4)cc2)N(C(=O)c2ccn(C)c(=O)c2)C1
REMARK SMILES IDX 11 1 10 2 9 3 8 4 6 5 7 6 5 7 3 8 4 9 91 10 80 11 2 12 1 13
REMARK SMILES IDX 81 14 82 15 83 16 84 17 90 18 85 19 88 20 86 21 89 22 87 23
REMARK SMILES IDX 12 24 13 25 14 26 15 27 16 28 17 29 18 30 79 31 19 32 78 33
REMARK SMILES IDX 20 34 21 35 22 36 72 37 23 38 77 39 71 40 73 41 24 42 76 43
REMARK SMILES IDX 70 44 69 45 25 47 57 48 37 49 56 50 38 51 41 52 55 53 74 54
REMARK SMILES IDX 39 55 40 56 54 58 75 59 42 60 26 61 27 62 35 63 28 64 29 65
REMARK SMILES IDX 33 66 36 67 30 68 31 69 34 70 32 71 58 72 59 73 67 74 60 75
REMARK SMILES IDX 61 76 65 77 68 78 62 79 63 80 66 81 64 82 43 83 44 84 52 85
REMARK SMILES IDX 45 86 46 87 50 88 53 89 47 90 48 91 51 92 49 93
REMARK H PARENT 73 46 41 57
REMARK Flexibility Score: inf
ROOT
ATOM      1  O   UNL A   1      38.179  21.627  25.243  1.00  0.00    -0.374 OA
ENDROOT
BRANCH   1   2
ATOM      2  C   UNL A   1      37.129  22.525  24.884  1.00  0.00     0.202 C 
BRANCH   2   3
ATOM      3  C   UNL A   1      36.907  23.706  25.823  1.00  0.00     0.261 C 
BRANCH   3   4
ATOM      4  O   UNL A   1      35.650  24.335  25.540  1.00  0.00    -0.462 OA
BRANCH   4   5
ATOM      5  C   UNL A   1      34.556  23.662  25.964  1.00  0.00     0.329 C 
ATOM      6  O   UNL A   1      34.448  23.165  27.081  1.00  0.00    -0.250 OA
BRANCH   5   7
ATOM      7  C   UNL A   1      33.449  23.557  24.902  1.00  0.00     0.198 C 
ATOM      8  C   UNL A   1      32.908  21.245  24.431  1.00  0.00     0.140 C 
ATOM      9  C   UNL A   1      33.565  22.486  23.823  1.00  0.00     0.071 C 
ATOM     10  C   UNL A   1      31.922  21.802  25.473  1.00  0.00     0.152 C 
ATOM     11  N   UNL A   1      32.191  23.232  25.568  1.00  0.00    -0.322 N 
BRANCH   8  12
ATOM     12  O   UNL A   1      33.946  20.452  25.007  1.00  0.00    -0.380 OA
ATOM     13  C   UNL A   1      33.925  19.103  24.563  1.00  0.00     0.195 C 
ENDBRANCH   8  12
BRANCH  11  14
ATOM     14  C   UNL A   1      31.368  24.070  26.287  1.00  0.00     0.254 C 
ATOM     15  O   UNL A   1      30.779  23.705  27.302  1.00  0.00    -0.269 OA
BRANCH  14  16
ATOM     16  C   UNL A   1      31.212  25.472  25.804  1.00  0.00     0.046 A 
ATOM     17  C   UNL A   1      31.869  26.559  26.490  1.00  0.00     0.032 A 
ATOM     18  C   UNL A   1      30.440  25.706  24.733  1.00  0.00     0.085 A 
ATOM     19  C   UNL A   1      31.771  27.804  26.010  1.00  0.00     0.089 A 
ATOM     20  C   UNL A   1      30.336  27.083  24.185  1.00  0.00     0.251 A 
ATOM     21  N   UNL A   1      31.028  28.075  24.873  1.00  0.00    -0.319 N 
ATOM     22  O   UNL A   1      29.674  27.258  23.164  1.00  0.00    -0.269 OA
ATOM     23  C   UNL A   1      30.980  29.447  24.389  1.00  0.00     0.153 C 
ENDBRANCH  14  16
ENDBRANCH  11  14
ENDBRANCH   5   7
ENDBRANCH   4   5
ENDBRANCH   3   4
ENDBRANCH   2   3
ENDBRANCH   1   2
BRANCH   1  24
ATOM     24  C   UNL A   1      37.946  20.227  25.076  1.00  0.00     0.202 C 
BRANCH  24  25
ATOM     25  C   UNL A   1      39.117  19.291  25.401  1.00  0.00     0.261 C 
BRANCH  25  26
ATOM     26  O   UNL A   1      39.982  19.818  26.425  1.00  0.00    -0.460 OA
BRANCH  26  27
ATOM     27  C   UNL A   1      41.304  19.634  26.203  1.00  0.00     0.338 C 
ATOM     28  O   UNL A   1      41.840  18.672  25.663  1.00  0.00    -0.246 OA
BRANCH  27  29
ATOM     29  C   UNL A   1      42.061  20.852  26.542  1.00  0.00     0.060 A 
ATOM     30  C   UNL A   1      42.175  21.188  27.898  1.00  0.00     0.016 A 
ATOM     31  C   UNL A   1      42.564  21.701  25.556  1.00  0.00     0.016 A 
ATOM     32  C   UNL A   1      42.763  22.393  28.274  1.00  0.00     0.010 A 
ATOM     33  C   UNL A   1      43.140  22.920  25.934  1.00  0.00     0.010 A 
ATOM     34  C   UNL A   1      43.215  23.284  27.291  1.00  0.00    -0.014 A 
BRANCH  34  35
ATOM     35  C   UNL A   1      43.651  24.646  27.684  1.00  0.00     0.031 A 
ATOM     36  C   UNL A   1      42.614  25.680  28.019  1.00  0.00     0.074 A 
ATOM     37  C   UNL A   1      44.958  24.951  27.767  1.00  0.00     0.049 A 
ATOM     38  N   UNL A   1      42.768  26.941  28.336  1.00  0.00    -0.248 NA
ATOM     39  C   UNL A   1      41.212  25.233  27.996  1.00  0.00     0.031 C 
ATOM     40  C   UNL A   1      46.057  24.021  27.519  1.00  0.00     0.029 A 
ATOM     41  N   UNL A   1      45.579  26.134  28.078  1.00  0.00    -0.354 N 
ATOM     42  C   UNL A   1      41.489  27.437  28.547  1.00  0.00     0.074 A 
ATOM     43  C   UNL A   1      40.566  26.350  28.299  1.00  0.00     0.031 C 
ATOM     44  C   UNL A   1      47.221  24.674  27.673  1.00  0.00     0.029 A 
ATOM     45  C   UNL A   1      46.947  26.074  27.996  1.00  0.00     0.049 A 
ATOM     46  H   UNL A   1      45.089  26.949  28.336  1.00  0.00     0.167 HD
ATOM     47  C   UNL A   1      41.120  28.686  28.921  1.00  0.00     0.037 A 
ATOM     48  C   UNL A   1      47.869  27.045  28.137  1.00  0.00     0.037 A 
ATOM     49  C   UNL A   1      42.037  29.766  29.169  1.00  0.00     0.049 A 
ATOM     50  C   UNL A   1      47.426  28.449  28.460  1.00  0.00     0.074 A 
ATOM     51  C   UNL A   1      41.759  31.058  29.582  1.00  0.00     0.029 A 
ATOM     52  N   UNL A   1      43.413  29.682  29.018  1.00  0.00    -0.354 N 
ATOM     53  N   UNL A   1      46.216  28.905  28.677  1.00  0.00    -0.248 NA
ATOM     54  C   UNL A   1      48.477  29.473  28.551  1.00  0.00     0.031 C 
ATOM     55  C   UNL A   1      42.963  31.770  29.630  1.00  0.00     0.029 A 
ATOM     56  C   UNL A   1      43.994  30.909  29.293  1.00  0.00     0.049 A 
ATOM     57  H   UNL A   1      43.904  28.870  28.755  1.00  0.00     0.167 HD
ATOM     58  C   UNL A   1      46.362  30.261  28.943  1.00  0.00     0.074 A 
ATOM     59  C   UNL A   1      47.779  30.550  28.879  1.00  0.00     0.031 C 
ATOM     60  C   UNL A   1      45.407  31.184  29.215  1.00  0.00     0.037 A 
BRANCH  47  61
ATOM     61  C   UNL A   1      39.652  28.961  29.059  1.00  0.00     0.064 A 
ATOM     62  C   UNL A   1      38.999  28.870  30.297  1.00  0.00     0.173 A 
ATOM     63  C   UNL A   1      38.898  29.358  27.945  1.00  0.00     0.173 A 
ATOM     64  F   UNL A   1      39.674  28.482  31.389  1.00  0.00    -0.203 F 
ATOM     65  C   UNL A   1      37.639  29.148  30.411  1.00  0.00     0.198 A 
ATOM     66  C   UNL A   1      37.544  29.659  28.066  1.00  0.00     0.198 A 
ATOM     67  F   UNL A   1      39.477  29.463  26.740  1.00  0.00    -0.203 F 
ATOM     68  F   UNL A   1      37.026  29.020  31.596  1.00  0.00    -0.200 F 
ATOM     69  C   UNL A   1      36.915  29.549  29.297  1.00  0.00     0.200 A 
ATOM     70  F   UNL A   1      36.848  30.055  26.992  1.00  0.00    -0.200 F 
ATOM     71  F   UNL A   1      35.608  29.823  29.409  1.00  0.00    -0.200 F 
ENDBRANCH  47  61
BRANCH  48  72
ATOM     72  C   UNL A   1      49.308  26.734  27.939  1.00  0.00     0.064 A 
ATOM     73  C   UNL A   1      50.147  26.459  29.026  1.00  0.00     0.173 A 
ATOM     74  C   UNL A   1      49.877  26.726  26.656  1.00  0.00     0.173 A 
ATOM     75  F   UNL A   1      49.656  26.484  30.274  1.00  0.00    -0.203 F 
ATOM     76  C   UNL A   1      51.504  26.198  28.840  1.00  0.00     0.198 A 
ATOM     77  C   UNL A   1      51.227  26.439  26.468  1.00  0.00     0.198 A 
ATOM     78  F   UNL A   1      49.116  26.989  25.582  1.00  0.00    -0.203 F 
ATOM     79  F   UNL A   1      52.293  25.980  29.900  1.00  0.00    -0.200 F 
ATOM     80  C   UNL A   1      52.041  26.183  27.561  1.00  0.00     0.200 A 
ATOM     81  F   UNL A   1      51.739  26.418  25.230  1.00  0.00    -0.200 F 
ATOM     82  F   UNL A   1      53.344  25.931  27.383  1.00  0.00    -0.200 F 
ENDBRANCH  48  72
BRANCH  60  83
ATOM     83  C   UNL A   1      45.862  32.591  29.471  1.00  0.00     0.064 A 
ATOM     84  C   UNL A   1      46.231  33.018  30.755  1.00  0.00     0.173 A 
ATOM     85  C   UNL A   1      45.971  33.509  28.416  1.00  0.00     0.173 A 
ATOM     86  F   UNL A   1      46.128  32.181  31.799  1.00  0.00    -0.203 F 
ATOM     87  C   UNL A   1      46.673  34.319  30.976  1.00  0.00     0.198 A 
ATOM     88  C   UNL A   1      46.438  34.802  28.637  1.00  0.00     0.198 A 
ATOM     89  F   UNL A   1      45.635  33.149  27.168  1.00  0.00    -0.203 F 
ATOM     90  F   UNL A   1      46.981  34.718  32.219  1.00  0.00    -0.200 F 
ATOM     91  C   UNL A   1      46.783  35.208  29.917  1.00  0.00     0.200 A 
ATOM     92  F   UNL A   1      46.555  35.656  27.611  1.00  0.00    -0.200 F 
ATOM     93  F   UNL A   1      47.215  36.458  30.131  1.00  0.00    -0.200 F 
ENDBRANCH  60  83
ENDBRANCH  34  35
ENDBRANCH  27  29
ENDBRANCH  26  27
ENDBRANCH  25  26
ENDBRANCH  24  25
ENDBRANCH   1  24
TORSDOF 17
ENDMDL
MODEL 2
REMARK VINA RESULT:     -11.0      5.265     10.560
REMARK SMILES CO[C@@H]1C[C@H](C(=O)OCCOCCOC(=O)c2ccc(-c3c4nc(c(-c5c(F)c(F)c(F)c(F)c5F)c5ccc([nH]5)c(-c5c(F)c(F)c(F)c(F)c5F)c5nc(c(-c6c(F)c(F)c(F)c(F)c6F)c6ccc3[nH]6)C=C5)C=C4)cc2)N(C(=O)c2ccn(C)c(=O)c2)C1
REMARK SMILES IDX 11 1 10 2 9 3 8 4 6 5 7 6 5 7 3 8 4 9 91 10 80 11 2 12 1 13
REMARK SMILES IDX 81 14 82 15 83 16 84 17 90 18 85 19 88 20 86 21 89 22 87 23
REMARK SMILES IDX 12 24 13 25 14 26 15 27 16 28 17 29 18 30 79 31 19 32 78 33
REMARK SMILES IDX 20 34 21 35 22 36 72 37 23 38 77 39 71 40 73 41 24 42 76 43
REMARK SMILES IDX 70 44 69 45 25 47 57 48 37 49 56 50 38 51 41 52 55 53 74 54
REMARK SMILES IDX 39 55 40 56 54 58 75 59 42 60 26 61 27 62 35 63 28 64 29 65
REMARK SMILES IDX 33 66 36 67 30 68 31 69 34 70 32 71 58 72 59 73 67 74 60 75
REMARK SMILES IDX 61 76 65 77 68 78 62 79 63 80 66 81 64 82 43 83 44 84 52 85
REMARK SMILES IDX 45 86 46 87 50 88 53 89 47 90 48 91 51 92 49 93
REMARK H PARENT 73 46 41 57
REMARK Flexibility Score: inf
ROOT
ATOM      1  O   UNL A   1      31.949  30.851  26.599  1.00  0.00    -0.374 OA
ENDROOT
BRANCH   1   2
ATOM      2  C   UNL A   1      33.272  30.424  26.920  1.00  0.00     0.202 C 
BRANCH   2   3
ATOM      3  C   UNL A   1      33.575  28.947  26.685  1.00  0.00     0.261 C 
BRANCH   3   4
ATOM      4  O   UNL A   1      32.529  28.345  25.911  1.00  0.00    -0.462 OA
BRANCH   4   5
ATOM      5  C   UNL A   1      32.940  27.584  24.871  1.00  0.00     0.329 C 
ATOM      6  O   UNL A   1      33.975  27.785  24.243  1.00  0.00    -0.250 OA
BRANCH   5   7
ATOM      7  C   UNL A   1      31.974  26.439  24.527  1.00  0.00     0.198 C 
ATOM      8  C   UNL A   1      30.009  27.269  23.381  1.00  0.00     0.140 C 
ATOM      9  C   UNL A   1      30.476  26.662  24.706  1.00  0.00     0.071 C 
ATOM     10  C   UNL A   1      31.037  26.776  22.348  1.00  0.00     0.152 C 
ATOM     11  N   UNL A   1      32.102  26.129  23.107  1.00  0.00    -0.322 N 
BRANCH   8  12
ATOM     12  O   UNL A   1      30.008  28.688  23.539  1.00  0.00    -0.380 OA
ATOM     13  C   UNL A   1      30.489  29.375  22.393  1.00  0.00     0.195 C 
ENDBRANCH   8  12
BRANCH  11  14
ATOM     14  C   UNL A   1      33.101  25.421  22.477  1.00  0.00     0.254 C 
ATOM     15  O   UNL A   1      33.653  25.825  21.455  1.00  0.00    -0.269 OA
BRANCH  14  16
ATOM     16  C   UNL A   1      33.524  24.127  23.085  1.00  0.00     0.046 A 
ATOM     17  C   UNL A   1      34.729  24.049  23.876  1.00  0.00     0.032 A 
ATOM     18  C   UNL A   1      32.775  23.037  22.871  1.00  0.00     0.085 A 
ATOM     19  C   UNL A   1      35.063  22.896  24.466  1.00  0.00     0.089 A 
ATOM     20  C   UNL A   1      33.131  21.754  23.532  1.00  0.00     0.251 A 
ATOM     21  N   UNL A   1      34.282  21.762  24.314  1.00  0.00    -0.319 N 
ATOM     22  O   UNL A   1      32.390  20.787  23.371  1.00  0.00    -0.269 OA
ATOM     23  C   UNL A   1      34.688  20.545  25.000  1.00  0.00     0.153 C 
ENDBRANCH  14  16
ENDBRANCH  11  14
ENDBRANCH   5   7
ENDBRANCH   4   5
ENDBRANCH   3   4
ENDBRANCH   2   3
ENDBRANCH   1   2
BRANCH   1  24
ATOM     24  C   UNL A   1      31.626  32.229  26.795  1.00  0.00     0.202 C 
BRANCH  24  25
ATOM     25  C   UNL A   1      32.673  33.086  27.517  1.00  0.00     0.261 C 
BRANCH  25  26
ATOM     26  O   UNL A   1      32.180  34.397  27.855  1.00  0.00    -0.460 OA
BRANCH  26  27
ATOM     27  C   UNL A   1      32.909  35.058  28.783  1.00  0.00     0.338 C 
ATOM     28  O   UNL A   1      32.615  36.106  29.350  1.00  0.00    -0.246 OA
BRANCH  27  29
ATOM     29  C   UNL A   1      34.077  34.259  29.190  1.00  0.00     0.060 A 
ATOM     30  C   UNL A   1      33.878  33.266  30.159  1.00  0.00     0.016 A 
ATOM     31  C   UNL A   1      35.359  34.535  28.712  1.00  0.00     0.016 A 
ATOM     32  C   UNL A   1      34.964  32.568  30.681  1.00  0.00     0.010 A 
ATOM     33  C   UNL A   1      36.452  33.844  29.248  1.00  0.00     0.010 A 
ATOM     34  C   UNL A   1      36.262  32.879  30.255  1.00  0.00    -0.014 A 
BRANCH  34  35
ATOM     35  C   UNL A   1      37.424  32.281  30.956  1.00  0.00     0.031 A 
ATOM     36  C   UNL A   1      38.193  31.176  30.289  1.00  0.00     0.074 A 
ATOM     37  C   UNL A   1      37.807  32.736  32.162  1.00  0.00     0.049 A 
ATOM     38  N   UNL A   1      39.207  30.479  30.739  1.00  0.00    -0.248 NA
ATOM     39  C   UNL A   1      37.765  30.808  28.931  1.00  0.00     0.031 C 
ATOM     40  C   UNL A   1      37.175  33.836  32.886  1.00  0.00     0.029 A 
ATOM     41  N   UNL A   1      38.818  32.321  32.991  1.00  0.00    -0.354 N 
ATOM     42  C   UNL A   1      39.534  29.591  29.723  1.00  0.00     0.074 A 
ATOM     43  C   UNL A   1      38.599  29.818  28.642  1.00  0.00     0.031 C 
ATOM     44  C   UNL A   1      37.804  34.000  34.062  1.00  0.00     0.029 A 
ATOM     45  C   UNL A   1      38.859  32.994  34.186  1.00  0.00     0.049 A 
ATOM     46  H   UNL A   1      39.453  31.608  32.752  1.00  0.00     0.167 HD
ATOM     47  C   UNL A   1      40.531  28.674  29.694  1.00  0.00     0.037 A 
ATOM     48  C   UNL A   1      39.641  32.801  35.265  1.00  0.00     0.037 A 
ATOM     49  C   UNL A   1      41.462  28.449  30.767  1.00  0.00     0.049 A 
ATOM     50  C   UNL A   1      40.680  31.710  35.243  1.00  0.00     0.074 A 
ATOM     51  C   UNL A   1      42.524  27.563  30.818  1.00  0.00     0.029 A 
ATOM     52  N   UNL A   1      41.435  29.111  31.986  1.00  0.00    -0.354 N 
ATOM     53  N   UNL A   1      40.996  30.888  34.273  1.00  0.00    -0.248 NA
ATOM     54  C   UNL A   1      41.466  31.517  36.471  1.00  0.00     0.031 C 
ATOM     55  C   UNL A   1      43.108  27.653  32.087  1.00  0.00     0.029 A 
ATOM     56  C   UNL A   1      42.439  28.627  32.809  1.00  0.00     0.049 A 
ATOM     57  H   UNL A   1      40.797  29.820  32.230  1.00  0.00     0.167 HD
ATOM     58  C   UNL A   1      42.023  30.092  34.766  1.00  0.00     0.074 A 
ATOM     59  C   UNL A   1      42.290  30.543  36.116  1.00  0.00     0.031 C 
ATOM     60  C   UNL A   1      42.686  29.079  34.155  1.00  0.00     0.037 A 
BRANCH  47  61
ATOM     61  C   UNL A   1      40.650  27.821  28.467  1.00  0.00     0.064 A 
ATOM     62  C   UNL A   1      39.974  26.598  28.350  1.00  0.00     0.173 A 
ATOM     63  C   UNL A   1      41.421  28.253  27.376  1.00  0.00     0.173 A 
ATOM     64  F   UNL A   1      39.235  26.136  29.371  1.00  0.00    -0.203 F 
ATOM     65  C   UNL A   1      40.080  25.828  27.194  1.00  0.00     0.198 A 
ATOM     66  C   UNL A   1      41.505  27.493  26.213  1.00  0.00     0.198 A 
ATOM     67  F   UNL A   1      42.085  29.416  27.436  1.00  0.00    -0.203 F 
ATOM     68  F   UNL A   1      39.455  24.645  27.118  1.00  0.00    -0.200 F 
ATOM     69  C   UNL A   1      40.840  26.280  26.125  1.00  0.00     0.200 A 
ATOM     70  F   UNL A   1      42.232  27.934  25.177  1.00  0.00    -0.200 F 
ATOM     71  F   UNL A   1      40.935  25.541  25.010  1.00  0.00    -0.200 F 
ENDBRANCH  47  61
BRANCH  48  72
ATOM     72  C   UNL A   1      39.449  33.638  36.478  1.00  0.00     0.064 A 
ATOM     73  C   UNL A   1      40.070  34.887  36.602  1.00  0.00     0.173 A 
ATOM     74  C   UNL A   1      38.654  33.194  37.545  1.00  0.00     0.173 A 
ATOM     75  F   UNL A   1      40.862  35.341  35.620  1.00  0.00    -0.203 F 
ATOM     76  C   UNL A   1      39.913  35.656  37.754  1.00  0.00     0.198 A 
ATOM     77  C   UNL A   1      38.477  33.974  38.685  1.00  0.00     0.198 A 
ATOM     78  F   UNL A   1      38.042  32.001  37.476  1.00  0.00    -0.203 F 
ATOM     79  F   UNL A   1      40.553  36.828  37.866  1.00  0.00    -0.200 F 
ATOM     80  C   UNL A   1      39.112  35.202  38.792  1.00  0.00     0.200 A 
ATOM     81  F   UNL A   1      37.695  33.534  39.680  1.00  0.00    -0.200 F 
ATOM     82  F   UNL A   1      38.961  35.942  39.898  1.00  0.00    -0.200 F 
ENDBRANCH  48  72
BRANCH  60  83
ATOM     83  C   UNL A   1      43.767  28.392  34.937  1.00  0.00     0.064 A 
ATOM     84  C   UNL A   1      43.504  27.239  35.690  1.00  0.00     0.173 A 
ATOM     85  C   UNL A   1      45.087  28.866  34.899  1.00  0.00     0.173 A 
ATOM     86  F   UNL A   1      42.254  26.757  35.770  1.00  0.00    -0.203 F 
ATOM     87  C   UNL A   1      44.519  26.597  36.393  1.00  0.00     0.198 A 
ATOM     88  C   UNL A   1      46.104  28.206  35.582  1.00  0.00     0.198 A 
ATOM     89  F   UNL A   1      45.392  29.962  34.189  1.00  0.00    -0.203 F 
ATOM     90  F   UNL A   1      44.237  25.520  37.140  1.00  0.00    -0.200 F 
ATOM     91  C   UNL A   1      45.820  27.076  36.333  1.00  0.00     0.200 A 
ATOM     92  F   UNL A   1      47.362  28.664  35.514  1.00  0.00    -0.200 F 
ATOM     93  F   UNL A   1      46.797  26.453  37.006  1.00  0.00    -0.200 F 
ENDBRANCH  60  83
ENDBRANCH  34  35
ENDBRANCH  27  29
ENDBRANCH  26  27
ENDBRANCH  25  26
ENDBRANCH  24  25
ENDBRANCH   1  24
TORSDOF 17
ENDMDL
MODEL 3
REMARK VINA RESULT:     -10.9      2.124      7.490
REMARK SMILES CO[C@@H]1C[C@H](C(=O)OCCOCCOC(=O)c2ccc(-c3c4nc(c(-c5c(F)c(F)c(F)c(F)c5F)c5ccc([nH]5)c(-c5c(F)c(F)c(F)c(F)c5F)c5nc(c(-c6c(F)c(F)c(F)c(F)c6F)c6ccc3[nH]6)C=C5)C=C4)cc2)N(C(=O)c2ccn(C)c(=O)c2)C1
REMARK SMILES IDX 11 1 10 2 9 3 8 4 6 5 7 6 5 7 3 8 4 9 91 10 80 11 2 12 1 13
REMARK SMILES IDX 81 14 82 15 83 16 84 17 90 18 85 19 88 20 86 21 89 22 87 23
REMARK SMILES IDX 12 24 13 25 14 26 15 27 16 28 17 29 18 30 79 31 19 32 78 33
REMARK SMILES IDX 20 34 21 35 22 36 72 37 23 38 77 39 71 40 73 41 24 42 76 43
REMARK SMILES IDX 70 44 69 45 25 47 57 48 37 49 56 50 38 51 41 52 55 53 74 54
REMARK SMILES IDX 39 55 40 56 54 58 75 59 42 60 26 61 27 62 35 63 28 64 29 65
REMARK SMILES IDX 33 66 36 67 30 68 31 69 34 70 32 71 58 72 59 73 67 74 60 75
REMARK SMILES IDX 61 76 65 77 68 78 62 79 63 80 66 81 64 82 43 83 44 84 52 85
REMARK SMILES IDX 45 86 46 87 50 88 53 89 47 90 48 91 51 92 49 93
REMARK H PARENT 73 46 41 57
REMARK Flexibility Score: inf
ROOT
ATOM      1  O   UNL A   1      37.959  21.274  25.196  1.00  0.00    -0.374 OA
ENDROOT
BRANCH   1   2
ATOM      2  C   UNL A   1      36.735  21.786  24.670  1.00  0.00     0.202 C 
BRANCH   2   3
ATOM      3  C   UNL A   1      36.861  22.948  23.689  1.00  0.00     0.261 C 
BRANCH   3   4
ATOM      4  O   UNL A   1      35.747  22.958  22.787  1.00  0.00    -0.462 OA
BRANCH   4   5
ATOM      5  C   UNL A   1      34.637  23.583  23.242  1.00  0.00     0.329 C 
ATOM      6  O   UNL A   1      34.575  24.171  24.316  1.00  0.00    -0.250 OA
BRANCH   5   7
ATOM      7  C   UNL A   1      33.435  23.473  22.289  1.00  0.00     0.198 C 
ATOM      8  C   UNL A   1      31.441  22.780  23.474  1.00  0.00     0.140 C 
ATOM      9  C   UNL A   1      32.473  22.301  22.450  1.00  0.00     0.071 C 
ATOM     10  C   UNL A   1      31.460  24.313  23.351  1.00  0.00     0.152 C 
ATOM     11  N   UNL A   1      32.581  24.641  22.477  1.00  0.00    -0.322 N 
BRANCH   8  12
ATOM     12  O   UNL A   1      31.864  22.313  24.755  1.00  0.00    -0.380 OA
ATOM     13  C   UNL A   1      30.893  22.525  25.771  1.00  0.00     0.195 C 
ENDBRANCH   8  12
BRANCH  11  14
ATOM     14  C   UNL A   1      32.778  25.923  22.017  1.00  0.00     0.254 C 
ATOM     15  O   UNL A   1      33.243  26.162  20.904  1.00  0.00    -0.269 OA
BRANCH  14  16
ATOM     16  C   UNL A   1      32.391  27.049  22.914  1.00  0.00     0.046 A 
ATOM     17  C   UNL A   1      33.210  27.394  24.052  1.00  0.00     0.032 A 
ATOM     18  C   UNL A   1      31.262  27.724  22.654  1.00  0.00     0.085 A 
ATOM     19  C   UNL A   1      32.883  28.445  24.813  1.00  0.00     0.089 A 
ATOM     20  C   UNL A   1      30.897  28.901  23.485  1.00  0.00     0.251 A 
ATOM     21  N   UNL A   1      31.754  29.200  24.541  1.00  0.00    -0.319 N 
ATOM     22  O   UNL A   1      29.892  29.541  23.185  1.00  0.00    -0.269 OA
ATOM     23  C   UNL A   1      31.466  30.345  25.392  1.00  0.00     0.153 C 
ENDBRANCH  14  16
ENDBRANCH  11  14
ENDBRANCH   5   7
ENDBRANCH   4   5
ENDBRANCH   3   4
ENDBRANCH   2   3
ENDBRANCH   1   2
BRANCH   1  24
ATOM     24  C   UNL A   1      38.199  19.870  25.081  1.00  0.00     0.202 C 
BRANCH  24  25
ATOM     25  C   UNL A   1      39.515  19.346  25.668  1.00  0.00     0.261 C 
BRANCH  25  26
ATOM     26  O   UNL A   1      40.460  20.400  25.941  1.00  0.00    -0.460 OA
BRANCH  26  27
ATOM     27  C   UNL A   1      40.842  20.502  27.235  1.00  0.00     0.338 C 
ATOM     28  O   UNL A   1      41.123  19.586  28.001  1.00  0.00    -0.246 OA
BRANCH  27  29
ATOM     29  C   UNL A   1      41.062  21.911  27.601  1.00  0.00     0.060 A 
ATOM     30  C   UNL A   1      40.371  22.887  26.869  1.00  0.00     0.016 A 
ATOM     31  C   UNL A   1      41.996  22.281  28.570  1.00  0.00     0.016 A 
ATOM     32  C   UNL A   1      40.637  24.238  27.078  1.00  0.00     0.010 A 
ATOM     33  C   UNL A   1      42.274  23.638  28.768  1.00  0.00     0.010 A 
ATOM     34  C   UNL A   1      41.617  24.620  28.003  1.00  0.00    -0.014 A 
BRANCH  34  35
ATOM     35  C   UNL A   1      42.040  26.040  28.076  1.00  0.00     0.031 A 
ATOM     36  C   UNL A   1      43.343  26.451  27.451  1.00  0.00     0.074 A 
ATOM     37  C   UNL A   1      41.258  26.959  28.669  1.00  0.00     0.049 A 
ATOM     38  N   UNL A   1      43.928  27.622  27.441  1.00  0.00    -0.248 NA
ATOM     39  C   UNL A   1      44.088  25.400  26.740  1.00  0.00     0.031 C 
ATOM     40  C   UNL A   1      39.950  26.694  29.263  1.00  0.00     0.029 A 
ATOM     41  N   UNL A   1      41.457  28.301  28.873  1.00  0.00    -0.354 N 
ATOM     42  C   UNL A   1      45.106  27.450  26.728  1.00  0.00     0.074 A 
ATOM     43  C   UNL A   1      45.168  26.057  26.340  1.00  0.00     0.031 C 
ATOM     44  C   UNL A   1      39.469  27.837  29.780  1.00  0.00     0.029 A 
ATOM     45  C   UNL A   1      40.450  28.904  29.583  1.00  0.00     0.049 A 
ATOM     46  H   UNL A   1      42.248  28.785  28.542  1.00  0.00     0.167 HD
ATOM     47  C   UNL A   1      46.048  28.374  26.418  1.00  0.00     0.037 A 
ATOM     48  C   UNL A   1      40.347  30.165  30.045  1.00  0.00     0.037 A 
ATOM     49  C   UNL A   1      45.986  29.759  26.801  1.00  0.00     0.049 A 
ATOM     50  C   UNL A   1      41.454  31.149  29.768  1.00  0.00     0.074 A 
ATOM     51  C   UNL A   1      46.877  30.777  26.509  1.00  0.00     0.029 A 
ATOM     52  N   UNL A   1      44.978  30.319  27.572  1.00  0.00    -0.354 N 
ATOM     53  N   UNL A   1      42.555  30.984  29.077  1.00  0.00    -0.248 NA
ATOM     54  C   UNL A   1      41.305  32.495  30.343  1.00  0.00     0.031 C 
ATOM     55  C   UNL A   1      46.435  31.942  27.146  1.00  0.00     0.029 A 
ATOM     56  C   UNL A   1      45.244  31.660  27.795  1.00  0.00     0.049 A 
ATOM     57  H   UNL A   1      44.190  29.835  27.909  1.00  0.00     0.167 HD
ATOM     58  C   UNL A   1      43.221  32.202  29.121  1.00  0.00     0.074 A 
ATOM     59  C   UNL A   1      42.390  33.104  29.892  1.00  0.00     0.031 C 
ATOM     60  C   UNL A   1      44.413  32.544  28.573  1.00  0.00     0.037 A 
BRANCH  47  61
ATOM     61  C   UNL A   1      47.246  27.908  25.645  1.00  0.00     0.064 A 
ATOM     62  C   UNL A   1      47.242  27.852  24.244  1.00  0.00     0.173 A 
ATOM     63  C   UNL A   1      48.426  27.551  26.315  1.00  0.00     0.173 A 
ATOM     64  F   UNL A   1      46.134  28.171  23.559  1.00  0.00    -0.203 F 
ATOM     65  C   UNL A   1      48.370  27.436  23.541  1.00  0.00     0.198 A 
ATOM     66  C   UNL A   1      49.560  27.159  25.609  1.00  0.00     0.198 A 
ATOM     67  F   UNL A   1      48.482  27.591  27.654  1.00  0.00    -0.203 F 
ATOM     68  F   UNL A   1      48.334  27.355  22.204  1.00  0.00    -0.200 F 
ATOM     69  C   UNL A   1      49.530  27.097  24.224  1.00  0.00     0.200 A 
ATOM     70  F   UNL A   1      50.682  26.841  26.268  1.00  0.00    -0.200 F 
ATOM     71  F   UNL A   1      50.617  26.703  23.546  1.00  0.00    -0.200 F 
ENDBRANCH  47  61
BRANCH  48  72
ATOM     72  C   UNL A   1      39.165  30.564  30.851  1.00  0.00     0.064 A 
ATOM     73  C   UNL A   1      38.042  31.147  30.252  1.00  0.00     0.173 A 
ATOM     74  C   UNL A   1      39.144  30.386  32.243  1.00  0.00     0.173 A 
ATOM     75  F   UNL A   1      38.026  31.364  28.928  1.00  0.00    -0.203 F 
ATOM     76  C   UNL A   1      36.947  31.549  31.015  1.00  0.00     0.198 A 
ATOM     77  C   UNL A   1      38.039  30.764  33.001  1.00  0.00     0.198 A 
ATOM     78  F   UNL A   1      40.198  29.836  32.866  1.00  0.00    -0.203 F 
ATOM     79  F   UNL A   1      35.903  32.144  30.422  1.00  0.00    -0.200 F 
ATOM     80  C   UNL A   1      36.944  31.352  32.388  1.00  0.00     0.200 A 
ATOM     81  F   UNL A   1      38.039  30.563  34.326  1.00  0.00    -0.200 F 
ATOM     82  F   UNL A   1      35.891  31.737  33.120  1.00  0.00    -0.200 F 
ENDBRANCH  48  72
BRANCH  60  83
ATOM     83  C   UNL A   1      44.889  33.952  28.781  1.00  0.00     0.064 A 
ATOM     84  C   UNL A   1      45.714  34.292  29.863  1.00  0.00     0.173 A 
ATOM     85  C   UNL A   1      44.554  34.961  27.866  1.00  0.00     0.173 A 
ATOM     86  F   UNL A   1      46.048  33.364  30.774  1.00  0.00    -0.203 F 
ATOM     87  C   UNL A   1      46.168  35.597  30.033  1.00  0.00     0.198 A 
ATOM     88  C   UNL A   1      45.032  36.259  28.025  1.00  0.00     0.198 A 
ATOM     89  F   UNL A   1      43.773  34.686  26.812  1.00  0.00    -0.203 F 
ATOM     90  F   UNL A   1      46.922  35.908  31.097  1.00  0.00    -0.200 F 
ATOM     91  C   UNL A   1      45.834  36.577  29.111  1.00  0.00     0.200 A 
ATOM     92  F   UNL A   1      44.718  37.202  27.127  1.00  0.00    -0.200 F 
ATOM     93  F   UNL A   1      46.278  37.831  29.273  1.00  0.00    -0.200 F 
ENDBRANCH  60  83
ENDBRANCH  34  35
ENDBRANCH  27  29
ENDBRANCH  26  27
ENDBRANCH  25  26
ENDBRANCH  24  25
ENDBRANCH   1  24
TORSDOF 17
ENDMDL
