MODEL 1
REMARK VINA RESULT:     -13.8      0.000      0.000
REMARK SMILES Cc1ccc(C)c([C@H]2[NH2+][C@@H](C(=O)OCCOCCOC(=O)c3ccc(-c4c5nc(c(-c6c(F)c(F)c(F)c(F)c6F)c6ccc([nH]6)c(-c6c(F)c(F)c(F)c(F)c6F)c6nc(c(-c7c(F)c(F)c(F)c(F)c7F)c7ccc4[nH]7)C=C6)C=C5)cc3)Cc3c2[nH]c2ccccc32)c1
REMARK SMILES IDX 17 1 16 2 15 3 14 4 13 5 11 6 12 7 10 8 8 9 9 10 87 11 86 14
REMARK SMILES IDX 88 15 85 16 94 17 89 18 93 20 90 21 92 22 91 23 7 24 1 25
REMARK SMILES IDX 2 26 3 27 95 28 4 29 5 30 6 31 18 32 19 33 20 34 21 35 22 36
REMARK SMILES IDX 23 37 84 38 24 39 83 40 25 41 26 42 27 43 77 44 28 45 82 46
REMARK SMILES IDX 76 47 78 48 29 49 81 50 75 51 74 52 30 54 62 55 42 56 61 57
REMARK SMILES IDX 43 58 46 59 60 60 79 61 44 62 45 63 59 65 80 66 47 67 31 68
REMARK SMILES IDX 32 69 40 70 33 71 34 72 38 73 41 74 35 75 36 76 39 77 37 78
REMARK SMILES IDX 63 79 64 80 72 81 65 82 66 83 70 84 73 85 67 86 68 87 71 88
REMARK SMILES IDX 69 89 48 90 49 91 57 92 50 93 51 94 55 95 58 96 52 97 53 98
REMARK SMILES IDX 56 99 54 100
REMARK H PARENT 9 12 9 13 88 19 78 53 46 64
REMARK Flexibility Score: inf
ROOT
ATOM      1  C   UNL A   1      34.554  21.267  25.432  1.00  0.00     0.202 C 
ENDROOT
BRANCH   1   2
ATOM      2  O   UNL A   1      33.424  20.799  24.730  1.00  0.00    -0.374 OA
BRANCH   2   3
ATOM      3  C   UNL A   1      32.712  21.667  23.876  1.00  0.00     0.202 C 
BRANCH   3   4
ATOM      4  C   UNL A   1      32.765  23.047  24.544  1.00  0.00     0.261 C 
BRANCH   4   5
ATOM      5  O   UNL A   1      32.751  24.159  23.619  1.00  0.00    -0.459 OA
BRANCH   5   6
ATOM      6  C   UNL A   1      31.537  24.660  23.216  1.00  0.00     0.365 C 
ATOM      7  O   UNL A   1      30.478  24.123  23.411  1.00  0.00    -0.245 OA
BRANCH   6   8
ATOM      8  C   UNL A   1      31.653  26.056  22.597  1.00  0.00     0.298 C 
ATOM      9  C   UNL A   1      32.841  27.865  23.998  1.00  0.00     0.262 C 
ATOM     10  N   UNL A   1      32.922  26.770  22.982  1.00  0.00    -0.323 N 
ATOM     11  C   UNL A   1      31.592  28.644  23.708  1.00  0.00     0.083 A 
ATOM     12  H   UNL A   1      33.564  26.067  23.348  1.00  0.00     0.347 HD
ATOM     13  H   UNL A   1      33.214  27.241  22.127  1.00  0.00     0.347 HD
ATOM     14  C   UNL A   1      30.467  28.164  23.080  1.00  0.00    -0.006 A 
ATOM     15  N   UNL A   1      31.284  29.894  24.176  1.00  0.00    -0.353 N 
ATOM     16  C   UNL A   1      30.310  26.771  22.669  1.00  0.00     0.115 C 
ATOM     17  C   UNL A   1      29.500  29.175  23.032  1.00  0.00     0.003 A 
ATOM     18  C   UNL A   1      29.989  30.217  23.814  1.00  0.00     0.046 A 
ATOM     19  H   UNL A   1      31.890  30.474  24.690  1.00  0.00     0.166 HD
ATOM     20  C   UNL A   1      28.225  29.250  22.453  1.00  0.00     0.010 A 
ATOM     21  C   UNL A   1      29.200  31.326  24.119  1.00  0.00     0.026 A 
ATOM     22  C   UNL A   1      27.458  30.385  22.686  1.00  0.00     0.001 A 
ATOM     23  C   UNL A   1      27.930  31.392  23.527  1.00  0.00     0.002 A 
BRANCH   9  24
ATOM     24  C   UNL A   1      32.920  27.346  25.462  1.00  0.00     0.019 A 
ATOM     25  C   UNL A   1      35.216  29.364  27.658  1.00  0.00     0.044 C 
ATOM     26  C   UNL A   1      34.024  28.654  27.105  1.00  0.00    -0.051 A 
ATOM     27  C   UNL A   1      32.751  29.046  27.448  1.00  0.00     0.004 A 
ATOM     28  C   UNL A   1      34.102  27.649  26.173  1.00  0.00     0.014 A 
ATOM     29  C   UNL A   1      31.633  28.262  27.167  1.00  0.00     0.004 A 
ATOM     30  C   UNL A   1      31.711  27.330  26.163  1.00  0.00    -0.042 A 
ATOM     31  C   UNL A   1      30.479  26.570  25.777  1.00  0.00     0.045 C 
ENDBRANCH   9  24
ENDBRANCH   6   8
ENDBRANCH   5   6
ENDBRANCH   4   5
ENDBRANCH   3   4
ENDBRANCH   2   3
ENDBRANCH   1   2
BRANCH   1  32
ATOM     32  C   UNL A   1      35.800  20.501  24.999  1.00  0.00     0.261 C 
BRANCH  32  33
ATOM     33  O   UNL A   1      36.907  21.413  24.800  1.00  0.00    -0.460 OA
BRANCH  33  34
ATOM     34  C   UNL A   1      38.119  20.977  25.264  1.00  0.00     0.338 C 
ATOM     35  O   UNL A   1      38.532  19.835  25.142  1.00  0.00    -0.246 OA
BRANCH  34  36
ATOM     36  C   UNL A   1      38.772  22.028  26.116  1.00  0.00     0.060 A 
ATOM     37  C   UNL A   1      38.356  23.375  26.093  1.00  0.00     0.016 A 
ATOM     38  C   UNL A   1      39.978  21.718  26.724  1.00  0.00     0.016 A 
ATOM     39  C   UNL A   1      39.186  24.414  26.610  1.00  0.00     0.010 A 
ATOM     40  C   UNL A   1      40.833  22.748  27.085  1.00  0.00     0.010 A 
ATOM     41  C   UNL A   1      40.471  24.116  27.068  1.00  0.00    -0.014 A 
BRANCH  41  42
ATOM     42  C   UNL A   1      41.340  24.904  27.995  1.00  0.00     0.031 A 
ATOM     43  C   UNL A   1      40.585  26.120  28.301  1.00  0.00     0.074 A 
ATOM     44  C   UNL A   1      42.601  24.913  28.508  1.00  0.00     0.049 A 
ATOM     45  N   UNL A   1      40.669  27.154  27.524  1.00  0.00    -0.248 NA
ATOM     46  C   UNL A   1      39.468  26.159  29.253  1.00  0.00     0.031 C 
ATOM     47  C   UNL A   1      43.793  24.245  28.021  1.00  0.00     0.029 A 
ATOM     48  N   UNL A   1      43.042  25.416  29.747  1.00  0.00    -0.354 N 
ATOM     49  C   UNL A   1      39.914  28.084  28.181  1.00  0.00     0.074 A 
ATOM     50  C   UNL A   1      38.922  27.327  28.895  1.00  0.00     0.031 C 
ATOM     51  C   UNL A   1      44.731  24.190  28.997  1.00  0.00     0.029 A 
ATOM     52  C   UNL A   1      44.197  24.766  30.238  1.00  0.00     0.049 A 
ATOM     53  H   UNL A   1      42.590  26.149  30.225  1.00  0.00     0.167 HD
ATOM     54  C   UNL A   1      40.543  29.228  28.556  1.00  0.00     0.037 A 
ATOM     55  C   UNL A   1      45.061  25.101  31.244  1.00  0.00     0.037 A 
ATOM     56  C   UNL A   1      41.815  29.388  27.859  1.00  0.00     0.049 A 
ATOM     57  C   UNL A   1      45.445  26.498  30.973  1.00  0.00     0.074 A 
ATOM     58  C   UNL A   1      42.216  29.585  26.550  1.00  0.00     0.029 A 
ATOM     59  N   UNL A   1      42.917  28.908  28.525  1.00  0.00    -0.354 N 
ATOM     60  N   UNL A   1      46.126  26.853  29.918  1.00  0.00    -0.248 NA
ATOM     61  C   UNL A   1      44.711  27.565  31.648  1.00  0.00     0.031 C 
ATOM     62  C   UNL A   1      43.598  29.242  26.466  1.00  0.00     0.029 A 
ATOM     63  C   UNL A   1      44.033  28.855  27.723  1.00  0.00     0.049 A 
ATOM     64  H   UNL A   1      42.908  28.633  29.471  1.00  0.00     0.167 HD
ATOM     65  C   UNL A   1      45.477  28.007  29.521  1.00  0.00     0.074 A 
ATOM     66  C   UNL A   1      44.771  28.497  30.694  1.00  0.00     0.031 C 
ATOM     67  C   UNL A   1      45.243  28.238  28.198  1.00  0.00     0.037 A 
BRANCH  54  68
ATOM     68  C   UNL A   1      40.262  29.945  29.852  1.00  0.00     0.064 A 
ATOM     69  C   UNL A   1      40.693  29.329  31.038  1.00  0.00     0.173 A 
ATOM     70  C   UNL A   1      39.421  31.071  30.027  1.00  0.00     0.173 A 
ATOM     71  F   UNL A   1      41.476  28.241  30.993  1.00  0.00    -0.203 F 
ATOM     72  C   UNL A   1      40.278  29.776  32.292  1.00  0.00     0.198 A 
ATOM     73  C   UNL A   1      39.055  31.548  31.280  1.00  0.00     0.198 A 
ATOM     74  F   UNL A   1      38.822  31.711  29.020  1.00  0.00    -0.203 F 
ATOM     75  F   UNL A   1      40.631  29.092  33.387  1.00  0.00    -0.200 F 
ATOM     76  C   UNL A   1      39.461  30.885  32.413  1.00  0.00     0.200 A 
ATOM     77  F   UNL A   1      38.242  32.610  31.366  1.00  0.00    -0.200 F 
ATOM     78  F   UNL A   1      39.026  31.289  33.613  1.00  0.00    -0.200 F 
ENDBRANCH  54  68
BRANCH  55  79
ATOM     79  C   UNL A   1      45.281  24.406  32.556  1.00  0.00     0.064 A 
ATOM     80  C   UNL A   1      44.457  23.373  33.035  1.00  0.00     0.173 A 
ATOM     81  C   UNL A   1      46.361  24.716  33.395  1.00  0.00     0.173 A 
ATOM     82  F   UNL A   1      43.408  22.962  32.309  1.00  0.00    -0.203 F 
ATOM     83  C   UNL A   1      44.704  22.715  34.256  1.00  0.00     0.198 A 
ATOM     84  C   UNL A   1      46.601  24.094  34.627  1.00  0.00     0.198 A 
ATOM     85  F   UNL A   1      47.269  25.584  32.972  1.00  0.00    -0.203 F 
ATOM     86  F   UNL A   1      43.912  21.704  34.644  1.00  0.00    -0.200 F 
ATOM     87  C   UNL A   1      45.773  23.080  35.055  1.00  0.00     0.200 A 
ATOM     88  F   UNL A   1      47.660  24.452  35.368  1.00  0.00    -0.200 F 
ATOM     89  F   UNL A   1      46.023  22.439  36.206  1.00  0.00    -0.200 F 
ENDBRANCH  55  79
BRANCH  67  90
ATOM     90  C   UNL A   1      46.236  27.639  27.254  1.00  0.00     0.064 A 
ATOM     91  C   UNL A   1      45.940  26.594  26.372  1.00  0.00     0.173 A 
ATOM     92  C   UNL A   1      47.541  28.142  27.234  1.00  0.00     0.173 A 
ATOM     93  F   UNL A   1      44.675  26.212  26.173  1.00  0.00    -0.203 F 
ATOM     94  C   UNL A   1      46.935  25.978  25.613  1.00  0.00     0.198 A 
ATOM     95  C   UNL A   1      48.518  27.583  26.413  1.00  0.00     0.198 A 
ATOM     96  F   UNL A   1      47.857  29.211  27.981  1.00  0.00    -0.203 F 
ATOM     97  F   UNL A   1      46.637  24.921  24.841  1.00  0.00    -0.200 F 
ATOM     98  C   UNL A   1      48.225  26.476  25.632  1.00  0.00     0.200 A 
ATOM     99  F   UNL A   1      49.740  28.132  26.362  1.00  0.00    -0.200 F 
ATOM    100  F   UNL A   1      49.175  25.920  24.867  1.00  0.00    -0.200 F 
ENDBRANCH  67  90
ENDBRANCH  41  42
ENDBRANCH  34  36
ENDBRANCH  33  34
ENDBRANCH  32  33
ENDBRANCH   1  32
TORSDOF 15
ENDMDL
MODEL 2
REMARK VINA RESULT:     -13.8      0.857      2.828
REMARK SMILES Cc1ccc(C)c([C@H]2[NH2+][C@@H](C(=O)OCCOCCOC(=O)c3ccc(-c4c5nc(c(-c6c(F)c(F)c(F)c(F)c6F)c6ccc([nH]6)c(-c6c(F)c(F)c(F)c(F)c6F)c6nc(c(-c7c(F)c(F)c(F)c(F)c7F)c7ccc4[nH]7)C=C6)C=C5)cc3)Cc3c2[nH]c2ccccc32)c1
REMARK SMILES IDX 17 1 16 2 15 3 14 4 13 5 11 6 12 7 10 8 8 9 9 10 87 11 86 14
REMARK SMILES IDX 88 15 85 16 94 17 89 18 93 20 90 21 92 22 91 23 7 24 1 25
REMARK SMILES IDX 2 26 3 27 95 28 4 29 5 30 6 31 18 32 19 33 20 34 21 35 22 36
REMARK SMILES IDX 23 37 84 38 24 39 83 40 25 41 26 42 27 43 77 44 28 45 82 46
REMARK SMILES IDX 76 47 78 48 29 49 81 50 75 51 74 52 30 54 62 55 42 56 61 57
REMARK SMILES IDX 43 58 46 59 60 60 79 61 44 62 45 63 59 65 80 66 47 67 31 68
REMARK SMILES IDX 32 69 40 70 33 71 34 72 38 73 41 74 35 75 36 76 39 77 37 78
REMARK SMILES IDX 63 79 64 80 72 81 65 82 66 83 70 84 73 85 67 86 68 87 71 88
REMARK SMILES IDX 69 89 48 90 49 91 57 92 50 93 51 94 55 95 58 96 52 97 53 98
REMARK SMILES IDX 56 99 54 100
REMARK H PARENT 9 12 9 13 88 19 78 53 46 64
REMARK Flexibility Score: inf
ROOT
ATOM      1  C   UNL A   1      34.844  21.461  25.532  1.00  0.00     0.202 C 
ENDROOT
BRANCH   1   2
ATOM      2  O   UNL A   1      33.593  20.885  25.834  1.00  0.00    -0.374 OA
BRANCH   2   3
ATOM      3  C   UNL A   1      32.405  21.485  25.367  1.00  0.00     0.202 C 
BRANCH   3   4
ATOM      4  C   UNL A   1      32.779  22.183  24.053  1.00  0.00     0.261 C 
BRANCH   4   5
ATOM      5  O   UNL A   1      32.403  23.578  23.989  1.00  0.00    -0.459 OA
BRANCH   5   6
ATOM      6  C   UNL A   1      33.325  24.523  24.368  1.00  0.00     0.365 C 
ATOM      7  O   UNL A   1      34.300  24.820  23.728  1.00  0.00    -0.245 OA
BRANCH   6   8
ATOM      8  C   UNL A   1      32.917  25.266  25.643  1.00  0.00     0.298 C 
ATOM      9  C   UNL A   1      30.931  26.900  25.464  1.00  0.00     0.262 C 
ATOM     10  N   UNL A   1      31.434  25.517  25.732  1.00  0.00    -0.323 N 
ATOM     11  C   UNL A   1      31.901  27.853  26.099  1.00  0.00     0.083 A 
ATOM     12  H   UNL A   1      30.982  24.897  25.060  1.00  0.00     0.347 HD
ATOM     13  H   UNL A   1      31.210  25.353  26.712  1.00  0.00     0.347 HD
ATOM     14  C   UNL A   1      33.231  27.610  26.344  1.00  0.00    -0.006 A 
ATOM     15  N   UNL A   1      31.682  29.178  26.371  1.00  0.00    -0.353 N 
ATOM     16  C   UNL A   1      33.910  26.381  25.938  1.00  0.00     0.115 C 
ATOM     17  C   UNL A   1      33.812  28.751  26.907  1.00  0.00     0.003 A 
ATOM     18  C   UNL A   1      32.854  29.757  26.821  1.00  0.00     0.046 A 
ATOM     19  H   UNL A   1      30.823  29.646  26.264  1.00  0.00     0.166 HD
ATOM     20  C   UNL A   1      35.094  29.024  27.406  1.00  0.00     0.010 A 
ATOM     21  C   UNL A   1      33.160  31.079  27.142  1.00  0.00     0.026 A 
ATOM     22  C   UNL A   1      35.388  30.322  27.804  1.00  0.00     0.001 A 
ATOM     23  C   UNL A   1      34.443  31.336  27.648  1.00  0.00     0.002 A 
BRANCH   9  24
ATOM     24  C   UNL A   1      30.690  27.179  23.952  1.00  0.00     0.019 A 
ATOM     25  C   UNL A   1      27.254  28.514  23.193  1.00  0.00     0.044 C 
ATOM     26  C   UNL A   1      28.735  28.343  23.279  1.00  0.00    -0.051 A 
ATOM     27  C   UNL A   1      29.573  29.431  23.216  1.00  0.00     0.004 A 
ATOM     28  C   UNL A   1      29.349  27.137  23.513  1.00  0.00     0.014 A 
ATOM     29  C   UNL A   1      30.949  29.298  23.033  1.00  0.00     0.004 A 
ATOM     30  C   UNL A   1      31.551  28.110  23.366  1.00  0.00    -0.042 A 
ATOM     31  C   UNL A   1      33.043  28.003  23.285  1.00  0.00     0.045 C 
ENDBRANCH   9  24
ENDBRANCH   6   8
ENDBRANCH   5   6
ENDBRANCH   4   5
ENDBRANCH   3   4
ENDBRANCH   2   3
ENDBRANCH   1   2
BRANCH   1  32
ATOM     32  C   UNL A   1      35.804  20.397  25.010  1.00  0.00     0.261 C 
BRANCH  32  33
ATOM     33  O   UNL A   1      37.036  21.011  24.556  1.00  0.00    -0.460 OA
BRANCH  33  34
ATOM     34  C   UNL A   1      38.175  20.567  25.172  1.00  0.00     0.338 C 
ATOM     35  O   UNL A   1      38.546  19.404  25.177  1.00  0.00    -0.246 OA
BRANCH  34  36
ATOM     36  C   UNL A   1      38.786  21.656  26.007  1.00  0.00     0.060 A 
ATOM     37  C   UNL A   1      38.271  22.968  26.019  1.00  0.00     0.016 A 
ATOM     38  C   UNL A   1      40.039  21.432  26.557  1.00  0.00     0.016 A 
ATOM     39  C   UNL A   1      39.044  24.061  26.513  1.00  0.00     0.010 A 
ATOM     40  C   UNL A   1      40.830  22.519  26.892  1.00  0.00     0.010 A 
ATOM     41  C   UNL A   1      40.368  23.856  26.908  1.00  0.00    -0.014 A 
BRANCH  41  42
ATOM     42  C   UNL A   1      41.217  24.698  27.805  1.00  0.00     0.031 A 
ATOM     43  C   UNL A   1      40.426  25.898  28.082  1.00  0.00     0.074 A 
ATOM     44  C   UNL A   1      42.481  24.763  28.308  1.00  0.00     0.049 A 
ATOM     45  N   UNL A   1      40.470  26.911  27.275  1.00  0.00    -0.248 NA
ATOM     46  C   UNL A   1      39.315  25.929  29.041  1.00  0.00     0.031 C 
ATOM     47  C   UNL A   1      43.690  24.119  27.831  1.00  0.00     0.029 A 
ATOM     48  N   UNL A   1      42.913  25.315  29.529  1.00  0.00    -0.354 N 
ATOM     49  C   UNL A   1      39.691  27.835  27.910  1.00  0.00     0.074 A 
ATOM     50  C   UNL A   1      38.728  27.068  28.654  1.00  0.00     0.031 C 
ATOM     51  C   UNL A   1      44.636  24.122  28.801  1.00  0.00     0.029 A 
ATOM     52  C   UNL A   1      44.092  24.717  30.029  1.00  0.00     0.049 A 
ATOM     53  H   UNL A   1      42.441  26.047  29.989  1.00  0.00     0.167 HD
ATOM     54  C   UNL A   1      40.285  29.009  28.247  1.00  0.00     0.037 A 
ATOM     55  C   UNL A   1      44.951  25.109  31.018  1.00  0.00     0.037 A 
ATOM     56  C   UNL A   1      41.547  29.189  27.536  1.00  0.00     0.049 A 
ATOM     57  C   UNL A   1      45.289  26.509  30.704  1.00  0.00     0.074 A 
ATOM     58  C   UNL A   1      41.932  29.360  26.219  1.00  0.00     0.029 A 
ATOM     59  N   UNL A   1      42.668  28.764  28.207  1.00  0.00    -0.354 N 
ATOM     60  N   UNL A   1      45.951  26.854  29.634  1.00  0.00    -0.248 NA
ATOM     61  C   UNL A   1      44.526  27.571  31.354  1.00  0.00     0.031 C 
ATOM     62  C   UNL A   1      43.324  29.059  26.134  1.00  0.00     0.029 A 
ATOM     63  C   UNL A   1      43.779  28.723  27.398  1.00  0.00     0.049 A 
ATOM     64  H   UNL A   1      42.675  28.517  29.160  1.00  0.00     0.167 HD
ATOM     65  C   UNL A   1      45.262  27.975  29.208  1.00  0.00     0.074 A 
ATOM     66  C   UNL A   1      44.549  28.476  30.373  1.00  0.00     0.031 C 
ATOM     67  C   UNL A   1      45.012  28.160  27.882  1.00  0.00     0.037 A 
BRANCH  54  68
ATOM     68  C   UNL A   1      39.990  29.754  29.524  1.00  0.00     0.064 A 
ATOM     69  C   UNL A   1      40.451  29.188  30.723  1.00  0.00     0.173 A 
ATOM     70  C   UNL A   1      39.114  30.857  29.673  1.00  0.00     0.173 A 
ATOM     71  F   UNL A   1      41.269  28.126  30.704  1.00  0.00    -0.203 F 
ATOM     72  C   UNL A   1      40.030  29.658  31.967  1.00  0.00     0.198 A 
ATOM     73  C   UNL A   1      38.741  31.358  30.915  1.00  0.00     0.198 A 
ATOM     74  F   UNL A   1      38.485  31.446  28.652  1.00  0.00    -0.203 F 
ATOM     75  F   UNL A   1      40.415  29.019  33.079  1.00  0.00    -0.200 F 
ATOM     76  C   UNL A   1      39.177  30.742  32.063  1.00  0.00     0.200 A 
ATOM     77  F   UNL A   1      37.893  32.394  30.976  1.00  0.00    -0.200 F 
ATOM     78  F   UNL A   1      38.739  31.167  33.254  1.00  0.00    -0.200 F 
ENDBRANCH  54  68
BRANCH  55  79
ATOM     79  C   UNL A   1      45.203  24.460  32.349  1.00  0.00     0.064 A 
ATOM     80  C   UNL A   1      46.202  24.884  33.242  1.00  0.00     0.173 A 
ATOM     81  C   UNL A   1      44.427  23.390  32.818  1.00  0.00     0.173 A 
ATOM     82  F   UNL A   1      46.991  25.920  32.922  1.00  0.00    -0.203 F 
ATOM     83  C   UNL A   1      46.398  24.278  34.499  1.00  0.00     0.198 A 
ATOM     84  C   UNL A   1      44.631  22.756  34.050  1.00  0.00     0.198 A 
ATOM     85  F   UNL A   1      43.378  23.003  32.107  1.00  0.00    -0.203 F 
ATOM     86  F   UNL A   1      47.335  24.752  35.333  1.00  0.00    -0.200 F 
ATOM     87  C   UNL A   1      45.615  23.209  34.900  1.00  0.00     0.200 A 
ATOM     88  F   UNL A   1      43.840  21.739  34.423  1.00  0.00    -0.200 F 
ATOM     89  F   UNL A   1      45.784  22.646  36.106  1.00  0.00    -0.200 F 
ENDBRANCH  55  79
BRANCH  67  90
ATOM     90  C   UNL A   1      46.017  27.566  26.947  1.00  0.00     0.064 A 
ATOM     91  C   UNL A   1      45.756  26.470  26.116  1.00  0.00     0.173 A 
ATOM     92  C   UNL A   1      47.297  28.125  26.885  1.00  0.00     0.173 A 
ATOM     93  F   UNL A   1      44.508  26.024  25.955  1.00  0.00    -0.203 F 
ATOM     94  C   UNL A   1      46.767  25.868  25.368  1.00  0.00     0.198 A 
ATOM     95  C   UNL A   1      48.287  27.576  26.072  1.00  0.00     0.198 A 
ATOM     96  F   UNL A   1      47.576  29.239  27.580  1.00  0.00    -0.203 F 
ATOM     97  F   UNL A   1      46.507  24.765  24.647  1.00  0.00    -0.200 F 
ATOM     98  C   UNL A   1      48.033  26.423  25.344  1.00  0.00     0.200 A 
ATOM     99  F   UNL A   1      49.482  28.176  25.977  1.00  0.00    -0.200 F 
ATOM    100  F   UNL A   1      48.996  25.878  24.588  1.00  0.00    -0.200 F 
ENDBRANCH  67  90
ENDBRANCH  41  42
ENDBRANCH  34  36
ENDBRANCH  33  34
ENDBRANCH  32  33
ENDBRANCH   1  32
TORSDOF 15
ENDMDL
MODEL 3
REMARK VINA RESULT:     -13.8      2.503      7.044
REMARK SMILES Cc1ccc(C)c([C@H]2[NH2+][C@@H](C(=O)OCCOCCOC(=O)c3ccc(-c4c5nc(c(-c6c(F)c(F)c(F)c(F)c6F)c6ccc([nH]6)c(-c6c(F)c(F)c(F)c(F)c6F)c6nc(c(-c7c(F)c(F)c(F)c(F)c7F)c7ccc4[nH]7)C=C6)C=C5)cc3)Cc3c2[nH]c2ccccc32)c1
REMARK SMILES IDX 17 1 16 2 15 3 14 4 13 5 11 6 12 7 10 8 8 9 9 10 87 11 86 14
REMARK SMILES IDX 88 15 85 16 94 17 89 18 93 20 90 21 92 22 91 23 7 24 1 25
REMARK SMILES IDX 2 26 3 27 95 28 4 29 5 30 6 31 18 32 19 33 20 34 21 35 22 36
REMARK SMILES IDX 23 37 84 38 24 39 83 40 25 41 26 42 27 43 77 44 28 45 82 46
REMARK SMILES IDX 76 47 78 48 29 49 81 50 75 51 74 52 30 54 62 55 42 56 61 57
REMARK SMILES IDX 43 58 46 59 60 60 79 61 44 62 45 63 59 65 80 66 47 67 31 68
REMARK SMILES IDX 32 69 40 70 33 71 34 72 38 73 41 74 35 75 36 76 39 77 37 78
REMARK SMILES IDX 63 79 64 80 72 81 65 82 66 83 70 84 73 85 67 86 68 87 71 88
REMARK SMILES IDX 69 89 48 90 49 91 57 92 50 93 51 94 55 95 58 96 52 97 53 98
REMARK SMILES IDX 56 99 54 100
REMARK H PARENT 9 12 9 13 88 19 78 53 46 64
REMARK Flexibility Score: inf
ROOT
ATOM      1  C   UNL A   1      35.829  21.539  24.573  1.00  0.00     0.202 C 
ENDROOT
BRANCH   1   2
ATOM      2  O   UNL A   1      34.630  20.938  25.011  1.00  0.00    -0.374 OA
BRANCH   2   3
ATOM      3  C   UNL A   1      33.394  21.577  24.782  1.00  0.00     0.202 C 
BRANCH   3   4
ATOM      4  C   UNL A   1      33.727  22.882  24.049  1.00  0.00     0.261 C 
BRANCH   4   5
ATOM      5  O   UNL A   1      33.006  24.039  24.532  1.00  0.00    -0.459 OA
BRANCH   5   6
ATOM      6  C   UNL A   1      31.794  24.341  23.960  1.00  0.00     0.365 C 
ATOM      7  O   UNL A   1      30.776  23.732  24.158  1.00  0.00    -0.245 OA
BRANCH   6   8
ATOM      8  C   UNL A   1      31.838  25.629  23.133  1.00  0.00     0.298 C 
ATOM      9  C   UNL A   1      32.970  27.679  24.213  1.00  0.00     0.262 C 
ATOM     10  N   UNL A   1      33.081  26.444  23.374  1.00  0.00    -0.323 N 
ATOM     11  C   UNL A   1      31.683  28.352  23.837  1.00  0.00     0.083 A 
ATOM     12  H   UNL A   1      33.760  25.833  23.828  1.00  0.00     0.347 HD
ATOM     13  H   UNL A   1      33.338  26.790  22.451  1.00  0.00     0.347 HD
ATOM     14  C   UNL A   1      30.570  27.737  23.317  1.00  0.00    -0.006 A 
ATOM     15  N   UNL A   1      31.329  29.646  24.116  1.00  0.00    -0.353 N 
ATOM     16  C   UNL A   1      30.467  26.291  23.126  1.00  0.00     0.115 C 
ATOM     17  C   UNL A   1      29.559  28.687  23.138  1.00  0.00     0.003 A 
ATOM     18  C   UNL A   1      30.016  29.857  23.740  1.00  0.00     0.046 A 
ATOM     19  H   UNL A   1      31.918  30.322  24.521  1.00  0.00     0.166 HD
ATOM     20  C   UNL A   1      28.271  28.622  22.585  1.00  0.00     0.010 A 
ATOM     21  C   UNL A   1      29.184  30.966  23.891  1.00  0.00     0.026 A 
ATOM     22  C   UNL A   1      27.460  29.746  22.660  1.00  0.00     0.001 A 
ATOM     23  C   UNL A   1      27.902  30.889  23.326  1.00  0.00     0.002 A 
BRANCH   9  24
ATOM     24  C   UNL A   1      33.097  27.393  25.737  1.00  0.00     0.019 A 
ATOM     25  C   UNL A   1      35.353  29.807  27.540  1.00  0.00     0.044 C 
ATOM     26  C   UNL A   1      34.180  28.978  27.133  1.00  0.00    -0.051 A 
ATOM     27  C   UNL A   1      32.899  29.372  27.442  1.00  0.00     0.004 A 
ATOM     28  C   UNL A   1      34.280  27.845  26.363  1.00  0.00     0.014 A 
ATOM     29  C   UNL A   1      31.808  28.514  27.313  1.00  0.00     0.004 A 
ATOM     30  C   UNL A   1      31.903  27.442  26.461  1.00  0.00    -0.042 A 
ATOM     31  C   UNL A   1      30.695  26.588  26.227  1.00  0.00     0.045 C 
ENDBRANCH   9  24
ENDBRANCH   6   8
ENDBRANCH   5   6
ENDBRANCH   4   5
ENDBRANCH   3   4
ENDBRANCH   2   3
ENDBRANCH   1   2
BRANCH   1  32
ATOM     32  C   UNL A   1      36.773  21.755  25.751  1.00  0.00     0.261 C 
BRANCH  32  33
ATOM     33  O   UNL A   1      37.981  22.424  25.311  1.00  0.00    -0.460 OA
BRANCH  33  34
ATOM     34  C   UNL A   1      39.099  22.172  26.059  1.00  0.00     0.338 C 
ATOM     35  O   UNL A   1      39.459  21.058  26.404  1.00  0.00    -0.246 OA
BRANCH  34  36
ATOM     36  C   UNL A   1      39.696  23.452  26.569  1.00  0.00     0.060 A 
ATOM     37  C   UNL A   1      41.035  23.531  27.006  1.00  0.00     0.016 A 
ATOM     38  C   UNL A   1      38.839  24.498  26.871  1.00  0.00     0.016 A 
ATOM     39  C   UNL A   1      41.487  24.621  27.808  1.00  0.00     0.010 A 
ATOM     40  C   UNL A   1      39.253  25.468  27.770  1.00  0.00     0.010 A 
ATOM     41  C   UNL A   1      40.579  25.584  28.251  1.00  0.00    -0.014 A 
BRANCH  41  42
ATOM     42  C   UNL A   1      40.849  26.976  28.726  1.00  0.00     0.031 A 
ATOM     43  C   UNL A   1      42.011  27.433  27.962  1.00  0.00     0.074 A 
ATOM     44  C   UNL A   1      40.463  27.856  29.690  1.00  0.00     0.049 A 
ATOM     45  N   UNL A   1      43.210  27.177  28.381  1.00  0.00    -0.248 NA
ATOM     46  C   UNL A   1      41.933  27.882  26.567  1.00  0.00     0.031 C 
ATOM     47  C   UNL A   1      39.789  27.598  30.950  1.00  0.00     0.029 A 
ATOM     48  N   UNL A   1      40.442  29.264  29.638  1.00  0.00    -0.354 N 
ATOM     49  C   UNL A   1      43.991  27.829  27.470  1.00  0.00     0.074 A 
ATOM     50  C   UNL A   1      43.232  27.821  26.248  1.00  0.00     0.031 C 
ATOM     51  C   UNL A   1      39.250  28.742  31.435  1.00  0.00     0.029 A 
ATOM     52  C   UNL A   1      39.471  29.842  30.486  1.00  0.00     0.049 A 
ATOM     53  H   UNL A   1      41.045  29.793  29.067  1.00  0.00     0.167 HD
ATOM     54  C   UNL A   1      44.816  28.795  27.951  1.00  0.00     0.037 A 
ATOM     55  C   UNL A   1      39.296  31.131  30.908  1.00  0.00     0.037 A 
ATOM     56  C   UNL A   1      44.965  28.693  29.399  1.00  0.00     0.049 A 
ATOM     57  C   UNL A   1      40.611  31.551  31.423  1.00  0.00     0.074 A 
ATOM     58  C   UNL A   1      45.507  27.776  30.282  1.00  0.00     0.029 A 
ATOM     59  N   UNL A   1      44.104  29.467  30.138  1.00  0.00    -0.354 N 
ATOM     60  N   UNL A   1      41.166  31.009  32.473  1.00  0.00    -0.248 NA
ATOM     61  C   UNL A   1      41.510  32.277  30.530  1.00  0.00     0.031 C 
ATOM     62  C   UNL A   1      44.969  28.053  31.575  1.00  0.00     0.029 A 
ATOM     63  C   UNL A   1      44.119  29.141  31.474  1.00  0.00     0.049 A 
ATOM     64  H   UNL A   1      43.540  30.177  29.753  1.00  0.00     0.167 HD
ATOM     65  C   UNL A   1      42.482  30.872  32.075  1.00  0.00     0.074 A 
ATOM     66  C   UNL A   1      42.677  31.823  30.992  1.00  0.00     0.031 C 
ATOM     67  C   UNL A   1      43.174  29.738  32.380  1.00  0.00     0.037 A 
BRANCH  54  68
ATOM     68  C   UNL A   1      45.104  30.083  27.221  1.00  0.00     0.064 A 
ATOM     69  C   UNL A   1      46.451  30.420  27.014  1.00  0.00     0.173 A 
ATOM     70  C   UNL A   1      44.171  31.099  26.904  1.00  0.00     0.173 A 
ATOM     71  F   UNL A   1      47.424  29.543  27.299  1.00  0.00    -0.203 F 
ATOM     72  C   UNL A   1      46.832  31.687  26.573  1.00  0.00     0.198 A 
ATOM     73  C   UNL A   1      44.551  32.341  26.411  1.00  0.00     0.198 A 
ATOM     74  F   UNL A   1      42.860  31.002  27.145  1.00  0.00    -0.203 F 
ATOM     75  F   UNL A   1      48.132  31.995  26.491  1.00  0.00    -0.200 F 
ATOM     76  C   UNL A   1      45.883  32.646  26.270  1.00  0.00     0.200 A 
ATOM     77  F   UNL A   1      43.609  33.259  26.150  1.00  0.00    -0.200 F 
ATOM     78  F   UNL A   1      46.248  33.876  25.888  1.00  0.00    -0.200 F 
ENDBRANCH  54  68
BRANCH  55  79
ATOM     79  C   UNL A   1      38.179  32.079  30.576  1.00  0.00     0.064 A 
ATOM     80  C   UNL A   1      37.630  32.210  29.289  1.00  0.00     0.173 A 
ATOM     81  C   UNL A   1      37.573  32.889  31.546  1.00  0.00     0.173 A 
ATOM     82  F   UNL A   1      38.103  31.465  28.279  1.00  0.00    -0.203 F 
ATOM     83  C   UNL A   1      36.561  33.085  29.009  1.00  0.00     0.198 A 
ATOM     84  C   UNL A   1      36.532  33.787  31.277  1.00  0.00     0.198 A 
ATOM     85  F   UNL A   1      37.931  32.743  32.813  1.00  0.00    -0.203 F 
ATOM     86  F   UNL A   1      36.044  33.137  27.773  1.00  0.00    -0.200 F 
ATOM     87  C   UNL A   1      36.016  33.878  30.004  1.00  0.00     0.200 A 
ATOM     88  F   UNL A   1      36.006  34.525  32.267  1.00  0.00    -0.200 F 
ATOM     89  F   UNL A   1      34.983  34.694  29.745  1.00  0.00    -0.200 F 
ENDBRANCH  55  79
BRANCH  67  90
ATOM     90  C   UNL A   1      42.752  29.044  33.635  1.00  0.00     0.064 A 
ATOM     91  C   UNL A   1      42.186  27.764  33.665  1.00  0.00     0.173 A 
ATOM     92  C   UNL A   1      42.927  29.693  34.861  1.00  0.00     0.173 A 
ATOM     93  F   UNL A   1      42.190  26.996  32.572  1.00  0.00    -0.203 F 
ATOM     94  C   UNL A   1      41.681  27.218  34.845  1.00  0.00     0.198 A 
ATOM     95  C   UNL A   1      42.501  29.113  36.054  1.00  0.00     0.198 A 
ATOM     96  F   UNL A   1      43.558  30.877  34.906  1.00  0.00    -0.203 F 
ATOM     97  F   UNL A   1      41.066  26.025  34.828  1.00  0.00    -0.200 F 
ATOM     98  C   UNL A   1      41.842  27.894  36.041  1.00  0.00     0.200 A 
ATOM     99  F   UNL A   1      42.747  29.727  37.220  1.00  0.00    -0.200 F 
ATOM    100  F   UNL A   1      41.404  27.352  37.187  1.00  0.00    -0.200 F 
ENDBRANCH  67  90
ENDBRANCH  41  42
ENDBRANCH  34  36
ENDBRANCH  33  34
ENDBRANCH  32  33
ENDBRANCH   1  32
TORSDOF 15
ENDMDL
