MODEL 1
REMARK VINA RESULT:     -11.4      0.000      0.000
REMARK SMILES Cc1cc(C(=O)N2CCC[C@@H]2C)sc1/C=C/C(=O)OCCOCCOC(=O)c1ccc(-c2c3nc(c(-c4c(F)c(F)c(F)c(F)c4F)c4ccc([nH]4)c(-c4c(F)c(F)c(F)c(F)c4F)c4nc(c(-c5c(F)c(F)c(F)c(F)c5F)c5ccc2[nH]5)C=C4)C=C3)cc1
REMARK SMILES IDX 21 1 20 2 19 3 17 4 18 5 16 6 15 7 14 8 1 9 2 10 3 11 4 12
REMARK SMILES IDX 13 13 5 14 6 15 7 16 8 17 11 18 9 19 10 20 12 21 22 22 23 23
REMARK SMILES IDX 24 24 25 25 26 26 27 27 28 28 29 29 90 30 30 31 89 32 31 33
REMARK SMILES IDX 32 34 33 35 83 36 34 37 88 38 82 39 84 40 35 41 87 42 81 43
REMARK SMILES IDX 80 44 36 46 68 47 48 48 67 49 49 50 52 51 66 52 85 53 50 54
REMARK SMILES IDX 51 55 65 57 86 58 53 59 37 60 38 61 46 62 39 63 40 64 44 65
REMARK SMILES IDX 47 66 41 67 42 68 45 69 43 70 69 71 70 72 78 73 71 74 72 75
REMARK SMILES IDX 76 76 79 77 73 78 74 79 77 80 75 81 54 82 55 83 63 84 56 85
REMARK SMILES IDX 57 86 61 87 64 88 58 89 59 90 62 91 60 92
REMARK H PARENT 84 45 52 56
REMARK Flexibility Score: inf
ROOT
ATOM      1  C   UNL A   1      33.358  36.008  31.612  1.00  0.00     0.202 C 
ENDROOT
BRANCH   1   2
ATOM      2  C   UNL A   1      32.915  36.061  30.150  1.00  0.00     0.261 C 
BRANCH   2   3
ATOM      3  O   UNL A   1      32.745  34.737  29.614  1.00  0.00    -0.460 OA
BRANCH   3   4
ATOM      4  C   UNL A   1      33.710  34.340  28.754  1.00  0.00     0.330 C 
ATOM      5  O   UNL A   1      34.718  34.962  28.455  1.00  0.00    -0.247 OA
BRANCH   4   6
ATOM      6  C   UNL A   1      33.474  32.984  28.225  1.00  0.00     0.095 C 
ATOM      7  C   UNL A   1      34.407  32.085  27.864  1.00  0.00     0.027 C 
BRANCH   7   8
ATOM      8  C   UNL A   1      34.064  30.786  27.354  1.00  0.00     0.031 A 
ATOM      9  C   UNL A   1      36.294  29.515  27.651  1.00  0.00     0.046 C 
ATOM     10  C   UNL A   1      34.860  29.649  27.236  1.00  0.00    -0.032 A 
ATOM     11  C   UNL A   1      34.108  28.523  26.740  1.00  0.00     0.029 A 
ATOM     12  C   UNL A   1      32.776  28.802  26.507  1.00  0.00     0.093 A 
ATOM     13  S   UNL A   1      32.472  30.452  26.777  1.00  0.00    -0.130 S 
BRANCH  12  14
ATOM     14  C   UNL A   1      31.710  27.827  26.293  1.00  0.00     0.264 C 
ATOM     15  O   UNL A   1      31.031  27.422  27.241  1.00  0.00    -0.268 OA
BRANCH  14  16
ATOM     16  N   UNL A   1      31.370  27.432  25.006  1.00  0.00    -0.335 N 
ATOM     17  C   UNL A   1      32.273  26.596  24.248  1.00  0.00     0.120 C 
ATOM     18  C   UNL A   1      30.237  27.850  24.179  1.00  0.00     0.082 C 
ATOM     19  C   UNL A   1      31.335  25.866  23.305  1.00  0.00     0.024 C 
ATOM     20  C   UNL A   1      30.307  26.934  22.942  1.00  0.00     0.026 C 
ATOM     21  C   UNL A   1      30.368  29.318  23.773  1.00  0.00     0.031 C 
ENDBRANCH  14  16
ENDBRANCH  12  14
ENDBRANCH   7   8
ENDBRANCH   4   6
ENDBRANCH   3   4
ENDBRANCH   2   3
ENDBRANCH   1   2
BRANCH   1  22
ATOM     22  O   UNL A   1      34.672  35.496  31.835  1.00  0.00    -0.374 OA
BRANCH  22  23
ATOM     23  C   UNL A   1      35.095  35.381  33.195  1.00  0.00     0.202 C 
BRANCH  23  24
ATOM     24  C   UNL A   1      36.247  34.399  33.444  1.00  0.00     0.261 C 
BRANCH  24  25
ATOM     25  O   UNL A   1      35.763  33.070  33.719  1.00  0.00    -0.460 OA
BRANCH  25  26
ATOM     26  C   UNL A   1      35.227  32.425  32.658  1.00  0.00     0.338 C 
ATOM     27  O   UNL A   1      34.070  32.475  32.262  1.00  0.00    -0.246 OA
BRANCH  26  28
ATOM     28  C   UNL A   1      36.289  31.746  31.893  1.00  0.00     0.060 A 
ATOM     29  C   UNL A   1      37.119  30.854  32.587  1.00  0.00     0.016 A 
ATOM     30  C   UNL A   1      36.517  32.016  30.542  1.00  0.00     0.016 A 
ATOM     31  C   UNL A   1      38.208  30.268  31.946  1.00  0.00     0.010 A 
ATOM     32  C   UNL A   1      37.616  31.433  29.901  1.00  0.00     0.010 A 
ATOM     33  C   UNL A   1      38.485  30.583  30.609  1.00  0.00    -0.014 A 
BRANCH  33  34
ATOM     34  C   UNL A   1      39.759  30.132  29.998  1.00  0.00     0.031 A 
ATOM     35  C   UNL A   1      40.899  31.106  29.881  1.00  0.00     0.074 A 
ATOM     36  C   UNL A   1      39.910  28.864  29.577  1.00  0.00     0.049 A 
ATOM     37  N   UNL A   1      42.086  30.938  29.355  1.00  0.00    -0.248 NA
ATOM     38  C   UNL A   1      40.668  32.451  30.431  1.00  0.00     0.031 C 
ATOM     39  C   UNL A   1      38.893  27.819  29.668  1.00  0.00     0.029 A 
ATOM     40  N   UNL A   1      40.979  28.244  28.978  1.00  0.00    -0.354 N 
ATOM     41  C   UNL A   1      42.740  32.153  29.505  1.00  0.00     0.074 A 
ATOM     42  C   UNL A   1      41.810  33.060  30.145  1.00  0.00     0.031 C 
ATOM     43  C   UNL A   1      39.383  26.687  29.133  1.00  0.00     0.029 A 
ATOM     44  C   UNL A   1      40.735  26.937  28.637  1.00  0.00     0.049 A 
ATOM     45  H   UNL A   1      41.837  28.695  28.811  1.00  0.00     0.167 HD
ATOM     46  C   UNL A   1      44.006  32.480  29.154  1.00  0.00     0.037 A 
ATOM     47  C   UNL A   1      41.510  26.052  27.980  1.00  0.00     0.037 A 
ATOM     48  C   UNL A   1      44.932  31.579  28.521  1.00  0.00     0.049 A 
ATOM     49  C   UNL A   1      42.892  26.462  27.538  1.00  0.00     0.074 A 
ATOM     50  C   UNL A   1      46.243  31.812  28.142  1.00  0.00     0.029 A 
ATOM     51  N   UNL A   1      44.640  30.271  28.165  1.00  0.00    -0.354 N 
ATOM     52  N   UNL A   1      43.512  27.604  27.708  1.00  0.00    -0.248 NA
ATOM     53  C   UNL A   1      43.682  25.455  26.815  1.00  0.00     0.031 C 
ATOM     54  C   UNL A   1      46.729  30.659  27.515  1.00  0.00     0.029 A 
ATOM     55  C   UNL A   1      45.738  29.692  27.549  1.00  0.00     0.049 A 
ATOM     56  H   UNL A   1      43.779  29.820  28.327  1.00  0.00     0.167 HD
ATOM     57  C   UNL A   1      44.769  27.445  27.142  1.00  0.00     0.074 A 
ATOM     58  C   UNL A   1      44.829  26.092  26.631  1.00  0.00     0.031 C 
ATOM     59  C   UNL A   1      45.785  28.339  27.052  1.00  0.00     0.037 A 
BRANCH  46  60
ATOM     60  C   UNL A   1      44.459  33.884  29.427  1.00  0.00     0.064 A 
ATOM     61  C   UNL A   1      45.175  34.215  30.588  1.00  0.00     0.173 A 
ATOM     62  C   UNL A   1      44.203  34.907  28.501  1.00  0.00     0.173 A 
ATOM     63  F   UNL A   1      45.433  33.277  31.512  1.00  0.00    -0.203 F 
ATOM     64  C   UNL A   1      45.596  35.522  30.821  1.00  0.00     0.198 A 
ATOM     65  C   UNL A   1      44.650  36.206  28.724  1.00  0.00     0.198 A 
ATOM     66  F   UNL A   1      43.526  34.643  27.373  1.00  0.00    -0.203 F 
ATOM     67  F   UNL A   1      46.240  35.824  31.957  1.00  0.00    -0.200 F 
ATOM     68  C   UNL A   1      45.339  36.514  29.887  1.00  0.00     0.200 A 
ATOM     69  F   UNL A   1      44.410  37.161  27.815  1.00  0.00    -0.200 F 
ATOM     70  F   UNL A   1      45.750  37.769  30.111  1.00  0.00    -0.200 F 
ENDBRANCH  46  60
BRANCH  47  71
ATOM     71  C   UNL A   1      40.994  24.690  27.688  1.00  0.00     0.064 A 
ATOM     72  C   UNL A   1      41.549  23.559  28.302  1.00  0.00     0.173 A 
ATOM     73  C   UNL A   1      39.948  24.492  26.776  1.00  0.00     0.173 A 
ATOM     74  F   UNL A   1      42.568  23.696  29.161  1.00  0.00    -0.203 F 
ATOM     75  C   UNL A   1      41.086  22.279  28.002  1.00  0.00     0.198 A 
ATOM     76  C   UNL A   1      39.468  23.213  26.498  1.00  0.00     0.198 A 
ATOM     77  F   UNL A   1      39.384  25.542  26.159  1.00  0.00    -0.203 F 
ATOM     78  F   UNL A   1      41.665  21.211  28.568  1.00  0.00    -0.200 F 
ATOM     79  C   UNL A   1      40.043  22.107  27.105  1.00  0.00     0.200 A 
ATOM     80  F   UNL A   1      38.453  23.054  25.638  1.00  0.00    -0.200 F 
ATOM     81  F   UNL A   1      39.597  20.877  26.819  1.00  0.00    -0.200 F 
ENDBRANCH  47  71
BRANCH  59  82
ATOM     82  C   UNL A   1      47.061  27.875  26.412  1.00  0.00     0.064 A 
ATOM     83  C   UNL A   1      48.142  27.414  27.175  1.00  0.00     0.173 A 
ATOM     84  C   UNL A   1      47.186  27.853  25.013  1.00  0.00     0.173 A 
ATOM     85  F   UNL A   1      48.078  27.429  28.515  1.00  0.00    -0.203 F 
ATOM     86  C   UNL A   1      49.312  26.968  26.563  1.00  0.00     0.198 A 
ATOM     87  C   UNL A   1      48.344  27.379  24.405  1.00  0.00     0.198 A 
ATOM     88  F   UNL A   1      46.177  28.277  24.237  1.00  0.00    -0.203 F 
ATOM     89  F   UNL A   1      50.349  26.572  27.314  1.00  0.00    -0.200 F 
ATOM     90  C   UNL A   1      49.408  26.943  25.180  1.00  0.00     0.200 A 
ATOM     91  F   UNL A   1      48.431  27.344  23.068  1.00  0.00    -0.200 F 
ATOM     92  F   UNL A   1      50.532  26.507  24.593  1.00  0.00    -0.200 F 
ENDBRANCH  59  82
ENDBRANCH  33  34
ENDBRANCH  26  28
ENDBRANCH  25  26
ENDBRANCH  24  25
ENDBRANCH  23  24
ENDBRANCH  22  23
ENDBRANCH   1  22
TORSDOF 17
ENDMDL
MODEL 2
REMARK VINA RESULT:     -11.2      3.299      6.175
REMARK SMILES Cc1cc(C(=O)N2CCC[C@@H]2C)sc1/C=C/C(=O)OCCOCCOC(=O)c1ccc(-c2c3nc(c(-c4c(F)c(F)c(F)c(F)c4F)c4ccc([nH]4)c(-c4c(F)c(F)c(F)c(F)c4F)c4nc(c(-c5c(F)c(F)c(F)c(F)c5F)c5ccc2[nH]5)C=C4)C=C3)cc1
REMARK SMILES IDX 21 1 20 2 19 3 17 4 18 5 16 6 15 7 14 8 1 9 2 10 3 11 4 12
REMARK SMILES IDX 13 13 5 14 6 15 7 16 8 17 11 18 9 19 10 20 12 21 22 22 23 23
REMARK SMILES IDX 24 24 25 25 26 26 27 27 28 28 29 29 90 30 30 31 89 32 31 33
REMARK SMILES IDX 32 34 33 35 83 36 34 37 88 38 82 39 84 40 35 41 87 42 81 43
REMARK SMILES IDX 80 44 36 46 68 47 48 48 67 49 49 50 52 51 66 52 85 53 50 54
REMARK SMILES IDX 51 55 65 57 86 58 53 59 37 60 38 61 46 62 39 63 40 64 44 65
REMARK SMILES IDX 47 66 41 67 42 68 45 69 43 70 69 71 70 72 78 73 71 74 72 75
REMARK SMILES IDX 76 76 79 77 73 78 74 79 77 80 75 81 54 82 55 83 63 84 56 85
REMARK SMILES IDX 57 86 61 87 64 88 58 89 59 90 62 91 60 92
REMARK H PARENT 84 45 52 56
REMARK Flexibility Score: inf
ROOT
ATOM      1  C   UNL A   1      33.334  35.594  30.148  1.00  0.00     0.202 C 
ENDROOT
BRANCH   1   2
ATOM      2  C   UNL A   1      33.608  35.381  31.637  1.00  0.00     0.261 C 
BRANCH   2   3
ATOM      3  O   UNL A   1      34.759  34.542  31.835  1.00  0.00    -0.460 OA
BRANCH   3   4
ATOM      4  C   UNL A   1      34.584  33.530  32.716  1.00  0.00     0.330 C 
ATOM      5  O   UNL A   1      33.521  33.016  33.031  1.00  0.00    -0.247 OA
BRANCH   4   6
ATOM      6  C   UNL A   1      35.860  33.014  33.246  1.00  0.00     0.095 C 
ATOM      7  C   UNL A   1      37.036  32.951  32.596  1.00  0.00     0.027 C 
BRANCH   7   8
ATOM      8  C   UNL A   1      38.223  32.422  33.209  1.00  0.00     0.031 A 
ATOM      9  C   UNL A   1      39.551  34.584  33.699  1.00  0.00     0.046 C 
ATOM     10  C   UNL A   1      39.341  33.101  33.691  1.00  0.00    -0.032 A 
ATOM     11  C   UNL A   1      40.287  32.199  34.302  1.00  0.00     0.029 A 
ATOM     12  C   UNL A   1      39.882  30.879  34.295  1.00  0.00     0.093 A 
ATOM     13  S   UNL A   1      38.419  30.723  33.445  1.00  0.00    -0.130 S 
BRANCH  12  14
ATOM     14  C   UNL A   1      40.458  29.791  35.081  1.00  0.00     0.264 C 
ATOM     15  O   UNL A   1      39.995  29.503  36.187  1.00  0.00    -0.268 OA
BRANCH  14  16
ATOM     16  N   UNL A   1      41.458  28.993  34.542  1.00  0.00    -0.335 N 
ATOM     17  C   UNL A   1      41.121  27.964  33.585  1.00  0.00     0.120 C 
ATOM     18  C   UNL A   1      42.877  28.922  34.896  1.00  0.00     0.082 C 
ATOM     19  C   UNL A   1      42.400  27.828  32.779  1.00  0.00     0.024 C 
ATOM     20  C   UNL A   1      43.492  27.993  33.831  1.00  0.00     0.026 C 
ATOM     21  C   UNL A   1      43.063  28.336  36.296  1.00  0.00     0.031 C 
ENDBRANCH  14  16
ENDBRANCH  12  14
ENDBRANCH   7   8
ENDBRANCH   4   6
ENDBRANCH   3   4
ENDBRANCH   2   3
ENDBRANCH   1   2
BRANCH   1  22
ATOM     22  O   UNL A   1      32.820  34.459  29.452  1.00  0.00    -0.374 OA
BRANCH  22  23
ATOM     23  C   UNL A   1      33.543  34.031  28.296  1.00  0.00     0.202 C 
BRANCH  23  24
ATOM     24  C   UNL A   1      34.819  33.228  28.579  1.00  0.00     0.261 C 
BRANCH  24  25
ATOM     25  O   UNL A   1      34.524  31.966  29.209  1.00  0.00    -0.460 OA
BRANCH  25  26
ATOM     26  C   UNL A   1      34.568  30.891  28.390  1.00  0.00     0.338 C 
ATOM     27  O   UNL A   1      33.719  30.536  27.582  1.00  0.00    -0.246 OA
BRANCH  26  28
ATOM     28  C   UNL A   1      35.895  30.254  28.465  1.00  0.00     0.060 A 
ATOM     29  C   UNL A   1      36.280  29.703  29.696  1.00  0.00     0.016 A 
ATOM     30  C   UNL A   1      36.776  30.247  27.382  1.00  0.00     0.016 A 
ATOM     31  C   UNL A   1      37.563  29.188  29.860  1.00  0.00     0.010 A 
ATOM     32  C   UNL A   1      38.067  29.737  27.551  1.00  0.00     0.010 A 
ATOM     33  C   UNL A   1      38.478  29.235  28.799  1.00  0.00    -0.014 A 
BRANCH  33  34
ATOM     34  C   UNL A   1      39.900  28.889  29.041  1.00  0.00     0.031 A 
ATOM     35  C   UNL A   1      40.783  29.877  29.751  1.00  0.00     0.074 A 
ATOM     36  C   UNL A   1      40.393  27.699  28.656  1.00  0.00     0.049 A 
ATOM     37  N   UNL A   1      42.058  29.798  30.038  1.00  0.00    -0.248 NA
ATOM     38  C   UNL A   1      40.142  31.124  30.196  1.00  0.00     0.031 C 
ATOM     39  C   UNL A   1      39.631  26.644  27.992  1.00  0.00     0.029 A 
ATOM     40  N   UNL A   1      41.661  27.182  28.764  1.00  0.00    -0.354 N 
ATOM     41  C   UNL A   1      42.371  30.981  30.692  1.00  0.00     0.074 A 
ATOM     42  C   UNL A   1      41.163  31.777  30.733  1.00  0.00     0.031 C 
ATOM     43  C   UNL A   1      40.449  25.608  27.740  1.00  0.00     0.029 A 
ATOM     44  C   UNL A   1      41.797  25.939  28.199  1.00  0.00     0.049 A 
ATOM     45  H   UNL A   1      42.401  27.659  29.204  1.00  0.00     0.167 HD
ATOM     46  C   UNL A   1      43.557  31.366  31.221  1.00  0.00     0.037 A 
ATOM     47  C   UNL A   1      42.891  25.166  28.051  1.00  0.00     0.037 A 
ATOM     48  C   UNL A   1      44.758  30.575  31.182  1.00  0.00     0.049 A 
ATOM     49  C   UNL A   1      44.215  25.646  28.588  1.00  0.00     0.074 A 
ATOM     50  C   UNL A   1      46.005  30.871  31.705  1.00  0.00     0.029 A 
ATOM     51  N   UNL A   1      44.864  29.332  30.576  1.00  0.00    -0.354 N 
ATOM     52  N   UNL A   1      44.497  26.755  29.229  1.00  0.00    -0.248 NA
ATOM     53  C   UNL A   1      45.372  24.764  28.384  1.00  0.00     0.031 C 
ATOM     54  C   UNL A   1      46.877  29.828  31.376  1.00  0.00     0.029 A 
ATOM     55  C   UNL A   1      46.162  28.859  30.692  1.00  0.00     0.049 A 
ATOM     56  H   UNL A   1      44.127  28.856  30.129  1.00  0.00     0.167 HD
ATOM     57  C   UNL A   1      45.851  26.691  29.528  1.00  0.00     0.074 A 
ATOM     58  C   UNL A   1      46.334  25.429  29.009  1.00  0.00     0.031 C 
ATOM     59  C   UNL A   1      46.626  27.596  30.175  1.00  0.00     0.037 A 
BRANCH  46  60
ATOM     60  C   UNL A   1      43.620  32.717  31.870  1.00  0.00     0.064 A 
ATOM     61  C   UNL A   1      43.721  33.895  31.114  1.00  0.00     0.173 A 
ATOM     62  C   UNL A   1      43.545  32.839  33.266  1.00  0.00     0.173 A 
ATOM     63  F   UNL A   1      43.810  33.832  29.776  1.00  0.00    -0.203 F 
ATOM     64  C   UNL A   1      43.769  35.142  31.733  1.00  0.00     0.198 A 
ATOM     65  C   UNL A   1      43.565  34.088  33.880  1.00  0.00     0.198 A 
ATOM     66  F   UNL A   1      43.444  31.744  34.036  1.00  0.00    -0.203 F 
ATOM     67  F   UNL A   1      43.910  36.250  30.992  1.00  0.00    -0.200 F 
ATOM     68  C   UNL A   1      43.684  35.238  33.113  1.00  0.00     0.200 A 
ATOM     69  F   UNL A   1      43.471  34.180  35.213  1.00  0.00    -0.200 F 
ATOM     70  F   UNL A   1      43.724  36.438  33.706  1.00  0.00    -0.200 F 
ENDBRANCH  46  60
BRANCH  47  71
ATOM     71  C   UNL A   1      42.786  23.859  27.353  1.00  0.00     0.064 A 
ATOM     72  C   UNL A   1      43.163  23.723  26.011  1.00  0.00     0.173 A 
ATOM     73  C   UNL A   1      42.289  22.724  28.011  1.00  0.00     0.173 A 
ATOM     74  F   UNL A   1      43.618  24.785  25.332  1.00  0.00    -0.203 F 
ATOM     75  C   UNL A   1      43.032  22.504  25.348  1.00  0.00     0.198 A 
ATOM     76  C   UNL A   1      42.186  21.499  27.355  1.00  0.00     0.198 A 
ATOM     77  F   UNL A   1      41.913  22.803  29.297  1.00  0.00    -0.203 F 
ATOM     78  F   UNL A   1      43.357  22.411  24.050  1.00  0.00    -0.200 F 
ATOM     79  C   UNL A   1      42.549  21.392  26.021  1.00  0.00     0.200 A 
ATOM     80  F   UNL A   1      41.728  20.426  28.013  1.00  0.00    -0.200 F 
ATOM     81  F   UNL A   1      42.426  20.220  25.384  1.00  0.00    -0.200 F 
ENDBRANCH  47  71
BRANCH  59  82
ATOM     82  C   UNL A   1      48.069  27.241  30.393  1.00  0.00     0.064 A 
ATOM     83  C   UNL A   1      48.484  26.498  31.507  1.00  0.00     0.173 A 
ATOM     84  C   UNL A   1      49.041  27.614  29.451  1.00  0.00     0.173 A 
ATOM     85  F   UNL A   1      47.595  26.131  32.443  1.00  0.00    -0.203 F 
ATOM     86  C   UNL A   1      49.824  26.160  31.682  1.00  0.00     0.198 A 
ATOM     87  C   UNL A   1      50.374  27.249  29.615  1.00  0.00     0.198 A 
ATOM     88  F   UNL A   1      48.694  28.318  28.364  1.00  0.00    -0.203 F 
ATOM     89  F   UNL A   1      50.205  25.487  32.777  1.00  0.00    -0.200 F 
ATOM     90  C   UNL A   1      50.766  26.529  30.733  1.00  0.00     0.200 A 
ATOM     91  F   UNL A   1      51.280  27.595  28.690  1.00  0.00    -0.200 F 
ATOM     92  F   UNL A   1      52.053  26.196  30.900  1.00  0.00    -0.200 F 
ENDBRANCH  59  82
ENDBRANCH  33  34
ENDBRANCH  26  28
ENDBRANCH  25  26
ENDBRANCH  24  25
ENDBRANCH  23  24
ENDBRANCH  22  23
ENDBRANCH   1  22
TORSDOF 17
ENDMDL
MODEL 3
REMARK VINA RESULT:     -11.1      5.020     10.270
REMARK SMILES Cc1cc(C(=O)N2CCC[C@@H]2C)sc1/C=C/C(=O)OCCOCCOC(=O)c1ccc(-c2c3nc(c(-c4c(F)c(F)c(F)c(F)c4F)c4ccc([nH]4)c(-c4c(F)c(F)c(F)c(F)c4F)c4nc(c(-c5c(F)c(F)c(F)c(F)c5F)c5ccc2[nH]5)C=C4)C=C3)cc1
REMARK SMILES IDX 21 1 20 2 19 3 17 4 18 5 16 6 15 7 14 8 1 9 2 10 3 11 4 12
REMARK SMILES IDX 13 13 5 14 6 15 7 16 8 17 11 18 9 19 10 20 12 21 22 22 23 23
REMARK SMILES IDX 24 24 25 25 26 26 27 27 28 28 29 29 90 30 30 31 89 32 31 33
REMARK SMILES IDX 32 34 33 35 83 36 34 37 88 38 82 39 84 40 35 41 87 42 81 43
REMARK SMILES IDX 80 44 36 46 68 47 48 48 67 49 49 50 52 51 66 52 85 53 50 54
REMARK SMILES IDX 51 55 65 57 86 58 53 59 37 60 38 61 46 62 39 63 40 64 44 65
REMARK SMILES IDX 47 66 41 67 42 68 45 69 43 70 69 71 70 72 78 73 71 74 72 75
REMARK SMILES IDX 76 76 79 77 73 78 74 79 77 80 75 81 54 82 55 83 63 84 56 85
REMARK SMILES IDX 57 86 61 87 64 88 58 89 59 90 62 91 60 92
REMARK H PARENT 84 45 52 56
REMARK Flexibility Score: inf
ROOT
ATOM      1  C   UNL A   1      41.542  20.020  26.676  1.00  0.00     0.202 C 
ENDROOT
BRANCH   1   2
ATOM      2  C   UNL A   1      41.687  21.508  26.996  1.00  0.00     0.261 C 
BRANCH   2   3
ATOM      3  O   UNL A   1      40.855  22.304  26.134  1.00  0.00    -0.460 OA
BRANCH   3   4
ATOM      4  C   UNL A   1      39.737  22.798  26.714  1.00  0.00     0.330 C 
ATOM      5  O   UNL A   1      39.690  23.587  27.646  1.00  0.00    -0.247 OA
BRANCH   4   6
ATOM      6  C   UNL A   1      38.504  22.337  26.049  1.00  0.00     0.095 C 
ATOM      7  C   UNL A   1      37.285  22.896  26.137  1.00  0.00     0.027 C 
BRANCH   7   8
ATOM      8  C   UNL A   1      36.144  22.360  25.446  1.00  0.00     0.031 A 
ATOM      9  C   UNL A   1      36.606  23.126  23.023  1.00  0.00     0.046 C 
ATOM     10  C   UNL A   1      35.810  22.449  24.096  1.00  0.00    -0.032 A 
ATOM     11  C   UNL A   1      34.612  21.706  23.794  1.00  0.00     0.029 A 
ATOM     12  C   UNL A   1      34.068  21.060  24.887  1.00  0.00     0.093 A 
ATOM     13  S   UNL A   1      34.941  21.454  26.291  1.00  0.00    -0.130 S 
BRANCH  12  14
ATOM     14  C   UNL A   1      33.053  20.010  24.857  1.00  0.00     0.264 C 
ATOM     15  O   UNL A   1      31.877  20.266  25.128  1.00  0.00    -0.268 OA
BRANCH  14  16
ATOM     16  N   UNL A   1      33.378  18.736  24.411  1.00  0.00    -0.335 N 
ATOM     17  C   UNL A   1      34.732  18.248  24.547  1.00  0.00     0.120 C 
ATOM     18  C   UNL A   1      32.561  17.783  23.656  1.00  0.00     0.082 C 
ATOM     19  C   UNL A   1      34.537  16.745  24.616  1.00  0.00     0.024 C 
ATOM     20  C   UNL A   1      33.406  16.495  23.623  1.00  0.00     0.026 C 
ATOM     21  C   UNL A   1      32.297  18.293  22.239  1.00  0.00     0.031 C 
ENDBRANCH  14  16
ENDBRANCH  12  14
ENDBRANCH   7   8
ENDBRANCH   4   6
ENDBRANCH   3   4
ENDBRANCH   2   3
ENDBRANCH   1   2
BRANCH   1  22
ATOM     22  O   UNL A   1      42.350  19.143  27.460  1.00  0.00    -0.374 OA
BRANCH  22  23
ATOM     23  C   UNL A   1      43.110  18.162  26.751  1.00  0.00     0.202 C 
BRANCH  23  24
ATOM     24  C   UNL A   1      43.285  18.425  25.249  1.00  0.00     0.261 C 
BRANCH  24  25
ATOM     25  O   UNL A   1      44.663  18.678  24.910  1.00  0.00    -0.460 OA
BRANCH  25  26
ATOM     26  C   UNL A   1      44.858  19.655  23.997  1.00  0.00     0.338 C 
ATOM     27  O   UNL A   1      44.958  19.531  22.783  1.00  0.00    -0.246 OA
BRANCH  26  28
ATOM     28  C   UNL A   1      44.768  20.977  24.645  1.00  0.00     0.060 A 
ATOM     29  C   UNL A   1      44.282  22.044  23.877  1.00  0.00     0.016 A 
ATOM     30  C   UNL A   1      45.207  21.190  25.953  1.00  0.00     0.016 A 
ATOM     31  C   UNL A   1      44.279  23.335  24.397  1.00  0.00     0.010 A 
ATOM     32  C   UNL A   1      45.211  22.489  26.473  1.00  0.00     0.010 A 
ATOM     33  C   UNL A   1      44.778  23.572  25.686  1.00  0.00    -0.014 A 
BRANCH  33  34
ATOM     34  C   UNL A   1      44.974  24.967  26.151  1.00  0.00     0.031 A 
ATOM     35  C   UNL A   1      46.344  25.581  26.063  1.00  0.00     0.074 A 
ATOM     36  C   UNL A   1      43.941  25.687  26.622  1.00  0.00     0.049 A 
ATOM     37  N   UNL A   1      46.750  26.768  26.440  1.00  0.00    -0.248 NA
ATOM     38  C   UNL A   1      47.399  24.743  25.471  1.00  0.00     0.031 C 
ATOM     39  C   UNL A   1      42.562  25.217  26.724  1.00  0.00     0.029 A 
ATOM     40  N   UNL A   1      43.899  26.969  27.112  1.00  0.00    -0.354 N 
ATOM     41  C   UNL A   1      48.103  26.817  26.136  1.00  0.00     0.074 A 
ATOM     42  C   UNL A   1      48.459  25.532  25.571  1.00  0.00     0.031 C 
ATOM     43  C   UNL A   1      41.807  26.194  27.255  1.00  0.00     0.029 A 
ATOM     44  C   UNL A   1      42.656  27.346  27.557  1.00  0.00     0.049 A 
ATOM     45  H   UNL A   1      44.684  27.561  27.140  1.00  0.00     0.167 HD
ATOM     46  C   UNL A   1      48.969  27.845  26.301  1.00  0.00     0.037 A 
ATOM     47  C   UNL A   1      42.256  28.483  28.157  1.00  0.00     0.037 A 
ATOM     48  C   UNL A   1      48.616  29.122  26.860  1.00  0.00     0.049 A 
ATOM     49  C   UNL A   1      43.254  29.588  28.392  1.00  0.00     0.074 A 
ATOM     50  C   UNL A   1      49.419  30.234  27.052  1.00  0.00     0.029 A 
ATOM     51  N   UNL A   1      47.353  29.457  27.325  1.00  0.00    -0.354 N 
ATOM     52  N   UNL A   1      44.526  29.637  28.077  1.00  0.00    -0.248 NA
ATOM     53  C   UNL A   1      42.759  30.797  29.064  1.00  0.00     0.031 C 
ATOM     54  C   UNL A   1      48.653  31.225  27.676  1.00  0.00     0.029 A 
ATOM     55  C   UNL A   1      47.361  30.749  27.826  1.00  0.00     0.049 A 
ATOM     56  H   UNL A   1      46.567  28.864  27.303  1.00  0.00     0.167 HD
ATOM     57  C   UNL A   1      44.974  30.886  28.485  1.00  0.00     0.074 A 
ATOM     58  C   UNL A   1      43.835  31.570  29.060  1.00  0.00     0.031 C 
ATOM     59  C   UNL A   1      46.216  31.420  28.390  1.00  0.00     0.037 A 
BRANCH  46  60
ATOM     60  C   UNL A   1      50.396  27.621  25.891  1.00  0.00     0.064 A 
ATOM     61  C   UNL A   1      50.813  27.778  24.561  1.00  0.00     0.173 A 
ATOM     62  C   UNL A   1      51.364  27.276  26.846  1.00  0.00     0.173 A 
ATOM     63  F   UNL A   1      49.923  28.093  23.607  1.00  0.00    -0.203 F 
ATOM     64  C   UNL A   1      52.143  27.575  24.199  1.00  0.00     0.198 A 
ATOM     65  C   UNL A   1      52.697  27.102  26.486  1.00  0.00     0.198 A 
ATOM     66  F   UNL A   1      51.018  27.117  28.133  1.00  0.00    -0.203 F 
ATOM     67  F   UNL A   1      52.510  27.688  22.915  1.00  0.00    -0.200 F 
ATOM     68  C   UNL A   1      53.084  27.244  25.162  1.00  0.00     0.200 A 
ATOM     69  F   UNL A   1      53.607  26.793  27.419  1.00  0.00    -0.200 F 
ATOM     70  F   UNL A   1      54.363  27.056  24.813  1.00  0.00    -0.200 F 
ENDBRANCH  46  60
BRANCH  47  71
ATOM     71  C   UNL A   1      40.843  28.634  28.592  1.00  0.00     0.064 A 
ATOM     72  C   UNL A   1      40.444  28.287  29.889  1.00  0.00     0.173 A 
ATOM     73  C   UNL A   1      39.861  29.112  27.711  1.00  0.00     0.173 A 
ATOM     74  F   UNL A   1      41.341  27.801  30.758  1.00  0.00    -0.203 F 
ATOM     75  C   UNL A   1      39.112  28.397  30.285  1.00  0.00     0.198 A 
ATOM     76  C   UNL A   1      38.535  29.248  28.117  1.00  0.00     0.198 A 
ATOM     77  F   UNL A   1      40.192  29.456  26.457  1.00  0.00    -0.203 F 
ATOM     78  F   UNL A   1      38.748  28.016  31.518  1.00  0.00    -0.200 F 
ATOM     79  C   UNL A   1      38.160  28.883  29.401  1.00  0.00     0.200 A 
ATOM     80  F   UNL A   1      37.621  29.727  27.263  1.00  0.00    -0.200 F 
ATOM     81  F   UNL A   1      36.881  28.991  29.783  1.00  0.00    -0.200 F 
ENDBRANCH  47  71
BRANCH  59  82
ATOM     82  C   UNL A   1      46.405  32.825  28.886  1.00  0.00     0.064 A 
ATOM     83  C   UNL A   1      46.797  33.093  30.205  1.00  0.00     0.173 A 
ATOM     84  C   UNL A   1      46.233  33.913  28.016  1.00  0.00     0.173 A 
ATOM     85  F   UNL A   1      46.960  32.088  31.079  1.00  0.00    -0.203 F 
ATOM     86  C   UNL A   1      46.988  34.402  30.642  1.00  0.00     0.198 A 
ATOM     87  C   UNL A   1      46.453  35.218  28.449  1.00  0.00     0.198 A 
ATOM     88  F   UNL A   1      45.866  33.710  26.742  1.00  0.00    -0.203 F 
ATOM     89  F   UNL A   1      47.320  34.638  31.919  1.00  0.00    -0.200 F 
ATOM     90  C   UNL A   1      46.823  35.462  29.762  1.00  0.00     0.200 A 
ATOM     91  F   UNL A   1      46.306  36.239  27.594  1.00  0.00    -0.200 F 
ATOM     92  F   UNL A   1      47.015  36.720  30.183  1.00  0.00    -0.200 F 
ENDBRANCH  59  82
ENDBRANCH  33  34
ENDBRANCH  26  28
ENDBRANCH  25  26
ENDBRANCH  24  25
ENDBRANCH  23  24
ENDBRANCH  22  23
ENDBRANCH   1  22
TORSDOF 17
ENDMDL
