MODEL 1
REMARK VINA RESULT:     -11.5      0.000      0.000
REMARK SMILES COc1cccc([C@H]2[NH2+][C@@](CC(C)C)(C(=O)OCCOCCOC(=O)c3ccc(-c4c5nc(c(-c6c(F)c(F)c(F)c(F)c6F)c6ccc([nH]6)c(-c6c(F)c(F)c(F)c(F)c6F)c6nc(c(-c7c(F)c(F)c(F)c(F)c7F)c7ccc4[nH]7)C=C6)C=C5)cc3)[C@H]3C(=O)N(C(C)C)C(=O)[C@H]23)c1O
REMARK SMILES IDX 20 1 19 2 18 3 17 4 15 5 16 6 10 7 8 8 9 9 98 10 89 13 96 14
REMARK SMILES IDX 90 15 92 16 97 17 91 18 7 19 3 20 4 21 99 22 5 23 6 24 2 25
REMARK SMILES IDX 1 26 100 27 11 29 12 30 13 31 14 32 93 33 94 34 95 35 21 36
REMARK SMILES IDX 22 37 23 38 24 39 25 40 26 41 27 42 88 43 28 44 87 45 29 46
REMARK SMILES IDX 30 47 31 48 81 49 32 50 86 51 80 52 82 53 33 54 85 55 79 56
REMARK SMILES IDX 78 57 34 59 66 60 46 61 65 62 47 63 50 64 64 65 83 66 48 67
REMARK SMILES IDX 49 68 63 70 84 71 51 72 35 73 36 74 44 75 37 76 38 77 42 78
REMARK SMILES IDX 45 79 39 80 40 81 43 82 41 83 67 84 68 85 76 86 69 87 70 88
REMARK SMILES IDX 74 89 77 90 71 91 72 92 75 93 73 94 52 95 53 96 61 97 54 98
REMARK SMILES IDX 55 99 59 100 62 101 56 102 57 103 60 104 58 105
REMARK H PARENT 9 11 9 12 100 28 82 58 50 69
REMARK Flexibility Score: inf
ROOT
ATOM      1  O   UNL A   1      32.019  27.906  22.985  1.00  0.00    -0.374 OA
ENDROOT
BRANCH   1   2
ATOM      2  C   UNL A   1      33.388  27.534  22.829  1.00  0.00     0.202 C 
BRANCH   2   3
ATOM      3  C   UNL A   1      33.689  26.080  22.446  1.00  0.00     0.261 C 
BRANCH   3   4
ATOM      4  O   UNL A   1      34.658  25.431  23.293  1.00  0.00    -0.459 OA
BRANCH   4   5
ATOM      5  C   UNL A   1      34.669  24.070  23.219  1.00  0.00     0.369 C 
ATOM      6  O   UNL A   1      34.463  23.458  22.174  1.00  0.00    -0.245 OA
BRANCH   5   7
ATOM      7  C   UNL A   1      34.957  23.346  24.571  1.00  0.00     0.207 C 
ATOM      8  C   UNL A   1      33.988  21.122  25.050  1.00  0.00     0.232 C 
ATOM      9  N   UNL A   1      35.117  21.861  24.390  1.00  0.00    -0.324 N 
ATOM     10  C   UNL A   1      32.959  22.208  25.075  1.00  0.00     0.161 C 
ATOM     11  H   UNL A   1      35.124  21.644  23.393  1.00  0.00     0.347 HD
ATOM     12  H   UNL A   1      35.995  21.570  24.819  1.00  0.00     0.347 HD
ATOM     13  C   UNL A   1      33.785  23.392  25.540  1.00  0.00     0.171 C 
ATOM     14  C   UNL A   1      31.811  22.285  26.023  1.00  0.00     0.240 C 
ATOM     15  C   UNL A   1      32.659  24.381  25.692  1.00  0.00     0.240 C 
ATOM     16  N   UNL A   1      31.564  23.642  26.135  1.00  0.00    -0.279 N 
ATOM     17  O   UNL A   1      31.212  21.357  26.533  1.00  0.00    -0.274 OA
ATOM     18  O   UNL A   1      32.739  25.588  25.569  1.00  0.00    -0.274 OA
BRANCH   8  19
ATOM     19  C   UNL A   1      33.763  19.856  24.264  1.00  0.00     0.056 A 
ATOM     20  C   UNL A   1      34.013  17.471  24.035  1.00  0.00     0.161 A 
ATOM     21  C   UNL A   1      32.848  17.366  23.287  1.00  0.00     0.050 A 
ATOM     22  C   UNL A   1      34.526  18.708  24.427  1.00  0.00     0.166 A 
ATOM     23  C   UNL A   1      32.149  18.526  22.976  1.00  0.00     0.005 A 
ATOM     24  C   UNL A   1      32.589  19.755  23.481  1.00  0.00     0.014 A 
BRANCH  20  25
ATOM     25  O   UNL A   1      34.583  16.329  24.538  1.00  0.00    -0.493 OA
ATOM     26  C   UNL A   1      33.545  15.575  25.184  1.00  0.00     0.278 C 
ENDBRANCH  20  25
BRANCH  22  27
ATOM     27  O   UNL A   1      35.747  18.737  25.041  1.00  0.00    -0.504 OA
ATOM     28  H   UNL A   1      36.471  19.160  24.624  1.00  0.00     0.293 HD
ENDBRANCH  22  27
ENDBRANCH   8  19
BRANCH   7  29
ATOM     29  C   UNL A   1      36.245  24.057  25.106  1.00  0.00     0.085 C 
BRANCH  29  30
ATOM     30  C   UNL A   1      37.187  23.309  26.069  1.00  0.00    -0.011 C 
ATOM     31  C   UNL A   1      37.930  22.145  25.387  1.00  0.00     0.007 C 
ATOM     32  C   UNL A   1      38.240  24.296  26.589  1.00  0.00     0.007 C 
ENDBRANCH  29  30
ENDBRANCH   7  29
BRANCH  16  33
ATOM     33  C   UNL A   1      30.363  24.224  26.744  1.00  0.00     0.087 C 
ATOM     34  C   UNL A   1      29.683  25.268  25.852  1.00  0.00     0.031 C 
ATOM     35  C   UNL A   1      29.349  23.142  27.121  1.00  0.00     0.031 C 
ENDBRANCH  16  33
ENDBRANCH   5   7
ENDBRANCH   4   5
ENDBRANCH   3   4
ENDBRANCH   2   3
ENDBRANCH   1   2
BRANCH   1  36
ATOM     36  C   UNL A   1      31.744  28.938  23.924  1.00  0.00     0.202 C 
BRANCH  36  37
ATOM     37  C   UNL A   1      32.924  29.443  24.752  1.00  0.00     0.261 C 
BRANCH  37  38
ATOM     38  O   UNL A   1      32.633  29.517  26.154  1.00  0.00    -0.460 OA
BRANCH  38  39
ATOM     39  C   UNL A   1      32.978  30.694  26.732  1.00  0.00     0.338 C 
ATOM     40  O   UNL A   1      32.297  31.700  26.840  1.00  0.00    -0.246 OA
BRANCH  39  41
ATOM     41  C   UNL A   1      34.288  30.540  27.391  1.00  0.00     0.060 A 
ATOM     42  C   UNL A   1      34.762  29.241  27.605  1.00  0.00     0.016 A 
ATOM     43  C   UNL A   1      35.039  31.644  27.797  1.00  0.00     0.016 A 
ATOM     44  C   UNL A   1      35.980  29.036  28.255  1.00  0.00     0.010 A 
ATOM     45  C   UNL A   1      36.271  31.436  28.426  1.00  0.00     0.010 A 
ATOM     46  C   UNL A   1      36.740  30.130  28.690  1.00  0.00    -0.014 A 
BRANCH  46  47
ATOM     47  C   UNL A   1      37.937  29.927  29.559  1.00  0.00     0.031 A 
ATOM     48  C   UNL A   1      39.006  28.975  29.089  1.00  0.00     0.074 A 
ATOM     49  C   UNL A   1      38.088  30.563  30.739  1.00  0.00     0.049 A 
ATOM     50  N   UNL A   1      40.097  28.578  29.694  1.00  0.00    -0.248 NA
ATOM     51  C   UNL A   1      38.816  28.385  27.752  1.00  0.00     0.031 C 
ATOM     52  C   UNL A   1      37.173  31.550  31.306  1.00  0.00     0.029 A 
ATOM     53  N   UNL A   1      39.072  30.450  31.694  1.00  0.00    -0.354 N 
ATOM     54  C   UNL A   1      40.711  27.694  28.816  1.00  0.00     0.074 A 
ATOM     55  C   UNL A   1      39.835  27.545  27.676  1.00  0.00     0.031 C 
ATOM     56  C   UNL A   1      37.593  31.898  32.533  1.00  0.00     0.029 A 
ATOM     57  C   UNL A   1      38.835  31.193  32.827  1.00  0.00     0.049 A 
ATOM     58  H   UNL A   1      39.873  29.890  31.577  1.00  0.00     0.167 HD
ATOM     59  C   UNL A   1      41.922  27.098  28.918  1.00  0.00     0.037 A 
ATOM     60  C   UNL A   1      39.548  31.306  33.965  1.00  0.00     0.037 A 
ATOM     61  C   UNL A   1      42.822  27.277  30.022  1.00  0.00     0.049 A 
ATOM     62  C   UNL A   1      40.873  30.596  34.076  1.00  0.00     0.074 A 
ATOM     63  C   UNL A   1      44.086  26.746  30.201  1.00  0.00     0.029 A 
ATOM     64  N   UNL A   1      42.552  28.060  31.134  1.00  0.00    -0.354 N 
ATOM     65  N   UNL A   1      41.471  29.818  33.207  1.00  0.00    -0.248 NA
ATOM     66  C   UNL A   1      41.641  30.814  35.312  1.00  0.00     0.031 C 
ATOM     67  C   UNL A   1      44.573  27.186  31.436  1.00  0.00     0.029 A 
ATOM     68  C   UNL A   1      43.627  28.022  32.007  1.00  0.00     0.049 A 
ATOM     69  H   UNL A   1      41.722  28.568  31.282  1.00  0.00     0.167 HD
ATOM     70  C   UNL A   1      42.703  29.503  33.764  1.00  0.00     0.074 A 
ATOM     71  C   UNL A   1      42.770  30.175  35.044  1.00  0.00     0.031 C 
ATOM     72  C   UNL A   1      43.694  28.730  33.258  1.00  0.00     0.037 A 
BRANCH  59  73
ATOM     73  C   UNL A   1      42.351  26.223  27.779  1.00  0.00     0.064 A 
ATOM     74  C   UNL A   1      43.291  26.664  26.833  1.00  0.00     0.173 A 
ATOM     75  C   UNL A   1      41.829  24.930  27.632  1.00  0.00     0.173 A 
ATOM     76  F   UNL A   1      43.807  27.900  26.921  1.00  0.00    -0.203 F 
ATOM     77  C   UNL A   1      43.663  25.857  25.763  1.00  0.00     0.198 A 
ATOM     78  C   UNL A   1      42.229  24.114  26.577  1.00  0.00     0.198 A 
ATOM     79  F   UNL A   1      40.933  24.458  28.511  1.00  0.00    -0.203 F 
ATOM     80  F   UNL A   1      44.516  26.324  24.839  1.00  0.00    -0.200 F 
ATOM     81  C   UNL A   1      43.137  24.582  25.639  1.00  0.00     0.200 A 
ATOM     82  F   UNL A   1      41.728  22.876  26.464  1.00  0.00    -0.200 F 
ATOM     83  F   UNL A   1      43.497  23.804  24.608  1.00  0.00    -0.200 F 
ENDBRANCH  59  73
BRANCH  60  84
ATOM     84  C   UNL A   1      39.069  32.168  35.079  1.00  0.00     0.064 A 
ATOM     85  C   UNL A   1      39.370  33.538  35.112  1.00  0.00     0.173 A 
ATOM     86  C   UNL A   1      38.366  31.630  36.168  1.00  0.00     0.173 A 
ATOM     87  F   UNL A   1      40.058  34.094  34.104  1.00  0.00    -0.203 F 
ATOM     88  C   UNL A   1      39.026  34.327  36.207  1.00  0.00     0.198 A 
ATOM     89  C   UNL A   1      38.000  32.427  37.252  1.00  0.00     0.198 A 
ATOM     90  F   UNL A   1      38.048  30.328  36.185  1.00  0.00    -0.203 F 
ATOM     91  F   UNL A   1      39.387  35.616  36.240  1.00  0.00    -0.200 F 
ATOM     92  C   UNL A   1      38.342  33.771  37.277  1.00  0.00     0.200 A 
ATOM     93  F   UNL A   1      37.331  31.889  38.281  1.00  0.00    -0.200 F 
ATOM     94  F   UNL A   1      38.028  34.526  38.338  1.00  0.00    -0.200 F 
ENDBRANCH  60  84
BRANCH  72  95
ATOM     95  C   UNL A   1      44.962  28.616  34.051  1.00  0.00     0.064 A 
ATOM     96  C   UNL A   1      45.157  27.592  34.988  1.00  0.00     0.173 A 
ATOM     97  C   UNL A   1      46.020  29.509  33.821  1.00  0.00     0.173 A 
ATOM     98  F   UNL A   1      44.170  26.723  35.253  1.00  0.00    -0.203 F 
ATOM     99  C   UNL A   1      46.358  27.480  35.682  1.00  0.00     0.198 A 
ATOM    100  C   UNL A   1      47.230  29.374  34.494  1.00  0.00     0.198 A 
ATOM    101  F   UNL A   1      45.886  30.503  32.928  1.00  0.00    -0.203 F 
ATOM    102  F   UNL A   1      46.509  26.519  36.605  1.00  0.00    -0.200 F 
ATOM    103  C   UNL A   1      47.396  28.363  35.428  1.00  0.00     0.200 A 
ATOM    104  F   UNL A   1      48.237  30.220  34.236  1.00  0.00    -0.200 F 
ATOM    105  F   UNL A   1      48.557  28.243  36.087  1.00  0.00    -0.200 F 
ENDBRANCH  72  95
ENDBRANCH  46  47
ENDBRANCH  39  41
ENDBRANCH  38  39
ENDBRANCH  37  38
ENDBRANCH  36  37
ENDBRANCH   1  36
TORSDOF 20
ENDMDL
MODEL 2
REMARK VINA RESULT:     -11.4      1.303      3.135
REMARK SMILES COc1cccc([C@H]2[NH2+][C@@](CC(C)C)(C(=O)OCCOCCOC(=O)c3ccc(-c4c5nc(c(-c6c(F)c(F)c(F)c(F)c6F)c6ccc([nH]6)c(-c6c(F)c(F)c(F)c(F)c6F)c6nc(c(-c7c(F)c(F)c(F)c(F)c7F)c7ccc4[nH]7)C=C6)C=C5)cc3)[C@H]3C(=O)N(C(C)C)C(=O)[C@H]23)c1O
REMARK SMILES IDX 20 1 19 2 18 3 17 4 15 5 16 6 10 7 8 8 9 9 98 10 89 13 96 14
REMARK SMILES IDX 90 15 92 16 97 17 91 18 7 19 3 20 4 21 99 22 5 23 6 24 2 25
REMARK SMILES IDX 1 26 100 27 11 29 12 30 13 31 14 32 93 33 94 34 95 35 21 36
REMARK SMILES IDX 22 37 23 38 24 39 25 40 26 41 27 42 88 43 28 44 87 45 29 46
REMARK SMILES IDX 30 47 31 48 81 49 32 50 86 51 80 52 82 53 33 54 85 55 79 56
REMARK SMILES IDX 78 57 34 59 66 60 46 61 65 62 47 63 50 64 64 65 83 66 48 67
REMARK SMILES IDX 49 68 63 70 84 71 51 72 35 73 36 74 44 75 37 76 38 77 42 78
REMARK SMILES IDX 45 79 39 80 40 81 43 82 41 83 67 84 68 85 76 86 69 87 70 88
REMARK SMILES IDX 74 89 77 90 71 91 72 92 75 93 73 94 52 95 53 96 61 97 54 98
REMARK SMILES IDX 55 99 59 100 62 101 56 102 57 103 60 104 58 105
REMARK H PARENT 9 11 9 12 100 28 82 58 50 69
REMARK Flexibility Score: inf
ROOT
ATOM      1  O   UNL A   1      33.019  27.794  23.947  1.00  0.00    -0.374 OA
ENDROOT
BRANCH   1   2
ATOM      2  C   UNL A   1      33.088  27.390  22.581  1.00  0.00     0.202 C 
BRANCH   2   3
ATOM      3  C   UNL A   1      33.566  25.964  22.286  1.00  0.00     0.261 C 
BRANCH   3   4
ATOM      4  O   UNL A   1      33.213  24.997  23.296  1.00  0.00    -0.459 OA
BRANCH   4   5
ATOM      5  C   UNL A   1      34.170  24.063  23.560  1.00  0.00     0.369 C 
ATOM      6  O   UNL A   1      35.040  23.755  22.749  1.00  0.00    -0.245 OA
BRANCH   5   7
ATOM      7  C   UNL A   1      34.070  23.408  24.973  1.00  0.00     0.207 C 
ATOM      8  C   UNL A   1      35.689  21.681  25.686  1.00  0.00     0.232 C 
ATOM      9  N   UNL A   1      35.428  23.155  25.572  1.00  0.00    -0.324 N 
ATOM     10  C   UNL A   1      34.742  21.176  24.644  1.00  0.00     0.161 C 
ATOM     11  H   UNL A   1      36.140  23.578  24.976  1.00  0.00     0.347 HD
ATOM     12  H   UNL A   1      35.457  23.568  26.504  1.00  0.00     0.347 HD
ATOM     13  C   UNL A   1      33.502  21.998  24.944  1.00  0.00     0.171 C 
ATOM     14  C   UNL A   1      34.159  19.805  24.601  1.00  0.00     0.240 C 
ATOM     15  C   UNL A   1      32.569  21.321  23.974  1.00  0.00     0.240 C 
ATOM     16  N   UNL A   1      32.947  19.981  23.959  1.00  0.00    -0.279 N 
ATOM     17  O   UNL A   1      34.667  18.775  25.001  1.00  0.00    -0.274 OA
ATOM     18  O   UNL A   1      31.612  21.829  23.422  1.00  0.00    -0.274 OA
BRANCH   8  19
ATOM     19  C   UNL A   1      37.176  21.480  25.549  1.00  0.00     0.056 A 
ATOM     20  C   UNL A   1      39.415  21.855  26.354  1.00  0.00     0.161 A 
ATOM     21  C   UNL A   1      39.864  20.650  25.830  1.00  0.00     0.050 A 
ATOM     22  C   UNL A   1      38.119  22.319  26.126  1.00  0.00     0.166 A 
ATOM     23  C   UNL A   1      38.973  19.863  25.111  1.00  0.00     0.005 A 
ATOM     24  C   UNL A   1      37.637  20.263  24.993  1.00  0.00     0.014 A 
BRANCH  20  25
ATOM     25  O   UNL A   1      40.209  22.525  27.250  1.00  0.00    -0.493 OA
ATOM     26  C   UNL A   1      41.042  21.552  27.902  1.00  0.00     0.278 C 
ENDBRANCH  20  25
BRANCH  22  27
ATOM     27  O   UNL A   1      37.796  23.574  26.557  1.00  0.00    -0.504 OA
ATOM     28  H   UNL A   1      37.651  24.260  25.936  1.00  0.00     0.293 HD
ENDBRANCH  22  27
ENDBRANCH   8  19
BRANCH   7  29
ATOM     29  C   UNL A   1      33.201  24.421  25.790  1.00  0.00     0.085 C 
BRANCH  29  30
ATOM     30  C   UNL A   1      32.224  23.900  26.862  1.00  0.00    -0.011 C 
ATOM     31  C   UNL A   1      30.848  23.526  26.278  1.00  0.00     0.007 C 
ATOM     32  C   UNL A   1      32.820  22.640  27.499  1.00  0.00     0.007 C 
ENDBRANCH  29  30
ENDBRANCH   7  29
BRANCH  16  33
ATOM     33  C   UNL A   1      32.114  18.891  23.436  1.00  0.00     0.087 C 
ATOM     34  C   UNL A   1      32.499  18.472  22.013  1.00  0.00     0.031 C 
ATOM     35  C   UNL A   1      32.157  17.667  24.353  1.00  0.00     0.031 C 
ENDBRANCH  16  33
ENDBRANCH   5   7
ENDBRANCH   4   5
ENDBRANCH   3   4
ENDBRANCH   2   3
ENDBRANCH   1   2
BRANCH   1  36
ATOM     36  C   UNL A   1      31.798  28.387  24.374  1.00  0.00     0.202 C 
BRANCH  36  37
ATOM     37  C   UNL A   1      31.908  29.547  25.362  1.00  0.00     0.261 C 
BRANCH  37  38
ATOM     38  O   UNL A   1      33.247  29.756  25.831  1.00  0.00    -0.460 OA
BRANCH  38  39
ATOM     39  C   UNL A   1      33.366  30.748  26.747  1.00  0.00     0.338 C 
ATOM     40  O   UNL A   1      32.517  31.554  27.089  1.00  0.00    -0.246 OA
BRANCH  39  41
ATOM     41  C   UNL A   1      34.666  30.619  27.431  1.00  0.00     0.060 A 
ATOM     42  C   UNL A   1      35.134  29.327  27.702  1.00  0.00     0.016 A 
ATOM     43  C   UNL A   1      35.413  31.736  27.804  1.00  0.00     0.016 A 
ATOM     44  C   UNL A   1      36.343  29.147  28.377  1.00  0.00     0.010 A 
ATOM     45  C   UNL A   1      36.636  31.551  28.458  1.00  0.00     0.010 A 
ATOM     46  C   UNL A   1      37.099  30.255  28.780  1.00  0.00    -0.014 A 
BRANCH  46  47
ATOM     47  C   UNL A   1      38.282  30.085  29.673  1.00  0.00     0.031 A 
ATOM     48  C   UNL A   1      39.433  29.247  29.179  1.00  0.00     0.074 A 
ATOM     49  C   UNL A   1      38.352  30.652  30.895  1.00  0.00     0.049 A 
ATOM     50  N   UNL A   1      40.533  28.892  29.794  1.00  0.00    -0.248 NA
ATOM     51  C   UNL A   1      39.325  28.733  27.803  1.00  0.00     0.031 C 
ATOM     52  C   UNL A   1      37.349  31.530  31.492  1.00  0.00     0.029 A 
ATOM     53  N   UNL A   1      39.314  30.550  31.872  1.00  0.00    -0.354 N 
ATOM     54  C   UNL A   1      41.236  28.115  28.882  1.00  0.00     0.074 A 
ATOM     55  C   UNL A   1      40.407  27.977  27.707  1.00  0.00     0.031 C 
ATOM     56  C   UNL A   1      37.707  31.828  32.753  1.00  0.00     0.029 A 
ATOM     57  C   UNL A   1      38.990  31.198  33.042  1.00  0.00     0.049 A 
ATOM     58  H   UNL A   1      40.158  30.058  31.747  1.00  0.00     0.167 HD
ATOM     59  C   UNL A   1      42.486  27.605  28.986  1.00  0.00     0.037 A 
ATOM     60  C   UNL A   1      39.660  31.288  34.207  1.00  0.00     0.037 A 
ATOM     61  C   UNL A   1      43.338  27.777  30.129  1.00  0.00     0.049 A 
ATOM     62  C   UNL A   1      41.032  30.672  34.317  1.00  0.00     0.074 A 
ATOM     63  C   UNL A   1      44.633  27.330  30.315  1.00  0.00     0.029 A 
ATOM     64  N   UNL A   1      42.979  28.464  31.278  1.00  0.00    -0.354 N 
ATOM     65  N   UNL A   1      41.711  29.998  33.421  1.00  0.00    -0.248 NA
ATOM     66  C   UNL A   1      41.746  30.865  35.589  1.00  0.00     0.031 C 
ATOM     67  C   UNL A   1      45.051  27.722  31.590  1.00  0.00     0.029 A 
ATOM     68  C   UNL A   1      44.029  28.447  32.182  1.00  0.00     0.049 A 
ATOM     69  H   UNL A   1      42.109  28.898  31.430  1.00  0.00     0.167 HD
ATOM     70  C   UNL A   1      42.947  29.739  33.997  1.00  0.00     0.074 A 
ATOM     71  C   UNL A   1      42.927  30.329  35.318  1.00  0.00     0.031 C 
ATOM     72  C   UNL A   1      44.007  29.075  33.476  1.00  0.00     0.037 A 
BRANCH  59  73
ATOM     73  C   UNL A   1      43.012  26.839  27.809  1.00  0.00     0.064 A 
ATOM     74  C   UNL A   1      43.721  27.480  26.780  1.00  0.00     0.173 A 
ATOM     75  C   UNL A   1      42.814  25.454  27.708  1.00  0.00     0.173 A 
ATOM     76  F   UNL A   1      43.921  28.806  26.822  1.00  0.00    -0.203 F 
ATOM     77  C   UNL A   1      44.182  26.768  25.677  1.00  0.00     0.198 A 
ATOM     78  C   UNL A   1      43.305  24.741  26.618  1.00  0.00     0.198 A 
ATOM     79  F   UNL A   1      42.148  24.794  28.666  1.00  0.00    -0.203 F 
ATOM     80  F   UNL A   1      44.803  27.412  24.679  1.00  0.00    -0.200 F 
ATOM     81  C   UNL A   1      43.978  25.399  25.599  1.00  0.00     0.200 A 
ATOM     82  F   UNL A   1      43.119  23.416  26.548  1.00  0.00    -0.200 F 
ATOM     83  F   UNL A   1      44.423  24.714  24.537  1.00  0.00    -0.200 F 
ENDBRANCH  59  73
BRANCH  60  84
ATOM     84  C   UNL A   1      39.087  32.038  35.358  1.00  0.00     0.064 A 
ATOM     85  C   UNL A   1      39.345  33.407  35.526  1.00  0.00     0.173 A 
ATOM     86  C   UNL A   1      38.332  31.391  36.348  1.00  0.00     0.173 A 
ATOM     87  F   UNL A   1      40.079  34.065  34.617  1.00  0.00    -0.203 F 
ATOM     88  C   UNL A   1      38.909  34.089  36.660  1.00  0.00     0.198 A 
ATOM     89  C   UNL A   1      37.875  32.081  37.469  1.00  0.00     0.198 A 
ATOM     90  F   UNL A   1      38.052  30.085  36.233  1.00  0.00    -0.203 F 
ATOM     91  F   UNL A   1      39.230  35.379  36.827  1.00  0.00    -0.200 F 
ATOM     92  C   UNL A   1      38.175  33.426  37.632  1.00  0.00     0.200 A 
ATOM     93  F   UNL A   1      37.158  31.440  38.403  1.00  0.00    -0.200 F 
ATOM     94  F   UNL A   1      37.773  34.078  38.731  1.00  0.00    -0.200 F 
ENDBRANCH  60  84
BRANCH  72  95
ATOM     95  C   UNL A   1      45.258  29.003  34.301  1.00  0.00     0.064 A 
ATOM     96  C   UNL A   1      46.252  29.987  34.221  1.00  0.00     0.173 A 
ATOM     97  C   UNL A   1      45.430  27.965  35.230  1.00  0.00     0.173 A 
ATOM     98  F   UNL A   1      46.141  30.990  33.338  1.00  0.00    -0.203 F 
ATOM     99  C   UNL A   1      47.386  29.923  35.027  1.00  0.00     0.198 A 
ATOM    100  C   UNL A   1      46.549  27.922  36.056  1.00  0.00     0.198 A 
ATOM    101  F   UNL A   1      44.502  27.002  35.350  1.00  0.00    -0.203 F 
ATOM    102  F   UNL A   1      48.345  30.851  34.905  1.00  0.00    -0.200 F 
ATOM    103  C   UNL A   1      47.528  28.898  35.950  1.00  0.00     0.200 A 
ATOM    104  F   UNL A   1      46.678  26.938  36.958  1.00  0.00    -0.200 F 
ATOM    105  F   UNL A   1      48.613  28.847  36.736  1.00  0.00    -0.200 F 
ENDBRANCH  72  95
ENDBRANCH  46  47
ENDBRANCH  39  41
ENDBRANCH  38  39
ENDBRANCH  37  38
ENDBRANCH  36  37
ENDBRANCH   1  36
TORSDOF 20
ENDMDL
MODEL 3
REMARK VINA RESULT:     -11.4      1.321      7.572
REMARK SMILES COc1cccc([C@H]2[NH2+][C@@](CC(C)C)(C(=O)OCCOCCOC(=O)c3ccc(-c4c5nc(c(-c6c(F)c(F)c(F)c(F)c6F)c6ccc([nH]6)c(-c6c(F)c(F)c(F)c(F)c6F)c6nc(c(-c7c(F)c(F)c(F)c(F)c7F)c7ccc4[nH]7)C=C6)C=C5)cc3)[C@H]3C(=O)N(C(C)C)C(=O)[C@H]23)c1O
REMARK SMILES IDX 20 1 19 2 18 3 17 4 15 5 16 6 10 7 8 8 9 9 98 10 89 13 96 14
REMARK SMILES IDX 90 15 92 16 97 17 91 18 7 19 3 20 4 21 99 22 5 23 6 24 2 25
REMARK SMILES IDX 1 26 100 27 11 29 12 30 13 31 14 32 93 33 94 34 95 35 21 36
REMARK SMILES IDX 22 37 23 38 24 39 25 40 26 41 27 42 88 43 28 44 87 45 29 46
REMARK SMILES IDX 30 47 31 48 81 49 32 50 86 51 80 52 82 53 33 54 85 55 79 56
REMARK SMILES IDX 78 57 34 59 66 60 46 61 65 62 47 63 50 64 64 65 83 66 48 67
REMARK SMILES IDX 49 68 63 70 84 71 51 72 35 73 36 74 44 75 37 76 38 77 42 78
REMARK SMILES IDX 45 79 39 80 40 81 43 82 41 83 67 84 68 85 76 86 69 87 70 88
REMARK SMILES IDX 74 89 77 90 71 91 72 92 75 93 73 94 52 95 53 96 61 97 54 98
REMARK SMILES IDX 55 99 59 100 62 101 56 102 57 103 60 104 58 105
REMARK H PARENT 9 11 9 12 100 28 82 58 50 69
REMARK Flexibility Score: inf
ROOT
ATOM      1  O   UNL A   1      32.645  27.762  24.062  1.00  0.00    -0.374 OA
ENDROOT
BRANCH   1   2
ATOM      2  C   UNL A   1      33.186  27.487  22.770  1.00  0.00     0.202 C 
BRANCH   2   3
ATOM      3  C   UNL A   1      33.526  26.030  22.439  1.00  0.00     0.261 C 
BRANCH   3   4
ATOM      4  O   UNL A   1      34.430  25.403  23.371  1.00  0.00    -0.459 OA
BRANCH   4   5
ATOM      5  C   UNL A   1      34.363  24.043  23.413  1.00  0.00     0.369 C 
ATOM      6  O   UNL A   1      34.401  23.343  22.405  1.00  0.00    -0.245 OA
BRANCH   5   7
ATOM      7  C   UNL A   1      34.227  23.441  24.847  1.00  0.00     0.207 C 
ATOM      8  C   UNL A   1      35.788  21.695  25.641  1.00  0.00     0.232 C 
ATOM      9  N   UNL A   1      35.570  23.171  25.471  1.00  0.00    -0.324 N 
ATOM     10  C   UNL A   1      34.839  21.181  24.605  1.00  0.00     0.161 C 
ATOM     11  H   UNL A   1      36.302  23.552  24.871  1.00  0.00     0.347 HD
ATOM     12  H   UNL A   1      35.601  23.616  26.389  1.00  0.00     0.347 HD
ATOM     13  C   UNL A   1      33.619  22.048  24.860  1.00  0.00     0.171 C 
ATOM     14  C   UNL A   1      34.217  19.826  24.603  1.00  0.00     0.240 C 
ATOM     15  C   UNL A   1      32.679  21.364  23.903  1.00  0.00     0.240 C 
ATOM     16  N   UNL A   1      33.018  20.014  23.939  1.00  0.00    -0.279 N 
ATOM     17  O   UNL A   1      34.690  18.797  25.045  1.00  0.00    -0.274 OA
ATOM     18  O   UNL A   1      31.743  21.880  23.321  1.00  0.00    -0.274 OA
BRANCH   8  19
ATOM     19  C   UNL A   1      37.270  21.446  25.530  1.00  0.00     0.056 A 
ATOM     20  C   UNL A   1      39.506  21.764  26.365  1.00  0.00     0.161 A 
ATOM     21  C   UNL A   1      39.926  20.539  25.864  1.00  0.00     0.050 A 
ATOM     22  C   UNL A   1      38.229  22.264  26.111  1.00  0.00     0.166 A 
ATOM     23  C   UNL A   1      39.023  19.770  25.141  1.00  0.00     0.005 A 
ATOM     24  C   UNL A   1      37.702  20.209  24.997  1.00  0.00     0.014 A 
BRANCH  20  25
ATOM     25  O   UNL A   1      40.307  22.422  27.265  1.00  0.00    -0.493 OA
ATOM     26  C   UNL A   1      41.118  21.436  27.924  1.00  0.00     0.278 C 
ENDBRANCH  20  25
BRANCH  22  27
ATOM     27  O   UNL A   1      37.938  23.535  26.521  1.00  0.00    -0.504 OA
ATOM     28  H   UNL A   1      38.626  24.107  26.798  1.00  0.00     0.293 HD
ENDBRANCH  22  27
ENDBRANCH   8  19
BRANCH   7  29
ATOM     29  C   UNL A   1      33.379  24.507  25.617  1.00  0.00     0.085 C 
BRANCH  29  30
ATOM     30  C   UNL A   1      31.905  24.212  25.955  1.00  0.00    -0.011 C 
ATOM     31  C   UNL A   1      31.745  23.395  27.251  1.00  0.00     0.007 C 
ATOM     32  C   UNL A   1      31.170  25.544  26.148  1.00  0.00     0.007 C 
ENDBRANCH  29  30
ENDBRANCH   7  29
BRANCH  16  33
ATOM     33  C   UNL A   1      32.160  18.930  23.444  1.00  0.00     0.087 C 
ATOM     34  C   UNL A   1      32.555  18.445  22.044  1.00  0.00     0.031 C 
ATOM     35  C   UNL A   1      32.151  17.742  24.407  1.00  0.00     0.031 C 
ENDBRANCH  16  33
ENDBRANCH   5   7
ENDBRANCH   4   5
ENDBRANCH   3   4
ENDBRANCH   2   3
ENDBRANCH   1   2
BRANCH   1  36
ATOM     36  C   UNL A   1      31.819  28.914  24.173  1.00  0.00     0.202 C 
BRANCH  36  37
ATOM     37  C   UNL A   1      31.912  29.700  25.480  1.00  0.00     0.261 C 
BRANCH  37  38
ATOM     38  O   UNL A   1      33.257  30.063  25.820  1.00  0.00    -0.460 OA
BRANCH  38  39
ATOM     39  C   UNL A   1      33.350  31.019  26.775  1.00  0.00     0.338 C 
ATOM     40  O   UNL A   1      32.553  31.910  27.020  1.00  0.00    -0.246 OA
BRANCH  39  41
ATOM     41  C   UNL A   1      34.517  30.734  27.630  1.00  0.00     0.060 A 
ATOM     42  C   UNL A   1      35.494  31.728  27.754  1.00  0.00     0.016 A 
ATOM     43  C   UNL A   1      34.657  29.516  28.296  1.00  0.00     0.016 A 
ATOM     44  C   UNL A   1      36.636  31.499  28.524  1.00  0.00     0.010 A 
ATOM     45  C   UNL A   1      35.791  29.298  29.087  1.00  0.00     0.010 A 
ATOM     46  C   UNL A   1      36.808  30.275  29.183  1.00  0.00    -0.014 A 
BRANCH  46  47
ATOM     47  C   UNL A   1      38.105  29.940  29.839  1.00  0.00     0.031 A 
ATOM     48  C   UNL A   1      38.374  30.497  31.214  1.00  0.00     0.074 A 
ATOM     49  C   UNL A   1      39.036  29.163  29.246  1.00  0.00     0.049 A 
ATOM     50  N   UNL A   1      39.450  30.410  31.956  1.00  0.00    -0.248 NA
ATOM     51  C   UNL A   1      37.280  31.263  31.835  1.00  0.00     0.031 C 
ATOM     52  C   UNL A   1      38.904  28.508  27.947  1.00  0.00     0.029 A 
ATOM     53  N   UNL A   1      40.299  28.810  29.659  1.00  0.00    -0.354 N 
ATOM     54  C   UNL A   1      39.159  31.111  33.118  1.00  0.00     0.074 A 
ATOM     55  C   UNL A   1      37.844  31.689  32.953  1.00  0.00     0.031 C 
ATOM     56  C   UNL A   1      40.059  27.896  27.635  1.00  0.00     0.029 A 
ATOM     57  C   UNL A   1      41.003  28.077  28.731  1.00  0.00     0.049 A 
ATOM     58  H   UNL A   1      40.667  29.059  30.537  1.00  0.00     0.167 HD
ATOM     59  C   UNL A   1      39.893  31.222  34.250  1.00  0.00     0.037 A 
ATOM     60  C   UNL A   1      42.258  27.591  28.770  1.00  0.00     0.037 A 
ATOM     61  C   UNL A   1      41.179  30.612  34.444  1.00  0.00     0.049 A 
ATOM     62  C   UNL A   1      43.077  27.766  30.024  1.00  0.00     0.074 A 
ATOM     63  C   UNL A   1      41.985  30.636  35.567  1.00  0.00     0.029 A 
ATOM     64  N   UNL A   1      41.840  29.856  33.489  1.00  0.00    -0.354 N 
ATOM     65  N   UNL A   1      42.761  28.374  31.141  1.00  0.00    -0.248 NA
ATOM     66  C   UNL A   1      44.414  27.152  30.035  1.00  0.00     0.031 C 
ATOM     67  C   UNL A   1      43.149  29.916  35.283  1.00  0.00     0.029 A 
ATOM     68  C   UNL A   1      43.049  29.411  33.997  1.00  0.00     0.049 A 
ATOM     69  H   UNL A   1      41.501  29.663  32.585  1.00  0.00     0.167 HD
ATOM     70  C   UNL A   1      43.829  28.166  32.003  1.00  0.00     0.074 A 
ATOM     71  C   UNL A   1      44.802  27.375  31.281  1.00  0.00     0.031 C 
ATOM     72  C   UNL A   1      43.987  28.589  33.280  1.00  0.00     0.037 A 
BRANCH  59  73
ATOM     73  C   UNL A   1      39.298  32.011  35.377  1.00  0.00     0.064 A 
ATOM     74  C   UNL A   1      38.468  31.404  36.334  1.00  0.00     0.173 A 
ATOM     75  C   UNL A   1      39.560  33.382  35.510  1.00  0.00     0.173 A 
ATOM     76  F   UNL A   1      38.173  30.098  36.240  1.00  0.00    -0.203 F 
ATOM     77  C   UNL A   1      37.896  32.147  37.361  1.00  0.00     0.198 A 
ATOM     78  C   UNL A   1      39.010  34.116  36.559  1.00  0.00     0.198 A 
ATOM     79  F   UNL A   1      40.350  34.009  34.626  1.00  0.00    -0.203 F 
ATOM     80  F   UNL A   1      37.059  31.557  38.227  1.00  0.00    -0.200 F 
ATOM     81  C   UNL A   1      38.172  33.501  37.476  1.00  0.00     0.200 A 
ATOM     82  F   UNL A   1      39.286  35.422  36.676  1.00  0.00    -0.200 F 
ATOM     83  F   UNL A   1      37.620  34.216  38.466  1.00  0.00    -0.200 F 
ENDBRANCH  59  73
BRANCH  60  84
ATOM     84  C   UNL A   1      42.817  26.835  27.616  1.00  0.00     0.064 A 
ATOM     85  C   UNL A   1      42.693  25.439  27.541  1.00  0.00     0.173 A 
ATOM     86  C   UNL A   1      43.546  27.479  26.605  1.00  0.00     0.173 A 
ATOM     87  F   UNL A   1      42.022  24.776  28.494  1.00  0.00    -0.203 F 
ATOM     88  C   UNL A   1      43.312  24.714  26.525  1.00  0.00     0.198 A 
ATOM     89  C   UNL A   1      44.143  26.754  25.576  1.00  0.00     0.198 A 
ATOM     90  F   UNL A   1      43.691  28.811  26.627  1.00  0.00    -0.203 F 
ATOM     91  F   UNL A   1      43.233  23.376  26.518  1.00  0.00    -0.200 F 
ATOM     92  C   UNL A   1      44.038  25.371  25.544  1.00  0.00     0.200 A 
ATOM     93  F   UNL A   1      44.837  27.392  24.623  1.00  0.00    -0.200 F 
ATOM     94  F   UNL A   1      44.649  24.671  24.579  1.00  0.00    -0.200 F 
ENDBRANCH  60  84
BRANCH  72  95
ATOM     95  C   UNL A   1      45.225  28.155  34.009  1.00  0.00     0.064 A 
ATOM     96  C   UNL A   1      45.266  26.968  34.751  1.00  0.00     0.173 A 
ATOM     97  C   UNL A   1      46.404  28.911  33.908  1.00  0.00     0.173 A 
ATOM     98  F   UNL A   1      44.161  26.219  34.889  1.00  0.00    -0.203 F 
ATOM     99  C   UNL A   1      46.437  26.562  35.385  1.00  0.00     0.198 A 
ATOM    100  C   UNL A   1      47.580  28.487  34.516  1.00  0.00     0.198 A 
ATOM    101  F   UNL A   1      46.417  30.053  33.202  1.00  0.00    -0.203 F 
ATOM    102  F   UNL A   1      46.444  25.445  36.124  1.00  0.00    -0.200 F 
ATOM    103  C   UNL A   1      47.595  27.316  35.258  1.00  0.00     0.200 A 
ATOM    104  F   UNL A   1      48.702  29.208  34.381  1.00  0.00    -0.200 F 
ATOM    105  F   UNL A   1      48.726  26.915  35.857  1.00  0.00    -0.200 F 
ENDBRANCH  72  95
ENDBRANCH  46  47
ENDBRANCH  39  41
ENDBRANCH  38  39
ENDBRANCH  37  38
ENDBRANCH  36  37
ENDBRANCH   1  36
TORSDOF 20
ENDMDL
