MODEL 1
REMARK VINA RESULT:     -11.9      0.000      0.000
REMARK SMILES C[C@H]1OCC[C@@H]1C(=O)Nc1sc2c(c1C(=O)OCCOCCOC(=O)c1ccc(-c3c4nc(c(-c5c(F)c(F)c(F)c(F)c5F)c5ccc([nH]5)c(-c5c(F)c(F)c(F)c(F)c5F)c5nc(c(-c6c(F)c(F)c(F)c(F)c6F)c6ccc3[nH]6)C=C5)C=C4)cc1)CCC2
REMARK SMILES IDX 20 1 19 2 18 3 17 4 15 5 16 6 14 7 10 8 11 9 12 10 13 11
REMARK SMILES IDX 91 12 89 13 90 14 9 15 7 16 8 17 6 19 1 20 2 21 3 22 4 23
REMARK SMILES IDX 5 24 21 25 22 26 23 27 24 28 25 29 26 30 27 31 88 32 28 33
REMARK SMILES IDX 87 34 29 35 30 36 31 37 81 38 32 39 86 40 80 41 82 42 33 43
REMARK SMILES IDX 85 44 79 45 78 46 34 48 66 49 46 50 65 51 47 52 50 53 64 54
REMARK SMILES IDX 83 55 48 56 49 57 63 59 84 60 51 61 35 62 36 63 44 64 37 65
REMARK SMILES IDX 38 66 42 67 45 68 39 69 40 70 43 71 41 72 67 73 68 74 76 75
REMARK SMILES IDX 69 76 70 77 74 78 77 79 71 80 72 81 75 82 73 83 52 84 53 85
REMARK SMILES IDX 61 86 54 87 55 88 59 89 62 90 56 91 57 92 60 93 58 94
REMARK H PARENT 9 18 82 47 50 58
REMARK Flexibility Score: inf
ROOT
ATOM      1  O   UNL A   1      39.164  23.411  27.157  1.00  0.00    -0.374 OA
ENDROOT
BRANCH   1   2
ATOM      2  C   UNL A   1      38.175  24.074  26.342  1.00  0.00     0.202 C 
BRANCH   2   3
ATOM      3  C   UNL A   1      37.220  23.114  25.600  1.00  0.00     0.261 C 
BRANCH   3   4
ATOM      4  O   UNL A   1      36.192  23.825  24.850  1.00  0.00    -0.460 OA
BRANCH   4   5
ATOM      5  C   UNL A   1      35.860  23.260  23.634  1.00  0.00     0.341 C 
ATOM      6  O   UNL A   1      36.613  23.251  22.669  1.00  0.00    -0.246 OA
BRANCH   5   7
ATOM      7  C   UNL A   1      34.535  22.622  23.602  1.00  0.00     0.098 A 
ATOM      8  C   UNL A   1      33.431  23.119  22.905  1.00  0.00     0.110 A 
ATOM      9  S   UNL A   1      31.951  22.330  23.270  1.00  0.00    -0.122 S 
ATOM     10  C   UNL A   1      32.790  21.149  24.085  1.00  0.00     0.011 A 
ATOM     11  C   UNL A   1      34.136  21.384  24.199  1.00  0.00    -0.017 A 
ATOM     12  C   UNL A   1      32.323  19.877  24.674  1.00  0.00     0.047 C 
ATOM     13  C   UNL A   1      34.788  20.252  24.910  1.00  0.00     0.038 C 
ATOM     14  C   UNL A   1      33.682  19.145  24.859  1.00  0.00     0.010 C 
BRANCH   8  15
ATOM     15  N   UNL A   1      33.264  24.168  22.029  1.00  0.00    -0.317 N 
ATOM     16  C   UNL A   1      33.322  25.480  22.431  1.00  0.00     0.230 C 
ATOM     17  O   UNL A   1      33.871  26.282  21.666  1.00  0.00    -0.274 OA
ATOM     18  H   UNL A   1      33.096  23.971  21.080  1.00  0.00     0.170 HD
BRANCH  16  19
ATOM     19  C   UNL A   1      32.685  26.017  23.708  1.00  0.00     0.110 C 
ATOM     20  C   UNL A   1      30.604  27.202  24.463  1.00  0.00     0.039 C 
ATOM     21  C   UNL A   1      31.899  27.316  23.651  1.00  0.00     0.127 C 
ATOM     22  O   UNL A   1      32.681  28.334  24.298  1.00  0.00    -0.378 OA
ATOM     23  C   UNL A   1      33.663  27.709  25.113  1.00  0.00     0.161 C 
ATOM     24  C   UNL A   1      33.598  26.217  24.867  1.00  0.00     0.044 C 
ENDBRANCH  16  19
ENDBRANCH   8  15
ENDBRANCH   5   7
ENDBRANCH   4   5
ENDBRANCH   3   4
ENDBRANCH   2   3
ENDBRANCH   1   2
BRANCH   1  25
ATOM     25  C   UNL A   1      39.678  22.212  26.596  1.00  0.00     0.202 C 
BRANCH  25  26
ATOM     26  C   UNL A   1      40.996  21.709  27.180  1.00  0.00     0.261 C 
BRANCH  26  27
ATOM     27  O   UNL A   1      41.770  22.826  27.589  1.00  0.00    -0.460 OA
BRANCH  27  28
ATOM     28  C   UNL A   1      42.588  23.313  26.622  1.00  0.00     0.338 C 
ATOM     29  O   UNL A   1      43.359  22.720  25.919  1.00  0.00    -0.246 OA
BRANCH  28  30
ATOM     30  C   UNL A   1      42.509  24.770  26.751  1.00  0.00     0.060 A 
ATOM     31  C   UNL A   1      43.175  25.271  27.859  1.00  0.00     0.016 A 
ATOM     32  C   UNL A   1      41.605  25.538  25.995  1.00  0.00     0.016 A 
ATOM     33  C   UNL A   1      42.756  26.477  28.348  1.00  0.00     0.010 A 
ATOM     34  C   UNL A   1      41.200  26.764  26.476  1.00  0.00     0.010 A 
ATOM     35  C   UNL A   1      41.728  27.179  27.689  1.00  0.00    -0.014 A 
BRANCH  35  36
ATOM     36  C   UNL A   1      41.397  28.457  28.275  1.00  0.00     0.031 A 
ATOM     37  C   UNL A   1      42.471  29.446  28.032  1.00  0.00     0.074 A 
ATOM     38  C   UNL A   1      40.301  28.697  29.009  1.00  0.00     0.049 A 
ATOM     39  N   UNL A   1      43.303  29.916  28.901  1.00  0.00    -0.248 NA
ATOM     40  C   UNL A   1      42.810  29.750  26.633  1.00  0.00     0.031 C 
ATOM     41  C   UNL A   1      39.073  27.918  29.137  1.00  0.00     0.029 A 
ATOM     42  N   UNL A   1      40.063  29.784  29.788  1.00  0.00    -0.354 N 
ATOM     43  C   UNL A   1      44.191  30.700  28.179  1.00  0.00     0.074 A 
ATOM     44  C   UNL A   1      43.942  30.435  26.787  1.00  0.00     0.031 C 
ATOM     45  C   UNL A   1      38.138  28.672  29.767  1.00  0.00     0.029 A 
ATOM     46  C   UNL A   1      38.749  29.919  30.202  1.00  0.00     0.049 A 
ATOM     47  H   UNL A   1      40.768  30.423  30.038  1.00  0.00     0.167 HD
ATOM     48  C   UNL A   1      44.903  31.678  28.795  1.00  0.00     0.037 A 
ATOM     49  C   UNL A   1      38.226  31.031  30.776  1.00  0.00     0.037 A 
ATOM     50  C   UNL A   1      45.049  31.398  30.203  1.00  0.00     0.049 A 
ATOM     51  C   UNL A   1      39.362  31.825  31.325  1.00  0.00     0.074 A 
ATOM     52  C   UNL A   1      45.651  30.385  30.926  1.00  0.00     0.029 A 
ATOM     53  N   UNL A   1      44.206  32.028  31.086  1.00  0.00    -0.354 N 
ATOM     54  N   UNL A   1      40.068  31.461  32.358  1.00  0.00    -0.248 NA
ATOM     55  C   UNL A   1      40.003  32.791  30.442  1.00  0.00     0.031 C 
ATOM     56  C   UNL A   1      44.793  30.160  32.043  1.00  0.00     0.029 A 
ATOM     57  C   UNL A   1      43.749  31.082  31.968  1.00  0.00     0.049 A 
ATOM     58  H   UNL A   1      43.971  32.984  31.085  1.00  0.00     0.167 HD
ATOM     59  C   UNL A   1      41.373  31.803  32.035  1.00  0.00     0.074 A 
ATOM     60  C   UNL A   1      41.261  32.687  30.878  1.00  0.00     0.031 C 
ATOM     61  C   UNL A   1      42.431  31.113  32.553  1.00  0.00     0.037 A 
BRANCH  48  62
ATOM     62  C   UNL A   1      45.066  33.056  28.199  1.00  0.00     0.064 A 
ATOM     63  C   UNL A   1      46.366  33.538  27.961  1.00  0.00     0.173 A 
ATOM     64  C   UNL A   1      44.041  34.030  28.148  1.00  0.00     0.173 A 
ATOM     65  F   UNL A   1      47.419  32.706  27.979  1.00  0.00    -0.203 F 
ATOM     66  C   UNL A   1      46.631  34.901  27.806  1.00  0.00     0.198 A 
ATOM     67  C   UNL A   1      44.304  35.381  27.945  1.00  0.00     0.198 A 
ATOM     68  F   UNL A   1      42.757  33.749  28.395  1.00  0.00    -0.203 F 
ATOM     69  F   UNL A   1      47.898  35.324  27.725  1.00  0.00    -0.200 F 
ATOM     70  C   UNL A   1      45.601  35.822  27.814  1.00  0.00     0.200 A 
ATOM     71  F   UNL A   1      43.290  36.257  27.968  1.00  0.00    -0.200 F 
ATOM     72  F   UNL A   1      45.857  37.134  27.740  1.00  0.00    -0.200 F 
ENDBRANCH  48  62
BRANCH  49  73
ATOM     73  C   UNL A   1      36.884  31.627  30.574  1.00  0.00     0.064 A 
ATOM     74  C   UNL A   1      35.996  31.768  31.655  1.00  0.00     0.173 A 
ATOM     75  C   UNL A   1      36.563  32.342  29.404  1.00  0.00     0.173 A 
ATOM     76  F   UNL A   1      36.248  31.155  32.820  1.00  0.00    -0.203 F 
ATOM     77  C   UNL A   1      34.879  32.606  31.582  1.00  0.00     0.198 A 
ATOM     78  C   UNL A   1      35.444  33.171  29.330  1.00  0.00     0.198 A 
ATOM     79  F   UNL A   1      37.382  32.333  28.342  1.00  0.00    -0.203 F 
ATOM     80  F   UNL A   1      34.098  32.774  32.657  1.00  0.00    -0.200 F 
ATOM     81  C   UNL A   1      34.612  33.318  30.424  1.00  0.00     0.200 A 
ATOM     82  F   UNL A   1      35.217  33.881  28.216  1.00  0.00    -0.200 F 
ATOM     83  F   UNL A   1      33.583  34.174  30.376  1.00  0.00    -0.200 F 
ENDBRANCH  49  73
BRANCH  61  84
ATOM     84  C   UNL A   1      42.151  30.150  33.674  1.00  0.00     0.064 A 
ATOM     85  C   UNL A   1      41.736  28.820  33.485  1.00  0.00     0.173 A 
ATOM     86  C   UNL A   1      42.429  30.557  34.986  1.00  0.00     0.173 A 
ATOM     87  F   UNL A   1      41.553  28.322  32.254  1.00  0.00    -0.203 F 
ATOM     88  C   UNL A   1      41.552  27.960  34.566  1.00  0.00     0.198 A 
ATOM     89  C   UNL A   1      42.285  29.684  36.060  1.00  0.00     0.198 A 
ATOM     90  F   UNL A   1      42.883  31.798  35.221  1.00  0.00    -0.203 F 
ATOM     91  F   UNL A   1      41.131  26.702  34.363  1.00  0.00    -0.200 F 
ATOM     92  C   UNL A   1      41.831  28.392  35.853  1.00  0.00     0.200 A 
ATOM     93  F   UNL A   1      42.605  30.092  37.296  1.00  0.00    -0.200 F 
ATOM     94  F   UNL A   1      41.691  27.555  36.890  1.00  0.00    -0.200 F 
ENDBRANCH  61  84
ENDBRANCH  35  36
ENDBRANCH  28  30
ENDBRANCH  27  28
ENDBRANCH  26  27
ENDBRANCH  25  26
ENDBRANCH   1  25
TORSDOF 16
ENDMDL
MODEL 2
REMARK VINA RESULT:     -11.7      1.583      2.502
REMARK SMILES C[C@H]1OCC[C@@H]1C(=O)Nc1sc2c(c1C(=O)OCCOCCOC(=O)c1ccc(-c3c4nc(c(-c5c(F)c(F)c(F)c(F)c5F)c5ccc([nH]5)c(-c5c(F)c(F)c(F)c(F)c5F)c5nc(c(-c6c(F)c(F)c(F)c(F)c6F)c6ccc3[nH]6)C=C5)C=C4)cc1)CCC2
REMARK SMILES IDX 20 1 19 2 18 3 17 4 15 5 16 6 14 7 10 8 11 9 12 10 13 11
REMARK SMILES IDX 91 12 89 13 90 14 9 15 7 16 8 17 6 19 1 20 2 21 3 22 4 23
REMARK SMILES IDX 5 24 21 25 22 26 23 27 24 28 25 29 26 30 27 31 88 32 28 33
REMARK SMILES IDX 87 34 29 35 30 36 31 37 81 38 32 39 86 40 80 41 82 42 33 43
REMARK SMILES IDX 85 44 79 45 78 46 34 48 66 49 46 50 65 51 47 52 50 53 64 54
REMARK SMILES IDX 83 55 48 56 49 57 63 59 84 60 51 61 35 62 36 63 44 64 37 65
REMARK SMILES IDX 38 66 42 67 45 68 39 69 40 70 43 71 41 72 67 73 68 74 76 75
REMARK SMILES IDX 69 76 70 77 74 78 77 79 71 80 72 81 75 82 73 83 52 84 53 85
REMARK SMILES IDX 61 86 54 87 55 88 59 89 62 90 56 91 57 92 60 93 58 94
REMARK H PARENT 9 18 82 47 50 58
REMARK Flexibility Score: inf
ROOT
ATOM      1  O   UNL A   1      37.382  21.273  25.220  1.00  0.00    -0.374 OA
ENDROOT
BRANCH   1   2
ATOM      2  C   UNL A   1      36.026  21.764  25.193  1.00  0.00     0.202 C 
BRANCH   2   3
ATOM      3  C   UNL A   1      35.810  23.070  25.990  1.00  0.00     0.261 C 
BRANCH   3   4
ATOM      4  O   UNL A   1      34.947  24.012  25.289  1.00  0.00    -0.460 OA
BRANCH   4   5
ATOM      5  C   UNL A   1      33.664  24.113  25.788  1.00  0.00     0.341 C 
ATOM      6  O   UNL A   1      33.291  23.542  26.806  1.00  0.00    -0.246 OA
BRANCH   5   7
ATOM      7  C   UNL A   1      32.781  25.005  25.021  1.00  0.00     0.098 A 
ATOM      8  C   UNL A   1      31.932  25.960  25.586  1.00  0.00     0.110 A 
ATOM      9  S   UNL A   1      30.819  26.658  24.481  1.00  0.00    -0.122 S 
ATOM     10  C   UNL A   1      31.646  25.960  23.219  1.00  0.00     0.011 A 
ATOM     11  C   UNL A   1      32.661  25.120  23.600  1.00  0.00    -0.017 A 
ATOM     12  C   UNL A   1      31.482  26.126  21.761  1.00  0.00     0.047 C 
ATOM     13  C   UNL A   1      33.350  24.584  22.397  1.00  0.00     0.038 C 
ATOM     14  C   UNL A   1      32.830  25.532  21.264  1.00  0.00     0.010 C 
BRANCH   8  15
ATOM     15  N   UNL A   1      31.747  26.412  26.873  1.00  0.00    -0.317 N 
ATOM     16  C   UNL A   1      31.850  27.739  27.210  1.00  0.00     0.230 C 
ATOM     17  O   UNL A   1      31.048  28.176  28.045  1.00  0.00    -0.274 OA
ATOM     18  H   UNL A   1      31.532  25.760  27.578  1.00  0.00     0.170 HD
BRANCH  16  19
ATOM     19  C   UNL A   1      32.934  28.677  26.689  1.00  0.00     0.110 C 
ATOM     20  C   UNL A   1      35.343  29.247  27.109  1.00  0.00     0.039 C 
ATOM     21  C   UNL A   1      33.918  29.287  27.672  1.00  0.00     0.127 C 
ATOM     22  O   UNL A   1      33.591  30.679  27.817  1.00  0.00    -0.378 OA
ATOM     23  C   UNL A   1      32.788  31.079  26.715  1.00  0.00     0.161 C 
ATOM     24  C   UNL A   1      32.468  29.847  25.896  1.00  0.00     0.044 C 
ENDBRANCH  16  19
ENDBRANCH   8  15
ENDBRANCH   5   7
ENDBRANCH   4   5
ENDBRANCH   3   4
ENDBRANCH   2   3
ENDBRANCH   1   2
BRANCH   1  25
ATOM     25  C   UNL A   1      38.328  22.190  25.747  1.00  0.00     0.202 C 
BRANCH  25  26
ATOM     26  C   UNL A   1      39.623  21.584  26.283  1.00  0.00     0.261 C 
BRANCH  26  27
ATOM     27  O   UNL A   1      40.198  22.487  27.216  1.00  0.00    -0.460 OA
BRANCH  27  28
ATOM     28  C   UNL A   1      41.494  22.793  26.960  1.00  0.00     0.338 C 
ATOM     29  O   UNL A   1      42.440  22.057  26.880  1.00  0.00    -0.246 OA
BRANCH  28  30
ATOM     30  C   UNL A   1      41.562  24.255  27.016  1.00  0.00     0.060 A 
ATOM     31  C   UNL A   1      42.288  24.740  28.094  1.00  0.00     0.016 A 
ATOM     32  C   UNL A   1      40.731  25.072  26.229  1.00  0.00     0.016 A 
ATOM     33  C   UNL A   1      41.996  26.004  28.525  1.00  0.00     0.010 A 
ATOM     34  C   UNL A   1      40.456  26.354  26.651  1.00  0.00     0.010 A 
ATOM     35  C   UNL A   1      41.036  26.773  27.839  1.00  0.00    -0.014 A 
BRANCH  35  36
ATOM     36  C   UNL A   1      40.841  28.104  28.363  1.00  0.00     0.031 A 
ATOM     37  C   UNL A   1      41.942  29.003  27.951  1.00  0.00     0.074 A 
ATOM     38  C   UNL A   1      39.838  28.462  29.180  1.00  0.00     0.049 A 
ATOM     39  N   UNL A   1      42.882  29.472  28.703  1.00  0.00    -0.248 NA
ATOM     40  C   UNL A   1      42.158  29.195  26.509  1.00  0.00     0.031 C 
ATOM     41  C   UNL A   1      38.586  27.775  29.478  1.00  0.00     0.029 A 
ATOM     42  N   UNL A   1      39.744  29.609  29.900  1.00  0.00    -0.354 N 
ATOM     43  C   UNL A   1      43.739  30.148  27.846  1.00  0.00     0.074 A 
ATOM     44  C   UNL A   1      43.338  29.812  26.507  1.00  0.00     0.031 C 
ATOM     45  C   UNL A   1      37.764  28.627  30.139  1.00  0.00     0.029 A 
ATOM     46  C   UNL A   1      38.487  29.856  30.427  1.00  0.00     0.049 A 
ATOM     47  H   UNL A   1      40.507  30.216  30.037  1.00  0.00     0.167 HD
ATOM     48  C   UNL A   1      44.565  31.115  28.323  1.00  0.00     0.037 A 
ATOM     49  C   UNL A   1      38.091  31.035  30.968  1.00  0.00     0.037 A 
ATOM     50  C   UNL A   1      44.833  30.916  29.726  1.00  0.00     0.049 A 
ATOM     51  C   UNL A   1      39.320  31.785  31.350  1.00  0.00     0.074 A 
ATOM     52  C   UNL A   1      45.443  29.914  30.458  1.00  0.00     0.029 A 
ATOM     53  N   UNL A   1      44.120  31.655  30.639  1.00  0.00    -0.354 N 
ATOM     54  N   UNL A   1      40.102  31.442  32.335  1.00  0.00    -0.248 NA
ATOM     55  C   UNL A   1      39.927  32.649  30.345  1.00  0.00     0.031 C 
ATOM     56  C   UNL A   1      44.688  29.817  31.665  1.00  0.00     0.029 A 
ATOM     57  C   UNL A   1      43.698  30.799  31.625  1.00  0.00     0.049 A 
ATOM     58  H   UNL A   1      43.943  32.623  30.595  1.00  0.00     0.167 HD
ATOM     59  C   UNL A   1      41.386  31.677  31.866  1.00  0.00     0.074 A 
ATOM     60  C   UNL A   1      41.213  32.491  30.666  1.00  0.00     0.031 C 
ATOM     61  C   UNL A   1      42.448  30.954  32.329  1.00  0.00     0.037 A 
BRANCH  48  62
ATOM     62  C   UNL A   1      44.749  32.439  27.619  1.00  0.00     0.064 A 
ATOM     63  C   UNL A   1      45.908  32.635  26.846  1.00  0.00     0.173 A 
ATOM     64  C   UNL A   1      44.015  33.611  27.918  1.00  0.00     0.173 A 
ATOM     65  F   UNL A   1      46.682  31.597  26.496  1.00  0.00    -0.203 F 
ATOM     66  C   UNL A   1      46.359  33.913  26.505  1.00  0.00     0.198 A 
ATOM     67  C   UNL A   1      44.443  34.878  27.536  1.00  0.00     0.198 A 
ATOM     68  F   UNL A   1      42.916  33.607  28.679  1.00  0.00    -0.203 F 
ATOM     69  F   UNL A   1      47.541  34.056  25.892  1.00  0.00    -0.200 F 
ATOM     70  C   UNL A   1      45.634  35.034  26.864  1.00  0.00     0.200 A 
ATOM     71  F   UNL A   1      43.729  35.951  27.905  1.00  0.00    -0.200 F 
ATOM     72  F   UNL A   1      46.102  36.261  26.604  1.00  0.00    -0.200 F 
ENDBRANCH  48  62
BRANCH  49  73
ATOM     73  C   UNL A   1      36.773  31.703  30.853  1.00  0.00     0.064 A 
ATOM     74  C   UNL A   1      35.997  31.951  31.999  1.00  0.00     0.173 A 
ATOM     75  C   UNL A   1      36.389  32.380  29.679  1.00  0.00     0.173 A 
ATOM     76  F   UNL A   1      36.317  31.379  33.169  1.00  0.00    -0.203 F 
ATOM     77  C   UNL A   1      34.928  32.853  31.980  1.00  0.00     0.198 A 
ATOM     78  C   UNL A   1      35.318  33.273  29.660  1.00  0.00     0.198 A 
ATOM     79  F   UNL A   1      37.106  32.269  28.552  1.00  0.00    -0.203 F 
ATOM     80  F   UNL A   1      34.259  33.120  33.110  1.00  0.00    -0.200 F 
ATOM     81  C   UNL A   1      34.598  33.524  30.814  1.00  0.00     0.200 A 
ATOM     82  F   UNL A   1      35.032  33.942  28.534  1.00  0.00    -0.200 F 
ATOM     83  F   UNL A   1      33.621  34.440  30.811  1.00  0.00    -0.200 F 
ENDBRANCH  49  73
BRANCH  61  84
ATOM     84  C   UNL A   1      42.224  30.084  33.535  1.00  0.00     0.064 A 
ATOM     85  C   UNL A   1      41.761  28.758  33.476  1.00  0.00     0.173 A 
ATOM     86  C   UNL A   1      42.607  30.577  34.790  1.00  0.00     0.173 A 
ATOM     87  F   UNL A   1      41.477  28.177  32.302  1.00  0.00    -0.203 F 
ATOM     88  C   UNL A   1      41.633  27.985  34.629  1.00  0.00     0.198 A 
ATOM     89  C   UNL A   1      42.517  29.790  35.934  1.00  0.00     0.198 A 
ATOM     90  F   UNL A   1      43.110  31.817  34.900  1.00  0.00    -0.203 F 
ATOM     91  F   UNL A   1      41.166  26.730  34.551  1.00  0.00    -0.200 F 
ATOM     92  C   UNL A   1      42.016  28.501  35.857  1.00  0.00     0.200 A 
ATOM     93  F   UNL A   1      42.937  30.276  37.111  1.00  0.00    -0.200 F 
ATOM     94  F   UNL A   1      41.928  27.747  36.961  1.00  0.00    -0.200 F 
ENDBRANCH  61  84
ENDBRANCH  35  36
ENDBRANCH  28  30
ENDBRANCH  27  28
ENDBRANCH  26  27
ENDBRANCH  25  26
ENDBRANCH   1  25
TORSDOF 16
ENDMDL
MODEL 3
REMARK VINA RESULT:     -11.7      3.808      8.840
REMARK SMILES C[C@H]1OCC[C@@H]1C(=O)Nc1sc2c(c1C(=O)OCCOCCOC(=O)c1ccc(-c3c4nc(c(-c5c(F)c(F)c(F)c(F)c5F)c5ccc([nH]5)c(-c5c(F)c(F)c(F)c(F)c5F)c5nc(c(-c6c(F)c(F)c(F)c(F)c6F)c6ccc3[nH]6)C=C5)C=C4)cc1)CCC2
REMARK SMILES IDX 20 1 19 2 18 3 17 4 15 5 16 6 14 7 10 8 11 9 12 10 13 11
REMARK SMILES IDX 91 12 89 13 90 14 9 15 7 16 8 17 6 19 1 20 2 21 3 22 4 23
REMARK SMILES IDX 5 24 21 25 22 26 23 27 24 28 25 29 26 30 27 31 88 32 28 33
REMARK SMILES IDX 87 34 29 35 30 36 31 37 81 38 32 39 86 40 80 41 82 42 33 43
REMARK SMILES IDX 85 44 79 45 78 46 34 48 66 49 46 50 65 51 47 52 50 53 64 54
REMARK SMILES IDX 83 55 48 56 49 57 63 59 84 60 51 61 35 62 36 63 44 64 37 65
REMARK SMILES IDX 38 66 42 67 45 68 39 69 40 70 43 71 41 72 67 73 68 74 76 75
REMARK SMILES IDX 69 76 70 77 74 78 77 79 71 80 72 81 75 82 73 83 52 84 53 85
REMARK SMILES IDX 61 86 54 87 55 88 59 89 62 90 56 91 57 92 60 93 58 94
REMARK H PARENT 9 18 82 47 50 58
REMARK Flexibility Score: inf
ROOT
ATOM      1  O   UNL A   1      33.786  29.907  26.474  1.00  0.00    -0.374 OA
ENDROOT
BRANCH   1   2
ATOM      2  C   UNL A   1      33.705  28.530  26.896  1.00  0.00     0.202 C 
BRANCH   2   3
ATOM      3  C   UNL A   1      32.370  28.155  27.579  1.00  0.00     0.261 C 
BRANCH   3   4
ATOM      4  O   UNL A   1      31.274  28.036  26.626  1.00  0.00    -0.460 OA
BRANCH   4   5
ATOM      5  C   UNL A   1      31.112  26.780  26.075  1.00  0.00     0.341 C 
ATOM      6  O   UNL A   1      30.550  25.859  26.653  1.00  0.00    -0.246 OA
BRANCH   5   7
ATOM      7  C   UNL A   1      31.632  26.646  24.705  1.00  0.00     0.098 A 
ATOM      8  C   UNL A   1      31.804  27.707  23.813  1.00  0.00     0.110 A 
ATOM      9  S   UNL A   1      32.156  27.226  22.204  1.00  0.00    -0.122 S 
ATOM     10  C   UNL A   1      32.397  25.668  22.729  1.00  0.00     0.011 A 
ATOM     11  C   UNL A   1      32.107  25.463  24.053  1.00  0.00    -0.017 A 
ATOM     12  C   UNL A   1      32.903  24.483  22.007  1.00  0.00     0.047 C 
ATOM     13  C   UNL A   1      32.391  24.051  24.421  1.00  0.00     0.038 C 
ATOM     14  C   UNL A   1      33.251  23.558  23.207  1.00  0.00     0.010 C 
BRANCH   8  15
ATOM     15  N   UNL A   1      31.677  29.072  23.937  1.00  0.00    -0.317 N 
ATOM     16  C   UNL A   1      30.463  29.709  23.869  1.00  0.00     0.230 C 
ATOM     17  O   UNL A   1      30.280  30.663  24.636  1.00  0.00    -0.274 OA
ATOM     18  H   UNL A   1      32.488  29.612  24.081  1.00  0.00     0.170 HD
BRANCH  16  19
ATOM     19  C   UNL A   1      29.371  29.372  22.859  1.00  0.00     0.110 C 
ATOM     20  C   UNL A   1      28.025  30.475  21.048  1.00  0.00     0.039 C 
ATOM     21  C   UNL A   1      28.302  30.408  22.554  1.00  0.00     0.127 C 
ATOM     22  O   UNL A   1      27.075  29.968  23.161  1.00  0.00    -0.378 OA
ATOM     23  C   UNL A   1      27.174  28.578  23.440  1.00  0.00     0.161 C 
ATOM     24  C   UNL A   1      28.587  28.135  23.124  1.00  0.00     0.044 C 
ENDBRANCH  16  19
ENDBRANCH   8  15
ENDBRANCH   5   7
ENDBRANCH   4   5
ENDBRANCH   3   4
ENDBRANCH   2   3
ENDBRANCH   1   2
BRANCH   1  25
ATOM     25  C   UNL A   1      32.991  30.802  27.237  1.00  0.00     0.202 C 
BRANCH  25  26
ATOM     26  C   UNL A   1      33.681  32.082  27.703  1.00  0.00     0.261 C 
BRANCH  26  27
ATOM     27  O   UNL A   1      34.566  31.762  28.767  1.00  0.00    -0.460 OA
BRANCH  27  28
ATOM     28  C   UNL A   1      35.812  32.276  28.620  1.00  0.00     0.338 C 
ATOM     29  O   UNL A   1      36.155  33.264  28.030  1.00  0.00    -0.246 OA
BRANCH  28  30
ATOM     30  C   UNL A   1      36.715  31.251  29.150  1.00  0.00     0.060 A 
ATOM     31  C   UNL A   1      37.972  31.731  29.483  1.00  0.00     0.016 A 
ATOM     32  C   UNL A   1      36.427  29.878  29.048  1.00  0.00     0.016 A 
ATOM     33  C   UNL A   1      39.003  30.833  29.487  1.00  0.00     0.010 A 
ATOM     34  C   UNL A   1      37.464  28.971  29.075  1.00  0.00     0.010 A 
ATOM     35  C   UNL A   1      38.748  29.475  29.218  1.00  0.00    -0.014 A 
BRANCH  35  36
ATOM     36  C   UNL A   1      39.907  28.616  29.288  1.00  0.00     0.031 A 
ATOM     37  C   UNL A   1      40.276  28.336  30.693  1.00  0.00     0.074 A 
ATOM     38  C   UNL A   1      40.607  28.192  28.224  1.00  0.00     0.049 A 
ATOM     39  N   UNL A   1      41.299  28.797  31.332  1.00  0.00    -0.248 NA
ATOM     40  C   UNL A   1      39.270  27.677  31.540  1.00  0.00     0.031 C 
ATOM     41  C   UNL A   1      40.245  28.189  26.809  1.00  0.00     0.029 A 
ATOM     42  N   UNL A   1      41.831  27.607  28.234  1.00  0.00    -0.354 N 
ATOM     43  C   UNL A   1      41.144  28.363  32.642  1.00  0.00     0.074 A 
ATOM     44  C   UNL A   1      39.815  27.824  32.746  1.00  0.00     0.031 C 
ATOM     45  C   UNL A   1      41.136  27.424  26.131  1.00  0.00     0.029 A 
ATOM     46  C   UNL A   1      42.194  27.010  27.039  1.00  0.00     0.049 A 
ATOM     47  H   UNL A   1      42.415  27.609  29.027  1.00  0.00     0.167 HD
ATOM     48  C   UNL A   1      42.218  28.278  33.469  1.00  0.00     0.037 A 
ATOM     49  C   UNL A   1      43.247  26.169  26.879  1.00  0.00     0.037 A 
ATOM     50  C   UNL A   1      43.267  29.172  33.043  1.00  0.00     0.049 A 
ATOM     51  C   UNL A   1      44.184  26.409  28.012  1.00  0.00     0.074 A 
ATOM     52  C   UNL A   1      43.368  30.545  32.913  1.00  0.00     0.029 A 
ATOM     53  N   UNL A   1      44.310  28.656  32.313  1.00  0.00    -0.354 N 
ATOM     54  N   UNL A   1      44.897  27.492  28.146  1.00  0.00    -0.248 NA
ATOM     55  C   UNL A   1      43.979  25.643  29.236  1.00  0.00     0.031 C 
ATOM     56  C   UNL A   1      44.155  30.754  31.742  1.00  0.00     0.029 A 
ATOM     57  C   UNL A   1      44.533  29.502  31.256  1.00  0.00     0.049 A 
ATOM     58  H   UNL A   1      44.807  27.830  32.511  1.00  0.00     0.167 HD
ATOM     59  C   UNL A   1      44.865  27.773  29.504  1.00  0.00     0.074 A 
ATOM     60  C   UNL A   1      44.350  26.560  30.134  1.00  0.00     0.031 C 
ATOM     61  C   UNL A   1      44.985  29.053  29.962  1.00  0.00     0.037 A 
BRANCH  48  62
ATOM     62  C   UNL A   1      42.453  27.085  34.366  1.00  0.00     0.064 A 
ATOM     63  C   UNL A   1      42.191  27.216  35.743  1.00  0.00     0.173 A 
ATOM     64  C   UNL A   1      43.208  25.946  34.000  1.00  0.00     0.173 A 
ATOM     65  F   UNL A   1      41.479  28.254  36.208  1.00  0.00    -0.203 F 
ATOM     66  C   UNL A   1      42.742  26.345  36.684  1.00  0.00     0.198 A 
ATOM     67  C   UNL A   1      43.716  25.054  34.938  1.00  0.00     0.198 A 
ATOM     68  F   UNL A   1      43.583  25.696  32.741  1.00  0.00    -0.203 F 
ATOM     69  F   UNL A   1      42.582  26.593  37.990  1.00  0.00    -0.200 F 
ATOM     70  C   UNL A   1      43.518  25.274  36.282  1.00  0.00     0.200 A 
ATOM     71  F   UNL A   1      44.475  24.029  34.525  1.00  0.00    -0.200 F 
ATOM     72  F   UNL A   1      44.109  24.481  37.185  1.00  0.00    -0.200 F 
ENDBRANCH  48  62
BRANCH  49  73
ATOM     73  C   UNL A   1      43.331  24.949  26.043  1.00  0.00     0.064 A 
ATOM     74  C   UNL A   1      44.436  24.737  25.200  1.00  0.00     0.173 A 
ATOM     75  C   UNL A   1      42.500  23.836  26.275  1.00  0.00     0.173 A 
ATOM     76  F   UNL A   1      45.302  25.732  24.958  1.00  0.00    -0.203 F 
ATOM     77  C   UNL A   1      44.715  23.478  24.657  1.00  0.00     0.198 A 
ATOM     78  C   UNL A   1      42.774  22.583  25.727  1.00  0.00     0.198 A 
ATOM     79  F   UNL A   1      41.462  23.913  27.120  1.00  0.00    -0.203 F 
ATOM     80  F   UNL A   1      45.819  23.298  23.920  1.00  0.00    -0.200 F 
ATOM     81  C   UNL A   1      43.891  22.399  24.932  1.00  0.00     0.200 A 
ATOM     82  F   UNL A   1      41.989  21.540  26.030  1.00  0.00    -0.200 F 
ATOM     83  F   UNL A   1      44.196  21.179  24.472  1.00  0.00    -0.200 F 
ENDBRANCH  49  73
BRANCH  61  84
ATOM     84  C   UNL A   1      45.409  30.107  28.976  1.00  0.00     0.064 A 
ATOM     85  C   UNL A   1      44.532  30.753  28.087  1.00  0.00     0.173 A 
ATOM     86  C   UNL A   1      46.733  30.562  29.018  1.00  0.00     0.173 A 
ATOM     87  F   UNL A   1      43.226  30.450  28.063  1.00  0.00    -0.203 F 
ATOM     88  C   UNL A   1      44.978  31.765  27.239  1.00  0.00     0.198 A 
ATOM     89  C   UNL A   1      47.167  31.601  28.201  1.00  0.00     0.198 A 
ATOM     90  F   UNL A   1      47.602  30.022  29.888  1.00  0.00    -0.203 F 
ATOM     91  F   UNL A   1      44.128  32.350  26.382  1.00  0.00    -0.200 F 
ATOM     92  C   UNL A   1      46.295  32.192  27.301  1.00  0.00     0.200 A 
ATOM     93  F   UNL A   1      48.428  32.045  28.300  1.00  0.00    -0.200 F 
ATOM     94  F   UNL A   1      46.717  33.191  26.513  1.00  0.00    -0.200 F 
ENDBRANCH  61  84
ENDBRANCH  35  36
ENDBRANCH  28  30
ENDBRANCH  27  28
ENDBRANCH  26  27
ENDBRANCH  25  26
ENDBRANCH   1  25
TORSDOF 16
ENDMDL
