MODEL 1
REMARK VINA RESULT:     -10.8      0.000      0.000
REMARK SMILES [NH3+][C@]1(C(=O)OCCOCCOC(=O)c2ccc(-c3c4nc(c(-c5c(F)c(F)c(F)c(F)c5F)c5ccc([nH]5)c(-c5c(F)c(F)c(F)c(F)c5F)c5nc(c(-c6c(F)c(F)c(F)c(F)c6F)c6ccc3[nH]6)C=C5)C=C4)cc2)CCC[C@@H](OC2CCC2)C1
REMARK SMILES IDX 8 1 7 2 6 3 5 4 3 5 4 6 2 7 77 8 86 9 78 10 80 11 79 12 1 13
REMARK SMILES IDX 81 17 82 18 83 19 85 20 84 21 9 22 10 23 11 24 12 25 13 26
REMARK SMILES IDX 14 27 15 28 76 29 16 30 75 31 17 32 18 33 19 34 69 35 20 36
REMARK SMILES IDX 74 37 68 38 70 39 21 40 73 41 67 42 66 43 22 45 54 46 34 47
REMARK SMILES IDX 53 48 35 49 38 50 52 51 71 52 36 53 37 54 51 56 72 57 39 58
REMARK SMILES IDX 23 59 24 60 32 61 25 62 26 63 30 64 33 65 27 66 28 67 31 68
REMARK SMILES IDX 29 69 55 70 56 71 64 72 57 73 58 74 62 75 65 76 59 77 60 78
REMARK SMILES IDX 63 79 61 80 40 81 41 82 49 83 42 84 43 85 47 86 50 87 44 88
REMARK SMILES IDX 45 89 48 90 46 91
REMARK H PARENT 1 14 1 15 1 16 70 44 38 55
REMARK Flexibility Score: inf
ROOT
ATOM      1  O   UNL A   1      46.011  21.196  25.748  1.00  0.00    -0.374 OA
ENDROOT
BRANCH   1   2
ATOM      2  C   UNL A   1      45.893  20.523  24.486  1.00  0.00     0.202 C 
BRANCH   2   3
ATOM      3  C   UNL A   1      44.916  19.322  24.592  1.00  0.00     0.261 C 
BRANCH   3   4
ATOM      4  O   UNL A   1      43.534  19.786  24.654  1.00  0.00    -0.459 OA
BRANCH   4   5
ATOM      5  C   UNL A   1      42.714  19.204  25.592  1.00  0.00     0.368 C 
ATOM      6  O   UNL A   1      42.641  17.990  25.757  1.00  0.00    -0.245 OA
BRANCH   5   7
ATOM      7  C   UNL A   1      41.918  20.288  26.481  1.00  0.00     0.195 C 
ATOM      8  C   UNL A   1      42.102  21.695  25.830  1.00  0.00     0.081 C 
ATOM      9  C   UNL A   1      40.403  19.923  26.711  1.00  0.00     0.113 C 
ATOM     10  C   UNL A   1      41.035  22.773  26.087  1.00  0.00     0.010 C 
ATOM     11  C   UNL A   1      39.328  20.986  26.363  1.00  0.00     0.125 C 
ATOM     12  C   UNL A   1      39.820  22.326  26.888  1.00  0.00     0.032 C 
BRANCH   7  13
ATOM     13  N   UNL A   1      42.626  20.339  27.790  1.00  0.00    -0.343 N 
ATOM     14  H   UNL A   1      43.292  19.568  27.846  1.00  0.00     0.345 HD
ATOM     15  H   UNL A   1      41.948  20.259  28.547  1.00  0.00     0.345 HD
ATOM     16  H   UNL A   1      43.124  21.225  27.872  1.00  0.00     0.345 HD
ENDBRANCH   7  13
BRANCH  11  17
ATOM     17  O   UNL A   1      38.842  21.300  25.051  1.00  0.00    -0.375 OA
BRANCH  17  18
ATOM     18  C   UNL A   1      37.499  21.572  24.627  1.00  0.00     0.118 C 
ATOM     19  C   UNL A   1      36.390  21.378  25.706  1.00  0.00     0.032 C 
ATOM     20  C   UNL A   1      37.042  22.998  24.546  1.00  0.00     0.032 C 
ATOM     21  C   UNL A   1      35.722  22.673  25.213  1.00  0.00     0.005 C 
ENDBRANCH  17  18
ENDBRANCH  11  17
ENDBRANCH   5   7
ENDBRANCH   4   5
ENDBRANCH   3   4
ENDBRANCH   2   3
ENDBRANCH   1   2
BRANCH   1  22
ATOM     22  C   UNL A   1      45.669  22.592  25.787  1.00  0.00     0.202 C 
BRANCH  22  23
ATOM     23  C   UNL A   1      45.225  23.214  24.443  1.00  0.00     0.261 C 
BRANCH  23  24
ATOM     24  O   UNL A   1      44.242  24.232  24.661  1.00  0.00    -0.460 OA
BRANCH  24  25
ATOM     25  C   UNL A   1      44.788  25.384  25.104  1.00  0.00     0.338 C 
ATOM     26  O   UNL A   1      45.743  25.979  24.640  1.00  0.00    -0.246 OA
BRANCH  25  27
ATOM     27  C   UNL A   1      43.836  26.005  26.030  1.00  0.00     0.060 A 
ATOM     28  C   UNL A   1      44.007  27.375  26.246  1.00  0.00     0.016 A 
ATOM     29  C   UNL A   1      42.842  25.279  26.688  1.00  0.00     0.016 A 
ATOM     30  C   UNL A   1      43.238  28.015  27.203  1.00  0.00     0.010 A 
ATOM     31  C   UNL A   1      42.066  25.926  27.651  1.00  0.00     0.010 A 
ATOM     32  C   UNL A   1      42.305  27.280  27.944  1.00  0.00    -0.014 A 
BRANCH  32  33
ATOM     33  C   UNL A   1      41.737  27.919  29.149  1.00  0.00     0.031 A 
ATOM     34  C   UNL A   1      42.487  27.794  30.444  1.00  0.00     0.074 A 
ATOM     35  C   UNL A   1      40.646  28.694  29.047  1.00  0.00     0.049 A 
ATOM     36  N   UNL A   1      42.240  28.347  31.603  1.00  0.00    -0.248 NA
ATOM     37  C   UNL A   1      43.688  26.940  30.429  1.00  0.00     0.031 C 
ATOM     38  C   UNL A   1      39.884  28.916  27.818  1.00  0.00     0.029 A 
ATOM     39  N   UNL A   1      40.003  29.452  29.988  1.00  0.00    -0.354 N 
ATOM     40  C   UNL A   1      43.252  27.913  32.449  1.00  0.00     0.074 A 
ATOM     41  C   UNL A   1      44.100  27.026  31.685  1.00  0.00     0.031 C 
ATOM     42  C   UNL A   1      38.875  29.761  28.082  1.00  0.00     0.029 A 
ATOM     43  C   UNL A   1      38.906  30.115  29.498  1.00  0.00     0.049 A 
ATOM     44  H   UNL A   1      40.298  29.516  30.925  1.00  0.00     0.167 HD
ATOM     45  C   UNL A   1      43.457  28.240  33.746  1.00  0.00     0.037 A 
ATOM     46  C   UNL A   1      38.024  30.908  30.134  1.00  0.00     0.037 A 
ATOM     47  C   UNL A   1      42.604  29.127  34.491  1.00  0.00     0.049 A 
ATOM     48  C   UNL A   1      38.235  31.198  31.597  1.00  0.00     0.074 A 
ATOM     49  C   UNL A   1      42.725  29.541  35.804  1.00  0.00     0.029 A 
ATOM     50  N   UNL A   1      41.462  29.729  33.981  1.00  0.00    -0.354 N 
ATOM     51  N   UNL A   1      39.208  30.805  32.386  1.00  0.00    -0.248 NA
ATOM     52  C   UNL A   1      37.230  32.040  32.258  1.00  0.00     0.031 C 
ATOM     53  C   UNL A   1      41.624  30.352  36.105  1.00  0.00     0.029 A 
ATOM     54  C   UNL A   1      40.846  30.483  34.965  1.00  0.00     0.049 A 
ATOM     55  H   UNL A   1      41.137  29.633  33.056  1.00  0.00     0.167 HD
ATOM     56  C   UNL A   1      38.941  31.360  33.629  1.00  0.00     0.074 A 
ATOM     57  C   UNL A   1      37.726  32.138  33.483  1.00  0.00     0.031 C 
ATOM     58  C   UNL A   1      39.631  31.237  34.790  1.00  0.00     0.037 A 
BRANCH  45  59
ATOM     59  C   UNL A   1      44.625  27.611  34.445  1.00  0.00     0.064 A 
ATOM     60  C   UNL A   1      45.905  28.187  34.415  1.00  0.00     0.173 A 
ATOM     61  C   UNL A   1      44.456  26.429  35.180  1.00  0.00     0.173 A 
ATOM     62  F   UNL A   1      46.125  29.307  33.710  1.00  0.00    -0.203 F 
ATOM     63  C   UNL A   1      46.974  27.591  35.079  1.00  0.00     0.198 A 
ATOM     64  C   UNL A   1      45.521  25.850  35.864  1.00  0.00     0.198 A 
ATOM     65  F   UNL A   1      43.253  25.837  35.239  1.00  0.00    -0.203 F 
ATOM     66  F   UNL A   1      48.197  28.135  35.002  1.00  0.00    -0.200 F 
ATOM     67  C   UNL A   1      46.780  26.428  35.809  1.00  0.00     0.200 A 
ATOM     68  F   UNL A   1      45.329  24.730  36.574  1.00  0.00    -0.200 F 
ATOM     69  F   UNL A   1      47.808  25.859  36.452  1.00  0.00    -0.200 F 
ENDBRANCH  45  59
BRANCH  46  70
ATOM     70  C   UNL A   1      36.859  31.460  29.397  1.00  0.00     0.064 A 
ATOM     71  C   UNL A   1      35.796  30.643  28.991  1.00  0.00     0.173 A 
ATOM     72  C   UNL A   1      36.786  32.826  29.084  1.00  0.00     0.173 A 
ATOM     73  F   UNL A   1      35.827  29.327  29.248  1.00  0.00    -0.203 F 
ATOM     74  C   UNL A   1      34.711  31.168  28.291  1.00  0.00     0.198 A 
ATOM     75  C   UNL A   1      35.690  33.356  28.409  1.00  0.00     0.198 A 
ATOM     76  F   UNL A   1      37.778  33.652  29.449  1.00  0.00    -0.203 F 
ATOM     77  F   UNL A   1      33.727  30.358  27.879  1.00  0.00    -0.200 F 
ATOM     78  C   UNL A   1      34.656  32.525  28.006  1.00  0.00     0.200 A 
ATOM     79  F   UNL A   1      35.636  34.669  28.149  1.00  0.00    -0.200 F 
ATOM     80  F   UNL A   1      33.610  33.031  27.338  1.00  0.00    -0.200 F 
ENDBRANCH  46  70
BRANCH  58  81
ATOM     81  C   UNL A   1      39.087  31.961  35.986  1.00  0.00     0.064 A 
ATOM     82  C   UNL A   1      38.204  31.334  36.877  1.00  0.00     0.173 A 
ATOM     83  C   UNL A   1      39.485  33.276  36.266  1.00  0.00     0.173 A 
ATOM     84  F   UNL A   1      37.783  30.082  36.644  1.00  0.00    -0.203 F 
ATOM     85  C   UNL A   1      37.718  32.011  37.993  1.00  0.00     0.198 A 
ATOM     86  C   UNL A   1      39.021  33.938  37.398  1.00  0.00     0.198 A 
ATOM     87  F   UNL A   1      40.336  33.913  35.447  1.00  0.00    -0.203 F 
ATOM     88  F   UNL A   1      36.839  31.410  38.807  1.00  0.00    -0.200 F 
ATOM     89  C   UNL A   1      38.133  33.308  38.257  1.00  0.00     0.200 A 
ATOM     90  F   UNL A   1      39.434  35.185  37.659  1.00  0.00    -0.200 F 
ATOM     91  F   UNL A   1      37.671  33.953  39.336  1.00  0.00    -0.200 F 
ENDBRANCH  58  81
ENDBRANCH  32  33
ENDBRANCH  25  27
ENDBRANCH  24  25
ENDBRANCH  23  24
ENDBRANCH  22  23
ENDBRANCH   1  22
TORSDOF 17
ENDMDL
MODEL 2
REMARK VINA RESULT:     -10.6      4.930      8.222
REMARK SMILES [NH3+][C@]1(C(=O)OCCOCCOC(=O)c2ccc(-c3c4nc(c(-c5c(F)c(F)c(F)c(F)c5F)c5ccc([nH]5)c(-c5c(F)c(F)c(F)c(F)c5F)c5nc(c(-c6c(F)c(F)c(F)c(F)c6F)c6ccc3[nH]6)C=C5)C=C4)cc2)CCC[C@@H](OC2CCC2)C1
REMARK SMILES IDX 8 1 7 2 6 3 5 4 3 5 4 6 2 7 77 8 86 9 78 10 80 11 79 12 1 13
REMARK SMILES IDX 81 17 82 18 83 19 85 20 84 21 9 22 10 23 11 24 12 25 13 26
REMARK SMILES IDX 14 27 15 28 76 29 16 30 75 31 17 32 18 33 19 34 69 35 20 36
REMARK SMILES IDX 74 37 68 38 70 39 21 40 73 41 67 42 66 43 22 45 54 46 34 47
REMARK SMILES IDX 53 48 35 49 38 50 52 51 71 52 36 53 37 54 51 56 72 57 39 58
REMARK SMILES IDX 23 59 24 60 32 61 25 62 26 63 30 64 33 65 27 66 28 67 31 68
REMARK SMILES IDX 29 69 55 70 56 71 64 72 57 73 58 74 62 75 65 76 59 77 60 78
REMARK SMILES IDX 63 79 61 80 40 81 41 82 49 83 42 84 43 85 47 86 50 87 44 88
REMARK SMILES IDX 45 89 48 90 46 91
REMARK H PARENT 1 14 1 15 1 16 70 44 38 55
REMARK Flexibility Score: inf
ROOT
ATOM      1  O   UNL A   1      36.022  22.180  23.971  1.00  0.00    -0.374 OA
ENDROOT
BRANCH   1   2
ATOM      2  C   UNL A   1      34.956  23.086  24.291  1.00  0.00     0.202 C 
BRANCH   2   3
ATOM      3  C   UNL A   1      34.191  23.510  23.008  1.00  0.00     0.261 C 
BRANCH   3   4
ATOM      4  O   UNL A   1      34.402  24.926  22.727  1.00  0.00    -0.459 OA
BRANCH   4   5
ATOM      5  C   UNL A   1      33.442  25.571  21.982  1.00  0.00     0.368 C 
ATOM      6  O   UNL A   1      33.141  25.234  20.841  1.00  0.00    -0.245 OA
BRANCH   5   7
ATOM      7  C   UNL A   1      32.724  26.766  22.792  1.00  0.00     0.195 C 
ATOM      8  C   UNL A   1      31.179  26.568  22.702  1.00  0.00     0.081 C 
ATOM      9  C   UNL A   1      33.229  26.913  24.276  1.00  0.00     0.113 C 
ATOM     10  C   UNL A   1      30.291  27.166  23.807  1.00  0.00     0.010 C 
ATOM     11  C   UNL A   1      32.173  26.930  25.415  1.00  0.00     0.125 C 
ATOM     12  C   UNL A   1      31.027  27.824  24.966  1.00  0.00     0.032 C 
BRANCH   7  13
ATOM     13  N   UNL A   1      33.030  28.011  22.033  1.00  0.00    -0.343 N 
ATOM     14  H   UNL A   1      32.446  28.772  22.379  1.00  0.00     0.345 HD
ATOM     15  H   UNL A   1      32.841  27.861  21.042  1.00  0.00     0.345 HD
ATOM     16  H   UNL A   1      34.013  28.252  22.159  1.00  0.00     0.345 HD
ENDBRANCH   7  13
BRANCH  11  17
ATOM     17  O   UNL A   1      31.507  25.787  25.968  1.00  0.00    -0.375 OA
BRANCH  17  18
ATOM     18  C   UNL A   1      31.811  24.395  25.799  1.00  0.00     0.118 C 
ATOM     19  C   UNL A   1      31.228  23.433  26.877  1.00  0.00     0.032 C 
ATOM     20  C   UNL A   1      31.027  23.602  24.797  1.00  0.00     0.032 C 
ATOM     21  C   UNL A   1      30.866  22.442  25.757  1.00  0.00     0.005 C 
ENDBRANCH  17  18
ENDBRANCH  11  17
ENDBRANCH   5   7
ENDBRANCH   4   5
ENDBRANCH   3   4
ENDBRANCH   2   3
ENDBRANCH   1   2
BRANCH   1  22
ATOM     22  C   UNL A   1      36.181  21.024  24.812  1.00  0.00     0.202 C 
BRANCH  22  23
ATOM     23  C   UNL A   1      37.632  20.527  25.004  1.00  0.00     0.261 C 
BRANCH  23  24
ATOM     24  O   UNL A   1      38.505  21.623  25.295  1.00  0.00    -0.460 OA
BRANCH  24  25
ATOM     25  C   UNL A   1      39.500  21.275  26.139  1.00  0.00     0.338 C 
ATOM     26  O   UNL A   1      40.157  20.251  26.128  1.00  0.00    -0.246 OA
BRANCH  25  27
ATOM     27  C   UNL A   1      39.914  22.480  26.865  1.00  0.00     0.060 A 
ATOM     28  C   UNL A   1      39.261  23.660  26.502  1.00  0.00     0.016 A 
ATOM     29  C   UNL A   1      40.921  22.467  27.832  1.00  0.00     0.016 A 
ATOM     30  C   UNL A   1      39.681  24.864  27.042  1.00  0.00     0.010 A 
ATOM     31  C   UNL A   1      41.342  23.682  28.376  1.00  0.00     0.010 A 
ATOM     32  C   UNL A   1      40.757  24.883  27.937  1.00  0.00    -0.014 A 
BRANCH  32  33
ATOM     33  C   UNL A   1      41.366  26.193  28.243  1.00  0.00     0.031 A 
ATOM     34  C   UNL A   1      42.751  26.473  27.734  1.00  0.00     0.074 A 
ATOM     35  C   UNL A   1      40.640  27.146  28.850  1.00  0.00     0.049 A 
ATOM     36  N   UNL A   1      43.450  27.576  27.792  1.00  0.00    -0.248 NA
ATOM     37  C   UNL A   1      43.441  25.360  27.057  1.00  0.00     0.031 C 
ATOM     38  C   UNL A   1      39.269  26.980  29.329  1.00  0.00     0.029 A 
ATOM     39  N   UNL A   1      40.951  28.445  29.147  1.00  0.00    -0.354 N 
ATOM     40  C   UNL A   1      44.652  27.293  27.157  1.00  0.00     0.074 A 
ATOM     41  C   UNL A   1      44.607  25.907  26.751  1.00  0.00     0.031 C 
ATOM     42  C   UNL A   1      38.853  28.142  29.859  1.00  0.00     0.029 A 
ATOM     43  C   UNL A   1      39.936  29.118  29.780  1.00  0.00     0.049 A 
ATOM     44  H   UNL A   1      41.817  28.858  28.929  1.00  0.00     0.167 HD
ATOM     45  C   UNL A   1      45.693  28.126  26.927  1.00  0.00     0.037 A 
ATOM     46  C   UNL A   1      39.900  30.379  30.249  1.00  0.00     0.037 A 
ATOM     47  C   UNL A   1      45.720  29.504  27.336  1.00  0.00     0.049 A 
ATOM     48  C   UNL A   1      41.103  31.262  30.044  1.00  0.00     0.074 A 
ATOM     49  C   UNL A   1      46.716  30.444  27.142  1.00  0.00     0.029 A 
ATOM     50  N   UNL A   1      44.700  30.135  28.036  1.00  0.00    -0.354 N 
ATOM     51  N   UNL A   1      42.226  30.997  29.421  1.00  0.00    -0.248 NA
ATOM     52  C   UNL A   1      41.032  32.618  30.603  1.00  0.00     0.031 C 
ATOM     53  C   UNL A   1      46.320  31.629  27.772  1.00  0.00     0.029 A 
ATOM     54  C   UNL A   1      45.058  31.443  28.314  1.00  0.00     0.049 A 
ATOM     55  H   UNL A   1      43.849  29.713  28.296  1.00  0.00     0.167 HD
ATOM     56  C   UNL A   1      42.990  32.152  29.501  1.00  0.00     0.074 A 
ATOM     57  C   UNL A   1      42.191  33.130  30.213  1.00  0.00     0.031 C 
ATOM     58  C   UNL A   1      44.243  32.387  29.035  1.00  0.00     0.037 A 
BRANCH  45  59
ATOM     59  C   UNL A   1      46.895  27.559  26.231  1.00  0.00     0.064 A 
ATOM     60  C   UNL A   1      47.935  26.935  26.937  1.00  0.00     0.173 A 
ATOM     61  C   UNL A   1      46.995  27.617  24.833  1.00  0.00     0.173 A 
ATOM     62  F   UNL A   1      47.898  26.871  28.276  1.00  0.00    -0.203 F 
ATOM     63  C   UNL A   1      49.037  26.407  26.270  1.00  0.00     0.198 A 
ATOM     64  C   UNL A   1      48.085  27.065  24.168  1.00  0.00     0.198 A 
ATOM     65  F   UNL A   1      46.028  28.205  24.111  1.00  0.00    -0.203 F 
ATOM     66  F   UNL A   1      50.039  25.851  26.967  1.00  0.00    -0.200 F 
ATOM     67  C   UNL A   1      49.108  26.465  24.886  1.00  0.00     0.200 A 
ATOM     68  F   UNL A   1      48.148  27.117  22.830  1.00  0.00    -0.200 F 
ATOM     69  F   UNL A   1      50.166  25.951  24.245  1.00  0.00    -0.200 F 
ENDBRANCH  45  59
BRANCH  46  70
ATOM     70  C   UNL A   1      38.698  30.864  30.975  1.00  0.00     0.064 A 
ATOM     71  C   UNL A   1      38.613  30.807  32.371  1.00  0.00     0.173 A 
ATOM     72  C   UNL A   1      37.605  31.402  30.277  1.00  0.00     0.173 A 
ATOM     73  F   UNL A   1      39.622  30.283  33.083  1.00  0.00    -0.203 F 
ATOM     74  C   UNL A   1      37.476  31.255  33.042  1.00  0.00     0.198 A 
ATOM     75  C   UNL A   1      36.481  31.876  30.949  1.00  0.00     0.198 A 
ATOM     76  F   UNL A   1      37.636  31.480  28.938  1.00  0.00    -0.203 F 
ATOM     77  F   UNL A   1      37.404  31.151  34.376  1.00  0.00    -0.200 F 
ATOM     78  C   UNL A   1      36.415  31.796  32.331  1.00  0.00     0.200 A 
ATOM     79  F   UNL A   1      35.465  32.409  30.258  1.00  0.00    -0.200 F 
ATOM     80  F   UNL A   1      35.325  32.233  32.977  1.00  0.00    -0.200 F 
ENDBRANCH  46  70
BRANCH  58  81
ATOM     81  C   UNL A   1      44.816  33.752  29.280  1.00  0.00     0.064 A 
ATOM     82  C   UNL A   1      45.600  34.020  30.411  1.00  0.00     0.173 A 
ATOM     83  C   UNL A   1      44.614  34.786  28.355  1.00  0.00     0.173 A 
ATOM     84  F   UNL A   1      45.809  33.065  31.331  1.00  0.00    -0.203 F 
ATOM     85  C   UNL A   1      46.141  35.286  30.619  1.00  0.00     0.198 A 
ATOM     86  C   UNL A   1      45.181  36.042  28.553  1.00  0.00     0.198 A 
ATOM     87  F   UNL A   1      43.878  34.575  27.253  1.00  0.00    -0.203 F 
ATOM     88  F   UNL A   1      46.849  35.534  31.730  1.00  0.00    -0.200 F 
ATOM     89  C   UNL A   1      45.938  36.292  29.687  1.00  0.00     0.200 A 
ATOM     90  F   UNL A   1      44.997  37.008  27.644  1.00  0.00    -0.200 F 
ATOM     91  F   UNL A   1      46.466  37.507  29.886  1.00  0.00    -0.200 F 
ENDBRANCH  58  81
ENDBRANCH  32  33
ENDBRANCH  25  27
ENDBRANCH  24  25
ENDBRANCH  23  24
ENDBRANCH  22  23
ENDBRANCH   1  22
TORSDOF 17
ENDMDL
MODEL 3
REMARK VINA RESULT:     -10.6      3.982      9.313
REMARK SMILES [NH3+][C@]1(C(=O)OCCOCCOC(=O)c2ccc(-c3c4nc(c(-c5c(F)c(F)c(F)c(F)c5F)c5ccc([nH]5)c(-c5c(F)c(F)c(F)c(F)c5F)c5nc(c(-c6c(F)c(F)c(F)c(F)c6F)c6ccc3[nH]6)C=C5)C=C4)cc2)CCC[C@@H](OC2CCC2)C1
REMARK SMILES IDX 8 1 7 2 6 3 5 4 3 5 4 6 2 7 77 8 86 9 78 10 80 11 79 12 1 13
REMARK SMILES IDX 81 17 82 18 83 19 85 20 84 21 9 22 10 23 11 24 12 25 13 26
REMARK SMILES IDX 14 27 15 28 76 29 16 30 75 31 17 32 18 33 19 34 69 35 20 36
REMARK SMILES IDX 74 37 68 38 70 39 21 40 73 41 67 42 66 43 22 45 54 46 34 47
REMARK SMILES IDX 53 48 35 49 38 50 52 51 71 52 36 53 37 54 51 56 72 57 39 58
REMARK SMILES IDX 23 59 24 60 32 61 25 62 26 63 30 64 33 65 27 66 28 67 31 68
REMARK SMILES IDX 29 69 55 70 56 71 64 72 57 73 58 74 62 75 65 76 59 77 60 78
REMARK SMILES IDX 63 79 61 80 40 81 41 82 49 83 42 84 43 85 47 86 50 87 44 88
REMARK SMILES IDX 45 89 48 90 46 91
REMARK H PARENT 1 14 1 15 1 16 70 44 38 55
REMARK Flexibility Score: inf
ROOT
ATOM      1  O   UNL A   1      31.688  28.562  26.108  1.00  0.00    -0.374 OA
ENDROOT
BRANCH   1   2
ATOM      2  C   UNL A   1      31.849  27.413  25.263  1.00  0.00     0.202 C 
BRANCH   2   3
ATOM      3  C   UNL A   1      32.813  26.384  25.911  1.00  0.00     0.261 C 
BRANCH   3   4
ATOM      4  O   UNL A   1      32.539  25.039  25.418  1.00  0.00    -0.459 OA
BRANCH   4   5
ATOM      5  C   UNL A   1      31.603  24.295  26.098  1.00  0.00     0.368 C 
ATOM      6  O   UNL A   1      30.832  24.779  26.921  1.00  0.00    -0.245 OA
BRANCH   5   7
ATOM      7  C   UNL A   1      31.594  22.746  25.651  1.00  0.00     0.195 C 
ATOM      8  C   UNL A   1      31.578  22.680  24.091  1.00  0.00     0.081 C 
ATOM      9  C   UNL A   1      32.767  21.903  26.279  1.00  0.00     0.113 C 
ATOM     10  C   UNL A   1      32.139  21.426  23.399  1.00  0.00     0.010 C 
ATOM     11  C   UNL A   1      33.671  21.075  25.326  1.00  0.00     0.125 C 
ATOM     12  C   UNL A   1      32.766  20.385  24.317  1.00  0.00     0.032 C 
BRANCH   7  13
ATOM     13  N   UNL A   1      30.285  22.200  26.105  1.00  0.00    -0.343 N 
ATOM     14  H   UNL A   1      29.658  22.970  26.338  1.00  0.00     0.345 HD
ATOM     15  H   UNL A   1      30.427  21.615  26.928  1.00  0.00     0.345 HD
ATOM     16  H   UNL A   1      29.874  21.641  25.358  1.00  0.00     0.345 HD
ENDBRANCH   7  13
BRANCH  11  17
ATOM     17  O   UNL A   1      34.742  21.585  24.520  1.00  0.00    -0.375 OA
BRANCH  17  18
ATOM     18  C   UNL A   1      35.441  22.832  24.633  1.00  0.00     0.118 C 
ATOM     19  C   UNL A   1      35.894  23.233  26.070  1.00  0.00     0.032 C 
ATOM     20  C   UNL A   1      36.893  22.883  24.259  1.00  0.00     0.032 C 
ATOM     21  C   UNL A   1      37.238  23.702  25.485  1.00  0.00     0.005 C 
ENDBRANCH  17  18
ENDBRANCH  11  17
ENDBRANCH   5   7
ENDBRANCH   4   5
ENDBRANCH   3   4
ENDBRANCH   2   3
ENDBRANCH   1   2
BRANCH   1  22
ATOM     22  C   UNL A   1      32.165  29.822  25.607  1.00  0.00     0.202 C 
BRANCH  22  23
ATOM     23  C   UNL A   1      31.824  31.061  26.467  1.00  0.00     0.261 C 
BRANCH  23  24
ATOM     24  O   UNL A   1      32.678  31.127  27.615  1.00  0.00    -0.460 OA
BRANCH  24  25
ATOM     25  C   UNL A   1      33.467  32.223  27.604  1.00  0.00     0.338 C 
ATOM     26  O   UNL A   1      33.117  33.388  27.628  1.00  0.00    -0.246 OA
BRANCH  25  27
ATOM     27  C   UNL A   1      34.834  31.795  27.915  1.00  0.00     0.060 A 
ATOM     28  C   UNL A   1      35.007  30.424  28.121  1.00  0.00     0.016 A 
ATOM     29  C   UNL A   1      35.895  32.694  28.037  1.00  0.00     0.016 A 
ATOM     30  C   UNL A   1      36.236  29.950  28.548  1.00  0.00     0.010 A 
ATOM     31  C   UNL A   1      37.133  32.214  28.467  1.00  0.00     0.010 A 
ATOM     32  C   UNL A   1      37.284  30.850  28.774  1.00  0.00    -0.014 A 
BRANCH  32  33
ATOM     33  C   UNL A   1      38.461  30.354  29.516  1.00  0.00     0.031 A 
ATOM     34  C   UNL A   1      38.638  30.783  30.944  1.00  0.00     0.074 A 
ATOM     35  C   UNL A   1      39.273  29.443  28.955  1.00  0.00     0.049 A 
ATOM     36  N   UNL A   1      39.531  30.403  31.820  1.00  0.00    -0.248 NA
ATOM     37  C   UNL A   1      37.669  31.765  31.461  1.00  0.00     0.031 C 
ATOM     38  C   UNL A   1      39.144  28.928  27.593  1.00  0.00     0.029 A 
ATOM     39  N   UNL A   1      40.351  28.776  29.471  1.00  0.00    -0.354 N 
ATOM     40  C   UNL A   1      39.229  31.093  32.987  1.00  0.00     0.074 A 
ATOM     41  C   UNL A   1      38.093  31.940  32.703  1.00  0.00     0.031 C 
ATOM     42  C   UNL A   1      40.109  28.019  27.381  1.00  0.00     0.029 A 
ATOM     43  C   UNL A   1      40.934  27.910  28.582  1.00  0.00     0.049 A 
ATOM     44  H   UNL A   1      40.677  28.905  30.391  1.00  0.00     0.167 HD
ATOM     45  C   UNL A   1      39.844  31.012  34.190  1.00  0.00     0.037 A 
ATOM     46  C   UNL A   1      42.021  27.129  28.726  1.00  0.00     0.037 A 
ATOM     47  C   UNL A   1      40.972  30.162  34.456  1.00  0.00     0.049 A 
ATOM     48  C   UNL A   1      42.730  27.114  30.054  1.00  0.00     0.074 A 
ATOM     49  C   UNL A   1      41.664  29.988  35.640  1.00  0.00     0.029 A 
ATOM     50  N   UNL A   1      41.580  29.346  33.510  1.00  0.00    -0.354 N 
ATOM     51  N   UNL A   1      42.425  27.750  31.161  1.00  0.00    -0.248 NA
ATOM     52  C   UNL A   1      43.930  26.274  30.155  1.00  0.00     0.031 C 
ATOM     53  C   UNL A   1      42.724  29.108  35.397  1.00  0.00     0.029 A 
ATOM     54  C   UNL A   1      42.663  28.694  34.076  1.00  0.00     0.049 A 
ATOM     55  H   UNL A   1      41.284  29.247  32.576  1.00  0.00     0.167 HD
ATOM     56  C   UNL A   1      43.385  27.378  32.092  1.00  0.00     0.074 A 
ATOM     57  C   UNL A   1      44.269  26.443  31.426  1.00  0.00     0.031 C 
ATOM     58  C   UNL A   1      43.529  27.777  33.381  1.00  0.00     0.037 A 
BRANCH  45  59
ATOM     59  C   UNL A   1      39.329  31.888  35.293  1.00  0.00     0.064 A 
ATOM     60  C   UNL A   1      39.675  33.245  35.385  1.00  0.00     0.173 A 
ATOM     61  C   UNL A   1      38.452  31.368  36.257  1.00  0.00     0.173 A 
ATOM     62  F   UNL A   1      40.525  33.787  34.500  1.00  0.00    -0.203 F 
ATOM     63  C   UNL A   1      39.177  34.042  36.413  1.00  0.00     0.198 A 
ATOM     64  C   UNL A   1      37.937  32.175  37.267  1.00  0.00     0.198 A 
ATOM     65  F   UNL A   1      38.092  30.077  36.215  1.00  0.00    -0.203 F 
ATOM     66  F   UNL A   1      39.554  35.327  36.506  1.00  0.00    -0.200 F 
ATOM     67  C   UNL A   1      38.303  33.510  37.348  1.00  0.00     0.200 A 
ATOM     68  F   UNL A   1      37.086  31.659  38.166  1.00  0.00    -0.200 F 
ATOM     69  F   UNL A   1      37.820  34.280  38.332  1.00  0.00    -0.200 F 
ENDBRANCH  45  59
BRANCH  46  70
ATOM     70  C   UNL A   1      42.511  26.323  27.578  1.00  0.00     0.064 A 
ATOM     71  C   UNL A   1      43.503  26.805  26.715  1.00  0.00     0.173 A 
ATOM     72  C   UNL A   1      41.992  25.044  27.325  1.00  0.00     0.173 A 
ATOM     73  F   UNL A   1      44.016  28.030  26.902  1.00  0.00    -0.203 F 
ATOM     74  C   UNL A   1      43.948  26.045  25.635  1.00  0.00     0.198 A 
ATOM     75  C   UNL A   1      42.457  24.273  26.262  1.00  0.00     0.198 A 
ATOM     76  F   UNL A   1      41.040  24.535  28.121  1.00  0.00    -0.203 F 
ATOM     77  F   UNL A   1      44.869  26.546  24.800  1.00  0.00    -0.200 F 
ATOM     78  C   UNL A   1      43.430  24.777  25.413  1.00  0.00     0.200 A 
ATOM     79  F   UNL A   1      41.962  23.044  26.062  1.00  0.00    -0.200 F 
ATOM     80  F   UNL A   1      43.863  24.044  24.378  1.00  0.00    -0.200 F 
ENDBRANCH  46  70
BRANCH  58  81
ATOM     81  C   UNL A   1      44.682  27.198  34.147  1.00  0.00     0.064 A 
ATOM     82  C   UNL A   1      44.566  25.977  34.826  1.00  0.00     0.173 A 
ATOM     83  C   UNL A   1      45.924  27.849  34.165  1.00  0.00     0.173 A 
ATOM     84  F   UNL A   1      43.394  25.325  34.848  1.00  0.00    -0.203 F 
ATOM     85  C   UNL A   1      45.648  25.440  35.519  1.00  0.00     0.198 A 
ATOM     86  C   UNL A   1      47.012  27.294  34.834  1.00  0.00     0.198 A 
ATOM     87  F   UNL A   1      46.086  29.015  33.522  1.00  0.00    -0.203 F 
ATOM     88  F   UNL A   1      45.503  24.296  36.199  1.00  0.00    -0.200 F 
ATOM     89  C   UNL A   1      46.871  26.095  35.515  1.00  0.00     0.200 A 
ATOM     90  F   UNL A   1      48.196  27.921  34.817  1.00  0.00    -0.200 F 
ATOM     91  F   UNL A   1      47.913  25.573  36.176  1.00  0.00    -0.200 F 
ENDBRANCH  58  81
ENDBRANCH  32  33
ENDBRANCH  25  27
ENDBRANCH  24  25
ENDBRANCH  23  24
ENDBRANCH  22  23
ENDBRANCH   1  22
TORSDOF 17
ENDMDL
