MODEL 1
REMARK VINA RESULT:     -11.5      0.000      0.000
REMARK SMILES CC(C)c1ccc([C@]2(C(=O)OCCOCCOC(=O)c3ccc(-c4c5nc(c(-c6c(F)c(F)c(F)c(F)c6F)c6ccc([nH]6)c(-c6c(F)c(F)c(F)c(F)c6F)c6nc(c(-c7c(F)c(F)c(F)c(F)c7F)c7ccc4[nH]7)C=C6)C=C5)cc3)CCC[C@@H]2C)cc1
REMARK SMILES IDX 14 1 13 2 12 3 11 4 9 5 10 6 8 7 83 8 86 9 84 10 85 11 87 12
REMARK SMILES IDX 7 13 4 14 5 15 89 16 6 17 88 18 2 19 1 20 3 21 15 22 16 23
REMARK SMILES IDX 17 24 18 25 19 26 20 27 21 28 82 29 22 30 81 31 23 32 24 33
REMARK SMILES IDX 25 34 75 35 26 36 80 37 74 38 76 39 27 40 79 41 73 42 72 43
REMARK SMILES IDX 28 45 60 46 40 47 59 48 41 49 44 50 58 51 77 52 42 53 43 54
REMARK SMILES IDX 57 56 78 57 45 58 29 59 30 60 38 61 31 62 32 63 36 64 39 65
REMARK SMILES IDX 33 66 34 67 37 68 35 69 61 70 62 71 70 72 63 73 64 74 68 75
REMARK SMILES IDX 71 76 65 77 66 78 69 79 67 80 46 81 47 82 55 83 48 84 49 85
REMARK SMILES IDX 53 86 56 87 50 88 51 89 54 90 52 91
REMARK H PARENT 76 44 44 55
REMARK Flexibility Score: inf
ROOT
ATOM      1  O   UNL A   1      31.870  29.204  24.691  1.00  0.00    -0.374 OA
ENDROOT
BRANCH   1   2
ATOM      2  C   UNL A   1      32.173  28.964  23.315  1.00  0.00     0.202 C 
BRANCH   2   3
ATOM      3  C   UNL A   1      33.615  28.560  23.012  1.00  0.00     0.261 C 
BRANCH   3   4
ATOM      4  O   UNL A   1      33.921  27.311  23.656  1.00  0.00    -0.463 OA
BRANCH   4   5
ATOM      5  C   UNL A   1      33.630  26.196  22.934  1.00  0.00     0.316 C 
ATOM      6  O   UNL A   1      33.797  26.111  21.721  1.00  0.00    -0.251 OA
BRANCH   5   7
ATOM      7  C   UNL A   1      33.036  25.048  23.805  1.00  0.00     0.095 C 
ATOM      8  C   UNL A   1      32.124  25.539  24.961  1.00  0.00     0.024 C 
ATOM      9  C   UNL A   1      31.988  24.329  22.894  1.00  0.00     0.008 C 
ATOM     10  C   UNL A   1      30.760  25.857  24.348  1.00  0.00     0.002 C 
ATOM     11  C   UNL A   1      30.790  25.295  22.930  1.00  0.00     0.005 C 
ATOM     12  C   UNL A   1      31.537  22.940  23.358  1.00  0.00     0.009 C 
BRANCH   7  13
ATOM     13  C   UNL A   1      34.223  24.203  24.295  1.00  0.00    -0.030 A 
ATOM     14  C   UNL A   1      36.291  22.463  25.245  1.00  0.00    -0.045 A 
ATOM     15  C   UNL A   1      35.412  23.095  26.130  1.00  0.00     0.004 A 
ATOM     16  C   UNL A   1      36.126  22.723  23.877  1.00  0.00     0.004 A 
ATOM     17  C   UNL A   1      34.395  23.940  25.664  1.00  0.00     0.005 A 
ATOM     18  C   UNL A   1      35.109  23.568  23.410  1.00  0.00     0.005 A 
BRANCH  14  19
ATOM     19  C   UNL A   1      37.400  21.522  25.701  1.00  0.00     0.013 C 
ATOM     20  C   UNL A   1      37.649  20.315  24.787  1.00  0.00     0.012 C 
ATOM     21  C   UNL A   1      38.723  22.274  25.897  1.00  0.00     0.012 C 
ENDBRANCH  14  19
ENDBRANCH   7  13
ENDBRANCH   5   7
ENDBRANCH   4   5
ENDBRANCH   3   4
ENDBRANCH   2   3
ENDBRANCH   1   2
BRANCH   1  22
ATOM     22  C   UNL A   1      31.060  30.336  24.998  1.00  0.00     0.202 C 
BRANCH  22  23
ATOM     23  C   UNL A   1      31.451  31.122  26.256  1.00  0.00     0.261 C 
BRANCH  23  24
ATOM     24  O   UNL A   1      32.791  30.836  26.694  1.00  0.00    -0.460 OA
BRANCH  24  25
ATOM     25  C   UNL A   1      33.415  31.871  27.308  1.00  0.00     0.338 C 
ATOM     26  O   UNL A   1      32.943  32.970  27.576  1.00  0.00    -0.246 OA
BRANCH  25  27
ATOM     27  C   UNL A   1      34.745  31.462  27.789  1.00  0.00     0.060 A 
ATOM     28  C   UNL A   1      34.924  30.110  28.109  1.00  0.00     0.016 A 
ATOM     29  C   UNL A   1      35.766  32.386  28.018  1.00  0.00     0.016 A 
ATOM     30  C   UNL A   1      36.107  29.684  28.709  1.00  0.00     0.010 A 
ATOM     31  C   UNL A   1      36.951  31.959  28.632  1.00  0.00     0.010 A 
ATOM     32  C   UNL A   1      37.109  30.614  29.014  1.00  0.00    -0.014 A 
BRANCH  32  33
ATOM     33  C   UNL A   1      38.241  30.196  29.878  1.00  0.00     0.031 A 
ATOM     34  C   UNL A   1      39.257  29.233  29.330  1.00  0.00     0.074 A 
ATOM     35  C   UNL A   1      38.393  30.707  31.112  1.00  0.00     0.049 A 
ATOM     36  N   UNL A   1      40.327  28.737  29.899  1.00  0.00    -0.248 NA
ATOM     37  C   UNL A   1      39.040  28.767  27.950  1.00  0.00     0.031 C 
ATOM     38  C   UNL A   1      37.501  31.680  31.738  1.00  0.00     0.029 A 
ATOM     39  N   UNL A   1      39.359  30.475  32.059  1.00  0.00    -0.354 N 
ATOM     40  C   UNL A   1      40.909  27.905  28.951  1.00  0.00     0.074 A 
ATOM     41  C   UNL A   1      40.058  27.938  27.780  1.00  0.00     0.031 C 
ATOM     42  C   UNL A   1      37.957  31.957  32.972  1.00  0.00     0.029 A 
ATOM     43  C   UNL A   1      39.158  31.164  33.228  1.00  0.00     0.049 A 
ATOM     44  H   UNL A   1      40.123  29.872  31.913  1.00  0.00     0.167 HD
ATOM     45  C   UNL A   1      42.053  27.188  29.045  1.00  0.00     0.037 A 
ATOM     46  C   UNL A   1      39.857  31.142  34.381  1.00  0.00     0.037 A 
ATOM     47  C   UNL A   1      42.899  27.157  30.209  1.00  0.00     0.049 A 
ATOM     48  C   UNL A   1      41.089  30.280  34.484  1.00  0.00     0.074 A 
ATOM     49  C   UNL A   1      44.088  26.473  30.393  1.00  0.00     0.029 A 
ATOM     50  N   UNL A   1      42.641  27.836  31.388  1.00  0.00    -0.354 N 
ATOM     51  N   UNL A   1      41.644  29.516  33.575  1.00  0.00    -0.248 NA
ATOM     52  C   UNL A   1      41.792  30.280  35.776  1.00  0.00     0.031 C 
ATOM     53  C   UNL A   1      44.526  26.703  31.702  1.00  0.00     0.029 A 
ATOM     54  C   UNL A   1      43.634  27.568  32.316  1.00  0.00     0.049 A 
ATOM     55  H   UNL A   1      41.866  28.423  31.545  1.00  0.00     0.167 HD
ATOM     56  C   UNL A   1      42.773  28.969  34.172  1.00  0.00     0.074 A 
ATOM     57  C   UNL A   1      42.830  29.496  35.519  1.00  0.00     0.031 C 
ATOM     58  C   UNL A   1      43.681  28.107  33.651  1.00  0.00     0.037 A 
BRANCH  45  59
ATOM     59  C   UNL A   1      42.445  26.355  27.861  1.00  0.00     0.064 A 
ATOM     60  C   UNL A   1      43.335  26.832  26.888  1.00  0.00     0.173 A 
ATOM     61  C   UNL A   1      41.950  25.050  27.717  1.00  0.00     0.173 A 
ATOM     62  F   UNL A   1      43.825  28.079  26.974  1.00  0.00    -0.203 F 
ATOM     63  C   UNL A   1      43.697  26.042  25.800  1.00  0.00     0.198 A 
ATOM     64  C   UNL A   1      42.334  24.253  26.642  1.00  0.00     0.198 A 
ATOM     65  F   UNL A   1      41.098  24.546  28.622  1.00  0.00    -0.203 F 
ATOM     66  F   UNL A   1      44.516  26.533  24.859  1.00  0.00    -0.200 F 
ATOM     67  C   UNL A   1      43.201  24.752  25.681  1.00  0.00     0.200 A 
ATOM     68  F   UNL A   1      41.863  23.003  26.534  1.00  0.00    -0.200 F 
ATOM     69  F   UNL A   1      43.556  23.990  24.636  1.00  0.00    -0.200 F 
ENDBRANCH  45  59
BRANCH  46  70
ATOM     70  C   UNL A   1      39.404  31.956  35.538  1.00  0.00     0.064 A 
ATOM     71  C   UNL A   1      38.511  31.436  36.485  1.00  0.00     0.173 A 
ATOM     72  C   UNL A   1      39.840  33.277  35.708  1.00  0.00     0.173 A 
ATOM     73  F   UNL A   1      38.045  30.186  36.351  1.00  0.00    -0.203 F 
ATOM     74  C   UNL A   1      38.062  32.213  37.551  1.00  0.00     0.198 A 
ATOM     75  C   UNL A   1      39.411  34.045  36.788  1.00  0.00     0.198 A 
ATOM     76  F   UNL A   1      40.691  33.823  34.825  1.00  0.00    -0.203 F 
ATOM     77  F   UNL A   1      37.174  31.708  38.419  1.00  0.00    -0.200 F 
ATOM     78  C   UNL A   1      38.516  33.515  37.705  1.00  0.00     0.200 A 
ATOM     79  F   UNL A   1      39.859  35.299  36.936  1.00  0.00    -0.200 F 
ATOM     80  F   UNL A   1      38.084  34.261  38.731  1.00  0.00    -0.200 F 
ENDBRANCH  46  70
BRANCH  58  81
ATOM     81  C   UNL A   1      44.832  27.703  34.526  1.00  0.00     0.064 A 
ATOM     82  C   UNL A   1      46.011  28.460  34.585  1.00  0.00     0.173 A 
ATOM     83  C   UNL A   1      44.735  26.569  35.348  1.00  0.00     0.173 A 
ATOM     84  F   UNL A   1      46.157  29.544  33.809  1.00  0.00    -0.203 F 
ATOM     85  C   UNL A   1      47.060  28.084  35.420  1.00  0.00     0.198 A 
ATOM     86  C   UNL A   1      45.776  26.212  36.201  1.00  0.00     0.198 A 
ATOM     87  F   UNL A   1      43.626  25.816  35.333  1.00  0.00    -0.203 F 
ATOM     88  F   UNL A   1      48.194  28.798  35.429  1.00  0.00    -0.200 F 
ATOM     89  C   UNL A   1      46.939  26.966  36.231  1.00  0.00     0.200 A 
ATOM     90  F   UNL A   1      45.652  25.138  36.993  1.00  0.00    -0.200 F 
ATOM     91  F   UNL A   1      47.948  26.609  37.038  1.00  0.00    -0.200 F 
ENDBRANCH  58  81
ENDBRANCH  32  33
ENDBRANCH  25  27
ENDBRANCH  24  25
ENDBRANCH  23  24
ENDBRANCH  22  23
ENDBRANCH   1  22
TORSDOF 16
ENDMDL
MODEL 2
REMARK VINA RESULT:     -11.4      1.518      8.193
REMARK SMILES CC(C)c1ccc([C@]2(C(=O)OCCOCCOC(=O)c3ccc(-c4c5nc(c(-c6c(F)c(F)c(F)c(F)c6F)c6ccc([nH]6)c(-c6c(F)c(F)c(F)c(F)c6F)c6nc(c(-c7c(F)c(F)c(F)c(F)c7F)c7ccc4[nH]7)C=C6)C=C5)cc3)CCC[C@@H]2C)cc1
REMARK SMILES IDX 14 1 13 2 12 3 11 4 9 5 10 6 8 7 83 8 86 9 84 10 85 11 87 12
REMARK SMILES IDX 7 13 4 14 5 15 89 16 6 17 88 18 2 19 1 20 3 21 15 22 16 23
REMARK SMILES IDX 17 24 18 25 19 26 20 27 21 28 82 29 22 30 81 31 23 32 24 33
REMARK SMILES IDX 25 34 75 35 26 36 80 37 74 38 76 39 27 40 79 41 73 42 72 43
REMARK SMILES IDX 28 45 60 46 40 47 59 48 41 49 44 50 58 51 77 52 42 53 43 54
REMARK SMILES IDX 57 56 78 57 45 58 29 59 30 60 38 61 31 62 32 63 36 64 39 65
REMARK SMILES IDX 33 66 34 67 37 68 35 69 61 70 62 71 70 72 63 73 64 74 68 75
REMARK SMILES IDX 71 76 65 77 66 78 69 79 67 80 46 81 47 82 55 83 48 84 49 85
REMARK SMILES IDX 53 86 56 87 50 88 51 89 54 90 52 91
REMARK H PARENT 76 44 44 55
REMARK Flexibility Score: inf
ROOT
ATOM      1  O   UNL A   1      31.921  30.459  25.762  1.00  0.00    -0.374 OA
ENDROOT
BRANCH   1   2
ATOM      2  C   UNL A   1      31.771  29.239  26.492  1.00  0.00     0.202 C 
BRANCH   2   3
ATOM      3  C   UNL A   1      32.940  28.260  26.400  1.00  0.00     0.261 C 
BRANCH   3   4
ATOM      4  O   UNL A   1      32.522  27.057  25.733  1.00  0.00    -0.463 OA
BRANCH   4   5
ATOM      5  C   UNL A   1      33.054  26.860  24.497  1.00  0.00     0.316 C 
ATOM      6  O   UNL A   1      34.216  27.128  24.208  1.00  0.00    -0.251 OA
BRANCH   5   7
ATOM      7  C   UNL A   1      32.023  26.286  23.478  1.00  0.00     0.095 C 
ATOM      8  C   UNL A   1      32.651  25.823  22.136  1.00  0.00     0.024 C 
ATOM      9  C   UNL A   1      31.563  24.915  24.072  1.00  0.00     0.008 C 
ATOM     10  C   UNL A   1      33.261  24.443  22.383  1.00  0.00     0.002 C 
ATOM     11  C   UNL A   1      32.751  23.991  23.749  1.00  0.00     0.005 C 
ATOM     12  C   UNL A   1      30.281  24.323  23.478  1.00  0.00     0.009 C 
BRANCH   7  13
ATOM     13  C   UNL A   1      30.937  27.359  23.293  1.00  0.00    -0.030 A 
ATOM     14  C   UNL A   1      28.930  29.323  22.730  1.00  0.00    -0.045 A 
ATOM     15  C   UNL A   1      30.287  29.594  22.527  1.00  0.00     0.004 A 
ATOM     16  C   UNL A   1      28.593  28.057  23.228  1.00  0.00     0.004 A 
ATOM     17  C   UNL A   1      31.268  28.630  22.795  1.00  0.00     0.005 A 
ATOM     18  C   UNL A   1      29.574  27.092  23.497  1.00  0.00     0.005 A 
BRANCH  14  19
ATOM     19  C   UNL A   1      27.825  30.332  22.435  1.00  0.00     0.013 C 
ATOM     20  C   UNL A   1      27.650  31.434  23.488  1.00  0.00     0.012 C 
ATOM     21  C   UNL A   1      28.022  30.988  21.062  1.00  0.00     0.012 C 
ENDBRANCH  14  19
ENDBRANCH   7  13
ENDBRANCH   5   7
ENDBRANCH   4   5
ENDBRANCH   3   4
ENDBRANCH   2   3
ENDBRANCH   1   2
BRANCH   1  22
ATOM     22  C   UNL A   1      31.079  31.550  26.126  1.00  0.00     0.202 C 
BRANCH  22  23
ATOM     23  C   UNL A   1      31.779  32.757  26.764  1.00  0.00     0.261 C 
BRANCH  23  24
ATOM     24  O   UNL A   1      32.819  32.374  27.681  1.00  0.00    -0.460 OA
BRANCH  24  25
ATOM     25  C   UNL A   1      33.819  33.279  27.808  1.00  0.00     0.338 C 
ATOM     26  O   UNL A   1      33.724  34.501  27.781  1.00  0.00    -0.246 OA
BRANCH  25  27
ATOM     27  C   UNL A   1      35.083  32.609  28.158  1.00  0.00     0.060 A 
ATOM     28  C   UNL A   1      35.026  31.238  28.439  1.00  0.00     0.016 A 
ATOM     29  C   UNL A   1      36.278  33.315  28.307  1.00  0.00     0.016 A 
ATOM     30  C   UNL A   1      36.152  30.575  28.922  1.00  0.00     0.010 A 
ATOM     31  C   UNL A   1      37.408  32.651  28.803  1.00  0.00     0.010 A 
ATOM     32  C   UNL A   1      37.338  31.288  29.148  1.00  0.00    -0.014 A 
BRANCH  32  33
ATOM     33  C   UNL A   1      38.439  30.635  29.897  1.00  0.00     0.031 A 
ATOM     34  C   UNL A   1      38.643  30.985  31.346  1.00  0.00     0.074 A 
ATOM     35  C   UNL A   1      39.213  29.703  29.314  1.00  0.00     0.049 A 
ATOM     36  N   UNL A   1      39.532  30.535  32.195  1.00  0.00    -0.248 NA
ATOM     37  C   UNL A   1      37.714  31.976  31.916  1.00  0.00     0.031 C 
ATOM     38  C   UNL A   1      39.086  29.246  27.933  1.00  0.00     0.029 A 
ATOM     39  N   UNL A   1      40.261  28.972  29.818  1.00  0.00    -0.354 N 
ATOM     40  C   UNL A   1      39.271  31.185  33.394  1.00  0.00     0.074 A 
ATOM     41  C   UNL A   1      38.160  32.083  33.158  1.00  0.00     0.031 C 
ATOM     42  C   UNL A   1      40.028  28.316  27.694  1.00  0.00     0.029 A 
ATOM     43  C   UNL A   1      40.835  28.132  28.899  1.00  0.00     0.049 A 
ATOM     44  H   UNL A   1      40.570  29.046  30.750  1.00  0.00     0.167 HD
ATOM     45  C   UNL A   1      39.894  31.039  34.587  1.00  0.00     0.037 A 
ATOM     46  C   UNL A   1      41.904  27.319  29.015  1.00  0.00     0.037 A 
ATOM     47  C   UNL A   1      40.998  30.145  34.823  1.00  0.00     0.049 A 
ATOM     48  C   UNL A   1      42.625  27.226  30.335  1.00  0.00     0.074 A 
ATOM     49  C   UNL A   1      41.684  29.914  36.002  1.00  0.00     0.029 A 
ATOM     50  N   UNL A   1      41.578  29.339  33.857  1.00  0.00    -0.354 N 
ATOM     51  N   UNL A   1      42.356  27.825  31.470  1.00  0.00    -0.248 NA
ATOM     52  C   UNL A   1      43.797  26.340  30.389  1.00  0.00     0.031 C 
ATOM     53  C   UNL A   1      42.711  29.000  35.738  1.00  0.00     0.029 A 
ATOM     54  C   UNL A   1      42.633  28.628  34.405  1.00  0.00     0.049 A 
ATOM     55  H   UNL A   1      41.285  29.279  32.919  1.00  0.00     0.167 HD
ATOM     56  C   UNL A   1      43.305  27.370  32.377  1.00  0.00     0.074 A 
ATOM     57  C   UNL A   1      44.150  26.435  31.664  1.00  0.00     0.031 C 
ATOM     58  C   UNL A   1      43.461  27.695  33.684  1.00  0.00     0.037 A 
BRANCH  45  59
ATOM     59  C   UNL A   1      39.411  31.885  35.727  1.00  0.00     0.064 A 
ATOM     60  C   UNL A   1      38.407  31.439  36.600  1.00  0.00     0.173 A 
ATOM     61  C   UNL A   1      39.984  33.141  35.970  1.00  0.00     0.173 A 
ATOM     62  F   UNL A   1      37.818  30.250  36.401  1.00  0.00    -0.203 F 
ATOM     63  C   UNL A   1      37.977  32.234  37.660  1.00  0.00     0.198 A 
ATOM     64  C   UNL A   1      39.571  33.921  37.047  1.00  0.00     0.198 A 
ATOM     65  F   UNL A   1      40.950  33.611  35.167  1.00  0.00    -0.203 F 
ATOM     66  F   UNL A   1      36.988  31.807  38.458  1.00  0.00    -0.200 F 
ATOM     67  C   UNL A   1      38.563  33.470  37.886  1.00  0.00     0.200 A 
ATOM     68  F   UNL A   1      40.145  35.112  37.270  1.00  0.00    -0.200 F 
ATOM     69  F   UNL A   1      38.153  34.230  38.912  1.00  0.00    -0.200 F 
ENDBRANCH  45  59
BRANCH  46  70
ATOM     70  C   UNL A   1      42.366  26.531  27.843  1.00  0.00     0.064 A 
ATOM     71  C   UNL A   1      43.338  27.035  26.968  1.00  0.00     0.173 A 
ATOM     72  C   UNL A   1      41.830  25.265  27.565  1.00  0.00     0.173 A 
ATOM     73  F   UNL A   1      43.861  28.252  27.178  1.00  0.00    -0.203 F 
ATOM     74  C   UNL A   1      43.745  26.308  25.851  1.00  0.00     0.198 A 
ATOM     75  C   UNL A   1      42.256  24.528  26.463  1.00  0.00     0.198 A 
ATOM     76  F   UNL A   1      40.893  24.741  28.370  1.00  0.00    -0.203 F 
ATOM     77  F   UNL A   1      44.644  26.831  25.005  1.00  0.00    -0.200 F 
ATOM     78  C   UNL A   1      43.209  25.053  25.602  1.00  0.00     0.200 A 
ATOM     79  F   UNL A   1      41.741  23.314  26.232  1.00  0.00    -0.200 F 
ATOM     80  F   UNL A   1      43.601  24.354  24.529  1.00  0.00    -0.200 F 
ENDBRANCH  46  70
BRANCH  58  81
ATOM     81  C   UNL A   1      44.567  27.016  34.438  1.00  0.00     0.064 A 
ATOM     82  C   UNL A   1      45.838  27.597  34.561  1.00  0.00     0.173 A 
ATOM     83  C   UNL A   1      44.338  25.790  35.082  1.00  0.00     0.173 A 
ATOM     84  F   UNL A   1      46.109  28.760  33.952  1.00  0.00    -0.203 F 
ATOM     85  C   UNL A   1      46.845  26.964  35.284  1.00  0.00     0.198 A 
ATOM     86  C   UNL A   1      45.340  25.174  35.827  1.00  0.00     0.198 A 
ATOM     87  F   UNL A   1      43.138  25.197  35.001  1.00  0.00    -0.203 F 
ATOM     88  F   UNL A   1      48.064  27.516  35.353  1.00  0.00    -0.200 F 
ATOM     89  C   UNL A   1      46.594  25.758  35.922  1.00  0.00     0.200 A 
ATOM     90  F   UNL A   1      45.092  24.015  36.452  1.00  0.00    -0.200 F 
ATOM     91  F   UNL A   1      47.564  25.154  36.622  1.00  0.00    -0.200 F 
ENDBRANCH  58  81
ENDBRANCH  32  33
ENDBRANCH  25  27
ENDBRANCH  24  25
ENDBRANCH  23  24
ENDBRANCH  22  23
ENDBRANCH   1  22
TORSDOF 16
ENDMDL
MODEL 3
REMARK VINA RESULT:     -11.4      5.032     10.128
REMARK SMILES CC(C)c1ccc([C@]2(C(=O)OCCOCCOC(=O)c3ccc(-c4c5nc(c(-c6c(F)c(F)c(F)c(F)c6F)c6ccc([nH]6)c(-c6c(F)c(F)c(F)c(F)c6F)c6nc(c(-c7c(F)c(F)c(F)c(F)c7F)c7ccc4[nH]7)C=C6)C=C5)cc3)CCC[C@@H]2C)cc1
REMARK SMILES IDX 14 1 13 2 12 3 11 4 9 5 10 6 8 7 83 8 86 9 84 10 85 11 87 12
REMARK SMILES IDX 7 13 4 14 5 15 89 16 6 17 88 18 2 19 1 20 3 21 15 22 16 23
REMARK SMILES IDX 17 24 18 25 19 26 20 27 21 28 82 29 22 30 81 31 23 32 24 33
REMARK SMILES IDX 25 34 75 35 26 36 80 37 74 38 76 39 27 40 79 41 73 42 72 43
REMARK SMILES IDX 28 45 60 46 40 47 59 48 41 49 44 50 58 51 77 52 42 53 43 54
REMARK SMILES IDX 57 56 78 57 45 58 29 59 30 60 38 61 31 62 32 63 36 64 39 65
REMARK SMILES IDX 33 66 34 67 37 68 35 69 61 70 62 71 70 72 63 73 64 74 68 75
REMARK SMILES IDX 71 76 65 77 66 78 69 79 67 80 46 81 47 82 55 83 48 84 49 85
REMARK SMILES IDX 53 86 56 87 50 88 51 89 54 90 52 91
REMARK H PARENT 76 44 44 55
REMARK Flexibility Score: inf
ROOT
ATOM      1  O   UNL A   1      37.430  21.945  25.694  1.00  0.00    -0.374 OA
ENDROOT
BRANCH   1   2
ATOM      2  C   UNL A   1      36.845  21.706  24.412  1.00  0.00     0.202 C 
BRANCH   2   3
ATOM      3  C   UNL A   1      36.655  22.938  23.527  1.00  0.00     0.261 C 
BRANCH   3   4
ATOM      4  O   UNL A   1      35.704  23.833  24.130  1.00  0.00    -0.463 OA
BRANCH   4   5
ATOM      5  C   UNL A   1      34.464  23.827  23.573  1.00  0.00     0.316 C 
ATOM      6  O   UNL A   1      34.248  24.089  22.394  1.00  0.00    -0.251 OA
BRANCH   5   7
ATOM      7  C   UNL A   1      33.341  23.481  24.598  1.00  0.00     0.095 C 
ATOM      8  C   UNL A   1      33.649  23.933  26.050  1.00  0.00     0.024 C 
ATOM      9  C   UNL A   1      32.146  24.426  24.247  1.00  0.00     0.008 C 
ATOM     10  C   UNL A   1      33.338  25.428  26.127  1.00  0.00     0.002 C 
ATOM     11  C   UNL A   1      32.597  25.774  24.839  1.00  0.00     0.005 C 
ATOM     12  C   UNL A   1      30.787  24.038  24.840  1.00  0.00     0.009 C 
BRANCH   7  13
ATOM     13  C   UNL A   1      33.085  21.969  24.482  1.00  0.00    -0.030 A 
ATOM     14  C   UNL A   1      32.793  19.139  24.146  1.00  0.00    -0.045 A 
ATOM     15  C   UNL A   1      32.479  20.029  23.114  1.00  0.00     0.004 A 
ATOM     16  C   UNL A   1      33.248  19.689  25.353  1.00  0.00     0.004 A 
ATOM     17  C   UNL A   1      32.629  21.413  23.276  1.00  0.00     0.005 A 
ATOM     18  C   UNL A   1      33.397  21.073  25.517  1.00  0.00     0.005 A 
BRANCH  14  19
ATOM     19  C   UNL A   1      32.665  17.626  24.012  1.00  0.00     0.013 C 
ATOM     20  C   UNL A   1      33.775  16.947  23.200  1.00  0.00     0.012 C 
ATOM     21  C   UNL A   1      32.575  16.951  25.387  1.00  0.00     0.012 C 
ENDBRANCH  14  19
ENDBRANCH   7  13
ENDBRANCH   5   7
ENDBRANCH   4   5
ENDBRANCH   3   4
ENDBRANCH   2   3
ENDBRANCH   1   2
BRANCH   1  22
ATOM     22  C   UNL A   1      38.836  21.748  25.821  1.00  0.00     0.202 C 
BRANCH  22  23
ATOM     23  C   UNL A   1      39.343  20.326  25.551  1.00  0.00     0.261 C 
BRANCH  23  24
ATOM     24  O   UNL A   1      40.161  19.815  26.618  1.00  0.00    -0.460 OA
BRANCH  24  25
ATOM     25  C   UNL A   1      41.448  19.569  26.273  1.00  0.00     0.338 C 
ATOM     26  O   UNL A   1      41.896  18.556  25.747  1.00  0.00    -0.246 OA
BRANCH  25  27
ATOM     27  C   UNL A   1      42.274  20.774  26.460  1.00  0.00     0.060 A 
ATOM     28  C   UNL A   1      42.353  21.303  27.754  1.00  0.00     0.016 A 
ATOM     29  C   UNL A   1      42.877  21.432  25.386  1.00  0.00     0.016 A 
ATOM     30  C   UNL A   1      42.992  22.521  27.974  1.00  0.00     0.010 A 
ATOM     31  C   UNL A   1      43.509  22.663  25.605  1.00  0.00     0.010 A 
ATOM     32  C   UNL A   1      43.535  23.230  26.893  1.00  0.00    -0.014 A 
BRANCH  32  33
ATOM     33  C   UNL A   1      43.977  24.631  27.100  1.00  0.00     0.031 A 
ATOM     34  C   UNL A   1      42.977  25.648  27.575  1.00  0.00     0.074 A 
ATOM     35  C   UNL A   1      45.262  24.983  26.920  1.00  0.00     0.049 A 
ATOM     36  N   UNL A   1      43.140  26.922  27.830  1.00  0.00    -0.248 NA
ATOM     37  C   UNL A   1      41.605  25.161  27.798  1.00  0.00     0.031 C 
ATOM     38  C   UNL A   1      46.333  24.081  26.504  1.00  0.00     0.029 A 
ATOM     39  N   UNL A   1      45.882  26.199  27.067  1.00  0.00    -0.354 N 
ATOM     40  C   UNL A   1      41.898  27.387  28.241  1.00  0.00     0.074 A 
ATOM     41  C   UNL A   1      40.982  26.268  28.174  1.00  0.00     0.031 C 
ATOM     42  C   UNL A   1      47.480  24.777  26.421  1.00  0.00     0.029 A 
ATOM     43  C   UNL A   1      47.217  26.176  26.755  1.00  0.00     0.049 A 
ATOM     44  H   UNL A   1      45.412  27.010  27.368  1.00  0.00     0.167 HD
ATOM     45  C   UNL A   1      41.554  28.631  28.648  1.00  0.00     0.037 A 
ATOM     46  C   UNL A   1      48.120  27.176  26.727  1.00  0.00     0.037 A 
ATOM     47  C   UNL A   1      42.464  29.744  28.717  1.00  0.00     0.049 A 
ATOM     48  C   UNL A   1      47.696  28.568  27.117  1.00  0.00     0.074 A 
ATOM     49  C   UNL A   1      42.214  31.040  29.132  1.00  0.00     0.029 A 
ATOM     50  N   UNL A   1      43.801  29.691  28.353  1.00  0.00    -0.354 N 
ATOM     51  N   UNL A   1      46.526  28.993  27.527  1.00  0.00    -0.248 NA
ATOM     52  C   UNL A   1      48.722  29.620  27.041  1.00  0.00     0.031 C 
ATOM     53  C   UNL A   1      43.389  31.784  28.978  1.00  0.00     0.029 A 
ATOM     54  C   UNL A   1      44.383  30.939  28.510  1.00  0.00     0.049 A 
ATOM     55  H   UNL A   1      44.268  28.886  28.032  1.00  0.00     0.167 HD
ATOM     56  C   UNL A   1      46.680  30.350  27.785  1.00  0.00     0.074 A 
ATOM     57  C   UNL A   1      48.060  30.676  27.494  1.00  0.00     0.031 C 
ATOM     58  C   UNL A   1      45.761  31.245  28.223  1.00  0.00     0.037 A 
BRANCH  45  59
ATOM     59  C   UNL A   1      40.122  28.863  29.028  1.00  0.00     0.064 A 
ATOM     60  C   UNL A   1      39.153  29.207  28.074  1.00  0.00     0.173 A 
ATOM     61  C   UNL A   1      39.708  28.706  30.359  1.00  0.00     0.173 A 
ATOM     62  F   UNL A   1      39.503  29.382  26.790  1.00  0.00    -0.203 F 
ATOM     63  C   UNL A   1      37.825  29.409  28.443  1.00  0.00     0.198 A 
ATOM     64  C   UNL A   1      38.374  28.883  30.720  1.00  0.00     0.198 A 
ATOM     65  F   UNL A   1      40.594  28.376  31.309  1.00  0.00    -0.203 F 
ATOM     66  F   UNL A   1      36.924  29.777  27.521  1.00  0.00    -0.200 F 
ATOM     67  C   UNL A   1      37.436  29.241  29.763  1.00  0.00     0.200 A 
ATOM     68  F   UNL A   1      37.998  28.711  31.995  1.00  0.00    -0.200 F 
ATOM     69  F   UNL A   1      36.156  29.429  30.115  1.00  0.00    -0.200 F 
ENDBRANCH  45  59
BRANCH  46  70
ATOM     70  C   UNL A   1      49.518  26.901  26.304  1.00  0.00     0.064 A 
ATOM     71  C   UNL A   1      49.895  26.971  24.956  1.00  0.00     0.173 A 
ATOM     72  C   UNL A   1      50.499  26.544  27.240  1.00  0.00     0.173 A 
ATOM     73  F   UNL A   1      48.985  27.282  24.022  1.00  0.00    -0.203 F 
ATOM     74  C   UNL A   1      51.198  26.680  24.559  1.00  0.00     0.198 A 
ATOM     75  C   UNL A   1      51.809  26.278  26.845  1.00  0.00     0.198 A 
ATOM     76  F   UNL A   1      50.187  26.458  28.541  1.00  0.00    -0.203 F 
ATOM     77  F   UNL A   1      51.523  26.711  23.259  1.00  0.00    -0.200 F 
ATOM     78  C   UNL A   1      52.156  26.339  25.503  1.00  0.00     0.200 A 
ATOM     79  F   UNL A   1      52.731  25.958  27.762  1.00  0.00    -0.200 F 
ATOM     80  F   UNL A   1      53.409  26.061  25.121  1.00  0.00    -0.200 F 
ENDBRANCH  46  70
BRANCH  58  81
ATOM     81  C   UNL A   1      46.222  32.656  28.446  1.00  0.00     0.064 A 
ATOM     82  C   UNL A   1      46.765  33.067  29.673  1.00  0.00     0.173 A 
ATOM     83  C   UNL A   1      46.160  33.596  27.406  1.00  0.00     0.173 A 
ATOM     84  F   UNL A   1      46.833  32.209  30.701  1.00  0.00    -0.203 F 
ATOM     85  C   UNL A   1      47.209  34.374  29.855  1.00  0.00     0.198 A 
ATOM     86  C   UNL A   1      46.630  34.895  27.584  1.00  0.00     0.198 A 
ATOM     87  F   UNL A   1      45.656  33.251  26.212  1.00  0.00    -0.203 F 
ATOM     88  F   UNL A   1      47.685  34.756  31.048  1.00  0.00    -0.200 F 
ATOM     89  C   UNL A   1      47.148  35.284  28.811  1.00  0.00     0.200 A 
ATOM     90  F   UNL A   1      46.582  35.769  26.569  1.00  0.00    -0.200 F 
ATOM     91  F   UNL A   1      47.582  36.539  28.987  1.00  0.00    -0.200 F 
ENDBRANCH  58  81
ENDBRANCH  32  33
ENDBRANCH  25  27
ENDBRANCH  24  25
ENDBRANCH  23  24
ENDBRANCH  22  23
ENDBRANCH   1  22
TORSDOF 16
ENDMDL
