MODEL 1
REMARK VINA RESULT:     -10.6      0.000      0.000
REMARK SMILES CCS(=O)(=O)N[C@H]1C=C[C@@H](C(=O)OCCOCCOC(=O)c2ccc(-c3c4nc(c(-c5c(F)c(F)c(F)c(F)c5F)c5ccc([nH]5)c(-c5c(F)c(F)c(F)c(F)c5F)c5nc(c(-c6c(F)c(F)c(F)c(F)c6F)c6ccc3[nH]6)C=C5)C=C4)cc2)C1
REMARK SMILES IDX 15 1 14 2 13 3 11 4 12 5 10 6 7 7 8 8 85 9 9 10 6 11 3 13
REMARK SMILES IDX 4 14 5 15 2 16 1 17 16 18 17 19 18 20 19 21 20 22 21 23
REMARK SMILES IDX 22 24 23 25 84 26 24 27 83 28 25 29 26 30 27 31 77 32 28 33
REMARK SMILES IDX 82 34 76 35 78 36 29 37 81 38 75 39 74 40 30 42 62 43 42 44
REMARK SMILES IDX 61 45 43 46 46 47 60 48 79 49 44 50 45 51 59 53 80 54 47 55
REMARK SMILES IDX 31 56 32 57 40 58 33 59 34 60 38 61 41 62 35 63 36 64 39 65
REMARK SMILES IDX 37 66 63 67 64 68 72 69 65 70 66 71 70 72 73 73 67 74 68 75
REMARK SMILES IDX 71 76 69 77 48 78 49 79 57 80 50 81 51 82 55 83 58 84 52 85
REMARK SMILES IDX 53 86 56 87 54 88
REMARK H PARENT 6 12 78 41 46 52
REMARK Flexibility Score: inf
ROOT
ATOM      1  C   UNL A   1      32.828  26.165  25.733  1.00  0.00     0.202 C 
ENDROOT
BRANCH   1   2
ATOM      2  C   UNL A   1      32.760  25.415  24.400  1.00  0.00     0.261 C 
BRANCH   2   3
ATOM      3  O   UNL A   1      34.077  25.049  23.967  1.00  0.00    -0.463 OA
BRANCH   3   4
ATOM      4  C   UNL A   1      34.241  23.778  23.520  1.00  0.00     0.312 C 
ATOM      5  O   UNL A   1      34.508  23.475  22.363  1.00  0.00    -0.252 OA
BRANCH   4   6
ATOM      6  C   UNL A   1      34.112  22.741  24.636  1.00  0.00     0.123 C 
ATOM      7  C   UNL A   1      33.967  20.323  24.989  1.00  0.00     0.093 C 
ATOM      8  C   UNL A   1      35.370  20.816  25.118  1.00  0.00    -0.011 C 
ATOM      9  C   UNL A   1      33.235  21.504  24.360  1.00  0.00     0.043 C 
ATOM     10  C   UNL A   1      35.452  22.138  24.937  1.00  0.00    -0.015 C 
BRANCH   7  11
ATOM     11  N   UNL A   1      33.992  19.046  24.303  1.00  0.00    -0.208 NA
ATOM     12  H   UNL A   1      34.365  19.266  23.380  1.00  0.00     0.141 HD
BRANCH  11  13
ATOM     13  S   UNL A   1      32.766  17.980  23.998  1.00  0.00     0.211 S 
ATOM     14  O   UNL A   1      32.151  18.266  22.728  1.00  0.00    -0.212 OA
ATOM     15  O   UNL A   1      31.967  18.022  25.211  1.00  0.00    -0.212 OA
BRANCH  13  16
ATOM     16  C   UNL A   1      33.561  16.375  23.979  1.00  0.00     0.150 C 
ATOM     17  C   UNL A   1      34.621  16.173  25.036  1.00  0.00     0.022 C 
ENDBRANCH  13  16
ENDBRANCH  11  13
ENDBRANCH   7  11
ENDBRANCH   4   6
ENDBRANCH   3   4
ENDBRANCH   2   3
ENDBRANCH   1   2
BRANCH   1  18
ATOM     18  O   UNL A   1      33.112  27.563  25.668  1.00  0.00    -0.374 OA
BRANCH  18  19
ATOM     19  C   UNL A   1      32.017  28.466  25.518  1.00  0.00     0.202 C 
BRANCH  19  20
ATOM     20  C   UNL A   1      32.294  29.964  25.710  1.00  0.00     0.261 C 
BRANCH  20  21
ATOM     21  O   UNL A   1      32.429  30.344  27.088  1.00  0.00    -0.460 OA
BRANCH  21  22
ATOM     22  C   UNL A   1      33.176  31.454  27.295  1.00  0.00     0.338 C 
ATOM     23  O   UNL A   1      32.802  32.616  27.265  1.00  0.00    -0.246 OA
BRANCH  22  24
ATOM     24  C   UNL A   1      34.529  31.087  27.750  1.00  0.00     0.060 A 
ATOM     25  C   UNL A   1      34.734  29.764  28.160  1.00  0.00     0.016 A 
ATOM     26  C   UNL A   1      35.542  32.037  27.881  1.00  0.00     0.016 A 
ATOM     27  C   UNL A   1      35.937  29.397  28.756  1.00  0.00     0.010 A 
ATOM     28  C   UNL A   1      36.746  31.670  28.489  1.00  0.00     0.010 A 
ATOM     29  C   UNL A   1      36.935  30.357  28.964  1.00  0.00    -0.014 A 
BRANCH  29  30
ATOM     30  C   UNL A   1      38.115  30.020  29.796  1.00  0.00     0.031 A 
ATOM     31  C   UNL A   1      39.145  29.067  29.259  1.00  0.00     0.074 A 
ATOM     32  C   UNL A   1      38.279  30.575  31.008  1.00  0.00     0.049 A 
ATOM     33  N   UNL A   1      40.228  28.601  29.828  1.00  0.00    -0.248 NA
ATOM     34  C   UNL A   1      38.920  28.567  27.893  1.00  0.00     0.031 C 
ATOM     35  C   UNL A   1      37.372  31.542  31.621  1.00  0.00     0.029 A 
ATOM     36  N   UNL A   1      39.264  30.393  31.946  1.00  0.00    -0.354 N 
ATOM     37  C   UNL A   1      40.806  27.747  28.898  1.00  0.00     0.074 A 
ATOM     38  C   UNL A   1      39.938  27.733  27.740  1.00  0.00     0.031 C 
ATOM     39  C   UNL A   1      37.834  31.858  32.842  1.00  0.00     0.029 A 
ATOM     40  C   UNL A   1      39.048  31.088  33.109  1.00  0.00     0.049 A 
ATOM     41  H   UNL A   1      40.051  29.818  31.798  1.00  0.00     0.167 HD
ATOM     42  C   UNL A   1      41.960  27.043  29.001  1.00  0.00     0.037 A 
ATOM     43  C   UNL A   1      39.737  31.081  34.266  1.00  0.00     0.037 A 
ATOM     44  C   UNL A   1      42.816  27.056  30.158  1.00  0.00     0.049 A 
ATOM     45  C   UNL A   1      40.979  30.238  34.385  1.00  0.00     0.074 A 
ATOM     46  C   UNL A   1      44.020  26.402  30.350  1.00  0.00     0.029 A 
ATOM     47  N   UNL A   1      42.549  27.750  31.331  1.00  0.00    -0.354 N 
ATOM     48  N   UNL A   1      41.539  29.458  33.492  1.00  0.00    -0.248 NA
ATOM     49  C   UNL A   1      41.688  30.278  35.672  1.00  0.00     0.031 C 
ATOM     50  C   UNL A   1      44.449  26.647  31.659  1.00  0.00     0.029 A 
ATOM     51  C   UNL A   1      43.548  27.510  32.262  1.00  0.00     0.049 A 
ATOM     52  H   UNL A   1      41.765  28.327  31.479  1.00  0.00     0.167 HD
ATOM     53  C   UNL A   1      42.676  28.936  34.096  1.00  0.00     0.074 A 
ATOM     54  C   UNL A   1      42.733  29.498  35.430  1.00  0.00     0.031 C 
ATOM     55  C   UNL A   1      43.594  28.075  33.589  1.00  0.00     0.037 A 
BRANCH  42  56
ATOM     56  C   UNL A   1      42.335  26.164  27.841  1.00  0.00     0.064 A 
ATOM     57  C   UNL A   1      43.222  26.592  26.841  1.00  0.00     0.173 A 
ATOM     58  C   UNL A   1      41.805  24.870  27.733  1.00  0.00     0.173 A 
ATOM     59  F   UNL A   1      43.752  27.823  26.889  1.00  0.00    -0.203 F 
ATOM     60  C   UNL A   1      43.529  25.774  25.756  1.00  0.00     0.198 A 
ATOM     61  C   UNL A   1      42.142  24.041  26.666  1.00  0.00     0.198 A 
ATOM     62  F   UNL A   1      40.960  24.404  28.664  1.00  0.00    -0.203 F 
ATOM     63  F   UNL A   1      44.329  26.228  24.781  1.00  0.00    -0.200 F 
ATOM     64  C   UNL A   1      42.993  24.498  25.671  1.00  0.00     0.200 A 
ATOM     65  F   UNL A   1      41.635  22.802  26.594  1.00  0.00    -0.200 F 
ATOM     66  F   UNL A   1      43.290  23.712  24.627  1.00  0.00    -0.200 F 
ENDBRANCH  42  56
BRANCH  43  67
ATOM     67  C   UNL A   1      39.253  31.899  35.407  1.00  0.00     0.064 A 
ATOM     68  C   UNL A   1      39.626  33.242  35.547  1.00  0.00     0.173 A 
ATOM     69  C   UNL A   1      38.387  31.358  36.371  1.00  0.00     0.173 A 
ATOM     70  F   UNL A   1      40.469  33.798  34.665  1.00  0.00    -0.203 F 
ATOM     71  C   UNL A   1      39.158  34.012  36.610  1.00  0.00     0.198 A 
ATOM     72  C   UNL A   1      37.898  32.136  37.417  1.00  0.00     0.198 A 
ATOM     73  F   UNL A   1      37.998  30.077  36.281  1.00  0.00    -0.203 F 
ATOM     74  F   UNL A   1      39.555  35.285  36.740  1.00  0.00    -0.200 F 
ATOM     75  C   UNL A   1      38.286  33.461  37.539  1.00  0.00     0.200 A 
ATOM     76  F   UNL A   1      37.043  31.603  38.301  1.00  0.00    -0.200 F 
ATOM     77  F   UNL A   1      37.825  34.205  38.552  1.00  0.00    -0.200 F 
ENDBRANCH  43  67
BRANCH  55  78
ATOM     78  C   UNL A   1      44.760  27.709  34.463  1.00  0.00     0.064 A 
ATOM     79  C   UNL A   1      44.736  26.581  35.297  1.00  0.00     0.173 A 
ATOM     80  C   UNL A   1      45.937  28.474  34.430  1.00  0.00     0.173 A 
ATOM     81  F   UNL A   1      43.632  25.823  35.377  1.00  0.00    -0.203 F 
ATOM     82  C   UNL A   1      45.838  26.246  36.082  1.00  0.00     0.198 A 
ATOM     83  C   UNL A   1      47.047  28.118  35.191  1.00  0.00     0.198 A 
ATOM     84  F   UNL A   1      46.017  29.560  33.647  1.00  0.00    -0.203 F 
ATOM     85  F   UNL A   1      45.776  25.192  36.907  1.00  0.00    -0.200 F 
ATOM     86  C   UNL A   1      46.995  27.009  36.022  1.00  0.00     0.200 A 
ATOM     87  F   UNL A   1      48.169  28.848  35.120  1.00  0.00    -0.200 F 
ATOM     88  F   UNL A   1      48.057  26.681  36.770  1.00  0.00    -0.200 F 
ENDBRANCH  55  78
ENDBRANCH  29  30
ENDBRANCH  22  24
ENDBRANCH  21  22
ENDBRANCH  20  21
ENDBRANCH  19  20
ENDBRANCH  18  19
ENDBRANCH   1  18
TORSDOF 17
ENDMDL
MODEL 2
REMARK VINA RESULT:     -10.5      4.953      9.951
REMARK SMILES CCS(=O)(=O)N[C@H]1C=C[C@@H](C(=O)OCCOCCOC(=O)c2ccc(-c3c4nc(c(-c5c(F)c(F)c(F)c(F)c5F)c5ccc([nH]5)c(-c5c(F)c(F)c(F)c(F)c5F)c5nc(c(-c6c(F)c(F)c(F)c(F)c6F)c6ccc3[nH]6)C=C5)C=C4)cc2)C1
REMARK SMILES IDX 15 1 14 2 13 3 11 4 12 5 10 6 7 7 8 8 85 9 9 10 6 11 3 13
REMARK SMILES IDX 4 14 5 15 2 16 1 17 16 18 17 19 18 20 19 21 20 22 21 23
REMARK SMILES IDX 22 24 23 25 84 26 24 27 83 28 25 29 26 30 27 31 77 32 28 33
REMARK SMILES IDX 82 34 76 35 78 36 29 37 81 38 75 39 74 40 30 42 62 43 42 44
REMARK SMILES IDX 61 45 43 46 46 47 60 48 79 49 44 50 45 51 59 53 80 54 47 55
REMARK SMILES IDX 31 56 32 57 40 58 33 59 34 60 38 61 41 62 35 63 36 64 39 65
REMARK SMILES IDX 37 66 63 67 64 68 72 69 65 70 66 71 70 72 73 73 67 74 68 75
REMARK SMILES IDX 71 76 69 77 48 78 49 79 57 80 50 81 51 82 55 83 58 84 52 85
REMARK SMILES IDX 53 86 56 87 54 88
REMARK H PARENT 6 12 78 41 46 52
REMARK Flexibility Score: inf
ROOT
ATOM      1  C   UNL A   1      37.899  23.279  26.165  1.00  0.00     0.202 C 
ENDROOT
BRANCH   1   2
ATOM      2  C   UNL A   1      36.558  23.116  25.444  1.00  0.00     0.261 C 
BRANCH   2   3
ATOM      3  O   UNL A   1      35.667  22.309  26.227  1.00  0.00    -0.463 OA
BRANCH   3   4
ATOM      4  C   UNL A   1      34.349  22.380  25.915  1.00  0.00     0.312 C 
ATOM      5  O   UNL A   1      33.573  23.224  26.352  1.00  0.00    -0.252 OA
BRANCH   4   6
ATOM      6  C   UNL A   1      33.926  21.318  24.899  1.00  0.00     0.123 C 
ATOM      7  C   UNL A   1      33.920  18.894  24.562  1.00  0.00     0.093 C 
ATOM      8  C   UNL A   1      32.628  19.374  25.136  1.00  0.00    -0.011 C 
ATOM      9  C   UNL A   1      34.846  20.094  24.727  1.00  0.00     0.043 C 
ATOM     10  C   UNL A   1      32.624  20.700  25.311  1.00  0.00    -0.015 C 
BRANCH   7  11
ATOM     11  N   UNL A   1      34.260  17.633  25.193  1.00  0.00    -0.208 NA
ATOM     12  H   UNL A   1      35.232  17.749  25.475  1.00  0.00     0.141 HD
BRANCH  11  13
ATOM     13  S   UNL A   1      34.195  16.093  24.593  1.00  0.00     0.211 S 
ATOM     14  O   UNL A   1      35.191  15.265  25.220  1.00  0.00    -0.212 OA
ATOM     15  O   UNL A   1      34.221  16.286  23.153  1.00  0.00    -0.212 OA
BRANCH  13  16
ATOM     16  C   UNL A   1      32.544  15.526  24.992  1.00  0.00     0.150 C 
ATOM     17  C   UNL A   1      32.385  14.938  26.375  1.00  0.00     0.022 C 
ENDBRANCH  13  16
ENDBRANCH  11  13
ENDBRANCH   7  11
ENDBRANCH   4   6
ENDBRANCH   3   4
ENDBRANCH   2   3
ENDBRANCH   1   2
BRANCH   1  18
ATOM     18  O   UNL A   1      38.828  22.200  26.043  1.00  0.00    -0.374 OA
BRANCH  18  19
ATOM     19  C   UNL A   1      38.455  21.079  25.243  1.00  0.00     0.202 C 
BRANCH  19  20
ATOM     20  C   UNL A   1      39.326  19.817  25.331  1.00  0.00     0.261 C 
BRANCH  20  21
ATOM     21  O   UNL A   1      40.179  19.796  26.485  1.00  0.00    -0.460 OA
BRANCH  21  22
ATOM     22  C   UNL A   1      41.485  19.563  26.215  1.00  0.00     0.338 C 
ATOM     23  O   UNL A   1      41.969  18.574  25.687  1.00  0.00    -0.246 OA
BRANCH  22  24
ATOM     24  C   UNL A   1      42.290  20.767  26.488  1.00  0.00     0.060 A 
ATOM     25  C   UNL A   1      42.391  21.186  27.821  1.00  0.00     0.016 A 
ATOM     26  C   UNL A   1      42.838  21.532  25.459  1.00  0.00     0.016 A 
ATOM     27  C   UNL A   1      42.993  22.403  28.126  1.00  0.00     0.010 A 
ATOM     28  C   UNL A   1      43.434  22.760  25.765  1.00  0.00     0.010 A 
ATOM     29  C   UNL A   1      43.480  23.219  27.096  1.00  0.00    -0.014 A 
BRANCH  29  30
ATOM     30  C   UNL A   1      43.913  24.603  27.400  1.00  0.00     0.031 A 
ATOM     31  C   UNL A   1      42.885  25.621  27.809  1.00  0.00     0.074 A 
ATOM     32  C   UNL A   1      45.210  24.946  27.336  1.00  0.00     0.049 A 
ATOM     33  N   UNL A   1      43.034  26.894  28.079  1.00  0.00    -0.248 NA
ATOM     34  C   UNL A   1      41.501  25.138  27.924  1.00  0.00     0.031 C 
ATOM     35  C   UNL A   1      46.303  24.039  26.992  1.00  0.00     0.029 A 
ATOM     36  N   UNL A   1      45.825  26.154  27.548  1.00  0.00    -0.354 N 
ATOM     37  C   UNL A   1      41.763  27.365  28.384  1.00  0.00     0.074 A 
ATOM     38  C   UNL A   1      40.852  26.250  28.234  1.00  0.00     0.031 C 
ATOM     39  C   UNL A   1      47.457  24.728  27.000  1.00  0.00     0.029 A 
ATOM     40  C   UNL A   1      47.177  26.128  27.314  1.00  0.00     0.049 A 
ATOM     41  H   UNL A   1      45.342  26.962  27.839  1.00  0.00     0.167 HD
ATOM     42  C   UNL A   1      41.393  28.614  28.760  1.00  0.00     0.037 A 
ATOM     43  C   UNL A   1      48.080  27.128  27.325  1.00  0.00     0.037 A 
ATOM     44  C   UNL A   1      42.304  29.720  28.901  1.00  0.00     0.049 A 
ATOM     45  C   UNL A   1      47.636  28.523  27.677  1.00  0.00     0.074 A 
ATOM     46  C   UNL A   1      42.034  31.015  29.305  1.00  0.00     0.029 A 
ATOM     47  N   UNL A   1      43.664  29.663  28.626  1.00  0.00    -0.354 N 
ATOM     48  N   UNL A   1      46.441  28.957  27.997  1.00  0.00    -0.248 NA
ATOM     49  C   UNL A   1      48.670  29.568  27.676  1.00  0.00     0.031 C 
ATOM     50  C   UNL A   1      43.216  31.759  29.212  1.00  0.00     0.029 A 
ATOM     51  C   UNL A   1      44.238  30.911  28.817  1.00  0.00     0.049 A 
ATOM     52  H   UNL A   1      44.148  28.857  28.338  1.00  0.00     0.167 HD
ATOM     53  C   UNL A   1      46.582  30.314  28.259  1.00  0.00     0.074 A 
ATOM     54  C   UNL A   1      47.983  30.630  28.073  1.00  0.00     0.031 C 
ATOM     55  C   UNL A   1      45.636  31.215  28.628  1.00  0.00     0.037 A 
BRANCH  42  56
ATOM     56  C   UNL A   1      39.930  28.855  29.001  1.00  0.00     0.064 A 
ATOM     57  C   UNL A   1      39.344  28.670  30.264  1.00  0.00     0.173 A 
ATOM     58  C   UNL A   1      39.101  29.285  27.954  1.00  0.00     0.173 A 
ATOM     59  F   UNL A   1      40.087  28.251  31.298  1.00  0.00    -0.203 F 
ATOM     60  C   UNL A   1      37.978  28.866  30.456  1.00  0.00     0.198 A 
ATOM     61  C   UNL A   1      37.743  29.514  28.158  1.00  0.00     0.198 A 
ATOM     62  F   UNL A   1      39.608  29.487  26.729  1.00  0.00    -0.203 F 
ATOM     63  F   UNL A   1      37.430  28.622  31.655  1.00  0.00    -0.200 F 
ATOM     64  C   UNL A   1      37.180  29.292  29.406  1.00  0.00     0.200 A 
ATOM     65  F   UNL A   1      36.976  29.942  27.145  1.00  0.00    -0.200 F 
ATOM     66  F   UNL A   1      35.867  29.480  29.593  1.00  0.00    -0.200 F 
ENDBRANCH  42  56
BRANCH  43  67
ATOM     67  C   UNL A   1      49.494  26.836  26.980  1.00  0.00     0.064 A 
ATOM     68  C   UNL A   1      49.952  26.919  25.659  1.00  0.00     0.173 A 
ATOM     69  C   UNL A   1      50.425  26.489  27.973  1.00  0.00     0.173 A 
ATOM     70  F   UNL A   1      49.096  27.224  24.672  1.00  0.00    -0.203 F 
ATOM     71  C   UNL A   1      51.283  26.660  25.341  1.00  0.00     0.198 A 
ATOM     72  C   UNL A   1      51.761  26.258  27.657  1.00  0.00     0.198 A 
ATOM     73  F   UNL A   1      50.038  26.398  29.254  1.00  0.00    -0.203 F 
ATOM     74  F   UNL A   1      51.688  26.715  24.065  1.00  0.00    -0.200 F 
ATOM     75  C   UNL A   1      52.189  26.340  26.341  1.00  0.00     0.200 A 
ATOM     76  F   UNL A   1      52.636  25.965  28.630  1.00  0.00    -0.200 F 
ATOM     77  F   UNL A   1      53.472  26.106  26.037  1.00  0.00    -0.200 F 
ENDBRANCH  43  67
BRANCH  55  78
ATOM     78  C   UNL A   1      46.086  32.625  28.889  1.00  0.00     0.064 A 
ATOM     79  C   UNL A   1      46.080  33.603  27.884  1.00  0.00     0.173 A 
ATOM     80  C   UNL A   1      46.483  33.014  30.179  1.00  0.00     0.173 A 
ATOM     81  F   UNL A   1      45.723  33.282  26.631  1.00  0.00    -0.203 F 
ATOM     82  C   UNL A   1      46.478  34.911  28.154  1.00  0.00     0.198 A 
ATOM     83  C   UNL A   1      46.849  34.329  30.452  1.00  0.00     0.198 A 
ATOM     84  F   UNL A   1      46.501  32.121  31.179  1.00  0.00    -0.203 F 
ATOM     85  F   UNL A   1      46.511  35.817  27.167  1.00  0.00    -0.200 F 
ATOM     86  C   UNL A   1      46.854  35.275  29.438  1.00  0.00     0.200 A 
ATOM     87  F   UNL A   1      47.197  34.681  31.698  1.00  0.00    -0.200 F 
ATOM     88  F   UNL A   1      47.227  36.535  29.698  1.00  0.00    -0.200 F 
ENDBRANCH  55  78
ENDBRANCH  29  30
ENDBRANCH  22  24
ENDBRANCH  21  22
ENDBRANCH  20  21
ENDBRANCH  19  20
ENDBRANCH  18  19
ENDBRANCH   1  18
TORSDOF 17
ENDMDL
MODEL 3
REMARK VINA RESULT:     -10.5      3.169      8.095
REMARK SMILES CCS(=O)(=O)N[C@H]1C=C[C@@H](C(=O)OCCOCCOC(=O)c2ccc(-c3c4nc(c(-c5c(F)c(F)c(F)c(F)c5F)c5ccc([nH]5)c(-c5c(F)c(F)c(F)c(F)c5F)c5nc(c(-c6c(F)c(F)c(F)c(F)c6F)c6ccc3[nH]6)C=C5)C=C4)cc2)C1
REMARK SMILES IDX 15 1 14 2 13 3 11 4 12 5 10 6 7 7 8 8 85 9 9 10 6 11 3 13
REMARK SMILES IDX 4 14 5 15 2 16 1 17 16 18 17 19 18 20 19 21 20 22 21 23
REMARK SMILES IDX 22 24 23 25 84 26 24 27 83 28 25 29 26 30 27 31 77 32 28 33
REMARK SMILES IDX 82 34 76 35 78 36 29 37 81 38 75 39 74 40 30 42 62 43 42 44
REMARK SMILES IDX 61 45 43 46 46 47 60 48 79 49 44 50 45 51 59 53 80 54 47 55
REMARK SMILES IDX 31 56 32 57 40 58 33 59 34 60 38 61 41 62 35 63 36 64 39 65
REMARK SMILES IDX 37 66 63 67 64 68 72 69 65 70 66 71 70 72 73 73 67 74 68 75
REMARK SMILES IDX 71 76 69 77 48 78 49 79 57 80 50 81 51 82 55 83 58 84 52 85
REMARK SMILES IDX 53 86 56 87 54 88
REMARK H PARENT 6 12 78 41 46 52
REMARK Flexibility Score: inf
ROOT
ATOM      1  C   UNL A   1      41.405  20.739  26.611  1.00  0.00     0.202 C 
ENDROOT
BRANCH   1   2
ATOM      2  C   UNL A   1      40.320  21.709  27.085  1.00  0.00     0.261 C 
BRANCH   2   3
ATOM      3  O   UNL A   1      39.836  22.491  25.984  1.00  0.00    -0.463 OA
BRANCH   3   4
ATOM      4  C   UNL A   1      38.574  22.980  26.092  1.00  0.00     0.312 C 
ATOM      5  O   UNL A   1      38.219  23.817  26.915  1.00  0.00    -0.252 OA
BRANCH   4   6
ATOM      6  C   UNL A   1      37.631  22.416  25.030  1.00  0.00     0.123 C 
ATOM      7  C   UNL A   1      35.377  21.498  24.770  1.00  0.00     0.093 C 
ATOM      8  C   UNL A   1      35.414  22.961  24.476  1.00  0.00    -0.011 C 
ATOM      9  C   UNL A   1      36.723  21.239  25.438  1.00  0.00     0.043 C 
ATOM     10  C   UNL A   1      36.646  23.463  24.605  1.00  0.00    -0.015 C 
BRANCH   7  11
ATOM     11  N   UNL A   1      34.152  21.207  25.490  1.00  0.00    -0.208 NA
ATOM     12  H   UNL A   1      34.356  20.344  25.992  1.00  0.00     0.141 HD
BRANCH  11  13
ATOM     13  S   UNL A   1      32.613  20.991  24.924  1.00  0.00     0.211 S 
ATOM     14  O   UNL A   1      32.104  19.706  25.325  1.00  0.00    -0.212 OA
ATOM     15  O   UNL A   1      32.719  21.316  23.512  1.00  0.00    -0.212 OA
BRANCH  13  16
ATOM     16  C   UNL A   1      31.670  22.317  25.673  1.00  0.00     0.150 C 
ATOM     17  C   UNL A   1      30.970  23.235  24.698  1.00  0.00     0.022 C 
ENDBRANCH  13  16
ENDBRANCH  11  13
ENDBRANCH   7  11
ENDBRANCH   4   6
ENDBRANCH   3   4
ENDBRANCH   2   3
ENDBRANCH   1   2
BRANCH   1  18
ATOM     18  O   UNL A   1      42.745  21.234  26.596  1.00  0.00    -0.374 OA
BRANCH  18  19
ATOM     19  C   UNL A   1      43.519  21.045  25.413  1.00  0.00     0.202 C 
BRANCH  19  20
ATOM     20  C   UNL A   1      44.155  22.284  24.767  1.00  0.00     0.261 C 
BRANCH  20  21
ATOM     21  O   UNL A   1      43.310  23.444  24.813  1.00  0.00    -0.460 OA
BRANCH  21  22
ATOM     22  C   UNL A   1      43.961  24.605  25.064  1.00  0.00     0.338 C 
ATOM     23  O   UNL A   1      44.976  25.017  24.527  1.00  0.00    -0.246 OA
BRANCH  22  24
ATOM     24  C   UNL A   1      43.179  25.444  25.990  1.00  0.00     0.060 A 
ATOM     25  C   UNL A   1      43.540  26.793  26.098  1.00  0.00     0.016 A 
ATOM     26  C   UNL A   1      42.193  24.904  26.815  1.00  0.00     0.016 A 
ATOM     27  C   UNL A   1      42.954  27.596  27.072  1.00  0.00     0.010 A 
ATOM     28  C   UNL A   1      41.612  25.709  27.800  1.00  0.00     0.010 A 
ATOM     29  C   UNL A   1      42.018  27.048  27.958  1.00  0.00    -0.014 A 
BRANCH  29  30
ATOM     30  C   UNL A   1      41.567  27.838  29.129  1.00  0.00     0.031 A 
ATOM     31  C   UNL A   1      42.302  27.705  30.432  1.00  0.00     0.074 A 
ATOM     32  C   UNL A   1      40.528  28.683  29.026  1.00  0.00     0.049 A 
ATOM     33  N   UNL A   1      42.057  28.266  31.590  1.00  0.00    -0.248 NA
ATOM     34  C   UNL A   1      43.472  26.813  30.432  1.00  0.00     0.031 C 
ATOM     35  C   UNL A   1      39.761  28.929  27.807  1.00  0.00     0.029 A 
ATOM     36  N   UNL A   1      39.932  29.483  29.968  1.00  0.00    -0.354 N 
ATOM     37  C   UNL A   1      43.032  27.788  32.456  1.00  0.00     0.074 A 
ATOM     38  C   UNL A   1      43.853  26.866  31.699  1.00  0.00     0.031 C 
ATOM     39  C   UNL A   1      38.783  29.809  28.079  1.00  0.00     0.029 A 
ATOM     40  C   UNL A   1      38.835  30.159  29.498  1.00  0.00     0.049 A 
ATOM     41  H   UNL A   1      40.261  29.563  30.894  1.00  0.00     0.167 HD
ATOM     42  C   UNL A   1      43.226  28.095  33.761  1.00  0.00     0.037 A 
ATOM     43  C   UNL A   1      37.956  30.947  30.146  1.00  0.00     0.037 A 
ATOM     44  C   UNL A   1      42.402  29.008  34.509  1.00  0.00     0.049 A 
ATOM     45  C   UNL A   1      38.149  31.221  31.615  1.00  0.00     0.074 A 
ATOM     46  C   UNL A   1      42.532  29.409  35.827  1.00  0.00     0.029 A 
ATOM     47  N   UNL A   1      41.279  29.652  34.007  1.00  0.00    -0.354 N 
ATOM     48  N   UNL A   1      39.090  30.793  32.420  1.00  0.00    -0.248 NA
ATOM     49  C   UNL A   1      37.159  32.094  32.262  1.00  0.00     0.031 C 
ATOM     50  C   UNL A   1      41.453  30.244  36.141  1.00  0.00     0.029 A 
ATOM     51  C   UNL A   1      40.688  30.419  34.999  1.00  0.00     0.049 A 
ATOM     52  H   UNL A   1      40.951  29.575  33.082  1.00  0.00     0.167 HD
ATOM     53  C   UNL A   1      38.823  31.362  33.660  1.00  0.00     0.074 A 
ATOM     54  C   UNL A   1      37.637  32.176  33.496  1.00  0.00     0.031 C 
ATOM     55  C   UNL A   1      39.504  31.226  34.826  1.00  0.00     0.037 A 
BRANCH  42  56
ATOM     56  C   UNL A   1      44.352  27.399  34.473  1.00  0.00     0.064 A 
ATOM     57  C   UNL A   1      44.176  26.158  35.107  1.00  0.00     0.173 A 
ATOM     58  C   UNL A   1      45.629  27.978  34.515  1.00  0.00     0.173 A 
ATOM     59  F   UNL A   1      42.974  25.563  35.106  1.00  0.00    -0.203 F 
ATOM     60  C   UNL A   1      45.225  25.547  35.791  1.00  0.00     0.198 A 
ATOM     61  C   UNL A   1      46.684  27.347  35.169  1.00  0.00     0.198 A 
ATOM     62  F   UNL A   1      45.857  29.157  33.919  1.00  0.00    -0.203 F 
ATOM     63  F   UNL A   1      45.016  24.394  36.442  1.00  0.00    -0.200 F 
ATOM     64  C   UNL A   1      46.478  26.139  35.818  1.00  0.00     0.200 A 
ATOM     65  F   UNL A   1      47.899  27.914  35.180  1.00  0.00    -0.200 F 
ATOM     66  F   UNL A   1      47.485  25.550  36.476  1.00  0.00    -0.200 F 
ENDBRANCH  42  56
BRANCH  43  67
ATOM     67  C   UNL A   1      36.808  31.525  29.402  1.00  0.00     0.064 A 
ATOM     68  C   UNL A   1      36.774  32.882  29.059  1.00  0.00     0.173 A 
ATOM     69  C   UNL A   1      35.729  30.722  28.999  1.00  0.00     0.173 A 
ATOM     70  F   UNL A   1      37.770  33.694  29.442  1.00  0.00    -0.203 F 
ATOM     71  C   UNL A   1      35.703  33.418  28.348  1.00  0.00     0.198 A 
ATOM     72  C   UNL A   1      34.673  31.252  28.263  1.00  0.00     0.198 A 
ATOM     73  F   UNL A   1      35.715  29.415  29.300  1.00  0.00    -0.203 F 
ATOM     74  F   UNL A   1      35.678  34.726  28.060  1.00  0.00    -0.200 F 
ATOM     75  C   UNL A   1      34.658  32.600  27.941  1.00  0.00     0.200 A 
ATOM     76  F   UNL A   1      33.674  30.455  27.859  1.00  0.00    -0.200 F 
ATOM     77  F   UNL A   1      33.635  33.113  27.244  1.00  0.00    -0.200 F 
ENDBRANCH  43  67
BRANCH  55  78
ATOM     78  C   UNL A   1      39.007  32.000  36.014  1.00  0.00     0.064 A 
ATOM     79  C   UNL A   1      38.164  31.423  36.975  1.00  0.00     0.173 A 
ATOM     80  C   UNL A   1      39.419  33.327  36.218  1.00  0.00     0.173 A 
ATOM     81  F   UNL A   1      37.728  30.163  36.822  1.00  0.00    -0.203 F 
ATOM     82  C   UNL A   1      37.733  32.152  38.082  1.00  0.00     0.198 A 
ATOM     83  C   UNL A   1      39.014  34.041  37.342  1.00  0.00     0.198 A 
ATOM     84  F   UNL A   1      40.231  33.927  35.334  1.00  0.00    -0.203 F 
ATOM     85  F   UNL A   1      36.889  31.595  38.961  1.00  0.00    -0.200 F 
ATOM     86  C   UNL A   1      38.165  33.456  38.269  1.00  0.00     0.200 A 
ATOM     87  F   UNL A   1      39.445  35.297  37.528  1.00  0.00    -0.200 F 
ATOM     88  F   UNL A   1      37.758  34.152  39.339  1.00  0.00    -0.200 F 
ENDBRANCH  55  78
ENDBRANCH  29  30
ENDBRANCH  22  24
ENDBRANCH  21  22
ENDBRANCH  20  21
ENDBRANCH  19  20
ENDBRANCH  18  19
ENDBRANCH   1  18
TORSDOF 17
ENDMDL
