MODEL 1
REMARK VINA RESULT:     -10.7      0.000      0.000
REMARK SMILES C[C@H](CC(=O)NC[C@@]1(C)CCCO1)CC(=O)OCCOCCOC(=O)c1ccc(-c2c3nc(c(-c4c(F)c(F)c(F)c(F)c4F)c4ccc([nH]4)c(-c4c(F)c(F)c(F)c(F)c4F)c4nc(c(-c5c(F)c(F)c(F)c(F)c5F)c5ccc2[nH]5)C=C4)C=C3)cc1
REMARK SMILES IDX 18 1 17 2 15 3 16 4 14 5 2 6 1 7 3 8 4 9 5 10 6 11 7 13 8 14
REMARK SMILES IDX 9 15 10 16 13 17 11 18 12 19 19 20 20 21 21 22 22 23 23 24
REMARK SMILES IDX 24 25 25 26 26 27 27 28 88 29 28 30 87 31 29 32 30 33 31 34
REMARK SMILES IDX 81 35 32 36 86 37 80 38 82 39 33 40 85 41 79 42 78 43 34 45
REMARK SMILES IDX 66 46 46 47 65 48 47 49 50 50 64 51 83 52 48 53 49 54 63 56
REMARK SMILES IDX 84 57 51 58 35 59 36 60 44 61 37 62 38 63 42 64 45 65 39 66
REMARK SMILES IDX 40 67 43 68 41 69 67 70 68 71 76 72 69 73 70 74 74 75 77 76
REMARK SMILES IDX 71 77 72 78 75 79 73 80 52 81 53 82 61 83 54 84 55 85 59 86
REMARK SMILES IDX 62 87 56 88 57 89 60 90 58 91
REMARK H PARENT 6 12 82 44 50 55
REMARK Flexibility Score: inf
ROOT
ATOM      1  C   UNL A   1      31.420  25.946  24.000  1.00  0.00     0.261 C 
ENDROOT
BRANCH   1   2
ATOM      2  O   UNL A   1      31.851  25.461  22.720  1.00  0.00    -0.463 OA
BRANCH   2   3
ATOM      3  C   UNL A   1      33.114  24.985  22.659  1.00  0.00     0.306 C 
ATOM      4  O   UNL A   1      34.001  25.444  21.949  1.00  0.00    -0.252 OA
BRANCH   3   5
ATOM      5  C   UNL A   1      33.367  23.836  23.612  1.00  0.00     0.126 C 
BRANCH   5   6
ATOM      6  C   UNL A   1      34.410  23.937  24.736  1.00  0.00     0.006 C 
ATOM      7  C   UNL A   1      35.638  23.087  24.356  1.00  0.00     0.009 C 
BRANCH   6   8
ATOM      8  C   UNL A   1      33.946  23.671  26.182  1.00  0.00     0.104 C 
BRANCH   8   9
ATOM      9  C   UNL A   1      32.631  22.950  26.435  1.00  0.00     0.220 C 
ATOM     10  O   UNL A   1      31.608  23.597  26.673  1.00  0.00    -0.275 OA
ATOM     11  N   UNL A   1      32.516  21.602  26.331  1.00  0.00    -0.353 N 
ATOM     12  H   UNL A   1      31.594  21.267  26.412  1.00  0.00     0.163 HD
BRANCH  11  13
ATOM     13  C   UNL A   1      33.515  20.563  26.123  1.00  0.00     0.151 C 
BRANCH  13  14
ATOM     14  C   UNL A   1      33.138  19.583  24.976  1.00  0.00     0.083 C 
ATOM     15  C   UNL A   1      32.489  20.354  23.822  1.00  0.00     0.044 C 
ATOM     16  C   UNL A   1      34.332  18.768  24.475  1.00  0.00     0.039 C 
ATOM     17  O   UNL A   1      32.178  18.606  25.438  1.00  0.00    -0.373 OA
ATOM     18  C   UNL A   1      33.707  17.476  24.001  1.00  0.00     0.031 C 
ATOM     19  C   UNL A   1      32.487  17.320  24.883  1.00  0.00     0.161 C 
ENDBRANCH  13  14
ENDBRANCH  11  13
ENDBRANCH   8   9
ENDBRANCH   6   8
ENDBRANCH   5   6
ENDBRANCH   3   5
ENDBRANCH   2   3
ENDBRANCH   1   2
BRANCH   1  20
ATOM     20  C   UNL A   1      32.349  27.066  24.463  1.00  0.00     0.202 C 
BRANCH  20  21
ATOM     21  O   UNL A   1      31.812  28.388  24.441  1.00  0.00    -0.374 OA
BRANCH  21  22
ATOM     22  C   UNL A   1      31.529  29.026  25.685  1.00  0.00     0.202 C 
BRANCH  22  23
ATOM     23  C   UNL A   1      32.042  30.455  25.878  1.00  0.00     0.261 C 
BRANCH  23  24
ATOM     24  O   UNL A   1      32.483  30.701  27.225  1.00  0.00    -0.460 OA
BRANCH  24  25
ATOM     25  C   UNL A   1      33.258  31.798  27.370  1.00  0.00     0.338 C 
ATOM     26  O   UNL A   1      32.912  32.972  27.266  1.00  0.00    -0.246 OA
BRANCH  25  27
ATOM     27  C   UNL A   1      34.587  31.421  27.874  1.00  0.00     0.060 A 
ATOM     28  C   UNL A   1      34.773  30.087  28.262  1.00  0.00     0.016 A 
ATOM     29  C   UNL A   1      35.608  32.359  28.037  1.00  0.00     0.016 A 
ATOM     30  C   UNL A   1      35.969  29.693  28.854  1.00  0.00     0.010 A 
ATOM     31  C   UNL A   1      36.803  31.964  28.647  1.00  0.00     0.010 A 
ATOM     32  C   UNL A   1      36.975  30.638  29.085  1.00  0.00    -0.014 A 
BRANCH  32  33
ATOM     33  C   UNL A   1      38.155  30.267  29.900  1.00  0.00     0.031 A 
ATOM     34  C   UNL A   1      39.162  29.307  29.335  1.00  0.00     0.074 A 
ATOM     35  C   UNL A   1      38.338  30.803  31.119  1.00  0.00     0.049 A 
ATOM     36  N   UNL A   1      40.228  28.794  29.895  1.00  0.00    -0.248 NA
ATOM     37  C   UNL A   1      38.937  28.867  27.948  1.00  0.00     0.031 C 
ATOM     38  C   UNL A   1      37.465  31.793  31.742  1.00  0.00     0.029 A 
ATOM     39  N   UNL A   1      39.318  30.578  32.052  1.00  0.00    -0.354 N 
ATOM     40  C   UNL A   1      40.798  27.970  28.934  1.00  0.00     0.074 A 
ATOM     41  C   UNL A   1      39.946  28.030  27.765  1.00  0.00     0.031 C 
ATOM     42  C   UNL A   1      37.941  32.082  32.966  1.00  0.00     0.029 A 
ATOM     43  C   UNL A   1      39.124  31.263  33.224  1.00  0.00     0.049 A 
ATOM     44  H   UNL A   1      40.087  29.982  31.895  1.00  0.00     0.167 HD
ATOM     45  C   UNL A   1      41.932  27.236  29.020  1.00  0.00     0.037 A 
ATOM     46  C   UNL A   1      39.806  31.208  34.384  1.00  0.00     0.037 A 
ATOM     47  C   UNL A   1      42.768  27.175  30.190  1.00  0.00     0.049 A 
ATOM     48  C   UNL A   1      40.992  30.286  34.498  1.00  0.00     0.074 A 
ATOM     49  C   UNL A   1      43.950  26.479  30.373  1.00  0.00     0.029 A 
ATOM     50  N   UNL A   1      42.498  27.826  31.386  1.00  0.00    -0.354 N 
ATOM     51  N   UNL A   1      41.541  29.525  33.583  1.00  0.00    -0.248 NA
ATOM     52  C   UNL A   1      41.646  30.207  35.813  1.00  0.00     0.031 C 
ATOM     53  C   UNL A   1      44.363  26.660  31.697  1.00  0.00     0.029 A 
ATOM     54  C   UNL A   1      43.468  27.512  32.325  1.00  0.00     0.049 A 
ATOM     55  H   UNL A   1      41.730  28.421  31.544  1.00  0.00     0.167 HD
ATOM     56  C   UNL A   1      42.611  28.892  34.201  1.00  0.00     0.074 A 
ATOM     57  C   UNL A   1      42.645  29.371  35.567  1.00  0.00     0.031 C 
ATOM     58  C   UNL A   1      43.484  27.993  33.683  1.00  0.00     0.037 A 
BRANCH  45  59
ATOM     59  C   UNL A   1      42.313  26.409  27.826  1.00  0.00     0.064 A 
ATOM     60  C   UNL A   1      43.249  26.860  26.883  1.00  0.00     0.173 A 
ATOM     61  C   UNL A   1      41.747  25.140  27.633  1.00  0.00     0.173 A 
ATOM     62  F   UNL A   1      43.810  28.071  27.014  1.00  0.00    -0.203 F 
ATOM     63  C   UNL A   1      43.581  26.083  25.775  1.00  0.00     0.198 A 
ATOM     64  C   UNL A   1      42.104  24.354  26.541  1.00  0.00     0.198 A 
ATOM     65  F   UNL A   1      40.851  24.659  28.508  1.00  0.00    -0.203 F 
ATOM     66  F   UNL A   1      44.439  26.555  24.861  1.00  0.00    -0.200 F 
ATOM     67  C   UNL A   1      43.013  24.829  25.609  1.00  0.00     0.200 A 
ATOM     68  F   UNL A   1      41.562  23.137  26.387  1.00  0.00    -0.200 F 
ATOM     69  F   UNL A   1      43.335  24.082  24.543  1.00  0.00    -0.200 F 
ENDBRANCH  45  59
BRANCH  46  70
ATOM     70  C   UNL A   1      39.365  32.029  35.541  1.00  0.00     0.064 A 
ATOM     71  C   UNL A   1      38.503  31.504  36.512  1.00  0.00     0.173 A 
ATOM     72  C   UNL A   1      39.797  33.355  35.699  1.00  0.00     0.173 A 
ATOM     73  F   UNL A   1      38.042  30.250  36.390  1.00  0.00    -0.203 F 
ATOM     74  C   UNL A   1      38.083  32.275  37.594  1.00  0.00     0.198 A 
ATOM     75  C   UNL A   1      39.399  34.116  36.795  1.00  0.00     0.198 A 
ATOM     76  F   UNL A   1      40.619  33.906  34.794  1.00  0.00    -0.203 F 
ATOM     77  F   UNL A   1      37.230  31.760  38.490  1.00  0.00    -0.200 F 
ATOM     78  C   UNL A   1      38.537  33.577  37.740  1.00  0.00     0.200 A 
ATOM     79  F   UNL A   1      39.851  35.370  36.939  1.00  0.00    -0.200 F 
ATOM     80  F   UNL A   1      38.142  34.315  38.786  1.00  0.00    -0.200 F 
ENDBRANCH  46  70
BRANCH  58  81
ATOM     81  C   UNL A   1      44.562  27.475  34.592  1.00  0.00     0.064 A 
ATOM     82  C   UNL A   1      45.771  28.165  34.761  1.00  0.00     0.173 A 
ATOM     83  C   UNL A   1      44.359  26.309  35.346  1.00  0.00     0.173 A 
ATOM     84  F   UNL A   1      46.020  29.274  34.050  1.00  0.00    -0.203 F 
ATOM     85  C   UNL A   1      46.743  27.698  35.642  1.00  0.00     0.198 A 
ATOM     86  C   UNL A   1      45.321  25.862  36.247  1.00  0.00     0.198 A 
ATOM     87  F   UNL A   1      43.217  25.615  35.225  1.00  0.00    -0.203 F 
ATOM     88  F   UNL A   1      47.907  28.353  35.760  1.00  0.00    -0.200 F 
ATOM     89  C   UNL A   1      46.514  26.554  36.392  1.00  0.00     0.200 A 
ATOM     90  F   UNL A   1      45.091  24.764  36.981  1.00  0.00    -0.200 F 
ATOM     91  F   UNL A   1      47.445  26.115  37.249  1.00  0.00    -0.200 F 
ENDBRANCH  58  81
ENDBRANCH  32  33
ENDBRANCH  25  27
ENDBRANCH  24  25
ENDBRANCH  23  24
ENDBRANCH  22  23
ENDBRANCH  21  22
ENDBRANCH  20  21
ENDBRANCH   1  20
TORSDOF 19
ENDMDL
MODEL 2
REMARK VINA RESULT:     -10.5      4.322      9.977
REMARK SMILES C[C@H](CC(=O)NC[C@@]1(C)CCCO1)CC(=O)OCCOCCOC(=O)c1ccc(-c2c3nc(c(-c4c(F)c(F)c(F)c(F)c4F)c4ccc([nH]4)c(-c4c(F)c(F)c(F)c(F)c4F)c4nc(c(-c5c(F)c(F)c(F)c(F)c5F)c5ccc2[nH]5)C=C4)C=C3)cc1
REMARK SMILES IDX 18 1 17 2 15 3 16 4 14 5 2 6 1 7 3 8 4 9 5 10 6 11 7 13 8 14
REMARK SMILES IDX 9 15 10 16 13 17 11 18 12 19 19 20 20 21 21 22 22 23 23 24
REMARK SMILES IDX 24 25 25 26 26 27 27 28 88 29 28 30 87 31 29 32 30 33 31 34
REMARK SMILES IDX 81 35 32 36 86 37 80 38 82 39 33 40 85 41 79 42 78 43 34 45
REMARK SMILES IDX 66 46 46 47 65 48 47 49 50 50 64 51 83 52 48 53 49 54 63 56
REMARK SMILES IDX 84 57 51 58 35 59 36 60 44 61 37 62 38 63 42 64 45 65 39 66
REMARK SMILES IDX 40 67 43 68 41 69 67 70 68 71 76 72 69 73 70 74 74 75 77 76
REMARK SMILES IDX 71 77 72 78 75 79 73 80 52 81 53 82 61 83 54 84 55 85 59 86
REMARK SMILES IDX 62 87 56 88 57 89 60 90 58 91
REMARK H PARENT 6 12 82 44 50 55
REMARK Flexibility Score: inf
ROOT
ATOM      1  C   UNL A   1      34.658  24.226  23.483  1.00  0.00     0.261 C 
ENDROOT
BRANCH   1   2
ATOM      2  O   UNL A   1      33.938  24.128  22.246  1.00  0.00    -0.463 OA
BRANCH   2   3
ATOM      3  C   UNL A   1      33.296  25.245  21.840  1.00  0.00     0.306 C 
ATOM      4  O   UNL A   1      33.093  25.550  20.671  1.00  0.00    -0.252 OA
BRANCH   3   5
ATOM      5  C   UNL A   1      32.780  26.088  22.987  1.00  0.00     0.126 C 
BRANCH   5   6
ATOM      6  C   UNL A   1      31.702  25.566  23.949  1.00  0.00     0.006 C 
ATOM      7  C   UNL A   1      30.628  24.815  23.138  1.00  0.00     0.009 C 
BRANCH   6   8
ATOM      8  C   UNL A   1      31.081  26.561  24.952  1.00  0.00     0.104 C 
BRANCH   8   9
ATOM      9  C   UNL A   1      31.310  26.374  26.443  1.00  0.00     0.220 C 
ATOM     10  O   UNL A   1      31.323  25.240  26.928  1.00  0.00    -0.275 OA
ATOM     11  N   UNL A   1      31.580  27.418  27.268  1.00  0.00    -0.353 N 
ATOM     12  H   UNL A   1      31.814  27.156  28.188  1.00  0.00     0.163 HD
BRANCH  11  13
ATOM     13  C   UNL A   1      31.585  28.855  27.034  1.00  0.00     0.151 C 
BRANCH  13  14
ATOM     14  C   UNL A   1      32.990  29.400  26.649  1.00  0.00     0.083 C 
ATOM     15  C   UNL A   1      33.137  29.435  25.124  1.00  0.00     0.044 C 
ATOM     16  C   UNL A   1      33.277  30.777  27.250  1.00  0.00     0.039 C 
ATOM     17  O   UNL A   1      34.028  28.537  27.164  1.00  0.00    -0.373 OA
ATOM     18  C   UNL A   1      34.778  30.783  27.423  1.00  0.00     0.031 C 
ATOM     19  C   UNL A   1      35.122  29.327  27.649  1.00  0.00     0.161 C 
ENDBRANCH  13  14
ENDBRANCH  11  13
ENDBRANCH   8   9
ENDBRANCH   6   8
ENDBRANCH   5   6
ENDBRANCH   3   5
ENDBRANCH   2   3
ENDBRANCH   1   2
BRANCH   1  20
ATOM     20  C   UNL A   1      34.559  22.902  24.240  1.00  0.00     0.202 C 
BRANCH  20  21
ATOM     21  O   UNL A   1      35.120  22.878  25.552  1.00  0.00    -0.374 OA
BRANCH  21  22
ATOM     22  C   UNL A   1      35.709  21.664  26.015  1.00  0.00     0.202 C 
BRANCH  22  23
ATOM     23  C   UNL A   1      36.758  21.001  25.117  1.00  0.00     0.261 C 
BRANCH  23  24
ATOM     24  O   UNL A   1      37.969  21.773  25.032  1.00  0.00    -0.460 OA
BRANCH  24  25
ATOM     25  C   UNL A   1      38.908  21.445  25.946  1.00  0.00     0.338 C 
ATOM     26  O   UNL A   1      39.365  20.328  26.174  1.00  0.00    -0.246 OA
BRANCH  25  27
ATOM     27  C   UNL A   1      39.488  22.658  26.541  1.00  0.00     0.060 A 
ATOM     28  C   UNL A   1      39.005  23.892  26.085  1.00  0.00     0.016 A 
ATOM     29  C   UNL A   1      40.531  22.600  27.467  1.00  0.00     0.016 A 
ATOM     30  C   UNL A   1      39.591  25.076  26.521  1.00  0.00     0.010 A 
ATOM     31  C   UNL A   1      41.130  23.791  27.892  1.00  0.00     0.010 A 
ATOM     32  C   UNL A   1      40.681  25.029  27.397  1.00  0.00    -0.014 A 
BRANCH  32  33
ATOM     33  C   UNL A   1      41.435  26.269  27.695  1.00  0.00     0.031 A 
ATOM     34  C   UNL A   1      40.763  27.366  28.470  1.00  0.00     0.074 A 
ATOM     35  C   UNL A   1      42.713  26.403  27.300  1.00  0.00     0.049 A 
ATOM     36  N   UNL A   1      41.207  28.556  28.784  1.00  0.00    -0.248 NA
ATOM     37  C   UNL A   1      39.405  27.079  28.961  1.00  0.00     0.031 C 
ATOM     38  C   UNL A   1      43.488  25.383  26.600  1.00  0.00     0.029 A 
ATOM     39  N   UNL A   1      43.577  27.461  27.426  1.00  0.00    -0.354 N 
ATOM     40  C   UNL A   1      40.186  29.161  29.503  1.00  0.00     0.074 A 
ATOM     41  C   UNL A   1      39.088  28.218  29.557  1.00  0.00     0.031 C 
ATOM     42  C   UNL A   1      44.715  25.870  26.344  1.00  0.00     0.029 A 
ATOM     43  C   UNL A   1      44.791  27.249  26.822  1.00  0.00     0.049 A 
ATOM     44  H   UNL A   1      43.349  28.291  27.903  1.00  0.00     0.167 HD
ATOM     45  C   UNL A   1      40.169  30.391  30.071  1.00  0.00     0.037 A 
ATOM     46  C   UNL A   1      45.830  28.087  26.647  1.00  0.00     0.037 A 
ATOM     47  C   UNL A   1      41.262  31.325  30.004  1.00  0.00     0.049 A 
ATOM     48  C   UNL A   1      45.740  29.494  27.178  1.00  0.00     0.074 A 
ATOM     49  C   UNL A   1      41.354  32.587  30.564  1.00  0.00     0.029 A 
ATOM     50  N   UNL A   1      42.448  31.104  29.319  1.00  0.00    -0.354 N 
ATOM     51  N   UNL A   1      44.782  30.057  27.875  1.00  0.00    -0.248 NA
ATOM     52  C   UNL A   1      46.870  30.387  26.885  1.00  0.00     0.031 C 
ATOM     53  C   UNL A   1      42.571  33.152  30.168  1.00  0.00     0.029 A 
ATOM     54  C   UNL A   1      43.261  32.223  29.405  1.00  0.00     0.049 A 
ATOM     55  H   UNL A   1      42.677  30.274  28.841  1.00  0.00     0.167 HD
ATOM     56  C   UNL A   1      45.200  31.358  28.119  1.00  0.00     0.074 A 
ATOM     57  C   UNL A   1      46.505  31.498  27.509  1.00  0.00     0.031 C 
ATOM     58  C   UNL A   1      44.557  32.348  28.787  1.00  0.00     0.037 A 
BRANCH  45  59
ATOM     59  C   UNL A   1      38.914  30.807  30.783  1.00  0.00     0.064 A 
ATOM     60  C   UNL A   1      38.746  30.610  32.161  1.00  0.00     0.173 A 
ATOM     61  C   UNL A   1      37.874  31.429  30.077  1.00  0.00     0.173 A 
ATOM     62  F   UNL A   1      39.706  30.008  32.880  1.00  0.00    -0.203 F 
ATOM     63  C   UNL A   1      37.569  30.993  32.801  1.00  0.00     0.198 A 
ATOM     64  C   UNL A   1      36.712  31.838  30.725  1.00  0.00     0.198 A 
ATOM     65  F   UNL A   1      37.985  31.647  28.758  1.00  0.00    -0.203 F 
ATOM     66  F   UNL A   1      37.411  30.749  34.109  1.00  0.00    -0.200 F 
ATOM     67  C   UNL A   1      36.557  31.612  32.085  1.00  0.00     0.200 A 
ATOM     68  F   UNL A   1      35.738  32.446  30.033  1.00  0.00    -0.200 F 
ATOM     69  F   UNL A   1      35.425  31.982  32.702  1.00  0.00    -0.200 F 
ENDBRANCH  45  59
BRANCH  46  70
ATOM     70  C   UNL A   1      47.036  27.627  25.911  1.00  0.00     0.064 A 
ATOM     71  C   UNL A   1      48.130  27.078  26.591  1.00  0.00     0.173 A 
ATOM     72  C   UNL A   1      47.117  27.724  24.513  1.00  0.00     0.173 A 
ATOM     73  F   UNL A   1      48.110  26.989  27.929  1.00  0.00    -0.203 F 
ATOM     74  C   UNL A   1      49.264  26.651  25.903  1.00  0.00     0.198 A 
ATOM     75  C   UNL A   1      48.239  27.272  23.823  1.00  0.00     0.198 A 
ATOM     76  F   UNL A   1      46.097  28.247  23.816  1.00  0.00    -0.203 F 
ATOM     77  F   UNL A   1      50.312  26.163  26.580  1.00  0.00    -0.200 F 
ATOM     78  C   UNL A   1      49.315  26.741  24.520  1.00  0.00     0.200 A 
ATOM     79  F   UNL A   1      48.278  27.349  22.486  1.00  0.00    -0.200 F 
ATOM     80  F   UNL A   1      50.401  26.320  23.857  1.00  0.00    -0.200 F 
ENDBRANCH  46  70
BRANCH  58  81
ATOM     81  C   UNL A   1      45.259  33.670  28.907  1.00  0.00     0.064 A 
ATOM     82  C   UNL A   1      46.156  33.930  29.953  1.00  0.00     0.173 A 
ATOM     83  C   UNL A   1      45.079  34.664  27.933  1.00  0.00     0.173 A 
ATOM     84  F   UNL A   1      46.350  33.020  30.919  1.00  0.00    -0.203 F 
ATOM     85  C   UNL A   1      46.836  35.143  30.026  1.00  0.00     0.198 A 
ATOM     86  C   UNL A   1      45.783  35.863  27.994  1.00  0.00     0.198 A 
ATOM     87  F   UNL A   1      44.236  34.462  26.909  1.00  0.00    -0.203 F 
ATOM     88  F   UNL A   1      47.662  35.385  31.055  1.00  0.00    -0.200 F 
ATOM     89  C   UNL A   1      46.658  36.104  29.042  1.00  0.00     0.200 A 
ATOM     90  F   UNL A   1      45.619  36.784  27.033  1.00  0.00    -0.200 F 
ATOM     91  F   UNL A   1      47.325  37.265  29.107  1.00  0.00    -0.200 F 
ENDBRANCH  58  81
ENDBRANCH  32  33
ENDBRANCH  25  27
ENDBRANCH  24  25
ENDBRANCH  23  24
ENDBRANCH  22  23
ENDBRANCH  21  22
ENDBRANCH  20  21
ENDBRANCH   1  20
TORSDOF 19
ENDMDL
MODEL 3
REMARK VINA RESULT:     -10.5      5.038      9.639
REMARK SMILES C[C@H](CC(=O)NC[C@@]1(C)CCCO1)CC(=O)OCCOCCOC(=O)c1ccc(-c2c3nc(c(-c4c(F)c(F)c(F)c(F)c4F)c4ccc([nH]4)c(-c4c(F)c(F)c(F)c(F)c4F)c4nc(c(-c5c(F)c(F)c(F)c(F)c5F)c5ccc2[nH]5)C=C4)C=C3)cc1
REMARK SMILES IDX 18 1 17 2 15 3 16 4 14 5 2 6 1 7 3 8 4 9 5 10 6 11 7 13 8 14
REMARK SMILES IDX 9 15 10 16 13 17 11 18 12 19 19 20 20 21 21 22 22 23 23 24
REMARK SMILES IDX 24 25 25 26 26 27 27 28 88 29 28 30 87 31 29 32 30 33 31 34
REMARK SMILES IDX 81 35 32 36 86 37 80 38 82 39 33 40 85 41 79 42 78 43 34 45
REMARK SMILES IDX 66 46 46 47 65 48 47 49 50 50 64 51 83 52 48 53 49 54 63 56
REMARK SMILES IDX 84 57 51 58 35 59 36 60 44 61 37 62 38 63 42 64 45 65 39 66
REMARK SMILES IDX 40 67 43 68 41 69 67 70 68 71 76 72 69 73 70 74 74 75 77 76
REMARK SMILES IDX 71 77 72 78 75 79 73 80 52 81 53 82 61 83 54 84 55 85 59 86
REMARK SMILES IDX 62 87 56 88 57 89 60 90 58 91
REMARK H PARENT 6 12 82 44 50 55
REMARK Flexibility Score: inf
ROOT
ATOM      1  C   UNL A   1      33.684  31.231  27.574  1.00  0.00     0.261 C 
ENDROOT
BRANCH   1   2
ATOM      2  O   UNL A   1      32.398  31.662  27.107  1.00  0.00    -0.463 OA
BRANCH   2   3
ATOM      3  C   UNL A   1      31.778  30.843  26.230  1.00  0.00     0.306 C 
ATOM      4  O   UNL A   1      30.903  31.192  25.445  1.00  0.00    -0.252 OA
BRANCH   3   5
ATOM      5  C   UNL A   1      32.310  29.425  26.256  1.00  0.00     0.126 C 
BRANCH   5   6
ATOM      6  C   UNL A   1      31.438  28.230  25.842  1.00  0.00     0.006 C 
ATOM      7  C   UNL A   1      31.603  27.105  26.883  1.00  0.00     0.009 C 
BRANCH   6   8
ATOM      8  C   UNL A   1      31.565  27.706  24.397  1.00  0.00     0.104 C 
BRANCH   8   9
ATOM      9  C   UNL A   1      30.318  27.300  23.627  1.00  0.00     0.220 C 
ATOM     10  O   UNL A   1      29.826  26.181  23.795  1.00  0.00    -0.275 OA
ATOM     11  N   UNL A   1      29.667  28.160  22.804  1.00  0.00    -0.353 N 
ATOM     12  H   UNL A   1      28.816  27.815  22.448  1.00  0.00     0.163 HD
BRANCH  11  13
ATOM     13  C   UNL A   1      30.003  29.503  22.352  1.00  0.00     0.151 C 
BRANCH  13  14
ATOM     14  C   UNL A   1      28.754  30.415  22.186  1.00  0.00     0.083 C 
ATOM     15  C   UNL A   1      27.586  29.856  23.005  1.00  0.00     0.044 C 
ATOM     16  C   UNL A   1      29.030  31.872  22.565  1.00  0.00     0.039 C 
ATOM     17  O   UNL A   1      28.335  30.455  20.804  1.00  0.00    -0.373 OA
ATOM     18  C   UNL A   1      28.078  32.653  21.688  1.00  0.00     0.031 C 
ATOM     19  C   UNL A   1      27.927  31.785  20.457  1.00  0.00     0.161 C 
ENDBRANCH  13  14
ENDBRANCH  11  13
ENDBRANCH   8   9
ENDBRANCH   6   8
ENDBRANCH   5   6
ENDBRANCH   3   5
ENDBRANCH   2   3
ENDBRANCH   1   2
BRANCH   1  20
ATOM     20  C   UNL A   1      34.457  32.429  28.124  1.00  0.00     0.202 C 
BRANCH  20  21
ATOM     21  O   UNL A   1      33.734  33.313  28.979  1.00  0.00    -0.374 OA
BRANCH  21  22
ATOM     22  C   UNL A   1      34.472  34.162  29.856  1.00  0.00     0.202 C 
BRANCH  22  23
ATOM     23  C   UNL A   1      34.477  33.806  31.346  1.00  0.00     0.261 C 
BRANCH  23  24
ATOM     24  O   UNL A   1      34.690  32.401  31.570  1.00  0.00    -0.460 OA
BRANCH  24  25
ATOM     25  C   UNL A   1      35.701  32.116  32.421  1.00  0.00     0.338 C 
ATOM     26  O   UNL A   1      35.718  32.286  33.637  1.00  0.00    -0.246 OA
BRANCH  25  27
ATOM     27  C   UNL A   1      36.760  31.372  31.724  1.00  0.00     0.060 A 
ATOM     28  C   UNL A   1      37.760  30.786  32.513  1.00  0.00     0.016 A 
ATOM     29  C   UNL A   1      36.824  31.309  30.331  1.00  0.00     0.016 A 
ATOM     30  C   UNL A   1      38.851  30.168  31.911  1.00  0.00     0.010 A 
ATOM     31  C   UNL A   1      37.930  30.701  29.728  1.00  0.00     0.010 A 
ATOM     32  C   UNL A   1      38.961  30.156  30.515  1.00  0.00    -0.014 A 
BRANCH  32  33
ATOM     33  C   UNL A   1      40.216  29.689  29.883  1.00  0.00     0.031 A 
ATOM     34  C   UNL A   1      41.362  30.648  29.737  1.00  0.00     0.074 A 
ATOM     35  C   UNL A   1      40.340  28.416  29.469  1.00  0.00     0.049 A 
ATOM     36  N   UNL A   1      42.523  30.476  29.158  1.00  0.00    -0.248 NA
ATOM     37  C   UNL A   1      41.174  31.984  30.327  1.00  0.00     0.031 C 
ATOM     38  C   UNL A   1      39.322  27.381  29.618  1.00  0.00     0.029 A 
ATOM     39  N   UNL A   1      41.377  27.785  28.830  1.00  0.00    -0.354 N 
ATOM     40  C   UNL A   1      43.201  31.678  29.309  1.00  0.00     0.074 A 
ATOM     41  C   UNL A   1      42.313  32.581  30.010  1.00  0.00     0.031 C 
ATOM     42  C   UNL A   1      39.779  26.241  29.071  1.00  0.00     0.029 A 
ATOM     43  C   UNL A   1      41.101  26.483  28.496  1.00  0.00     0.049 A 
ATOM     44  H   UNL A   1      42.236  28.224  28.631  1.00  0.00     0.167 HD
ATOM     45  C   UNL A   1      44.454  31.995  28.903  1.00  0.00     0.037 A 
ATOM     46  C   UNL A   1      41.821  25.601  27.777  1.00  0.00     0.037 A 
ATOM     47  C   UNL A   1      45.326  31.093  28.198  1.00  0.00     0.049 A 
ATOM     48  C   UNL A   1      43.159  26.018  27.226  1.00  0.00     0.074 A 
ATOM     49  C   UNL A   1      46.622  31.309  27.762  1.00  0.00     0.029 A 
ATOM     50  N   UNL A   1      44.983  29.806  27.811  1.00  0.00    -0.354 N 
ATOM     51  N   UNL A   1      43.807  27.148  27.388  1.00  0.00    -0.248 NA
ATOM     52  C   UNL A   1      43.862  25.042  26.382  1.00  0.00     0.031 C 
ATOM     53  C   UNL A   1      47.040  30.174  27.059  1.00  0.00     0.029 A 
ATOM     54  C   UNL A   1      46.026  29.231  27.102  1.00  0.00     0.049 A 
ATOM     55  H   UNL A   1      44.125  29.366  28.010  1.00  0.00     0.167 HD
ATOM     56  C   UNL A   1      44.996  27.012  26.684  1.00  0.00     0.074 A 
ATOM     57  C   UNL A   1      44.988  25.684  26.106  1.00  0.00     0.031 C 
ATOM     58  C   UNL A   1      46.001  27.909  26.529  1.00  0.00     0.037 A 
BRANCH  45  59
ATOM     59  C   UNL A   1      44.938  33.388  29.181  1.00  0.00     0.064 A 
ATOM     60  C   UNL A   1      45.708  33.692  30.314  1.00  0.00     0.173 A 
ATOM     61  C   UNL A   1      44.644  34.431  28.289  1.00  0.00     0.173 A 
ATOM     62  F   UNL A   1      46.006  32.733  31.204  1.00  0.00    -0.203 F 
ATOM     63  C   UNL A   1      46.138  34.994  30.560  1.00  0.00     0.198 A 
ATOM     64  C   UNL A   1      45.101  35.725  28.523  1.00  0.00     0.198 A 
ATOM     65  F   UNL A   1      43.916  34.195  27.187  1.00  0.00    -0.203 F 
ATOM     66  F   UNL A   1      46.829  35.269  31.675  1.00  0.00    -0.200 F 
ATOM     67  C   UNL A   1      45.840  36.007  29.662  1.00  0.00     0.200 A 
ATOM     68  F   UNL A   1      44.823  36.702  27.648  1.00  0.00    -0.200 F 
ATOM     69  F   UNL A   1      46.257  37.259  29.899  1.00  0.00    -0.200 F 
ENDBRANCH  45  59
BRANCH  46  70
ATOM     70  C   UNL A   1      41.277  24.244  27.512  1.00  0.00     0.064 A 
ATOM     71  C   UNL A   1      41.829  23.114  28.126  1.00  0.00     0.173 A 
ATOM     72  C   UNL A   1      40.193  24.052  26.641  1.00  0.00     0.173 A 
ATOM     73  F   UNL A   1      42.883  23.245  28.946  1.00  0.00    -0.203 F 
ATOM     74  C   UNL A   1      41.325  21.839  27.874  1.00  0.00     0.198 A 
ATOM     75  C   UNL A   1      39.671  22.781  26.411  1.00  0.00     0.198 A 
ATOM     76  F   UNL A   1      39.632  25.102  26.025  1.00  0.00    -0.203 F 
ATOM     77  F   UNL A   1      41.894  20.770  28.446  1.00  0.00    -0.200 F 
ATOM     78  C   UNL A   1      40.242  21.675  27.024  1.00  0.00     0.200 A 
ATOM     79  F   UNL A   1      38.617  22.628  25.599  1.00  0.00    -0.200 F 
ATOM     80  F   UNL A   1      39.750  20.450  26.790  1.00  0.00    -0.200 F 
ENDBRANCH  46  70
BRANCH  58  81
ATOM     81  C   UNL A   1      47.187  27.483  25.711  1.00  0.00     0.064 A 
ATOM     82  C   UNL A   1      47.223  27.669  24.322  1.00  0.00     0.173 A 
ATOM     83  C   UNL A   1      48.322  26.940  26.331  1.00  0.00     0.173 A 
ATOM     84  F   UNL A   1      46.156  28.169  23.680  1.00  0.00    -0.203 F 
ATOM     85  C   UNL A   1      48.348  27.314  23.582  1.00  0.00     0.198 A 
ATOM     86  C   UNL A   1      49.455  26.612  25.592  1.00  0.00     0.198 A 
ATOM     87  F   UNL A   1      48.340  26.746  27.659  1.00  0.00    -0.203 F 
ATOM     88  F   UNL A   1      48.346  27.466  22.250  1.00  0.00    -0.200 F 
ATOM     89  C   UNL A   1      49.466  26.796  24.218  1.00  0.00     0.200 A 
ATOM     90  F   UNL A   1      50.540  26.125  26.210  1.00  0.00    -0.200 F 
ATOM     91  F   UNL A   1      50.552  26.467  23.505  1.00  0.00    -0.200 F 
ENDBRANCH  58  81
ENDBRANCH  32  33
ENDBRANCH  25  27
ENDBRANCH  24  25
ENDBRANCH  23  24
ENDBRANCH  22  23
ENDBRANCH  21  22
ENDBRANCH  20  21
ENDBRANCH   1  20
TORSDOF 19
ENDMDL
