MODEL 1
REMARK VINA RESULT:     -10.9      0.000      0.000
REMARK SMILES [NH3+][C@H](C(=O)OCCOCCOC(=O)c1ccc(-c2c3nc(c(-c4c(F)c(F)c(F)c(F)c4F)c4ccc([nH]4)c(-c4c(F)c(F)c(F)c(F)c4F)c4nc(c(-c5c(F)c(F)c(F)c(F)c5F)c5ccc2[nH]5)C=C4)C=C3)cc1)c1ccc(Cl)c(OC(F)(F)F)c1
REMARK SMILES IDX 7 1 6 2 5 3 3 4 4 5 2 6 1 7 77 11 78 12 88 13 79 14 82 15
REMARK SMILES IDX 80 16 81 17 83 18 84 19 85 20 86 21 87 22 8 23 9 24 10 25
REMARK SMILES IDX 11 26 12 27 13 28 14 29 15 30 76 31 16 32 75 33 17 34 18 35
REMARK SMILES IDX 19 36 69 37 20 38 74 39 68 40 70 41 21 42 73 43 67 44 66 45
REMARK SMILES IDX 22 47 54 48 34 49 53 50 35 51 38 52 52 53 71 54 36 55 37 56
REMARK SMILES IDX 51 58 72 59 39 60 23 61 24 62 32 63 25 64 26 65 30 66 33 67
REMARK SMILES IDX 27 68 28 69 31 70 29 71 55 72 56 73 64 74 57 75 58 76 62 77
REMARK SMILES IDX 65 78 59 79 60 80 63 81 61 82 40 83 41 84 49 85 42 86 43 87
REMARK SMILES IDX 47 88 50 89 44 90 45 91 48 92 46 93
REMARK H PARENT 1 8 1 9 1 10 70 46 38 57
REMARK Flexibility Score: inf
ROOT
ATOM      1  C   UNL A   1      36.672  22.125  24.196  1.00  0.00     0.202 C 
ENDROOT
BRANCH   1   2
ATOM      2  C   UNL A   1      35.974  23.358  24.775  1.00  0.00     0.261 C 
BRANCH   2   3
ATOM      3  O   UNL A   1      35.597  23.091  26.138  1.00  0.00    -0.459 OA
BRANCH   3   4
ATOM      4  C   UNL A   1      34.281  23.207  26.436  1.00  0.00     0.369 C 
ATOM      5  O   UNL A   1      33.655  24.264  26.377  1.00  0.00    -0.245 OA
BRANCH   4   6
ATOM      6  C   UNL A   1      33.581  21.864  26.787  1.00  0.00     0.323 C 
BRANCH   6   7
ATOM      7  N   UNL A   1      32.418  22.207  27.652  1.00  0.00    -0.342 N 
ATOM      8  H   UNL A   1      32.409  21.596  28.469  1.00  0.00     0.345 HD
ATOM      9  H   UNL A   1      31.554  22.083  27.125  1.00  0.00     0.345 HD
ATOM     10  H   UNL A   1      32.495  23.178  27.956  1.00  0.00     0.345 HD
ENDBRANCH   6   7
BRANCH   6  11
ATOM     11  C   UNL A   1      33.176  20.921  25.643  1.00  0.00     0.025 A 
ATOM     12  C   UNL A   1      32.745  21.428  24.407  1.00  0.00     0.012 A 
ATOM     13  C   UNL A   1      33.342  19.518  25.749  1.00  0.00     0.059 A 
ATOM     14  C   UNL A   1      32.427  20.574  23.348  1.00  0.00     0.025 A 
ATOM     15  C   UNL A   1      33.043  18.647  24.690  1.00  0.00     0.148 A 
ATOM     16  C   UNL A   1      32.567  19.194  23.492  1.00  0.00     0.083 A 
ATOM     17  Cl  UNL A   1      32.152  18.194  22.144  1.00  0.00    -0.080 Cl
BRANCH  15  18
ATOM     18  O   UNL A   1      33.191  17.287  24.720  1.00  0.00    -0.404 OA
BRANCH  18  19
ATOM     19  C   UNL A   1      34.441  16.729  24.361  1.00  0.00     0.573 C 
ATOM     20  F   UNL A   1      34.823  15.779  25.240  1.00  0.00    -0.132 F 
ATOM     21  F   UNL A   1      34.392  16.204  23.118  1.00  0.00    -0.132 F 
ATOM     22  F   UNL A   1      35.374  17.706  24.369  1.00  0.00    -0.132 F 
ENDBRANCH  18  19
ENDBRANCH  15  18
ENDBRANCH   6  11
ENDBRANCH   4   6
ENDBRANCH   3   4
ENDBRANCH   2   3
ENDBRANCH   1   2
BRANCH   1  23
ATOM     23  O   UNL A   1      37.135  21.188  25.170  1.00  0.00    -0.374 OA
BRANCH  23  24
ATOM     24  C   UNL A   1      38.525  21.214  25.496  1.00  0.00     0.202 C 
BRANCH  24  25
ATOM     25  C   UNL A   1      39.247  19.864  25.441  1.00  0.00     0.261 C 
BRANCH  25  26
ATOM     26  O   UNL A   1      40.118  19.677  26.570  1.00  0.00    -0.460 OA
BRANCH  26  27
ATOM     27  C   UNL A   1      41.416  19.463  26.254  1.00  0.00     0.338 C 
ATOM     28  O   UNL A   1      41.904  18.460  25.752  1.00  0.00    -0.246 OA
BRANCH  27  29
ATOM     29  C   UNL A   1      42.192  20.703  26.438  1.00  0.00     0.060 A 
ATOM     30  C   UNL A   1      42.292  21.211  27.739  1.00  0.00     0.016 A 
ATOM     31  C   UNL A   1      42.753  21.395  25.362  1.00  0.00     0.016 A 
ATOM     32  C   UNL A   1      42.909  22.438  27.965  1.00  0.00     0.010 A 
ATOM     33  C   UNL A   1      43.371  22.631  25.589  1.00  0.00     0.010 A 
ATOM     34  C   UNL A   1      43.418  23.174  26.885  1.00  0.00    -0.014 A 
BRANCH  34  35
ATOM     35  C   UNL A   1      43.853  24.575  27.106  1.00  0.00     0.031 A 
ATOM     36  C   UNL A   1      42.844  25.585  27.578  1.00  0.00     0.074 A 
ATOM     37  C   UNL A   1      45.138  24.932  26.937  1.00  0.00     0.049 A 
ATOM     38  N   UNL A   1      43.002  26.859  27.837  1.00  0.00    -0.248 NA
ATOM     39  C   UNL A   1      41.474  25.092  27.788  1.00  0.00     0.031 C 
ATOM     40  C   UNL A   1      46.216  24.038  26.522  1.00  0.00     0.029 A 
ATOM     41  N   UNL A   1      45.751  26.151  27.095  1.00  0.00    -0.354 N 
ATOM     42  C   UNL A   1      41.754  27.318  28.237  1.00  0.00     0.074 A 
ATOM     43  C   UNL A   1      40.843  26.197  28.157  1.00  0.00     0.031 C 
ATOM     44  C   UNL A   1      47.360  24.739  26.452  1.00  0.00     0.029 A 
ATOM     45  C   UNL A   1      47.089  26.136  26.791  1.00  0.00     0.049 A 
ATOM     46  H   UNL A   1      45.275  26.958  27.397  1.00  0.00     0.167 HD
ATOM     47  C   UNL A   1      41.402  28.561  28.644  1.00  0.00     0.037 A 
ATOM     48  C   UNL A   1      47.987  27.140  26.774  1.00  0.00     0.037 A 
ATOM     49  C   UNL A   1      42.307  29.676  28.728  1.00  0.00     0.049 A 
ATOM     50  C   UNL A   1      47.555  28.529  27.168  1.00  0.00     0.074 A 
ATOM     51  C   UNL A   1      42.048  30.969  29.150  1.00  0.00     0.029 A 
ATOM     52  N   UNL A   1      43.648  29.630  28.376  1.00  0.00    -0.354 N 
ATOM     53  N   UNL A   1      46.380  28.948  27.571  1.00  0.00    -0.248 NA
ATOM     54  C   UNL A   1      48.578  29.583  27.107  1.00  0.00     0.031 C 
ATOM     55  C   UNL A   1      43.222  31.717  29.009  1.00  0.00     0.029 A 
ATOM     56  C   UNL A   1      44.223  30.879  28.546  1.00  0.00     0.049 A 
ATOM     57  H   UNL A   1      44.120  28.830  28.052  1.00  0.00     0.167 HD
ATOM     58  C   UNL A   1      46.528  30.303  27.837  1.00  0.00     0.074 A 
ATOM     59  C   UNL A   1      47.910  30.635  27.560  1.00  0.00     0.031 C 
ATOM     60  C   UNL A   1      45.602  31.193  28.271  1.00  0.00     0.037 A 
BRANCH  47  61
ATOM     61  C   UNL A   1      39.966  28.785  29.013  1.00  0.00     0.064 A 
ATOM     62  C   UNL A   1      39.511  28.631  30.332  1.00  0.00     0.173 A 
ATOM     63  C   UNL A   1      39.038  29.188  28.040  1.00  0.00     0.173 A 
ATOM     64  F   UNL A   1      40.357  28.233  31.294  1.00  0.00    -0.203 F 
ATOM     65  C   UNL A   1      38.175  28.850  30.658  1.00  0.00     0.198 A 
ATOM     66  C   UNL A   1      37.709  29.431  28.376  1.00  0.00     0.198 A 
ATOM     67  F   UNL A   1      39.423  29.352  26.766  1.00  0.00    -0.203 F 
ATOM     68  F   UNL A   1      37.754  28.656  31.915  1.00  0.00    -0.200 F 
ATOM     69  C   UNL A   1      37.278  29.256  29.682  1.00  0.00     0.200 A 
ATOM     70  F   UNL A   1      36.845  29.833  27.433  1.00  0.00    -0.200 F 
ATOM     71  F   UNL A   1      35.993  29.472  29.998  1.00  0.00    -0.200 F 
ENDBRANCH  47  61
BRANCH  48  72
ATOM     72  C   UNL A   1      49.389  26.873  26.361  1.00  0.00     0.064 A 
ATOM     73  C   UNL A   1      50.374  26.556  27.305  1.00  0.00     0.173 A 
ATOM     74  C   UNL A   1      49.774  26.947  25.014  1.00  0.00     0.173 A 
ATOM     75  F   UNL A   1      50.060  26.499  28.607  1.00  0.00    -0.203 F 
ATOM     76  C   UNL A   1      51.695  26.336  26.919  1.00  0.00     0.198 A 
ATOM     77  C   UNL A   1      51.088  26.702  24.627  1.00  0.00     0.198 A 
ATOM     78  F   UNL A   1      48.867  27.249  24.072  1.00  0.00    -0.203 F 
ATOM     79  F   UNL A   1      52.628  26.076  27.846  1.00  0.00    -0.200 F 
ATOM     80  C   UNL A   1      52.050  26.404  25.579  1.00  0.00     0.200 A 
ATOM     81  F   UNL A   1      51.424  26.757  23.330  1.00  0.00    -0.200 F 
ATOM     82  F   UNL A   1      53.320  26.189  25.209  1.00  0.00    -0.200 F 
ENDBRANCH  48  72
BRANCH  60  83
ATOM     83  C   UNL A   1      46.056  32.604  28.507  1.00  0.00     0.064 A 
ATOM     84  C   UNL A   1      45.972  33.580  27.503  1.00  0.00     0.173 A 
ATOM     85  C   UNL A   1      46.538  32.994  29.765  1.00  0.00     0.173 A 
ATOM     86  F   UNL A   1      45.534  33.252  26.278  1.00  0.00    -0.203 F 
ATOM     87  C   UNL A   1      46.376  34.891  27.745  1.00  0.00     0.198 A 
ATOM     88  C   UNL A   1      46.914  34.312  30.012  1.00  0.00     0.198 A 
ATOM     89  F   UNL A   1      46.630  32.101  30.761  1.00  0.00    -0.203 F 
ATOM     90  F   UNL A   1      46.327  35.798  26.759  1.00  0.00    -0.200 F 
ATOM     91  C   UNL A   1      46.838  35.257  29.000  1.00  0.00     0.200 A 
ATOM     92  F   UNL A   1      47.350  34.667  31.229  1.00  0.00    -0.200 F 
ATOM     93  F   UNL A   1      47.219  36.521  29.234  1.00  0.00    -0.200 F 
ENDBRANCH  60  83
ENDBRANCH  34  35
ENDBRANCH  27  29
ENDBRANCH  26  27
ENDBRANCH  25  26
ENDBRANCH  24  25
ENDBRANCH  23  24
ENDBRANCH   1  23
TORSDOF 18
ENDMDL
MODEL 2
REMARK VINA RESULT:     -10.9      6.326     10.310
REMARK SMILES [NH3+][C@H](C(=O)OCCOCCOC(=O)c1ccc(-c2c3nc(c(-c4c(F)c(F)c(F)c(F)c4F)c4ccc([nH]4)c(-c4c(F)c(F)c(F)c(F)c4F)c4nc(c(-c5c(F)c(F)c(F)c(F)c5F)c5ccc2[nH]5)C=C4)C=C3)cc1)c1ccc(Cl)c(OC(F)(F)F)c1
REMARK SMILES IDX 7 1 6 2 5 3 3 4 4 5 2 6 1 7 77 11 78 12 88 13 79 14 82 15
REMARK SMILES IDX 80 16 81 17 83 18 84 19 85 20 86 21 87 22 8 23 9 24 10 25
REMARK SMILES IDX 11 26 12 27 13 28 14 29 15 30 76 31 16 32 75 33 17 34 18 35
REMARK SMILES IDX 19 36 69 37 20 38 74 39 68 40 70 41 21 42 73 43 67 44 66 45
REMARK SMILES IDX 22 47 54 48 34 49 53 50 35 51 38 52 52 53 71 54 36 55 37 56
REMARK SMILES IDX 51 58 72 59 39 60 23 61 24 62 32 63 25 64 26 65 30 66 33 67
REMARK SMILES IDX 27 68 28 69 31 70 29 71 55 72 56 73 64 74 57 75 58 76 62 77
REMARK SMILES IDX 65 78 59 79 60 80 63 81 61 82 40 83 41 84 49 85 42 86 43 87
REMARK SMILES IDX 47 88 50 89 44 90 45 91 48 92 46 93
REMARK H PARENT 1 8 1 9 1 10 70 46 38 57
REMARK Flexibility Score: inf
ROOT
ATOM      1  C   UNL A   1      33.462  30.357  26.684  1.00  0.00     0.202 C 
ENDROOT
BRANCH   1   2
ATOM      2  C   UNL A   1      33.702  28.874  26.391  1.00  0.00     0.261 C 
BRANCH   2   3
ATOM      3  O   UNL A   1      32.766  28.433  25.390  1.00  0.00    -0.459 OA
BRANCH   3   4
ATOM      4  C   UNL A   1      33.285  27.775  24.325  1.00  0.00     0.369 C 
ATOM      5  O   UNL A   1      34.211  26.970  24.401  1.00  0.00    -0.245 OA
BRANCH   4   6
ATOM      6  C   UNL A   1      32.555  28.054  22.981  1.00  0.00     0.323 C 
BRANCH   6   7
ATOM      7  N   UNL A   1      33.018  27.010  22.024  1.00  0.00    -0.342 N 
ATOM      8  H   UNL A   1      33.914  27.289  21.623  1.00  0.00     0.345 HD
ATOM      9  H   UNL A   1      32.331  26.903  21.279  1.00  0.00     0.345 HD
ATOM     10  H   UNL A   1      33.128  26.124  22.516  1.00  0.00     0.345 HD
ENDBRANCH   6   7
BRANCH   6  11
ATOM     11  C   UNL A   1      31.023  28.179  22.983  1.00  0.00     0.025 A 
ATOM     12  C   UNL A   1      30.215  27.140  23.471  1.00  0.00     0.012 A 
ATOM     13  C   UNL A   1      30.380  29.387  22.616  1.00  0.00     0.059 A 
ATOM     14  C   UNL A   1      28.825  27.272  23.523  1.00  0.00     0.025 A 
ATOM     15  C   UNL A   1      28.987  29.542  22.679  1.00  0.00     0.148 A 
ATOM     16  C   UNL A   1      28.216  28.460  23.122  1.00  0.00     0.083 A 
ATOM     17  Cl  UNL A   1      26.491  28.555  23.209  1.00  0.00    -0.080 Cl
BRANCH  15  18
ATOM     18  O   UNL A   1      28.303  30.681  22.351  1.00  0.00    -0.404 OA
BRANCH  18  19
ATOM     19  C   UNL A   1      28.216  31.722  23.305  1.00  0.00     0.573 C 
ATOM     20  F   UNL A   1      29.142  31.577  24.275  1.00  0.00    -0.132 F 
ATOM     21  F   UNL A   1      28.361  32.928  22.714  1.00  0.00    -0.132 F 
ATOM     22  F   UNL A   1      26.995  31.683  23.883  1.00  0.00    -0.132 F 
ENDBRANCH  18  19
ENDBRANCH  15  18
ENDBRANCH   6  11
ENDBRANCH   4   6
ENDBRANCH   3   4
ENDBRANCH   2   3
ENDBRANCH   1   2
BRANCH   1  23
ATOM     23  O   UNL A   1      32.186  30.656  27.252  1.00  0.00    -0.374 OA
BRANCH  23  24
ATOM     24  C   UNL A   1      31.564  31.880  26.862  1.00  0.00     0.202 C 
BRANCH  24  25
ATOM     25  C   UNL A   1      32.455  33.125  26.915  1.00  0.00     0.261 C 
BRANCH  25  26
ATOM     26  O   UNL A   1      32.377  33.786  28.190  1.00  0.00    -0.460 OA
BRANCH  26  27
ATOM     27  C   UNL A   1      33.449  34.551  28.499  1.00  0.00     0.338 C 
ATOM     28  O   UNL A   1      33.477  35.764  28.651  1.00  0.00    -0.246 OA
BRANCH  27  29
ATOM     29  C   UNL A   1      34.608  33.695  28.810  1.00  0.00     0.060 A 
ATOM     30  C   UNL A   1      34.378  32.568  29.609  1.00  0.00     0.016 A 
ATOM     31  C   UNL A   1      35.902  34.017  28.394  1.00  0.00     0.016 A 
ATOM     32  C   UNL A   1      35.447  31.786  30.038  1.00  0.00     0.010 A 
ATOM     33  C   UNL A   1      36.977  33.231  28.827  1.00  0.00     0.010 A 
ATOM     34  C   UNL A   1      36.756  32.135  29.681  1.00  0.00    -0.014 A 
BRANCH  34  35
ATOM     35  C   UNL A   1      37.894  31.441  30.334  1.00  0.00     0.031 A 
ATOM     36  C   UNL A   1      38.224  31.771  31.763  1.00  0.00     0.074 A 
ATOM     37  C   UNL A   1      38.591  30.495  29.681  1.00  0.00     0.049 A 
ATOM     38  N   UNL A   1      39.168  31.288  32.531  1.00  0.00    -0.248 NA
ATOM     39  C   UNL A   1      37.374  32.779  32.415  1.00  0.00     0.031 C 
ATOM     40  C   UNL A   1      38.342  30.057  28.310  1.00  0.00     0.029 A 
ATOM     41  N   UNL A   1      39.655  29.731  30.093  1.00  0.00    -0.354 N 
ATOM     42  C   UNL A   1      39.028  31.935  33.751  1.00  0.00     0.074 A 
ATOM     43  C   UNL A   1      37.929  32.866  33.615  1.00  0.00     0.031 C 
ATOM     44  C   UNL A   1      39.234  29.105  27.988  1.00  0.00     0.029 A 
ATOM     45  C   UNL A   1      40.131  28.886  29.122  1.00  0.00     0.049 A 
ATOM     46  H   UNL A   1      40.039  29.785  30.997  1.00  0.00     0.167 HD
ATOM     47  C   UNL A   1      39.744  31.761  34.888  1.00  0.00     0.037 A 
ATOM     48  C   UNL A   1      41.182  28.043  29.144  1.00  0.00     0.037 A 
ATOM     49  C   UNL A   1      40.835  30.832  35.027  1.00  0.00     0.049 A 
ATOM     50  C   UNL A   1      42.005  27.915  30.400  1.00  0.00     0.074 A 
ATOM     51  C   UNL A   1      41.607  30.569  36.145  1.00  0.00     0.029 A 
ATOM     52  N   UNL A   1      41.312  30.019  34.009  1.00  0.00    -0.354 N 
ATOM     53  N   UNL A   1      41.847  28.509  31.558  1.00  0.00    -0.248 NA
ATOM     54  C   UNL A   1      43.150  26.994  30.351  1.00  0.00     0.031 C 
ATOM     55  C   UNL A   1      42.581  29.630  35.791  1.00  0.00     0.029 A 
ATOM     56  C   UNL A   1      42.385  29.272  34.467  1.00  0.00     0.049 A 
ATOM     57  H   UNL A   1      40.943  29.980  33.097  1.00  0.00     0.167 HD
ATOM     58  C   UNL A   1      42.852  28.017  32.380  1.00  0.00     0.074 A 
ATOM     59  C   UNL A   1      43.609  27.066  31.593  1.00  0.00     0.031 C 
ATOM     60  C   UNL A   1      43.125  28.325  33.672  1.00  0.00     0.037 A 
BRANCH  47  61
ATOM     61  C   UNL A   1      39.380  32.609  36.069  1.00  0.00     0.064 A 
ATOM     62  C   UNL A   1      38.452  32.177  37.029  1.00  0.00     0.173 A 
ATOM     63  C   UNL A   1      39.991  33.858  36.261  1.00  0.00     0.173 A 
ATOM     64  F   UNL A   1      37.830  30.998  36.882  1.00  0.00    -0.203 F 
ATOM     65  C   UNL A   1      38.131  32.975  38.124  1.00  0.00     0.198 A 
ATOM     66  C   UNL A   1      39.688  34.640  37.371  1.00  0.00     0.198 A 
ATOM     67  F   UNL A   1      40.889  34.314  35.375  1.00  0.00    -0.203 F 
ATOM     68  F   UNL A   1      37.210  32.561  39.005  1.00  0.00    -0.200 F 
ATOM     69  C   UNL A   1      38.754  34.202  38.297  1.00  0.00     0.200 A 
ATOM     70  F   UNL A   1      40.298  35.821  37.543  1.00  0.00    -0.200 F 
ATOM     71  F   UNL A   1      38.449  34.966  39.355  1.00  0.00    -0.200 F 
ENDBRANCH  47  61
BRANCH  48  72
ATOM     72  C   UNL A   1      41.524  27.254  27.932  1.00  0.00     0.064 A 
ATOM     73  C   UNL A   1      41.037  25.954  27.752  1.00  0.00     0.173 A 
ATOM     74  C   UNL A   1      42.362  27.782  26.938  1.00  0.00     0.173 A 
ATOM     75  F   UNL A   1      40.254  25.397  28.687  1.00  0.00    -0.203 F 
ATOM     76  C   UNL A   1      41.384  25.205  26.629  1.00  0.00     0.198 A 
ATOM     77  C   UNL A   1      42.688  27.042  25.804  1.00  0.00     0.198 A 
ATOM     78  F   UNL A   1      42.857  29.023  27.065  1.00  0.00    -0.203 F 
ATOM     79  F   UNL A   1      40.938  23.947  26.501  1.00  0.00    -0.200 F 
ATOM     80  C   UNL A   1      42.205  25.752  25.654  1.00  0.00     0.200 A 
ATOM     81  F   UNL A   1      43.472  27.579  24.860  1.00  0.00    -0.200 F 
ATOM     82  F   UNL A   1      42.536  25.032  24.573  1.00  0.00    -0.200 F 
ENDBRANCH  48  72
BRANCH  60  83
ATOM     83  C   UNL A   1      44.267  27.606  34.328  1.00  0.00     0.064 A 
ATOM     84  C   UNL A   1      45.556  28.157  34.367  1.00  0.00     0.173 A 
ATOM     85  C   UNL A   1      44.058  26.374  34.965  1.00  0.00     0.173 A 
ATOM     86  F   UNL A   1      45.810  29.325  33.760  1.00  0.00    -0.203 F 
ATOM     87  C   UNL A   1      46.600  27.487  35.002  1.00  0.00     0.198 A 
ATOM     88  C   UNL A   1      45.097  25.721  35.622  1.00  0.00     0.198 A 
ATOM     89  F   UNL A   1      42.841  25.808  34.963  1.00  0.00    -0.203 F 
ATOM     90  F   UNL A   1      47.834  28.011  34.991  1.00  0.00    -0.200 F 
ATOM     91  C   UNL A   1      46.368  26.275  35.635  1.00  0.00     0.200 A 
ATOM     92  F   UNL A   1      44.869  24.555  36.243  1.00  0.00    -0.200 F 
ATOM     93  F   UNL A   1      47.372  25.636  36.251  1.00  0.00    -0.200 F 
ENDBRANCH  60  83
ENDBRANCH  34  35
ENDBRANCH  27  29
ENDBRANCH  26  27
ENDBRANCH  25  26
ENDBRANCH  24  25
ENDBRANCH  23  24
ENDBRANCH   1  23
TORSDOF 18
ENDMDL
MODEL 3
REMARK VINA RESULT:     -10.9      5.302      8.579
REMARK SMILES [NH3+][C@H](C(=O)OCCOCCOC(=O)c1ccc(-c2c3nc(c(-c4c(F)c(F)c(F)c(F)c4F)c4ccc([nH]4)c(-c4c(F)c(F)c(F)c(F)c4F)c4nc(c(-c5c(F)c(F)c(F)c(F)c5F)c5ccc2[nH]5)C=C4)C=C3)cc1)c1ccc(Cl)c(OC(F)(F)F)c1
REMARK SMILES IDX 7 1 6 2 5 3 3 4 4 5 2 6 1 7 77 11 78 12 88 13 79 14 82 15
REMARK SMILES IDX 80 16 81 17 83 18 84 19 85 20 86 21 87 22 8 23 9 24 10 25
REMARK SMILES IDX 11 26 12 27 13 28 14 29 15 30 76 31 16 32 75 33 17 34 18 35
REMARK SMILES IDX 19 36 69 37 20 38 74 39 68 40 70 41 21 42 73 43 67 44 66 45
REMARK SMILES IDX 22 47 54 48 34 49 53 50 35 51 38 52 52 53 71 54 36 55 37 56
REMARK SMILES IDX 51 58 72 59 39 60 23 61 24 62 32 63 25 64 26 65 30 66 33 67
REMARK SMILES IDX 27 68 28 69 31 70 29 71 55 72 56 73 64 74 57 75 58 76 62 77
REMARK SMILES IDX 65 78 59 79 60 80 63 81 61 82 40 83 41 84 49 85 42 86 43 87
REMARK SMILES IDX 47 88 50 89 44 90 45 91 48 92 46 93
REMARK H PARENT 1 8 1 9 1 10 70 46 38 57
REMARK Flexibility Score: inf
ROOT
ATOM      1  C   UNL A   1      45.939  19.776  25.059  1.00  0.00     0.202 C 
ENDROOT
BRANCH   1   2
ATOM      2  C   UNL A   1      44.621  19.262  24.474  1.00  0.00     0.261 C 
BRANCH   2   3
ATOM      3  O   UNL A   1      43.523  19.876  25.172  1.00  0.00    -0.459 OA
BRANCH   3   4
ATOM      4  C   UNL A   1      42.723  19.049  25.889  1.00  0.00     0.369 C 
ATOM      5  O   UNL A   1      42.767  17.823  25.820  1.00  0.00    -0.245 OA
BRANCH   4   6
ATOM      6  C   UNL A   1      41.781  19.776  26.889  1.00  0.00     0.323 C 
BRANCH   6   7
ATOM      7  N   UNL A   1      42.629  20.746  27.639  1.00  0.00    -0.342 N 
ATOM      8  H   UNL A   1      42.286  20.829  28.596  1.00  0.00     0.345 HD
ATOM      9  H   UNL A   1      42.586  21.657  27.183  1.00  0.00     0.345 HD
ATOM     10  H   UNL A   1      43.593  20.416  27.650  1.00  0.00     0.345 HD
ENDBRANCH   6   7
BRANCH   6  11
ATOM     11  C   UNL A   1      40.503  20.439  26.352  1.00  0.00     0.025 A 
ATOM     12  C   UNL A   1      39.567  19.704  25.607  1.00  0.00     0.012 A 
ATOM     13  C   UNL A   1      40.161  21.770  26.695  1.00  0.00     0.059 A 
ATOM     14  C   UNL A   1      38.379  20.291  25.162  1.00  0.00     0.025 A 
ATOM     15  C   UNL A   1      38.965  22.369  26.271  1.00  0.00     0.148 A 
ATOM     16  C   UNL A   1      38.085  21.615  25.486  1.00  0.00     0.083 A 
ATOM     17  Cl  UNL A   1      36.599  22.279  24.900  1.00  0.00    -0.080 Cl
BRANCH  15  18
ATOM     18  O   UNL A   1      38.568  23.643  26.574  1.00  0.00    -0.404 OA
BRANCH  18  19
ATOM     19  C   UNL A   1      39.534  24.565  27.043  1.00  0.00     0.573 C 
ATOM     20  F   UNL A   1      40.122  24.125  28.174  1.00  0.00    -0.132 F 
ATOM     21  F   UNL A   1      40.475  24.794  26.101  1.00  0.00    -0.132 F 
ATOM     22  F   UNL A   1      38.921  25.737  27.318  1.00  0.00    -0.132 F 
ENDBRANCH  18  19
ENDBRANCH  15  18
ENDBRANCH   6  11
ENDBRANCH   4   6
ENDBRANCH   3   4
ENDBRANCH   2   3
ENDBRANCH   1   2
BRANCH   1  23
ATOM     23  O   UNL A   1      45.903  21.130  25.511  1.00  0.00    -0.374 OA
BRANCH  23  24
ATOM     24  C   UNL A   1      46.203  22.149  24.557  1.00  0.00     0.202 C 
BRANCH  24  25
ATOM     25  C   UNL A   1      45.089  23.169  24.301  1.00  0.00     0.261 C 
BRANCH  25  26
ATOM     26  O   UNL A   1      44.705  23.855  25.505  1.00  0.00    -0.460 OA
BRANCH  26  27
ATOM     27  C   UNL A   1      45.063  25.159  25.553  1.00  0.00     0.338 C 
ATOM     28  O   UNL A   1      45.853  25.740  24.822  1.00  0.00    -0.246 OA
BRANCH  27  29
ATOM     29  C   UNL A   1      44.225  25.878  26.530  1.00  0.00     0.060 A 
ATOM     30  C   UNL A   1      44.375  27.267  26.606  1.00  0.00     0.016 A 
ATOM     31  C   UNL A   1      43.362  25.209  27.403  1.00  0.00     0.016 A 
ATOM     32  C   UNL A   1      43.703  27.991  27.587  1.00  0.00     0.010 A 
ATOM     33  C   UNL A   1      42.688  25.937  28.391  1.00  0.00     0.010 A 
ATOM     34  C   UNL A   1      42.885  27.324  28.510  1.00  0.00    -0.014 A 
BRANCH  34  35
ATOM     35  C   UNL A   1      42.368  28.066  29.687  1.00  0.00     0.031 A 
ATOM     36  C   UNL A   1      41.053  28.785  29.574  1.00  0.00     0.074 A 
ATOM     37  C   UNL A   1      43.036  28.058  30.853  1.00  0.00     0.049 A 
ATOM     38  N   UNL A   1      40.412  29.490  30.472  1.00  0.00    -0.248 NA
ATOM     39  C   UNL A   1      40.366  28.694  28.276  1.00  0.00     0.031 C 
ATOM     40  C   UNL A   1      44.299  27.366  31.100  1.00  0.00     0.029 A 
ATOM     41  N   UNL A   1      42.738  28.657  32.053  1.00  0.00    -0.354 N 
ATOM     42  C   UNL A   1      39.252  29.928  29.847  1.00  0.00     0.074 A 
ATOM     43  C   UNL A   1      39.290  29.437  28.486  1.00  0.00     0.031 C 
ATOM     44  C   UNL A   1      44.673  27.584  32.372  1.00  0.00     0.029 A 
ATOM     45  C   UNL A   1      43.690  28.451  33.020  1.00  0.00     0.049 A 
ATOM     46  H   UNL A   1      41.920  29.182  32.204  1.00  0.00     0.167 HD
ATOM     47  C   UNL A   1      38.240  30.665  30.364  1.00  0.00     0.037 A 
ATOM     48  C   UNL A   1      43.764  28.924  34.279  1.00  0.00     0.037 A 
ATOM     49  C   UNL A   1      38.198  31.152  31.718  1.00  0.00     0.049 A 
ATOM     50  C   UNL A   1      42.658  29.798  34.811  1.00  0.00     0.074 A 
ATOM     51  C   UNL A   1      37.205  31.889  32.340  1.00  0.00     0.029 A 
ATOM     52  N   UNL A   1      39.199  30.954  32.657  1.00  0.00    -0.354 N 
ATOM     53  N   UNL A   1      41.551  30.183  34.223  1.00  0.00    -0.248 NA
ATOM     54  C   UNL A   1      42.810  30.298  36.185  1.00  0.00     0.031 C 
ATOM     55  C   UNL A   1      37.627  32.176  33.642  1.00  0.00     0.029 A 
ATOM     56  C   UNL A   1      38.859  31.578  33.847  1.00  0.00     0.049 A 
ATOM     57  H   UNL A   1      40.028  30.448  32.501  1.00  0.00     0.167 HD
ATOM     58  C   UNL A   1      40.866  30.946  35.159  1.00  0.00     0.074 A 
ATOM     59  C   UNL A   1      41.675  30.961  36.360  1.00  0.00     0.031 C 
ATOM     60  C   UNL A   1      39.673  31.579  35.035  1.00  0.00     0.037 A 
BRANCH  47  61
ATOM     61  C   UNL A   1      37.100  31.008  29.452  1.00  0.00     0.064 A 
ATOM     62  C   UNL A   1      36.977  32.281  28.874  1.00  0.00     0.173 A 
ATOM     63  C   UNL A   1      36.135  30.043  29.128  1.00  0.00     0.173 A 
ATOM     64  F   UNL A   1      37.866  33.242  29.164  1.00  0.00    -0.203 F 
ATOM     65  C   UNL A   1      35.916  32.581  28.023  1.00  0.00     0.198 A 
ATOM     66  C   UNL A   1      35.091  30.338  28.257  1.00  0.00     0.198 A 
ATOM     67  F   UNL A   1      36.210  28.810  29.652  1.00  0.00    -0.203 F 
ATOM     68  F   UNL A   1      35.795  33.815  27.516  1.00  0.00    -0.200 F 
ATOM     69  C   UNL A   1      34.979  31.608  27.710  1.00  0.00     0.200 A 
ATOM     70  F   UNL A   1      34.191  29.394  27.947  1.00  0.00    -0.200 F 
ATOM     71  F   UNL A   1      33.961  31.896  26.887  1.00  0.00    -0.200 F 
ENDBRANCH  47  61
BRANCH  48  72
ATOM     72  C   UNL A   1      44.936  28.588  35.129  1.00  0.00     0.064 A 
ATOM     73  C   UNL A   1      44.891  27.521  36.036  1.00  0.00     0.173 A 
ATOM     74  C   UNL A   1      46.119  29.339  35.060  1.00  0.00     0.173 A 
ATOM     75  F   UNL A   1      43.774  26.791  36.155  1.00  0.00    -0.203 F 
ATOM     76  C   UNL A   1      45.981  27.227  36.854  1.00  0.00     0.198 A 
ATOM     77  C   UNL A   1      47.216  29.028  35.860  1.00  0.00     0.198 A 
ATOM     78  F   UNL A   1      46.211  30.372  34.209  1.00  0.00    -0.203 F 
ATOM     79  F   UNL A   1      45.898  26.228  37.743  1.00  0.00    -0.200 F 
ATOM     80  C   UNL A   1      47.144  27.977  36.761  1.00  0.00     0.200 A 
ATOM     81  F   UNL A   1      48.341  29.749  35.759  1.00  0.00    -0.200 F 
ATOM     82  F   UNL A   1      48.192  27.692  37.545  1.00  0.00    -0.200 F 
ENDBRANCH  48  72
BRANCH  60  83
ATOM     83  C   UNL A   1      39.152  32.312  36.237  1.00  0.00     0.064 A 
ATOM     84  C   UNL A   1      38.270  31.704  37.142  1.00  0.00     0.173 A 
ATOM     85  C   UNL A   1      39.577  33.621  36.509  1.00  0.00     0.173 A 
ATOM     86  F   UNL A   1      37.823  30.460  36.918  1.00  0.00    -0.203 F 
ATOM     87  C   UNL A   1      37.815  32.391  38.267  1.00  0.00     0.198 A 
ATOM     88  C   UNL A   1      39.142  34.294  37.647  1.00  0.00     0.198 A 
ATOM     89  F   UNL A   1      40.425  34.244  35.678  1.00  0.00    -0.203 F 
ATOM     90  F   UNL A   1      36.939  31.807  39.096  1.00  0.00    -0.200 F 
ATOM     91  C   UNL A   1      38.256  33.680  38.521  1.00  0.00     0.200 A 
ATOM     92  F   UNL A   1      39.578  35.536  37.899  1.00  0.00    -0.200 F 
ATOM     93  F   UNL A   1      37.823  34.337  39.607  1.00  0.00    -0.200 F 
ENDBRANCH  60  83
ENDBRANCH  34  35
ENDBRANCH  27  29
ENDBRANCH  26  27
ENDBRANCH  25  26
ENDBRANCH  24  25
ENDBRANCH  23  24
ENDBRANCH   1  23
TORSDOF 18
ENDMDL
