MODEL 1
REMARK VINA RESULT:     -10.8      0.000      0.000
REMARK SMILES C#CCN(CC(=O)OCCOCCOC(=O)c1ccc(-c2c3nc(c(-c4c(F)c(F)c(F)c(F)c4F)c4ccc([nH]4)c(-c4c(F)c(F)c(F)c(F)c4F)c4nc(c(-c5c(F)c(F)c(F)c(F)c5F)c5ccc2[nH]5)C=C4)C=C3)cc1)C(=O)[C@H](c1ccc(Cl)cc1)C(C)C
REMARK SMILES IDX 10 1 9 2 8 3 6 4 7 5 5 6 4 7 3 8 2 9 1 10 80 11 81 12 82 13
REMARK SMILES IDX 90 14 91 15 92 16 83 17 84 18 89 19 85 20 88 21 86 22 87 23
REMARK SMILES IDX 11 24 12 25 13 26 14 27 15 28 16 29 17 30 18 31 79 32 19 33
REMARK SMILES IDX 78 34 20 35 21 36 22 37 72 38 23 39 77 40 71 41 73 42 24 43
REMARK SMILES IDX 76 44 70 45 69 46 25 48 57 49 37 50 56 51 38 52 41 53 55 54
REMARK SMILES IDX 74 55 39 56 40 57 54 59 75 60 42 61 26 62 27 63 35 64 28 65
REMARK SMILES IDX 29 66 33 67 36 68 30 69 31 70 34 71 32 72 58 73 59 74 67 75
REMARK SMILES IDX 60 76 61 77 65 78 68 79 62 80 63 81 66 82 64 83 43 84 44 85
REMARK SMILES IDX 52 86 45 87 46 88 50 89 53 90 47 91 48 92 51 93 49 94
REMARK H PARENT 73 47 41 58
REMARK Flexibility Score: inf
ROOT
ATOM      1  C   UNL A   1      34.470  22.822  26.955  1.00  0.00     0.202 C 
ENDROOT
BRANCH   1   2
ATOM      2  C   UNL A   1      33.104  22.164  27.179  1.00  0.00     0.261 C 
BRANCH   2   3
ATOM      3  O   UNL A   1      32.102  23.063  27.716  1.00  0.00    -0.462 OA
BRANCH   3   4
ATOM      4  C   UNL A   1      31.095  23.423  26.879  1.00  0.00     0.325 C 
ATOM      5  O   UNL A   1      29.925  23.542  27.231  1.00  0.00    -0.250 OA
BRANCH   4   6
ATOM      6  C   UNL A   1      31.504  23.661  25.404  1.00  0.00     0.243 C 
BRANCH   6   7
ATOM      7  N   UNL A   1      31.003  24.753  24.531  1.00  0.00    -0.320 N 
BRANCH   7   8
ATOM      8  C   UNL A   1      30.706  24.312  23.124  1.00  0.00     0.210 C 
BRANCH   8   9
ATOM      9  C   UNL A   1      31.767  24.948  22.241  1.00  0.00    -0.085 C 
ATOM     10  C   UNL A   1      32.678  25.496  21.484  1.00  0.00     0.006 C 
ENDBRANCH   8   9
ENDBRANCH   7   8
BRANCH   7  11
ATOM     11  C   UNL A   1      30.618  26.077  24.821  1.00  0.00     0.231 C 
ATOM     12  O   UNL A   1      29.442  26.213  25.211  1.00  0.00    -0.274 OA
BRANCH  11  13
ATOM     13  C   UNL A   1      31.486  27.458  24.756  1.00  0.00     0.111 C 
BRANCH  13  14
ATOM     14  C   UNL A   1      33.041  27.325  24.685  1.00  0.00    -0.000 C 
ATOM     15  C   UNL A   1      33.845  28.400  23.932  1.00  0.00     0.008 C 
ATOM     16  C   UNL A   1      33.602  27.320  26.122  1.00  0.00     0.008 C 
ENDBRANCH  13  14
BRANCH  13  17
ATOM     17  C   UNL A   1      30.759  28.560  23.905  1.00  0.00    -0.035 A 
ATOM     18  C   UNL A   1      30.505  29.829  24.481  1.00  0.00     0.006 A 
ATOM     19  C   UNL A   1      30.256  28.379  22.604  1.00  0.00     0.006 A 
ATOM     20  C   UNL A   1      29.684  30.788  23.865  1.00  0.00     0.021 A 
ATOM     21  C   UNL A   1      29.478  29.358  21.958  1.00  0.00     0.021 A 
ATOM     22  C   UNL A   1      29.163  30.543  22.605  1.00  0.00     0.041 A 
ATOM     23  Cl  UNL A   1      28.107  31.683  21.870  1.00  0.00    -0.084 Cl
ENDBRANCH  13  17
ENDBRANCH  11  13
ENDBRANCH   7  11
ENDBRANCH   6   7
ENDBRANCH   4   6
ENDBRANCH   3   4
ENDBRANCH   2   3
ENDBRANCH   1   2
BRANCH   1  24
ATOM     24  O   UNL A   1      35.015  22.639  25.662  1.00  0.00    -0.374 OA
BRANCH  24  25
ATOM     25  C   UNL A   1      35.554  21.378  25.300  1.00  0.00     0.202 C 
BRANCH  25  26
ATOM     26  C   UNL A   1      37.058  21.166  25.133  1.00  0.00     0.261 C 
BRANCH  26  27
ATOM     27  O   UNL A   1      37.925  22.137  25.650  1.00  0.00    -0.460 OA
BRANCH  27  28
ATOM     28  C   UNL A   1      39.037  21.620  26.184  1.00  0.00     0.338 C 
ATOM     29  O   UNL A   1      39.398  20.457  26.244  1.00  0.00    -0.246 OA
BRANCH  28  30
ATOM     30  C   UNL A   1      39.766  22.779  26.651  1.00  0.00     0.060 A 
ATOM     31  C   UNL A   1      39.277  24.019  26.269  1.00  0.00     0.016 A 
ATOM     32  C   UNL A   1      40.859  22.618  27.519  1.00  0.00     0.016 A 
ATOM     33  C   UNL A   1      39.912  25.138  26.754  1.00  0.00     0.010 A 
ATOM     34  C   UNL A   1      41.478  23.742  28.027  1.00  0.00     0.010 A 
ATOM     35  C   UNL A   1      41.007  24.996  27.626  1.00  0.00    -0.014 A 
BRANCH  35  36
ATOM     36  C   UNL A   1      41.649  26.225  28.089  1.00  0.00     0.031 A 
ATOM     37  C   UNL A   1      43.024  26.534  27.615  1.00  0.00     0.074 A 
ATOM     38  C   UNL A   1      40.900  27.072  28.810  1.00  0.00     0.049 A 
ATOM     39  N   UNL A   1      43.682  27.658  27.690  1.00  0.00    -0.248 NA
ATOM     40  C   UNL A   1      43.760  25.438  26.966  1.00  0.00     0.031 C 
ATOM     41  C   UNL A   1      39.550  26.781  29.300  1.00  0.00     0.029 A 
ATOM     42  N   UNL A   1      41.137  28.354  29.206  1.00  0.00    -0.354 N 
ATOM     43  C   UNL A   1      44.907  27.408  27.091  1.00  0.00     0.074 A 
ATOM     44  C   UNL A   1      44.919  26.019  26.693  1.00  0.00     0.031 C 
ATOM     45  C   UNL A   1      39.058  27.878  29.894  1.00  0.00     0.029 A 
ATOM     46  C   UNL A   1      40.066  28.929  29.838  1.00  0.00     0.049 A 
ATOM     47  H   UNL A   1      41.993  28.818  29.055  1.00  0.00     0.167 HD
ATOM     48  C   UNL A   1      45.918  28.284  26.895  1.00  0.00     0.037 A 
ATOM     49  C   UNL A   1      39.923  30.183  30.298  1.00  0.00     0.037 A 
ATOM     50  C   UNL A   1      45.851  29.655  27.327  1.00  0.00     0.049 A 
ATOM     51  C   UNL A   1      41.048  31.144  30.041  1.00  0.00     0.074 A 
ATOM     52  C   UNL A   1      46.794  30.656  27.195  1.00  0.00     0.029 A 
ATOM     53  N   UNL A   1      44.762  30.212  27.993  1.00  0.00    -0.354 N 
ATOM     54  N   UNL A   1      42.193  30.926  29.434  1.00  0.00    -0.248 NA
ATOM     55  C   UNL A   1      40.861  32.519  30.506  1.00  0.00     0.031 C 
ATOM     56  C   UNL A   1      46.294  31.802  27.827  1.00  0.00     0.029 A 
ATOM     57  C   UNL A   1      45.017  31.537  28.301  1.00  0.00     0.049 A 
ATOM     58  H   UNL A   1      43.931  29.732  28.212  1.00  0.00     0.167 HD
ATOM     59  C   UNL A   1      42.868  32.135  29.441  1.00  0.00     0.074 A 
ATOM     60  C   UNL A   1      41.982  33.090  30.087  1.00  0.00     0.031 C 
ATOM     61  C   UNL A   1      44.104  32.435  28.968  1.00  0.00     0.037 A 
BRANCH  48  62
ATOM     62  C   UNL A   1      47.166  27.754  26.252  1.00  0.00     0.064 A 
ATOM     63  C   UNL A   1      47.327  27.706  24.857  1.00  0.00     0.173 A 
ATOM     64  C   UNL A   1      48.203  27.239  27.045  1.00  0.00     0.173 A 
ATOM     65  F   UNL A   1      46.356  28.162  24.051  1.00  0.00    -0.203 F 
ATOM     66  C   UNL A   1      48.455  27.125  24.282  1.00  0.00     0.198 A 
ATOM     67  C   UNL A   1      49.345  26.687  26.467  1.00  0.00     0.198 A 
ATOM     68  F   UNL A   1      48.103  27.252  28.382  1.00  0.00    -0.203 F 
ATOM     69  F   UNL A   1      48.553  27.029  22.949  1.00  0.00    -0.200 F 
ATOM     70  C   UNL A   1      49.464  26.619  25.087  1.00  0.00     0.200 A 
ATOM     71  F   UNL A   1      50.320  26.203  27.247  1.00  0.00    -0.200 F 
ATOM     72  F   UNL A   1      50.545  26.052  24.534  1.00  0.00    -0.200 F 
ENDBRANCH  48  62
BRANCH  49  73
ATOM     73  C   UNL A   1      38.671  30.559  30.999  1.00  0.00     0.064 A 
ATOM     74  C   UNL A   1      38.588  30.586  32.396  1.00  0.00     0.173 A 
ATOM     75  C   UNL A   1      37.549  30.991  30.273  1.00  0.00     0.173 A 
ATOM     76  F   UNL A   1      39.630  30.181  33.138  1.00  0.00    -0.203 F 
ATOM     77  C   UNL A   1      37.432  31.028  33.040  1.00  0.00     0.198 A 
ATOM     78  C   UNL A   1      36.407  31.458  30.915  1.00  0.00     0.198 A 
ATOM     79  F   UNL A   1      37.583  31.002  28.931  1.00  0.00    -0.203 F 
ATOM     80  F   UNL A   1      37.373  31.029  34.379  1.00  0.00    -0.200 F 
ATOM     81  C   UNL A   1      36.347  31.474  32.300  1.00  0.00     0.200 A 
ATOM     82  F   UNL A   1      35.373  31.914  30.195  1.00  0.00    -0.200 F 
ATOM     83  F   UNL A   1      35.248  31.924  32.920  1.00  0.00    -0.200 F 
ENDBRANCH  49  73
BRANCH  61  84
ATOM     84  C   UNL A   1      44.552  33.854  29.148  1.00  0.00     0.064 A 
ATOM     85  C   UNL A   1      44.252  34.842  28.198  1.00  0.00     0.173 A 
ATOM     86  C   UNL A   1      45.271  34.231  30.292  1.00  0.00     0.173 A 
ATOM     87  F   UNL A   1      43.580  34.523  27.082  1.00  0.00    -0.203 F 
ATOM     88  C   UNL A   1      44.687  36.151  28.372  1.00  0.00     0.198 A 
ATOM     89  C   UNL A   1      45.676  35.547  30.477  1.00  0.00     0.198 A 
ATOM     90  F   UNL A   1      45.574  33.321  31.230  1.00  0.00    -0.203 F 
ATOM     91  F   UNL A   1      44.441  37.067  27.425  1.00  0.00    -0.200 F 
ATOM     92  C   UNL A   1      45.393  36.504  29.512  1.00  0.00     0.200 A 
ATOM     93  F   UNL A   1      46.346  35.891  31.585  1.00  0.00    -0.200 F 
ATOM     94  F   UNL A   1      45.810  37.766  29.678  1.00  0.00    -0.200 F 
ENDBRANCH  61  84
ENDBRANCH  35  36
ENDBRANCH  28  30
ENDBRANCH  27  28
ENDBRANCH  26  27
ENDBRANCH  25  26
ENDBRANCH  24  25
ENDBRANCH   1  24
TORSDOF 21
ENDMDL
MODEL 2
REMARK VINA RESULT:     -10.7      4.483      9.990
REMARK SMILES C#CCN(CC(=O)OCCOCCOC(=O)c1ccc(-c2c3nc(c(-c4c(F)c(F)c(F)c(F)c4F)c4ccc([nH]4)c(-c4c(F)c(F)c(F)c(F)c4F)c4nc(c(-c5c(F)c(F)c(F)c(F)c5F)c5ccc2[nH]5)C=C4)C=C3)cc1)C(=O)[C@H](c1ccc(Cl)cc1)C(C)C
REMARK SMILES IDX 10 1 9 2 8 3 6 4 7 5 5 6 4 7 3 8 2 9 1 10 80 11 81 12 82 13
REMARK SMILES IDX 90 14 91 15 92 16 83 17 84 18 89 19 85 20 88 21 86 22 87 23
REMARK SMILES IDX 11 24 12 25 13 26 14 27 15 28 16 29 17 30 18 31 79 32 19 33
REMARK SMILES IDX 78 34 20 35 21 36 22 37 72 38 23 39 77 40 71 41 73 42 24 43
REMARK SMILES IDX 76 44 70 45 69 46 25 48 57 49 37 50 56 51 38 52 41 53 55 54
REMARK SMILES IDX 74 55 39 56 40 57 54 59 75 60 42 61 26 62 27 63 35 64 28 65
REMARK SMILES IDX 29 66 33 67 36 68 30 69 31 70 34 71 32 72 58 73 59 74 67 75
REMARK SMILES IDX 60 76 61 77 65 78 68 79 62 80 63 81 66 82 64 83 43 84 44 85
REMARK SMILES IDX 52 86 45 87 46 88 50 89 53 90 47 91 48 92 51 93 49 94
REMARK H PARENT 73 47 41 58
REMARK Flexibility Score: inf
ROOT
ATOM      1  C   UNL A   1      32.476  26.636  26.099  1.00  0.00     0.202 C 
ENDROOT
BRANCH   1   2
ATOM      2  C   UNL A   1      31.404  25.609  26.482  1.00  0.00     0.261 C 
BRANCH   2   3
ATOM      3  O   UNL A   1      31.881  24.240  26.492  1.00  0.00    -0.462 OA
BRANCH   3   4
ATOM      4  C   UNL A   1      31.453  23.439  25.483  1.00  0.00     0.325 C 
ATOM      5  O   UNL A   1      30.880  23.852  24.480  1.00  0.00    -0.250 OA
BRANCH   4   6
ATOM      6  C   UNL A   1      31.711  21.923  25.676  1.00  0.00     0.243 C 
BRANCH   6   7
ATOM      7  N   UNL A   1      32.977  21.212  25.366  1.00  0.00    -0.320 N 
BRANCH   7   8
ATOM      8  C   UNL A   1      32.801  20.044  24.435  1.00  0.00     0.210 C 
BRANCH   8   9
ATOM      9  C   UNL A   1      32.324  20.618  23.111  1.00  0.00    -0.085 C 
ATOM     10  C   UNL A   1      31.914  21.109  21.975  1.00  0.00     0.006 C 
ENDBRANCH   8   9
ENDBRANCH   7   8
BRANCH   7  11
ATOM     11  C   UNL A   1      34.319  21.523  25.664  1.00  0.00     0.231 C 
ATOM     12  O   UNL A   1      34.622  21.455  26.872  1.00  0.00    -0.274 OA
BRANCH  11  13
ATOM     13  C   UNL A   1      35.546  21.928  24.668  1.00  0.00     0.111 C 
BRANCH  13  14
ATOM     14  C   UNL A   1      35.521  23.360  24.043  1.00  0.00    -0.000 C 
ATOM     15  C   UNL A   1      34.399  23.718  23.052  1.00  0.00     0.008 C 
ATOM     16  C   UNL A   1      35.412  24.393  25.183  1.00  0.00     0.008 C 
ENDBRANCH  13  14
BRANCH  13  17
ATOM     17  C   UNL A   1      36.909  21.313  25.148  1.00  0.00    -0.035 A 
ATOM     18  C   UNL A   1      37.848  22.136  25.818  1.00  0.00     0.006 A 
ATOM     19  C   UNL A   1      37.332  19.993  24.908  1.00  0.00     0.006 A 
ATOM     20  C   UNL A   1      39.160  21.718  26.092  1.00  0.00     0.021 A 
ATOM     21  C   UNL A   1      38.629  19.550  25.230  1.00  0.00     0.021 A 
ATOM     22  C   UNL A   1      39.550  20.425  25.785  1.00  0.00     0.041 A 
ATOM     23  Cl  UNL A   1      41.173  19.924  26.059  1.00  0.00    -0.084 Cl
ENDBRANCH  13  17
ENDBRANCH  11  13
ENDBRANCH   7  11
ENDBRANCH   6   7
ENDBRANCH   4   6
ENDBRANCH   3   4
ENDBRANCH   2   3
ENDBRANCH   1   2
BRANCH   1  24
ATOM     24  O   UNL A   1      32.507  27.795  26.910  1.00  0.00    -0.374 OA
BRANCH  24  25
ATOM     25  C   UNL A   1      31.566  28.833  26.685  1.00  0.00     0.202 C 
BRANCH  25  26
ATOM     26  C   UNL A   1      31.987  30.302  26.642  1.00  0.00     0.261 C 
BRANCH  26  27
ATOM     27  O   UNL A   1      33.354  30.597  26.575  1.00  0.00    -0.460 OA
BRANCH  27  28
ATOM     28  C   UNL A   1      33.699  31.665  27.302  1.00  0.00     0.338 C 
ATOM     29  O   UNL A   1      33.109  32.720  27.455  1.00  0.00    -0.246 OA
BRANCH  28  30
ATOM     30  C   UNL A   1      34.944  31.270  27.926  1.00  0.00     0.060 A 
ATOM     31  C   UNL A   1      35.891  32.265  28.112  1.00  0.00     0.016 A 
ATOM     32  C   UNL A   1      35.111  29.952  28.386  1.00  0.00     0.016 A 
ATOM     33  C   UNL A   1      37.056  31.930  28.763  1.00  0.00     0.010 A 
ATOM     34  C   UNL A   1      36.268  29.625  29.063  1.00  0.00     0.010 A 
ATOM     35  C   UNL A   1      37.240  30.616  29.232  1.00  0.00    -0.014 A 
BRANCH  35  36
ATOM     36  C   UNL A   1      38.508  30.323  29.897  1.00  0.00     0.031 A 
ATOM     37  C   UNL A   1      38.699  30.775  31.301  1.00  0.00     0.074 A 
ATOM     38  C   UNL A   1      39.375  29.537  29.242  1.00  0.00     0.049 A 
ATOM     39  N   UNL A   1      39.617  30.420  32.156  1.00  0.00    -0.248 NA
ATOM     40  C   UNL A   1      37.728  31.752  31.817  1.00  0.00     0.031 C 
ATOM     41  C   UNL A   1      39.214  29.095  27.854  1.00  0.00     0.029 A 
ATOM     42  N   UNL A   1      40.522  28.934  29.661  1.00  0.00    -0.354 N 
ATOM     43  C   UNL A   1      39.332  31.125  33.316  1.00  0.00     0.074 A 
ATOM     44  C   UNL A   1      38.180  31.956  33.045  1.00  0.00     0.031 C 
ATOM     45  C   UNL A   1      40.207  28.246  27.551  1.00  0.00     0.029 A 
ATOM     46  C   UNL A   1      41.074  28.109  28.716  1.00  0.00     0.049 A 
ATOM     47  H   UNL A   1      40.916  29.078  30.552  1.00  0.00     0.167 HD
ATOM     48  C   UNL A   1      39.986  31.061  34.497  1.00  0.00     0.037 A 
ATOM     49  C   UNL A   1      42.153  27.315  28.805  1.00  0.00     0.037 A 
ATOM     50  C   UNL A   1      41.138  30.222  34.701  1.00  0.00     0.049 A 
ATOM     51  C   UNL A   1      42.844  27.239  30.136  1.00  0.00     0.074 A 
ATOM     52  C   UNL A   1      41.899  30.052  35.841  1.00  0.00     0.029 A 
ATOM     53  N   UNL A   1      41.698  29.411  33.717  1.00  0.00    -0.354 N 
ATOM     54  N   UNL A   1      42.552  27.869  31.251  1.00  0.00    -0.248 NA
ATOM     55  C   UNL A   1      43.992  26.336  30.233  1.00  0.00     0.031 C 
ATOM     56  C   UNL A   1      42.949  29.178  35.529  1.00  0.00     0.029 A 
ATOM     57  C   UNL A   1      42.811  28.756  34.214  1.00  0.00     0.049 A 
ATOM     58  H   UNL A   1      41.352  29.317  32.800  1.00  0.00     0.167 HD
ATOM     59  C   UNL A   1      43.477  27.441  32.188  1.00  0.00     0.074 A 
ATOM     60  C   UNL A   1      44.320  26.470  31.511  1.00  0.00     0.031 C 
ATOM     61  C   UNL A   1      43.628  27.815  33.484  1.00  0.00     0.037 A 
BRANCH  48  62
ATOM     62  C   UNL A   1      39.501  31.959  35.597  1.00  0.00     0.064 A 
ATOM     63  C   UNL A   1      40.013  33.254  35.786  1.00  0.00     0.173 A 
ATOM     64  C   UNL A   1      38.541  31.499  36.511  1.00  0.00     0.173 A 
ATOM     65  F   UNL A   1      40.951  33.737  34.956  1.00  0.00    -0.203 F 
ATOM     66  C   UNL A   1      39.613  34.035  36.868  1.00  0.00     0.198 A 
ATOM     67  C   UNL A   1      38.121  32.294  37.575  1.00  0.00     0.198 A 
ATOM     68  F   UNL A   1      38.023  30.269  36.384  1.00  0.00    -0.203 F 
ATOM     69  F   UNL A   1      40.167  35.239  37.066  1.00  0.00    -0.200 F 
ATOM     70  C   UNL A   1      38.666  33.556  37.760  1.00  0.00     0.200 A 
ATOM     71  F   UNL A   1      37.202  31.830  38.433  1.00  0.00    -0.200 F 
ATOM     72  F   UNL A   1      38.290  34.303  38.808  1.00  0.00    -0.200 F 
ENDBRANCH  48  62
BRANCH  49  73
ATOM     73  C   UNL A   1      42.586  26.544  27.614  1.00  0.00     0.064 A 
ATOM     74  C   UNL A   1      43.555  27.034  26.730  1.00  0.00     0.173 A 
ATOM     75  C   UNL A   1      42.096  25.247  27.388  1.00  0.00     0.173 A 
ATOM     76  F   UNL A   1      44.054  28.268  26.899  1.00  0.00    -0.203 F 
ATOM     77  C   UNL A   1      44.016  26.259  25.666  1.00  0.00     0.198 A 
ATOM     78  C   UNL A   1      42.576  24.464  26.342  1.00  0.00     0.198 A 
ATOM     79  F   UNL A   1      41.178  24.723  28.216  1.00  0.00    -0.203 F 
ATOM     80  F   UNL A   1      44.934  26.757  24.826  1.00  0.00    -0.200 F 
ATOM     81  C   UNL A   1      43.535  24.971  25.480  1.00  0.00     0.200 A 
ATOM     82  F   UNL A   1      42.128  23.211  26.184  1.00  0.00    -0.200 F 
ATOM     83  F   UNL A   1      43.999  24.218  24.473  1.00  0.00    -0.200 F 
ENDBRANCH  49  73
BRANCH  61  84
ATOM     84  C   UNL A   1      44.753  27.165  34.232  1.00  0.00     0.064 A 
ATOM     85  C   UNL A   1      46.032  27.739  34.273  1.00  0.00     0.173 A 
ATOM     86  C   UNL A   1      44.541  25.967  34.929  1.00  0.00     0.173 A 
ATOM     87  F   UNL A   1      46.284  28.877  33.608  1.00  0.00    -0.203 F 
ATOM     88  C   UNL A   1      47.069  27.117  34.959  1.00  0.00     0.198 A 
ATOM     89  C   UNL A   1      45.573  25.364  35.640  1.00  0.00     0.198 A 
ATOM     90  F   UNL A   1      43.332  25.385  34.923  1.00  0.00    -0.203 F 
ATOM     91  F   UNL A   1      48.298  27.651  34.937  1.00  0.00    -0.200 F 
ATOM     92  C   UNL A   1      46.838  25.935  35.645  1.00  0.00     0.200 A 
ATOM     93  F   UNL A   1      45.346  24.230  36.315  1.00  0.00    -0.200 F 
ATOM     94  F   UNL A   1      47.839  25.337  36.305  1.00  0.00    -0.200 F 
ENDBRANCH  61  84
ENDBRANCH  35  36
ENDBRANCH  28  30
ENDBRANCH  27  28
ENDBRANCH  26  27
ENDBRANCH  25  26
ENDBRANCH  24  25
ENDBRANCH   1  24
TORSDOF 21
ENDMDL
MODEL 3
REMARK VINA RESULT:     -10.6      4.396      9.836
REMARK SMILES C#CCN(CC(=O)OCCOCCOC(=O)c1ccc(-c2c3nc(c(-c4c(F)c(F)c(F)c(F)c4F)c4ccc([nH]4)c(-c4c(F)c(F)c(F)c(F)c4F)c4nc(c(-c5c(F)c(F)c(F)c(F)c5F)c5ccc2[nH]5)C=C4)C=C3)cc1)C(=O)[C@H](c1ccc(Cl)cc1)C(C)C
REMARK SMILES IDX 10 1 9 2 8 3 6 4 7 5 5 6 4 7 3 8 2 9 1 10 80 11 81 12 82 13
REMARK SMILES IDX 90 14 91 15 92 16 83 17 84 18 89 19 85 20 88 21 86 22 87 23
REMARK SMILES IDX 11 24 12 25 13 26 14 27 15 28 16 29 17 30 18 31 79 32 19 33
REMARK SMILES IDX 78 34 20 35 21 36 22 37 72 38 23 39 77 40 71 41 73 42 24 43
REMARK SMILES IDX 76 44 70 45 69 46 25 48 57 49 37 50 56 51 38 52 41 53 55 54
REMARK SMILES IDX 74 55 39 56 40 57 54 59 75 60 42 61 26 62 27 63 35 64 28 65
REMARK SMILES IDX 29 66 33 67 36 68 30 69 31 70 34 71 32 72 58 73 59 74 67 75
REMARK SMILES IDX 60 76 61 77 65 78 68 79 62 80 63 81 66 82 64 83 43 84 44 85
REMARK SMILES IDX 52 86 45 87 46 88 50 89 53 90 47 91 48 92 51 93 49 94
REMARK H PARENT 73 47 41 58
REMARK Flexibility Score: inf
ROOT
ATOM      1  C   UNL A   1      32.938  26.882  26.255  1.00  0.00     0.202 C 
ENDROOT
BRANCH   1   2
ATOM      2  C   UNL A   1      31.722  25.948  26.254  1.00  0.00     0.261 C 
BRANCH   2   3
ATOM      3  O   UNL A   1      31.870  24.795  25.387  1.00  0.00    -0.462 OA
BRANCH   3   4
ATOM      4  C   UNL A   1      31.007  24.701  24.344  1.00  0.00     0.325 C 
ATOM      5  O   UNL A   1      30.322  25.636  23.940  1.00  0.00    -0.250 OA
BRANCH   4   6
ATOM      6  C   UNL A   1      30.907  23.305  23.681  1.00  0.00     0.243 C 
BRANCH   6   7
ATOM      7  N   UNL A   1      31.925  22.228  23.767  1.00  0.00    -0.320 N 
BRANCH   7   8
ATOM      8  C   UNL A   1      32.919  22.246  22.638  1.00  0.00     0.210 C 
BRANCH   8   9
ATOM      9  C   UNL A   1      33.860  23.407  22.912  1.00  0.00    -0.085 C 
ATOM     10  C   UNL A   1      34.667  24.404  23.149  1.00  0.00     0.006 C 
ENDBRANCH   8   9
ENDBRANCH   7   8
BRANCH   7  11
ATOM     11  C   UNL A   1      32.215  21.297  24.784  1.00  0.00     0.231 C 
ATOM     12  O   UNL A   1      31.327  21.167  25.650  1.00  0.00    -0.274 OA
BRANCH  11  13
ATOM     13  C   UNL A   1      33.520  20.339  24.986  1.00  0.00     0.111 C 
BRANCH  13  14
ATOM     14  C   UNL A   1      33.644  19.089  24.057  1.00  0.00    -0.000 C 
ATOM     15  C   UNL A   1      34.599  17.952  24.462  1.00  0.00     0.008 C 
ATOM     16  C   UNL A   1      32.253  18.434  23.924  1.00  0.00     0.008 C 
ENDBRANCH  13  14
BRANCH  13  17
ATOM     17  C   UNL A   1      34.802  21.174  25.343  1.00  0.00    -0.035 A 
ATOM     18  C   UNL A   1      34.717  22.197  26.320  1.00  0.00     0.006 A 
ATOM     19  C   UNL A   1      36.054  21.046  24.714  1.00  0.00     0.006 A 
ATOM     20  C   UNL A   1      35.755  23.116  26.543  1.00  0.00     0.021 A 
ATOM     21  C   UNL A   1      37.118  21.930  24.974  1.00  0.00     0.021 A 
ATOM     22  C   UNL A   1      36.952  22.985  25.859  1.00  0.00     0.041 A 
ATOM     23  Cl  UNL A   1      38.205  24.142  26.079  1.00  0.00    -0.084 Cl
ENDBRANCH  13  17
ENDBRANCH  11  13
ENDBRANCH   7  11
ENDBRANCH   6   7
ENDBRANCH   4   6
ENDBRANCH   3   4
ENDBRANCH   2   3
ENDBRANCH   1   2
BRANCH   1  24
ATOM     24  O   UNL A   1      32.825  28.005  27.109  1.00  0.00    -0.374 OA
BRANCH  24  25
ATOM     25  C   UNL A   1      31.771  28.934  26.909  1.00  0.00     0.202 C 
BRANCH  25  26
ATOM     26  C   UNL A   1      32.038  30.431  26.765  1.00  0.00     0.261 C 
BRANCH  26  27
ATOM     27  O   UNL A   1      33.363  30.854  26.598  1.00  0.00    -0.460 OA
BRANCH  27  28
ATOM     28  C   UNL A   1      33.695  31.875  27.397  1.00  0.00     0.338 C 
ATOM     29  O   UNL A   1      33.098  32.916  27.612  1.00  0.00    -0.246 OA
BRANCH  28  30
ATOM     30  C   UNL A   1      34.935  31.445  28.008  1.00  0.00     0.060 A 
ATOM     31  C   UNL A   1      35.925  32.405  28.149  1.00  0.00     0.016 A 
ATOM     32  C   UNL A   1      35.057  30.134  28.501  1.00  0.00     0.016 A 
ATOM     33  C   UNL A   1      37.088  32.040  28.786  1.00  0.00     0.010 A 
ATOM     34  C   UNL A   1      36.214  29.779  29.165  1.00  0.00     0.010 A 
ATOM     35  C   UNL A   1      37.229  30.733  29.288  1.00  0.00    -0.014 A 
BRANCH  35  36
ATOM     36  C   UNL A   1      38.496  30.405  29.937  1.00  0.00     0.031 A 
ATOM     37  C   UNL A   1      38.715  30.845  31.341  1.00  0.00     0.074 A 
ATOM     38  C   UNL A   1      39.337  29.603  29.267  1.00  0.00     0.049 A 
ATOM     39  N   UNL A   1      39.634  30.463  32.183  1.00  0.00    -0.248 NA
ATOM     40  C   UNL A   1      37.773  31.842  31.873  1.00  0.00     0.031 C 
ATOM     41  C   UNL A   1      39.149  29.172  27.878  1.00  0.00     0.029 A 
ATOM     42  N   UNL A   1      40.474  28.970  29.669  1.00  0.00    -0.354 N 
ATOM     43  C   UNL A   1      39.378  31.168  33.350  1.00  0.00     0.074 A 
ATOM     44  C   UNL A   1      38.244  32.028  33.097  1.00  0.00     0.031 C 
ATOM     45  C   UNL A   1      40.118  28.302  27.559  1.00  0.00     0.029 A 
ATOM     46  C   UNL A   1      40.994  28.138  28.713  1.00  0.00     0.049 A 
ATOM     47  H   UNL A   1      40.881  29.100  30.557  1.00  0.00     0.167 HD
ATOM     48  C   UNL A   1      40.045  31.082  34.523  1.00  0.00     0.037 A 
ATOM     49  C   UNL A   1      42.056  27.317  28.786  1.00  0.00     0.037 A 
ATOM     50  C   UNL A   1      41.177  30.214  34.709  1.00  0.00     0.049 A 
ATOM     51  C   UNL A   1      42.759  27.217  30.108  1.00  0.00     0.074 A 
ATOM     52  C   UNL A   1      41.948  30.019  35.839  1.00  0.00     0.029 A 
ATOM     53  N   UNL A   1      41.707  29.395  33.715  1.00  0.00    -0.354 N 
ATOM     54  N   UNL A   1      42.495  27.847  31.230  1.00  0.00    -0.248 NA
ATOM     55  C   UNL A   1      43.886  26.287  30.187  1.00  0.00     0.031 C 
ATOM     56  C   UNL A   1      42.973  29.122  35.511  1.00  0.00     0.029 A 
ATOM     57  C   UNL A   1      42.809  28.711  34.195  1.00  0.00     0.049 A 
ATOM     58  H   UNL A   1      41.348  29.315  32.801  1.00  0.00     0.167 HD
ATOM     59  C   UNL A   1      43.420  27.392  32.154  1.00  0.00     0.074 A 
ATOM     60  C   UNL A   1      44.232  26.405  31.462  1.00  0.00     0.031 C 
ATOM     61  C   UNL A   1      43.595  27.755  33.451  1.00  0.00     0.037 A 
BRANCH  48  62
ATOM     62  C   UNL A   1      39.593  31.985  35.634  1.00  0.00     0.064 A 
ATOM     63  C   UNL A   1      40.172  33.247  35.853  1.00  0.00     0.173 A 
ATOM     64  C   UNL A   1      38.598  31.561  36.526  1.00  0.00     0.173 A 
ATOM     65  F   UNL A   1      41.145  33.692  35.044  1.00  0.00    -0.203 F 
ATOM     66  C   UNL A   1      39.800  34.028  36.944  1.00  0.00     0.198 A 
ATOM     67  C   UNL A   1      38.207  32.358  37.600  1.00  0.00     0.198 A 
ATOM     68  F   UNL A   1      38.015  30.363  36.370  1.00  0.00    -0.203 F 
ATOM     69  F   UNL A   1      40.416  35.197  37.172  1.00  0.00    -0.200 F 
ATOM     70  C   UNL A   1      38.817  33.585  37.815  1.00  0.00     0.200 A 
ATOM     71  F   UNL A   1      37.253  31.930  38.437  1.00  0.00    -0.200 F 
ATOM     72  F   UNL A   1      38.467  34.332  38.872  1.00  0.00    -0.200 F 
ENDBRANCH  48  62
BRANCH  49  73
ATOM     73  C   UNL A   1      42.456  26.542  27.586  1.00  0.00     0.064 A 
ATOM     74  C   UNL A   1      43.462  26.990  26.721  1.00  0.00     0.173 A 
ATOM     75  C   UNL A   1      41.893  25.281  27.331  1.00  0.00     0.173 A 
ATOM     76  F   UNL A   1      44.031  28.189  26.918  1.00  0.00    -0.203 F 
ATOM     77  C   UNL A   1      43.889  26.208  25.648  1.00  0.00     0.198 A 
ATOM     78  C   UNL A   1      42.339  24.489  26.277  1.00  0.00     0.198 A 
ATOM     79  F   UNL A   1      40.937  24.798  28.140  1.00  0.00    -0.203 F 
ATOM     80  F   UNL A   1      44.844  26.666  24.827  1.00  0.00    -0.200 F 
ATOM     81  C   UNL A   1      43.335  24.954  25.434  1.00  0.00     0.200 A 
ATOM     82  F   UNL A   1      41.819  23.268  26.092  1.00  0.00    -0.200 F 
ATOM     83  F   UNL A   1      43.766  24.193  24.419  1.00  0.00    -0.200 F 
ENDBRANCH  49  73
BRANCH  61  84
ATOM     84  C   UNL A   1      44.713  27.073  34.181  1.00  0.00     0.064 A 
ATOM     85  C   UNL A   1      44.515  25.856  34.849  1.00  0.00     0.173 A 
ATOM     86  C   UNL A   1      45.997  27.636  34.194  1.00  0.00     0.173 A 
ATOM     87  F   UNL A   1      43.299  25.290  34.876  1.00  0.00    -0.203 F 
ATOM     88  C   UNL A   1      45.558  25.243  35.535  1.00  0.00     0.198 A 
ATOM     89  C   UNL A   1      47.045  27.004  34.853  1.00  0.00     0.198 A 
ATOM     90  F   UNL A   1      46.234  28.796  33.562  1.00  0.00    -0.203 F 
ATOM     91  F   UNL A   1      45.335  24.111  36.216  1.00  0.00    -0.200 F 
ATOM     92  C   UNL A   1      46.822  25.814  35.531  1.00  0.00     0.200 A 
ATOM     93  F   UNL A   1      48.269  27.548  34.839  1.00  0.00    -0.200 F 
ATOM     94  F   UNL A   1      47.826  25.222  36.192  1.00  0.00    -0.200 F 
ENDBRANCH  61  84
ENDBRANCH  35  36
ENDBRANCH  28  30
ENDBRANCH  27  28
ENDBRANCH  26  27
ENDBRANCH  25  26
ENDBRANCH  24  25
ENDBRANCH   1  24
TORSDOF 21
ENDMDL
