MODEL 1
REMARK VINA RESULT:     -10.2      0.000      0.000
REMARK SMILES C=CC[N@H+](CC(=O)OCCOCCOC(=O)c1ccc(-c2c3nc(c(-c4c(F)c(F)c(F)c(F)c4F)c4ccc([nH]4)c(-c4c(F)c(F)c(F)c(F)c4F)c4nc(c(-c5c(F)c(F)c(F)c(F)c5F)c5ccc2[nH]5)C=C4)C=C3)cc1)[C@@H]1CCCOC1
REMARK SMILES IDX 10 1 9 2 8 3 6 4 7 5 5 6 4 7 3 9 2 10 1 11 80 12 81 13 85 14
REMARK SMILES IDX 82 15 84 16 83 17 11 18 12 19 13 20 14 21 15 22 16 23 17 24
REMARK SMILES IDX 18 25 79 26 19 27 78 28 20 29 21 30 22 31 72 32 23 33 77 34
REMARK SMILES IDX 71 35 73 36 24 37 76 38 70 39 69 40 25 42 57 43 37 44 56 45
REMARK SMILES IDX 38 46 41 47 55 48 74 49 39 50 40 51 54 53 75 54 42 55 26 56
REMARK SMILES IDX 27 57 35 58 28 59 29 60 33 61 36 62 30 63 31 64 34 65 32 66
REMARK SMILES IDX 58 67 59 68 67 69 60 70 61 71 65 72 68 73 62 74 63 75 66 76
REMARK SMILES IDX 64 77 43 78 44 79 52 80 45 81 46 82 50 83 53 84 47 85 48 86
REMARK SMILES IDX 51 87 49 88
REMARK H PARENT 4 8 73 41 41 52
REMARK Flexibility Score: inf
ROOT
ATOM      1  C   UNL A   1      33.021  29.316  23.753  1.00  0.00     0.202 C 
ENDROOT
BRANCH   1   2
ATOM      2  C   UNL A   1      33.706  28.059  23.204  1.00  0.00     0.261 C 
BRANCH   2   3
ATOM      3  O   UNL A   1      32.759  27.058  22.772  1.00  0.00    -0.459 OA
BRANCH   3   4
ATOM      4  C   UNL A   1      33.283  25.949  22.172  1.00  0.00     0.361 C 
ATOM      5  O   UNL A   1      33.286  25.765  20.958  1.00  0.00    -0.245 OA
BRANCH   4   6
ATOM      6  C   UNL A   1      33.861  24.904  23.145  1.00  0.00     0.387 C 
BRANCH   6   7
ATOM      7  N   UNL A   1      32.860  24.245  23.998  1.00  0.00    -0.318 N 
ATOM      8  H   UNL A   1      32.151  24.921  24.284  1.00  0.00     0.349 HD
BRANCH   7   9
ATOM      9  C   UNL A   1      31.946  23.368  23.281  1.00  0.00     0.291 C 
BRANCH   9  10
ATOM     10  C   UNL A   1      32.524  22.174  22.581  1.00  0.00     0.025 C 
ATOM     11  C   UNL A   1      32.107  20.921  22.821  1.00  0.00     0.010 C 
ENDBRANCH   9  10
ENDBRANCH   7   9
BRANCH   7  12
ATOM     12  C   UNL A   1      33.112  24.160  25.451  1.00  0.00     0.211 C 
ATOM     13  C   UNL A   1      34.403  23.397  25.825  1.00  0.00     0.070 C 
ATOM     14  C   UNL A   1      31.881  23.570  26.208  1.00  0.00     0.225 C 
ATOM     15  C   UNL A   1      34.468  22.962  27.282  1.00  0.00     0.035 C 
ATOM     16  O   UNL A   1      32.114  23.100  27.535  1.00  0.00    -0.375 OA
ATOM     17  C   UNL A   1      33.212  22.204  27.632  1.00  0.00     0.160 C 
ENDBRANCH   7  12
ENDBRANCH   6   7
ENDBRANCH   4   6
ENDBRANCH   3   4
ENDBRANCH   2   3
ENDBRANCH   1   2
BRANCH   1  18
ATOM     18  O   UNL A   1      32.614  29.260  25.124  1.00  0.00    -0.374 OA
BRANCH  18  19
ATOM     19  C   UNL A   1      31.465  30.022  25.488  1.00  0.00     0.202 C 
BRANCH  19  20
ATOM     20  C   UNL A   1      31.707  31.088  26.558  1.00  0.00     0.261 C 
BRANCH  20  21
ATOM     21  O   UNL A   1      32.849  30.792  27.366  1.00  0.00    -0.460 OA
BRANCH  21  22
ATOM     22  C   UNL A   1      33.688  31.834  27.532  1.00  0.00     0.338 C 
ATOM     23  O   UNL A   1      33.429  33.027  27.464  1.00  0.00    -0.246 OA
BRANCH  22  24
ATOM     24  C   UNL A   1      35.010  31.324  27.906  1.00  0.00     0.060 A 
ATOM     25  C   UNL A   1      35.156  29.961  28.182  1.00  0.00     0.016 A 
ATOM     26  C   UNL A   1      36.065  32.216  28.100  1.00  0.00     0.016 A 
ATOM     27  C   UNL A   1      36.358  29.494  28.710  1.00  0.00     0.010 A 
ATOM     28  C   UNL A   1      37.277  31.741  28.605  1.00  0.00     0.010 A 
ATOM     29  C   UNL A   1      37.414  30.386  28.955  1.00  0.00    -0.014 A 
BRANCH  29  30
ATOM     30  C   UNL A   1      38.601  29.919  29.712  1.00  0.00     0.031 A 
ATOM     31  C   UNL A   1      38.807  30.400  31.122  1.00  0.00     0.074 A 
ATOM     32  C   UNL A   1      39.455  29.041  29.158  1.00  0.00     0.049 A 
ATOM     33  N   UNL A   1      39.744  30.088  31.979  1.00  0.00    -0.248 NA
ATOM     34  C   UNL A   1      37.825  31.371  31.634  1.00  0.00     0.031 C 
ATOM     35  C   UNL A   1      39.349  28.505  27.803  1.00  0.00     0.029 A 
ATOM     36  N   UNL A   1      40.576  28.439  29.672  1.00  0.00    -0.354 N 
ATOM     37  C   UNL A   1      39.467  30.821  33.126  1.00  0.00     0.074 A 
ATOM     38  C   UNL A   1      38.300  31.625  32.844  1.00  0.00     0.031 C 
ATOM     39  C   UNL A   1      40.358  27.641  27.595  1.00  0.00     0.029 A 
ATOM     40  C   UNL A   1      41.190  27.579  28.794  1.00  0.00     0.049 A 
ATOM     41  H   UNL A   1      40.909  28.607  30.584  1.00  0.00     0.167 HD
ATOM     42  C   UNL A   1      40.119  30.809  34.314  1.00  0.00     0.037 A 
ATOM     43  C   UNL A   1      42.299  26.830  28.946  1.00  0.00     0.037 A 
ATOM     44  C   UNL A   1      41.275  29.997  34.589  1.00  0.00     0.049 A 
ATOM     45  C   UNL A   1      43.017  26.850  30.270  1.00  0.00     0.074 A 
ATOM     46  C   UNL A   1      41.999  29.891  35.763  1.00  0.00     0.029 A 
ATOM     47  N   UNL A   1      41.877  29.150  33.670  1.00  0.00    -0.354 N 
ATOM     48  N   UNL A   1      42.723  27.515  31.360  1.00  0.00    -0.248 NA
ATOM     49  C   UNL A   1      44.216  26.008  30.386  1.00  0.00     0.031 C 
ATOM     50  C   UNL A   1      43.064  29.012  35.541  1.00  0.00     0.029 A 
ATOM     51  C   UNL A   1      42.975  28.534  34.243  1.00  0.00     0.049 A 
ATOM     52  H   UNL A   1      41.568  29.008  32.745  1.00  0.00     0.167 HD
ATOM     53  C   UNL A   1      43.683  27.159  32.298  1.00  0.00     0.074 A 
ATOM     54  C   UNL A   1      44.560  26.203  31.652  1.00  0.00     0.031 C 
ATOM     55  C   UNL A   1      43.831  27.584  33.577  1.00  0.00     0.037 A 
BRANCH  42  56
ATOM     56  C   UNL A   1      39.603  31.713  35.396  1.00  0.00     0.064 A 
ATOM     57  C   UNL A   1      38.607  31.296  36.292  1.00  0.00     0.173 A 
ATOM     58  C   UNL A   1      40.125  33.006  35.552  1.00  0.00     0.173 A 
ATOM     59  F   UNL A   1      38.065  30.074  36.179  1.00  0.00    -0.203 F 
ATOM     60  C   UNL A   1      38.134  32.150  37.287  1.00  0.00     0.198 A 
ATOM     61  C   UNL A   1      39.669  33.848  36.563  1.00  0.00     0.198 A 
ATOM     62  F   UNL A   1      41.081  33.454  34.723  1.00  0.00    -0.203 F 
ATOM     63  F   UNL A   1      37.148  31.747  38.100  1.00  0.00    -0.200 F 
ATOM     64  C   UNL A   1      38.668  33.422  37.424  1.00  0.00     0.200 A 
ATOM     65  F   UNL A   1      40.194  35.073  36.703  1.00  0.00    -0.200 F 
ATOM     66  F   UNL A   1      38.214  34.242  38.382  1.00  0.00    -0.200 F 
ENDBRANCH  42  56
BRANCH  43  67
ATOM     67  C   UNL A   1      42.782  25.985  27.823  1.00  0.00     0.064 A 
ATOM     68  C   UNL A   1      42.258  24.705  27.600  1.00  0.00     0.173 A 
ATOM     69  C   UNL A   1      43.775  26.444  26.946  1.00  0.00     0.173 A 
ATOM     70  F   UNL A   1      41.322  24.212  28.423  1.00  0.00    -0.203 F 
ATOM     71  C   UNL A   1      42.719  23.911  26.550  1.00  0.00     0.198 A 
ATOM     72  C   UNL A   1      44.216  25.661  25.881  1.00  0.00     0.198 A 
ATOM     73  F   UNL A   1      44.310  27.663  27.115  1.00  0.00    -0.203 F 
ATOM     74  F   UNL A   1      42.227  22.675  26.382  1.00  0.00    -0.200 F 
ATOM     75  C   UNL A   1      43.692  24.393  25.687  1.00  0.00     0.200 A 
ATOM     76  F   UNL A   1      45.146  26.137  25.042  1.00  0.00    -0.200 F 
ATOM     77  F   UNL A   1      44.127  23.632  24.674  1.00  0.00    -0.200 F 
ENDBRANCH  43  67
BRANCH  55  78
ATOM     78  C   UNL A   1      44.967  27.002  34.366  1.00  0.00     0.064 A 
ATOM     79  C   UNL A   1      46.226  27.618  34.399  1.00  0.00     0.173 A 
ATOM     80  C   UNL A   1      44.781  25.840  35.128  1.00  0.00     0.173 A 
ATOM     81  F   UNL A   1      46.457  28.724  33.674  1.00  0.00    -0.203 F 
ATOM     82  C   UNL A   1      47.267  27.077  35.148  1.00  0.00     0.198 A 
ATOM     83  C   UNL A   1      45.815  25.317  35.898  1.00  0.00     0.198 A 
ATOM     84  F   UNL A   1      43.592  25.219  35.136  1.00  0.00    -0.203 F 
ATOM     85  F   UNL A   1      48.476  27.656  35.130  1.00  0.00    -0.200 F 
ATOM     86  C   UNL A   1      47.058  25.931  35.903  1.00  0.00     0.200 A 
ATOM     87  F   UNL A   1      45.609  24.218  36.637  1.00  0.00    -0.200 F 
ATOM     88  F   UNL A   1      48.060  25.415  36.628  1.00  0.00    -0.200 F 
ENDBRANCH  55  78
ENDBRANCH  29  30
ENDBRANCH  22  24
ENDBRANCH  21  22
ENDBRANCH  20  21
ENDBRANCH  19  20
ENDBRANCH  18  19
ENDBRANCH   1  18
TORSDOF 18
ENDMDL
MODEL 2
REMARK VINA RESULT:     -10.0      0.983      2.338
REMARK SMILES C=CC[N@H+](CC(=O)OCCOCCOC(=O)c1ccc(-c2c3nc(c(-c4c(F)c(F)c(F)c(F)c4F)c4ccc([nH]4)c(-c4c(F)c(F)c(F)c(F)c4F)c4nc(c(-c5c(F)c(F)c(F)c(F)c5F)c5ccc2[nH]5)C=C4)C=C3)cc1)[C@@H]1CCCOC1
REMARK SMILES IDX 10 1 9 2 8 3 6 4 7 5 5 6 4 7 3 9 2 10 1 11 80 12 81 13 85 14
REMARK SMILES IDX 82 15 84 16 83 17 11 18 12 19 13 20 14 21 15 22 16 23 17 24
REMARK SMILES IDX 18 25 79 26 19 27 78 28 20 29 21 30 22 31 72 32 23 33 77 34
REMARK SMILES IDX 71 35 73 36 24 37 76 38 70 39 69 40 25 42 57 43 37 44 56 45
REMARK SMILES IDX 38 46 41 47 55 48 74 49 39 50 40 51 54 53 75 54 42 55 26 56
REMARK SMILES IDX 27 57 35 58 28 59 29 60 33 61 36 62 30 63 31 64 34 65 32 66
REMARK SMILES IDX 58 67 59 68 67 69 60 70 61 71 65 72 68 73 62 74 63 75 66 76
REMARK SMILES IDX 64 77 43 78 44 79 52 80 45 81 46 82 50 83 53 84 47 85 48 86
REMARK SMILES IDX 51 87 49 88
REMARK H PARENT 4 8 73 41 41 52
REMARK Flexibility Score: inf
ROOT
ATOM      1  C   UNL A   1      32.455  29.076  24.369  1.00  0.00     0.202 C 
ENDROOT
BRANCH   1   2
ATOM      2  C   UNL A   1      32.212  27.632  23.914  1.00  0.00     0.261 C 
BRANCH   2   3
ATOM      3  O   UNL A   1      33.437  26.878  23.791  1.00  0.00    -0.459 OA
BRANCH   3   4
ATOM      4  C   UNL A   1      33.536  26.058  22.704  1.00  0.00     0.361 C 
ATOM      5  O   UNL A   1      33.520  26.458  21.543  1.00  0.00    -0.245 OA
BRANCH   4   6
ATOM      6  C   UNL A   1      33.643  24.559  23.036  1.00  0.00     0.387 C 
BRANCH   6   7
ATOM      7  N   UNL A   1      33.801  24.260  24.468  1.00  0.00    -0.318 N 
ATOM      8  H   UNL A   1      34.215  25.062  24.945  1.00  0.00     0.349 HD
BRANCH   7   9
ATOM      9  C   UNL A   1      32.555  24.268  25.221  1.00  0.00     0.291 C 
BRANCH   9  10
ATOM     10  C   UNL A   1      31.546  23.201  24.919  1.00  0.00     0.025 C 
ATOM     11  C   UNL A   1      30.753  22.665  25.860  1.00  0.00     0.010 C 
ENDBRANCH   9  10
ENDBRANCH   7   9
BRANCH   7  12
ATOM     12  C   UNL A   1      35.032  23.580  24.919  1.00  0.00     0.211 C 
ATOM     13  C   UNL A   1      35.910  23.034  23.770  1.00  0.00     0.070 C 
ATOM     14  C   UNL A   1      34.713  22.456  25.955  1.00  0.00     0.225 C 
ATOM     15  C   UNL A   1      36.944  22.009  24.213  1.00  0.00     0.035 C 
ATOM     16  O   UNL A   1      35.742  21.498  26.192  1.00  0.00    -0.375 OA
ATOM     17  C   UNL A   1      36.262  20.920  25.003  1.00  0.00     0.160 C 
ENDBRANCH   7  12
ENDBRANCH   6   7
ENDBRANCH   4   6
ENDBRANCH   3   4
ENDBRANCH   2   3
ENDBRANCH   1   2
BRANCH   1  18
ATOM     18  O   UNL A   1      31.688  29.518  25.493  1.00  0.00    -0.374 OA
BRANCH  18  19
ATOM     19  C   UNL A   1      31.054  30.790  25.383  1.00  0.00     0.202 C 
BRANCH  19  20
ATOM     20  C   UNL A   1      31.449  31.806  26.457  1.00  0.00     0.261 C 
BRANCH  20  21
ATOM     21  O   UNL A   1      32.609  31.396  27.187  1.00  0.00    -0.460 OA
BRANCH  21  22
ATOM     22  C   UNL A   1      33.405  32.415  27.567  1.00  0.00     0.338 C 
ATOM     23  O   UNL A   1      33.111  33.597  27.684  1.00  0.00    -0.246 OA
BRANCH  22  24
ATOM     24  C   UNL A   1      34.722  31.881  27.923  1.00  0.00     0.060 A 
ATOM     25  C   UNL A   1      34.854  30.509  28.161  1.00  0.00     0.016 A 
ATOM     26  C   UNL A   1      35.787  32.756  28.139  1.00  0.00     0.016 A 
ATOM     27  C   UNL A   1      36.053  30.015  28.671  1.00  0.00     0.010 A 
ATOM     28  C   UNL A   1      36.995  32.254  28.626  1.00  0.00     0.010 A 
ATOM     29  C   UNL A   1      37.119  30.888  28.938  1.00  0.00    -0.014 A 
BRANCH  29  30
ATOM     30  C   UNL A   1      38.303  30.388  29.678  1.00  0.00     0.031 A 
ATOM     31  C   UNL A   1      38.508  30.813  31.106  1.00  0.00     0.074 A 
ATOM     32  C   UNL A   1      39.156  29.530  29.091  1.00  0.00     0.049 A 
ATOM     33  N   UNL A   1      39.443  30.464  31.952  1.00  0.00    -0.248 NA
ATOM     34  C   UNL A   1      37.529  31.765  31.655  1.00  0.00     0.031 C 
ATOM     35  C   UNL A   1      39.050  29.048  27.716  1.00  0.00     0.029 A 
ATOM     36  N   UNL A   1      40.273  28.904  29.582  1.00  0.00    -0.354 N 
ATOM     37  C   UNL A   1      39.166  31.152  33.127  1.00  0.00     0.074 A 
ATOM     38  C   UNL A   1      38.002  31.971  32.875  1.00  0.00     0.031 C 
ATOM     39  C   UNL A   1      40.056  28.189  27.475  1.00  0.00     0.029 A 
ATOM     40  C   UNL A   1      40.886  28.078  28.673  1.00  0.00     0.049 A 
ATOM     41  H   UNL A   1      40.605  29.035  30.501  1.00  0.00     0.167 HD
ATOM     42  C   UNL A   1      39.816  31.091  34.314  1.00  0.00     0.037 A 
ATOM     43  C   UNL A   1      41.992  27.319  28.797  1.00  0.00     0.037 A 
ATOM     44  C   UNL A   1      40.969  30.264  34.558  1.00  0.00     0.049 A 
ATOM     45  C   UNL A   1      42.708  27.284  30.122  1.00  0.00     0.074 A 
ATOM     46  C   UNL A   1      41.690  30.110  35.729  1.00  0.00     0.029 A 
ATOM     47  N   UNL A   1      41.569  29.452  33.608  1.00  0.00    -0.354 N 
ATOM     48  N   UNL A   1      42.414  27.907  31.237  1.00  0.00    -0.248 NA
ATOM     49  C   UNL A   1      43.904  26.435  30.206  1.00  0.00     0.031 C 
ATOM     50  C   UNL A   1      42.752  29.237  35.474  1.00  0.00     0.029 A 
ATOM     51  C   UNL A   1      42.665  28.811  34.158  1.00  0.00     0.049 A 
ATOM     52  H   UNL A   1      41.262  29.348  32.678  1.00  0.00     0.167 HD
ATOM     53  C   UNL A   1      43.372  27.511  32.161  1.00  0.00     0.074 A 
ATOM     54  C   UNL A   1      44.246  26.578  31.480  1.00  0.00     0.031 C 
ATOM     55  C   UNL A   1      43.518  27.885  33.456  1.00  0.00     0.037 A 
BRANCH  42  56
ATOM     56  C   UNL A   1      39.301  31.953  35.429  1.00  0.00     0.064 A 
ATOM     57  C   UNL A   1      39.599  33.322  35.502  1.00  0.00     0.173 A 
ATOM     58  C   UNL A   1      38.482  31.408  36.430  1.00  0.00     0.173 A 
ATOM     59  F   UNL A   1      40.390  33.891  34.579  1.00  0.00    -0.203 F 
ATOM     60  C   UNL A   1      39.119  34.107  36.548  1.00  0.00     0.198 A 
ATOM     61  C   UNL A   1      37.982  32.200  37.460  1.00  0.00     0.198 A 
ATOM     62  F   UNL A   1      38.164  30.104  36.408  1.00  0.00    -0.203 F 
ATOM     63  F   UNL A   1      39.457  35.402  36.623  1.00  0.00    -0.200 F 
ATOM     64  C   UNL A   1      38.307  33.547  37.523  1.00  0.00     0.200 A 
ATOM     65  F   UNL A   1      37.188  31.660  38.395  1.00  0.00    -0.200 F 
ATOM     66  F   UNL A   1      37.844  34.303  38.528  1.00  0.00    -0.200 F 
ENDBRANCH  42  56
BRANCH  43  67
ATOM     67  C   UNL A   1      42.474  26.518  27.642  1.00  0.00     0.064 A 
ATOM     68  C   UNL A   1      43.449  27.017  26.767  1.00  0.00     0.173 A 
ATOM     69  C   UNL A   1      41.975  25.231  27.393  1.00  0.00     0.173 A 
ATOM     70  F   UNL A   1      43.943  28.251  26.950  1.00  0.00    -0.203 F 
ATOM     71  C   UNL A   1      43.894  26.267  25.680  1.00  0.00     0.198 A 
ATOM     72  C   UNL A   1      42.441  24.471  26.322  1.00  0.00     0.198 A 
ATOM     73  F   UNL A   1      41.042  24.705  28.201  1.00  0.00    -0.203 F 
ATOM     74  F   UNL A   1      44.800  26.784  24.838  1.00  0.00    -0.200 F 
ATOM     75  C   UNL A   1      43.396  24.991  25.463  1.00  0.00     0.200 A 
ATOM     76  F   UNL A   1      41.965  23.233  26.125  1.00  0.00    -0.200 F 
ATOM     77  F   UNL A   1      43.831  24.267  24.423  1.00  0.00    -0.200 F 
ENDBRANCH  43  67
BRANCH  55  78
ATOM     78  C   UNL A   1      44.651  27.268  34.223  1.00  0.00     0.064 A 
ATOM     79  C   UNL A   1      44.501  26.046  34.894  1.00  0.00     0.173 A 
ATOM     80  C   UNL A   1      45.910  27.886  34.251  1.00  0.00     0.173 A 
ATOM     81  F   UNL A   1      43.312  25.424  34.908  1.00  0.00    -0.203 F 
ATOM     82  C   UNL A   1      45.566  25.476  35.587  1.00  0.00     0.198 A 
ATOM     83  C   UNL A   1      46.979  27.300  34.921  1.00  0.00     0.198 A 
ATOM     84  F   UNL A   1      46.106  29.052  33.617  1.00  0.00    -0.203 F 
ATOM     85  F   UNL A   1      45.389  24.330  36.259  1.00  0.00    -0.200 F 
ATOM     86  C   UNL A   1      46.805  26.100  35.594  1.00  0.00     0.200 A 
ATOM     87  F   UNL A   1      48.179  27.896  34.916  1.00  0.00    -0.200 F 
ATOM     88  F   UNL A   1      47.830  25.547  36.257  1.00  0.00    -0.200 F 
ENDBRANCH  55  78
ENDBRANCH  29  30
ENDBRANCH  22  24
ENDBRANCH  21  22
ENDBRANCH  20  21
ENDBRANCH  19  20
ENDBRANCH  18  19
ENDBRANCH   1  18
TORSDOF 18
ENDMDL
MODEL 3
REMARK VINA RESULT:      -9.9      4.520     10.020
REMARK SMILES C=CC[N@H+](CC(=O)OCCOCCOC(=O)c1ccc(-c2c3nc(c(-c4c(F)c(F)c(F)c(F)c4F)c4ccc([nH]4)c(-c4c(F)c(F)c(F)c(F)c4F)c4nc(c(-c5c(F)c(F)c(F)c(F)c5F)c5ccc2[nH]5)C=C4)C=C3)cc1)[C@@H]1CCCOC1
REMARK SMILES IDX 10 1 9 2 8 3 6 4 7 5 5 6 4 7 3 9 2 10 1 11 80 12 81 13 85 14
REMARK SMILES IDX 82 15 84 16 83 17 11 18 12 19 13 20 14 21 15 22 16 23 17 24
REMARK SMILES IDX 18 25 79 26 19 27 78 28 20 29 21 30 22 31 72 32 23 33 77 34
REMARK SMILES IDX 71 35 73 36 24 37 76 38 70 39 69 40 25 42 57 43 37 44 56 45
REMARK SMILES IDX 38 46 41 47 55 48 74 49 39 50 40 51 54 53 75 54 42 55 26 56
REMARK SMILES IDX 27 57 35 58 28 59 29 60 33 61 36 62 30 63 31 64 34 65 32 66
REMARK SMILES IDX 58 67 59 68 67 69 60 70 61 71 65 72 68 73 62 74 63 75 66 76
REMARK SMILES IDX 64 77 43 78 44 79 52 80 45 81 46 82 50 83 53 84 47 85 48 86
REMARK SMILES IDX 51 87 49 88
REMARK H PARENT 4 8 73 41 41 52
REMARK Flexibility Score: inf
ROOT
ATOM      1  C   UNL A   1      37.036  22.501  24.620  1.00  0.00     0.202 C 
ENDROOT
BRANCH   1   2
ATOM      2  C   UNL A   1      36.414  23.768  25.221  1.00  0.00     0.261 C 
BRANCH   2   3
ATOM      3  O   UNL A   1      35.444  24.377  24.342  1.00  0.00    -0.459 OA
BRANCH   3   4
ATOM      4  C   UNL A   1      34.204  24.596  24.870  1.00  0.00     0.361 C 
ATOM      5  O   UNL A   1      33.386  25.376  24.392  1.00  0.00    -0.245 OA
BRANCH   4   6
ATOM      6  C   UNL A   1      33.902  23.801  26.153  1.00  0.00     0.387 C 
BRANCH   6   7
ATOM      7  N   UNL A   1      32.998  22.656  25.964  1.00  0.00    -0.318 N 
ATOM      8  H   UNL A   1      33.277  21.890  26.578  1.00  0.00     0.349 HD
BRANCH   7   9
ATOM      9  C   UNL A   1      31.675  22.836  26.544  1.00  0.00     0.291 C 
BRANCH   9  10
ATOM     10  C   UNL A   1      30.672  23.637  25.769  1.00  0.00     0.025 C 
ATOM     11  C   UNL A   1      30.299  24.875  26.129  1.00  0.00     0.010 C 
ENDBRANCH   9  10
ENDBRANCH   7   9
BRANCH   7  12
ATOM     12  C   UNL A   1      33.304  21.679  24.899  1.00  0.00     0.211 C 
ATOM     13  C   UNL A   1      32.147  21.449  23.901  1.00  0.00     0.070 C 
ATOM     14  C   UNL A   1      33.798  20.324  25.496  1.00  0.00     0.225 C 
ATOM     15  C   UNL A   1      32.292  20.188  23.062  1.00  0.00     0.035 C 
ATOM     16  O   UNL A   1      33.780  19.198  24.621  1.00  0.00    -0.375 OA
ATOM     17  C   UNL A   1      32.531  19.008  23.971  1.00  0.00     0.160 C 
ENDBRANCH   7  12
ENDBRANCH   6   7
ENDBRANCH   4   6
ENDBRANCH   3   4
ENDBRANCH   2   3
ENDBRANCH   1   2
BRANCH   1  18
ATOM     18  O   UNL A   1      37.011  21.336  25.450  1.00  0.00    -0.374 OA
BRANCH  18  19
ATOM     19  C   UNL A   1      37.526  20.131  24.887  1.00  0.00     0.202 C 
BRANCH  19  20
ATOM     20  C   UNL A   1      38.847  19.648  25.488  1.00  0.00     0.261 C 
BRANCH  20  21
ATOM     21  O   UNL A   1      39.766  20.723  25.706  1.00  0.00    -0.460 OA
BRANCH  21  22
ATOM     22  C   UNL A   1      40.407  20.664  26.890  1.00  0.00     0.338 C 
ATOM     23  O   UNL A   1      40.816  19.670  27.476  1.00  0.00    -0.246 OA
BRANCH  22  24
ATOM     24  C   UNL A   1      40.638  22.028  27.374  1.00  0.00     0.060 A 
ATOM     25  C   UNL A   1      39.986  23.090  26.738  1.00  0.00     0.016 A 
ATOM     26  C   UNL A   1      41.587  22.256  28.370  1.00  0.00     0.016 A 
ATOM     27  C   UNL A   1      40.331  24.399  27.068  1.00  0.00     0.010 A 
ATOM     28  C   UNL A   1      41.911  23.569  28.716  1.00  0.00     0.010 A 
ATOM     29  C   UNL A   1      41.317  24.646  28.035  1.00  0.00    -0.014 A 
BRANCH  29  30
ATOM     30  C   UNL A   1      41.826  26.028  28.220  1.00  0.00     0.031 A 
ATOM     31  C   UNL A   1      43.162  26.401  27.640  1.00  0.00     0.074 A 
ATOM     32  C   UNL A   1      41.078  26.945  28.859  1.00  0.00     0.049 A 
ATOM     33  N   UNL A   1      43.778  27.556  27.643  1.00  0.00    -0.248 NA
ATOM     34  C   UNL A   1      43.911  25.325  26.971  1.00  0.00     0.031 C 
ATOM     35  C   UNL A   1      39.767  26.694  29.455  1.00  0.00     0.029 A 
ATOM     36  N   UNL A   1      41.312  28.274  29.105  1.00  0.00    -0.354 N 
ATOM     37  C   UNL A   1      44.980  27.345  26.980  1.00  0.00     0.074 A 
ATOM     38  C   UNL A   1      45.030  25.944  26.626  1.00  0.00     0.031 C 
ATOM     39  C   UNL A   1      39.304  27.838  29.987  1.00  0.00     0.029 A 
ATOM     40  C   UNL A   1      40.294  28.894  29.788  1.00  0.00     0.049 A 
ATOM     41  H   UNL A   1      42.131  28.740  28.819  1.00  0.00     0.167 HD
ATOM     42  C   UNL A   1      45.947  28.245  26.680  1.00  0.00     0.037 A 
ATOM     43  C   UNL A   1      40.179  30.170  30.203  1.00  0.00     0.037 A 
ATOM     44  C   UNL A   1      45.885  29.639  27.028  1.00  0.00     0.049 A 
ATOM     45  C   UNL A   1      41.277  31.146  29.874  1.00  0.00     0.074 A 
ATOM     46  C   UNL A   1      46.798  30.642  26.754  1.00  0.00     0.029 A 
ATOM     47  N   UNL A   1      44.844  30.227  27.733  1.00  0.00    -0.354 N 
ATOM     48  N   UNL A   1      42.391  30.946  29.212  1.00  0.00    -0.248 NA
ATOM     49  C   UNL A   1      41.099  32.528  30.342  1.00  0.00     0.031 C 
ATOM     50  C   UNL A   1      46.329  31.828  27.329  1.00  0.00     0.029 A 
ATOM     51  C   UNL A   1      45.102  31.574  27.921  1.00  0.00     0.049 A 
ATOM     52  H   UNL A   1      44.041  29.756  28.052  1.00  0.00     0.167 HD
ATOM     53  C   UNL A   1      43.036  32.174  29.164  1.00  0.00     0.074 A 
ATOM     54  C   UNL A   1      42.179  33.120  29.849  1.00  0.00     0.031 C 
ATOM     55  C   UNL A   1      44.230  32.494  28.607  1.00  0.00     0.037 A 
BRANCH  42  56
ATOM     56  C   UNL A   1      47.159  27.741  25.952  1.00  0.00     0.064 A 
ATOM     57  C   UNL A   1      47.232  27.743  24.550  1.00  0.00     0.173 A 
ATOM     58  C   UNL A   1      48.272  27.267  26.664  1.00  0.00     0.173 A 
ATOM     59  F   UNL A   1      46.192  28.173  23.821  1.00  0.00    -0.203 F 
ATOM     60  C   UNL A   1      48.362  27.265  23.889  1.00  0.00     0.198 A 
ATOM     61  C   UNL A   1      49.410  26.814  26.001  1.00  0.00     0.198 A 
ATOM     62  F   UNL A   1      48.256  27.244  28.006  1.00  0.00    -0.203 F 
ATOM     63  F   UNL A   1      48.389  27.232  22.550  1.00  0.00    -0.200 F 
ATOM     64  C   UNL A   1      49.451  26.806  24.615  1.00  0.00     0.200 A 
ATOM     65  F   UNL A   1      50.466  26.381  26.704  1.00  0.00    -0.200 F 
ATOM     66  F   UNL A   1      50.538  26.348  23.979  1.00  0.00    -0.200 F 
ENDBRANCH  42  56
BRANCH  43  67
ATOM     67  C   UNL A   1      38.971  30.599  30.954  1.00  0.00     0.064 A 
ATOM     68  C   UNL A   1      37.838  31.090  30.291  1.00  0.00     0.173 A 
ATOM     69  C   UNL A   1      38.922  30.521  32.354  1.00  0.00     0.173 A 
ATOM     70  F   UNL A   1      37.843  31.204  28.955  1.00  0.00    -0.203 F 
ATOM     71  C   UNL A   1      36.709  31.499  30.999  1.00  0.00     0.198 A 
ATOM     72  C   UNL A   1      37.783  30.904  33.059  1.00  0.00     0.198 A 
ATOM     73  F   UNL A   1      39.978  30.057  33.038  1.00  0.00    -0.203 F 
ATOM     74  F   UNL A   1      35.654  32.001  30.341  1.00  0.00    -0.200 F 
ATOM     75  C   UNL A   1      36.679  31.399  32.382  1.00  0.00     0.200 A 
ATOM     76  F   UNL A   1      37.754  30.793  34.394  1.00  0.00    -0.200 F 
ATOM     77  F   UNL A   1      35.590  31.784  33.060  1.00  0.00    -0.200 F 
ENDBRANCH  43  67
BRANCH  55  78
ATOM     78  C   UNL A   1      44.666  33.927  28.697  1.00  0.00     0.064 A 
ATOM     79  C   UNL A   1      45.494  34.376  29.736  1.00  0.00     0.173 A 
ATOM     80  C   UNL A   1      44.286  34.849  27.711  1.00  0.00     0.173 A 
ATOM     81  F   UNL A   1      45.871  33.534  30.711  1.00  0.00    -0.203 F 
ATOM     82  C   UNL A   1      45.905  35.704  29.799  1.00  0.00     0.198 A 
ATOM     83  C   UNL A   1      44.722  36.169  27.762  1.00  0.00     0.198 A 
ATOM     84  F   UNL A   1      43.502  34.466  26.692  1.00  0.00    -0.203 F 
ATOM     85  F   UNL A   1      46.659  36.123  30.825  1.00  0.00    -0.200 F 
ATOM     86  C   UNL A   1      45.525  36.598  28.808  1.00  0.00     0.200 A 
ATOM     87  F   UNL A   1      44.365  37.028  26.797  1.00  0.00    -0.200 F 
ATOM     88  F   UNL A   1      45.927  37.875  28.867  1.00  0.00    -0.200 F 
ENDBRANCH  55  78
ENDBRANCH  29  30
ENDBRANCH  22  24
ENDBRANCH  21  22
ENDBRANCH  20  21
ENDBRANCH  19  20
ENDBRANCH  18  19
ENDBRANCH   1  18
TORSDOF 18
ENDMDL
