MODEL 1
REMARK VINA RESULT:     -11.6      0.000      0.000
REMARK SMILES [NH3+]Cc1c(-c2ccccc2)c(C(=O)OCCOCCOC(=O)c2ccc(-c3c4nc(c(-c5c(F)c(F)c(F)c(F)c5F)c5ccc([nH]5)c(-c5c(F)c(F)c(F)c(F)c5F)c5nc(c(-c6c(F)c(F)c(F)c(F)c6F)c6ccc3[nH]6)C=C5)C=C4)cc2)c2ccccn12
REMARK SMILES IDX 17 1 16 2 15 3 14 4 12 5 13 6 11 7 3 8 4 9 91 10 86 11 90 12
REMARK SMILES IDX 87 13 89 14 88 15 2 16 1 17 5 21 6 22 10 23 7 24 9 25 8 26
REMARK SMILES IDX 18 27 19 28 20 29 21 30 22 31 23 32 24 33 85 34 25 35 84 36
REMARK SMILES IDX 26 37 27 38 28 39 78 40 29 41 83 42 77 43 79 44 30 45 82 46
REMARK SMILES IDX 76 47 75 48 31 50 63 51 43 52 62 53 44 54 47 55 61 56 80 57
REMARK SMILES IDX 45 58 46 59 60 61 81 62 48 63 32 64 33 65 41 66 34 67 35 68
REMARK SMILES IDX 39 69 42 70 36 71 37 72 40 73 38 74 64 75 65 76 73 77 66 78
REMARK SMILES IDX 67 79 71 80 74 81 68 82 69 83 72 84 70 85 49 86 50 87 58 88
REMARK SMILES IDX 51 89 52 90 56 91 59 92 53 93 54 94 57 95 55 96
REMARK H PARENT 1 18 1 19 1 20 79 49 47 60
REMARK Flexibility Score: inf
ROOT
ATOM      1  O   UNL A   1      32.944  30.323  26.604  1.00  0.00    -0.374 OA
ENDROOT
BRANCH   1   2
ATOM      2  C   UNL A   1      32.922  28.923  26.904  1.00  0.00     0.202 C 
BRANCH   2   3
ATOM      3  C   UNL A   1      31.532  28.355  27.198  1.00  0.00     0.261 C 
BRANCH   3   4
ATOM      4  O   UNL A   1      31.642  26.938  27.430  1.00  0.00    -0.460 OA
BRANCH   4   5
ATOM      5  C   UNL A   1      31.046  26.140  26.500  1.00  0.00     0.341 C 
ATOM      6  O   UNL A   1      29.907  25.698  26.602  1.00  0.00    -0.246 OA
BRANCH   5   7
ATOM      7  C   UNL A   1      31.869  25.947  25.312  1.00  0.00     0.093 A 
ATOM      8  C   UNL A   1      32.580  26.064  23.138  1.00  0.00     0.086 A 
ATOM      9  C   UNL A   1      31.636  26.544  24.034  1.00  0.00     0.024 A 
ATOM     10  N   UNL A   1      33.447  25.249  23.851  1.00  0.00    -0.314 N 
ATOM     11  C   UNL A   1      33.039  25.212  25.188  1.00  0.00     0.061 A 
ATOM     12  C   UNL A   1      34.565  24.542  23.391  1.00  0.00     0.092 A 
ATOM     13  C   UNL A   1      33.838  24.450  26.095  1.00  0.00     0.027 A 
ATOM     14  C   UNL A   1      35.298  23.813  24.247  1.00  0.00     0.018 A 
ATOM     15  C   UNL A   1      34.919  23.785  25.645  1.00  0.00     0.004 A 
BRANCH   8  16
ATOM     16  C   UNL A   1      32.732  26.328  21.679  1.00  0.00     0.315 C 
BRANCH  16  17
ATOM     17  N   UNL A   1      31.819  25.479  20.926  1.00  0.00    -0.353 N 
ATOM     18  H   UNL A   1      32.333  24.692  20.531  1.00  0.00     0.344 HD
ATOM     19  H   UNL A   1      31.394  26.020  20.173  1.00  0.00     0.344 HD
ATOM     20  H   UNL A   1      31.089  25.131  21.548  1.00  0.00     0.344 HD
ENDBRANCH  16  17
ENDBRANCH   8  16
BRANCH   9  21
ATOM     21  C   UNL A   1      30.657  27.566  23.709  1.00  0.00    -0.015 A 
ATOM     22  C   UNL A   1      29.324  27.189  23.489  1.00  0.00     0.009 A 
ATOM     23  C   UNL A   1      31.042  28.893  23.520  1.00  0.00     0.009 A 
ATOM     24  C   UNL A   1      28.391  28.128  23.051  1.00  0.00     0.001 A 
ATOM     25  C   UNL A   1      30.102  29.834  23.094  1.00  0.00     0.001 A 
ATOM     26  C   UNL A   1      28.782  29.450  22.851  1.00  0.00     0.000 A 
ENDBRANCH   9  21
ENDBRANCH   5   7
ENDBRANCH   4   5
ENDBRANCH   3   4
ENDBRANCH   2   3
ENDBRANCH   1   2
BRANCH   1  27
ATOM     27  C   UNL A   1      31.688  30.998  26.623  1.00  0.00     0.202 C 
BRANCH  27  28
ATOM     28  C   UNL A   1      31.748  32.483  26.999  1.00  0.00     0.261 C 
BRANCH  28  29
ATOM     29  O   UNL A   1      33.079  33.005  26.887  1.00  0.00    -0.460 OA
BRANCH  29  30
ATOM     30  C   UNL A   1      33.557  33.547  28.033  1.00  0.00     0.338 C 
ATOM     31  O   UNL A   1      33.018  34.376  28.746  1.00  0.00    -0.246 OA
BRANCH  30  32
ATOM     32  C   UNL A   1      34.811  32.871  28.415  1.00  0.00     0.060 A 
ATOM     33  C   UNL A   1      34.708  31.558  28.891  1.00  0.00     0.016 A 
ATOM     34  C   UNL A   1      36.051  33.511  28.352  1.00  0.00     0.016 A 
ATOM     35  C   UNL A   1      35.841  30.896  29.356  1.00  0.00     0.010 A 
ATOM     36  C   UNL A   1      37.188  32.847  28.826  1.00  0.00     0.010 A 
ATOM     37  C   UNL A   1      37.079  31.552  29.361  1.00  0.00    -0.014 A 
BRANCH  37  38
ATOM     38  C   UNL A   1      38.224  30.922  30.058  1.00  0.00     0.031 A 
ATOM     39  C   UNL A   1      38.476  31.269  31.498  1.00  0.00     0.074 A 
ATOM     40  C   UNL A   1      38.993  30.017  29.430  1.00  0.00     0.049 A 
ATOM     41  N   UNL A   1      39.388  30.806  32.315  1.00  0.00    -0.248 NA
ATOM     42  C   UNL A   1      37.582  32.272  32.097  1.00  0.00     0.031 C 
ATOM     43  C   UNL A   1      38.830  29.587  28.044  1.00  0.00     0.029 A 
ATOM     44  N   UNL A   1      40.069  29.297  29.885  1.00  0.00    -0.354 N 
ATOM     45  C   UNL A   1      39.172  31.456  33.523  1.00  0.00     0.074 A 
ATOM     46  C   UNL A   1      38.069  32.370  33.325  1.00  0.00     0.031 C 
ATOM     47  C   UNL A   1      39.775  28.676  27.757  1.00  0.00     0.029 A 
ATOM     48  C   UNL A   1      40.617  28.473  28.934  1.00  0.00     0.049 A 
ATOM     49  H   UNL A   1      40.413  29.364  30.804  1.00  0.00     0.167 HD
ATOM     50  C   UNL A   1      39.828  31.291  34.697  1.00  0.00     0.037 A 
ATOM     51  C   UNL A   1      41.682  27.652  29.010  1.00  0.00     0.037 A 
ATOM     52  C   UNL A   1      40.926  30.385  34.893  1.00  0.00     0.049 A 
ATOM     53  C   UNL A   1      42.425  27.524  30.314  1.00  0.00     0.074 A 
ATOM     54  C   UNL A   1      41.645  30.132  36.048  1.00  0.00     0.029 A 
ATOM     55  N   UNL A   1      41.470  29.583  33.899  1.00  0.00    -0.354 N 
ATOM     56  N   UNL A   1      42.188  28.109  31.462  1.00  0.00    -0.248 NA
ATOM     57  C   UNL A   1      43.578  26.613  30.332  1.00  0.00     0.031 C 
ATOM     58  C   UNL A   1      42.651  29.208  35.744  1.00  0.00     0.029 A 
ATOM     59  C   UNL A   1      42.529  28.852  34.410  1.00  0.00     0.049 A 
ATOM     60  H   UNL A   1      41.150  29.540  32.969  1.00  0.00     0.167 HD
ATOM     61  C   UNL A   1      43.140  27.618  32.346  1.00  0.00     0.074 A 
ATOM     62  C   UNL A   1      43.954  26.679  31.602  1.00  0.00     0.031 C 
ATOM     63  C   UNL A   1      43.323  27.916  33.656  1.00  0.00     0.037 A 
BRANCH  50  64
ATOM     64  C   UNL A   1      39.380  32.129  35.858  1.00  0.00     0.064 A 
ATOM     65  C   UNL A   1      38.422  31.663  36.771  1.00  0.00     0.173 A 
ATOM     66  C   UNL A   1      39.934  33.398  36.075  1.00  0.00     0.173 A 
ATOM     67  F   UNL A   1      37.852  30.462  36.597  1.00  0.00    -0.203 F 
ATOM     68  C   UNL A   1      38.019  32.450  37.848  1.00  0.00     0.198 A 
ATOM     69  C   UNL A   1      39.548  34.171  37.165  1.00  0.00     0.198 A 
ATOM     70  F   UNL A   1      40.856  33.887  35.230  1.00  0.00    -0.203 F 
ATOM     71  F   UNL A   1      37.072  32.004  38.684  1.00  0.00    -0.200 F 
ATOM     72  C   UNL A   1      38.587  33.700  38.047  1.00  0.00     0.200 A 
ATOM     73  F   UNL A   1      40.102  35.377  37.361  1.00  0.00    -0.200 F 
ATOM     74  F   UNL A   1      38.200  34.455  39.085  1.00  0.00    -0.200 F 
ENDBRANCH  50  64
BRANCH  51  75
ATOM     75  C   UNL A   1      42.104  26.878  27.815  1.00  0.00     0.064 A 
ATOM     76  C   UNL A   1      41.572  25.608  27.550  1.00  0.00     0.173 A 
ATOM     77  C   UNL A   1      43.052  27.389  26.918  1.00  0.00     0.173 A 
ATOM     78  F   UNL A   1      40.679  25.068  28.393  1.00  0.00    -0.203 F 
ATOM     79  C   UNL A   1      41.984  24.874  26.440  1.00  0.00     0.198 A 
ATOM     80  C   UNL A   1      43.446  26.664  25.797  1.00  0.00     0.198 A 
ATOM     81  F   UNL A   1      43.592  28.599  27.129  1.00  0.00    -0.203 F 
ATOM     82  F   UNL A   1      41.489  23.646  26.231  1.00  0.00    -0.200 F 
ATOM     83  C   UNL A   1      42.916  25.404  25.562  1.00  0.00     0.200 A 
ATOM     84  F   UNL A   1      44.340  27.184  24.945  1.00  0.00    -0.200 F 
ATOM     85  F   UNL A   1      43.309  24.699  24.493  1.00  0.00    -0.200 F 
ENDBRANCH  51  75
BRANCH  63  86
ATOM     86  C   UNL A   1      44.423  27.197  34.378  1.00  0.00     0.064 A 
ATOM     87  C   UNL A   1      45.704  27.754  34.507  1.00  0.00     0.173 A 
ATOM     88  C   UNL A   1      44.180  25.956  34.987  1.00  0.00     0.173 A 
ATOM     89  F   UNL A   1      45.988  28.932  33.930  1.00  0.00    -0.203 F 
ATOM     90  C   UNL A   1      46.707  27.086  35.202  1.00  0.00     0.198 A 
ATOM     91  C   UNL A   1      45.180  25.302  35.702  1.00  0.00     0.198 A 
ATOM     92  F   UNL A   1      42.970  25.385  34.897  1.00  0.00    -0.203 F 
ATOM     93  F   UNL A   1      47.935  27.617  35.279  1.00  0.00    -0.200 F 
ATOM     94  C   UNL A   1      46.443  25.864  35.804  1.00  0.00     0.200 A 
ATOM     95  F   UNL A   1      44.920  24.128  36.293  1.00  0.00    -0.200 F 
ATOM     96  F   UNL A   1      47.409  25.224  36.478  1.00  0.00    -0.200 F 
ENDBRANCH  63  86
ENDBRANCH  37  38
ENDBRANCH  30  32
ENDBRANCH  29  30
ENDBRANCH  28  29
ENDBRANCH  27  28
ENDBRANCH   1  27
TORSDOF 17
ENDMDL
MODEL 2
REMARK VINA RESULT:     -11.5      5.085     10.369
REMARK SMILES [NH3+]Cc1c(-c2ccccc2)c(C(=O)OCCOCCOC(=O)c2ccc(-c3c4nc(c(-c5c(F)c(F)c(F)c(F)c5F)c5ccc([nH]5)c(-c5c(F)c(F)c(F)c(F)c5F)c5nc(c(-c6c(F)c(F)c(F)c(F)c6F)c6ccc3[nH]6)C=C5)C=C4)cc2)c2ccccn12
REMARK SMILES IDX 17 1 16 2 15 3 14 4 12 5 13 6 11 7 3 8 4 9 91 10 86 11 90 12
REMARK SMILES IDX 87 13 89 14 88 15 2 16 1 17 5 21 6 22 10 23 7 24 9 25 8 26
REMARK SMILES IDX 18 27 19 28 20 29 21 30 22 31 23 32 24 33 85 34 25 35 84 36
REMARK SMILES IDX 26 37 27 38 28 39 78 40 29 41 83 42 77 43 79 44 30 45 82 46
REMARK SMILES IDX 76 47 75 48 31 50 63 51 43 52 62 53 44 54 47 55 61 56 80 57
REMARK SMILES IDX 45 58 46 59 60 61 81 62 48 63 32 64 33 65 41 66 34 67 35 68
REMARK SMILES IDX 39 69 42 70 36 71 37 72 40 73 38 74 64 75 65 76 73 77 66 78
REMARK SMILES IDX 67 79 71 80 74 81 68 82 69 83 72 84 70 85 49 86 50 87 58 88
REMARK SMILES IDX 51 89 52 90 56 91 59 92 53 93 54 94 57 95 55 96
REMARK H PARENT 1 18 1 19 1 20 79 49 47 60
REMARK Flexibility Score: inf
ROOT
ATOM      1  O   UNL A   1      39.045  21.922  26.285  1.00  0.00    -0.374 OA
ENDROOT
BRANCH   1   2
ATOM      2  C   UNL A   1      38.490  23.235  26.153  1.00  0.00     0.202 C 
BRANCH   2   3
ATOM      3  C   UNL A   1      36.967  23.273  26.005  1.00  0.00     0.261 C 
BRANCH   3   4
ATOM      4  O   UNL A   1      36.627  24.035  24.831  1.00  0.00    -0.460 OA
BRANCH   4   5
ATOM      5  C   UNL A   1      36.075  23.325  23.807  1.00  0.00     0.341 C 
ATOM      6  O   UNL A   1      36.696  22.946  22.820  1.00  0.00    -0.246 OA
BRANCH   5   7
ATOM      7  C   UNL A   1      34.682  22.969  24.053  1.00  0.00     0.093 A 
ATOM      8  C   UNL A   1      32.420  23.181  24.333  1.00  0.00     0.086 A 
ATOM      9  C   UNL A   1      33.568  23.858  23.950  1.00  0.00     0.024 A 
ATOM     10  N   UNL A   1      32.784  21.867  24.590  1.00  0.00    -0.314 N 
ATOM     11  C   UNL A   1      34.158  21.727  24.377  1.00  0.00     0.061 A 
ATOM     12  C   UNL A   1      31.978  20.798  25.001  1.00  0.00     0.092 A 
ATOM     13  C   UNL A   1      34.718  20.423  24.553  1.00  0.00     0.027 A 
ATOM     14  C   UNL A   1      32.516  19.582  25.182  1.00  0.00     0.018 A 
ATOM     15  C   UNL A   1      33.932  19.398  24.934  1.00  0.00     0.004 A 
BRANCH   8  16
ATOM     16  C   UNL A   1      31.018  23.673  24.458  1.00  0.00     0.315 C 
BRANCH  16  17
ATOM     17  N   UNL A   1      30.370  23.652  23.154  1.00  0.00    -0.353 N 
ATOM     18  H   UNL A   1      30.562  22.763  22.692  1.00  0.00     0.344 HD
ATOM     19  H   UNL A   1      30.729  24.417  22.583  1.00  0.00     0.344 HD
ATOM     20  H   UNL A   1      29.363  23.762  23.274  1.00  0.00     0.344 HD
ENDBRANCH  16  17
ENDBRANCH   8  16
BRANCH   9  21
ATOM     21  C   UNL A   1      33.574  25.214  23.432  1.00  0.00    -0.015 A 
ATOM     22  C   UNL A   1      33.763  26.283  24.320  1.00  0.00     0.009 A 
ATOM     23  C   UNL A   1      33.298  25.470  22.089  1.00  0.00     0.009 A 
ATOM     24  C   UNL A   1      33.645  27.598  23.872  1.00  0.00     0.001 A 
ATOM     25  C   UNL A   1      33.194  26.789  21.640  1.00  0.00     0.001 A 
ATOM     26  C   UNL A   1      33.357  27.850  22.533  1.00  0.00     0.000 A 
ENDBRANCH   9  21
ENDBRANCH   5   7
ENDBRANCH   4   5
ENDBRANCH   3   4
ENDBRANCH   2   3
ENDBRANCH   1   2
BRANCH   1  27
ATOM     27  C   UNL A   1      38.485  20.907  25.453  1.00  0.00     0.202 C 
BRANCH  27  28
ATOM     28  C   UNL A   1      39.288  19.604  25.380  1.00  0.00     0.261 C 
BRANCH  28  29
ATOM     29  O   UNL A   1      40.150  19.447  26.516  1.00  0.00    -0.460 OA
BRANCH  29  30
ATOM     30  C   UNL A   1      41.467  19.378  26.204  1.00  0.00     0.338 C 
ATOM     31  O   UNL A   1      42.063  18.443  25.696  1.00  0.00    -0.246 OA
BRANCH  30  32
ATOM     32  C   UNL A   1      42.098  20.691  26.428  1.00  0.00     0.060 A 
ATOM     33  C   UNL A   1      42.244  21.111  27.756  1.00  0.00     0.016 A 
ATOM     34  C   UNL A   1      42.501  21.514  25.372  1.00  0.00     0.016 A 
ATOM     35  C   UNL A   1      42.745  22.379  28.033  1.00  0.00     0.010 A 
ATOM     36  C   UNL A   1      42.999  22.790  25.652  1.00  0.00     0.010 A 
ATOM     37  C   UNL A   1      43.090  23.239  26.981  1.00  0.00    -0.014 A 
BRANCH  37  38
ATOM     38  C   UNL A   1      43.409  24.653  27.283  1.00  0.00     0.031 A 
ATOM     39  C   UNL A   1      44.788  25.167  26.979  1.00  0.00     0.074 A 
ATOM     40  C   UNL A   1      42.469  25.476  27.775  1.00  0.00     0.049 A 
ATOM     41  N   UNL A   1      45.273  26.374  27.120  1.00  0.00    -0.248 NA
ATOM     42  C   UNL A   1      45.749  24.188  26.446  1.00  0.00     0.031 C 
ATOM     43  C   UNL A   1      41.094  25.095  28.089  1.00  0.00     0.029 A 
ATOM     44  N   UNL A   1      42.533  26.809  28.096  1.00  0.00    -0.354 N 
ATOM     45  C   UNL A   1      46.590  26.301  26.686  1.00  0.00     0.074 A 
ATOM     46  C   UNL A   1      46.841  24.926  26.312  1.00  0.00     0.031 C 
ATOM     47  C   UNL A   1      40.441  26.171  28.561  1.00  0.00     0.029 A 
ATOM     48  C   UNL A   1      41.357  27.309  28.596  1.00  0.00     0.049 A 
ATOM     49  H   UNL A   1      43.344  27.353  27.978  1.00  0.00     0.167 HD
ATOM     50  C   UNL A   1      47.503  27.297  26.595  1.00  0.00     0.037 A 
ATOM     51  C   UNL A   1      41.061  28.547  29.036  1.00  0.00     0.037 A 
ATOM     52  C   UNL A   1      47.255  28.663  26.969  1.00  0.00     0.049 A 
ATOM     53  C   UNL A   1      42.109  29.626  28.970  1.00  0.00     0.074 A 
ATOM     54  C   UNL A   1      48.109  29.749  26.898  1.00  0.00     0.029 A 
ATOM     55  N   UNL A   1      46.058  29.128  27.495  1.00  0.00    -0.354 N 
ATOM     56  N   UNL A   1      43.339  29.559  28.519  1.00  0.00    -0.248 NA
ATOM     57  C   UNL A   1      41.725  30.955  29.466  1.00  0.00     0.031 C 
ATOM     58  C   UNL A   1      47.442  30.864  27.419  1.00  0.00     0.029 A 
ATOM     59  C   UNL A   1      46.159  30.481  27.773  1.00  0.00     0.049 A 
ATOM     60  H   UNL A   1      45.256  28.578  27.648  1.00  0.00     0.167 HD
ATOM     61  C   UNL A   1      43.864  30.838  28.649  1.00  0.00     0.074 A 
ATOM     62  C   UNL A   1      42.817  31.663  29.214  1.00  0.00     0.031 C 
ATOM     63  C   UNL A   1      45.102  31.288  28.328  1.00  0.00     0.037 A 
BRANCH  50  64
ATOM     64  C   UNL A   1      48.866  26.936  26.084  1.00  0.00     0.064 A 
ATOM     65  C   UNL A   1      49.199  27.069  24.727  1.00  0.00     0.173 A 
ATOM     66  C   UNL A   1      49.857  26.478  26.963  1.00  0.00     0.173 A 
ATOM     67  F   UNL A   1      48.280  27.488  23.845  1.00  0.00    -0.203 F 
ATOM     68  C   UNL A   1      50.470  26.734  24.267  1.00  0.00     0.198 A 
ATOM     69  C   UNL A   1      51.134  26.168  26.504  1.00  0.00     0.198 A 
ATOM     70  F   UNL A   1      49.588  26.336  28.270  1.00  0.00    -0.203 F 
ATOM     71  F   UNL A   1      50.755  26.829  22.961  1.00  0.00    -0.200 F 
ATOM     72  C   UNL A   1      51.438  26.290  25.156  1.00  0.00     0.200 A 
ATOM     73  F   UNL A   1      52.071  25.745  27.365  1.00  0.00    -0.200 F 
ATOM     74  F   UNL A   1      52.661  25.971  24.713  1.00  0.00    -0.200 F 
ENDBRANCH  50  64
BRANCH  51  75
ATOM     75  C   UNL A   1      39.705  28.835  29.571  1.00  0.00     0.064 A 
ATOM     76  C   UNL A   1      39.389  28.589  30.913  1.00  0.00     0.173 A 
ATOM     77  C   UNL A   1      38.697  29.355  28.746  1.00  0.00     0.173 A 
ATOM     78  F   UNL A   1      40.315  28.070  31.734  1.00  0.00    -0.203 F 
ATOM     79  C   UNL A   1      38.112  28.839  31.409  1.00  0.00     0.198 A 
ATOM     80  C   UNL A   1      37.427  29.625  29.247  1.00  0.00     0.198 A 
ATOM     81  F   UNL A   1      38.950  29.606  27.453  1.00  0.00    -0.203 F 
ATOM     82  F   UNL A   1      37.824  28.558  32.687  1.00  0.00    -0.200 F 
ATOM     83  C   UNL A   1      37.134  29.362  30.577  1.00  0.00     0.200 A 
ATOM     84  F   UNL A   1      36.487  30.140  28.443  1.00  0.00    -0.200 F 
ATOM     85  F   UNL A   1      35.905  29.605  31.054  1.00  0.00    -0.200 F 
ENDBRANCH  51  75
BRANCH  63  86
ATOM     86  C   UNL A   1      45.383  32.745  28.547  1.00  0.00     0.064 A 
ATOM     87  C   UNL A   1      45.948  33.212  29.742  1.00  0.00     0.173 A 
ATOM     88  C   UNL A   1      45.124  33.678  27.532  1.00  0.00     0.173 A 
ATOM     89  F   UNL A   1      46.200  32.359  30.747  1.00  0.00    -0.203 F 
ATOM     90  C   UNL A   1      46.225  34.564  29.921  1.00  0.00     0.198 A 
ATOM     91  C   UNL A   1      45.425  35.026  27.705  1.00  0.00     0.198 A 
ATOM     92  F   UNL A   1      44.589  33.280  26.368  1.00  0.00    -0.203 F 
ATOM     93  F   UNL A   1      46.729  34.995  31.086  1.00  0.00    -0.200 F 
ATOM     94  C   UNL A   1      45.971  35.469  28.900  1.00  0.00     0.200 A 
ATOM     95  F   UNL A   1      45.189  35.897  26.714  1.00  0.00    -0.200 F 
ATOM     96  F   UNL A   1      46.244  36.770  29.072  1.00  0.00    -0.200 F 
ENDBRANCH  63  86
ENDBRANCH  37  38
ENDBRANCH  30  32
ENDBRANCH  29  30
ENDBRANCH  28  29
ENDBRANCH  27  28
ENDBRANCH   1  27
TORSDOF 17
ENDMDL
MODEL 3
REMARK VINA RESULT:     -11.5      5.212      8.774
REMARK SMILES [NH3+]Cc1c(-c2ccccc2)c(C(=O)OCCOCCOC(=O)c2ccc(-c3c4nc(c(-c5c(F)c(F)c(F)c(F)c5F)c5ccc([nH]5)c(-c5c(F)c(F)c(F)c(F)c5F)c5nc(c(-c6c(F)c(F)c(F)c(F)c6F)c6ccc3[nH]6)C=C5)C=C4)cc2)c2ccccn12
REMARK SMILES IDX 17 1 16 2 15 3 14 4 12 5 13 6 11 7 3 8 4 9 91 10 86 11 90 12
REMARK SMILES IDX 87 13 89 14 88 15 2 16 1 17 5 21 6 22 10 23 7 24 9 25 8 26
REMARK SMILES IDX 18 27 19 28 20 29 21 30 22 31 23 32 24 33 85 34 25 35 84 36
REMARK SMILES IDX 26 37 27 38 28 39 78 40 29 41 83 42 77 43 79 44 30 45 82 46
REMARK SMILES IDX 76 47 75 48 31 50 63 51 43 52 62 53 44 54 47 55 61 56 80 57
REMARK SMILES IDX 45 58 46 59 60 61 81 62 48 63 32 64 33 65 41 66 34 67 35 68
REMARK SMILES IDX 39 69 42 70 36 71 37 72 40 73 38 74 64 75 65 76 73 77 66 78
REMARK SMILES IDX 67 79 71 80 74 81 68 82 69 83 72 84 70 85 49 86 50 87 58 88
REMARK SMILES IDX 51 89 52 90 56 91 59 92 53 93 54 94 57 95 55 96
REMARK H PARENT 1 18 1 19 1 20 79 49 47 60
REMARK Flexibility Score: inf
ROOT
ATOM      1  O   UNL A   1      39.339  22.191  26.158  1.00  0.00    -0.374 OA
ENDROOT
BRANCH   1   2
ATOM      2  C   UNL A   1      38.589  23.394  26.358  1.00  0.00     0.202 C 
BRANCH   2   3
ATOM      3  C   UNL A   1      37.084  23.256  26.114  1.00  0.00     0.261 C 
BRANCH   3   4
ATOM      4  O   UNL A   1      36.707  24.099  25.009  1.00  0.00    -0.460 OA
BRANCH   4   5
ATOM      5  C   UNL A   1      36.154  23.457  23.940  1.00  0.00     0.341 C 
ATOM      6  O   UNL A   1      36.779  23.129  22.937  1.00  0.00    -0.246 OA
BRANCH   5   7
ATOM      7  C   UNL A   1      34.756  23.105  24.155  1.00  0.00     0.093 A 
ATOM      8  C   UNL A   1      32.493  23.327  24.426  1.00  0.00     0.086 A 
ATOM      9  C   UNL A   1      33.652  24.010  24.089  1.00  0.00     0.024 A 
ATOM     10  N   UNL A   1      32.840  21.998  24.616  1.00  0.00    -0.314 N 
ATOM     11  C   UNL A   1      34.215  21.853  24.408  1.00  0.00     0.061 A 
ATOM     12  C   UNL A   1      32.018  20.918  24.963  1.00  0.00     0.092 A 
ATOM     13  C   UNL A   1      34.758  20.535  24.521  1.00  0.00     0.027 A 
ATOM     14  C   UNL A   1      32.542  19.687  25.085  1.00  0.00     0.018 A 
ATOM     15  C   UNL A   1      33.958  19.501  24.840  1.00  0.00     0.004 A 
BRANCH   8  16
ATOM     16  C   UNL A   1      31.096  23.828  24.564  1.00  0.00     0.315 C 
BRANCH  16  17
ATOM     17  N   UNL A   1      30.418  23.761  23.277  1.00  0.00    -0.353 N 
ATOM     18  H   UNL A   1      30.462  24.673  22.821  1.00  0.00     0.344 HD
ATOM     19  H   UNL A   1      29.442  23.499  23.420  1.00  0.00     0.344 HD
ATOM     20  H   UNL A   1      30.875  23.065  22.689  1.00  0.00     0.344 HD
ENDBRANCH  16  17
ENDBRANCH   8  16
BRANCH   9  21
ATOM     21  C   UNL A   1      33.677  25.392  23.643  1.00  0.00    -0.015 A 
ATOM     22  C   UNL A   1      33.771  26.415  24.598  1.00  0.00     0.009 A 
ATOM     23  C   UNL A   1      33.513  25.714  22.296  1.00  0.00     0.009 A 
ATOM     24  C   UNL A   1      33.668  27.750  24.210  1.00  0.00     0.001 A 
ATOM     25  C   UNL A   1      33.424  27.053  21.908  1.00  0.00     0.001 A 
ATOM     26  C   UNL A   1      33.491  28.068  22.865  1.00  0.00     0.000 A 
ENDBRANCH   9  21
ENDBRANCH   5   7
ENDBRANCH   4   5
ENDBRANCH   3   4
ENDBRANCH   2   3
ENDBRANCH   1   2
BRANCH   1  27
ATOM     27  C   UNL A   1      38.659  21.117  25.511  1.00  0.00     0.202 C 
BRANCH  27  28
ATOM     28  C   UNL A   1      39.448  19.806  25.417  1.00  0.00     0.261 C 
BRANCH  28  29
ATOM     29  O   UNL A   1      40.318  19.628  26.544  1.00  0.00    -0.460 OA
BRANCH  29  30
ATOM     30  C   UNL A   1      41.624  19.481  26.214  1.00  0.00     0.338 C 
ATOM     31  O   UNL A   1      42.151  18.525  25.671  1.00  0.00    -0.246 OA
BRANCH  30  32
ATOM     32  C   UNL A   1      42.345  20.741  26.472  1.00  0.00     0.060 A 
ATOM     33  C   UNL A   1      42.357  21.211  27.791  1.00  0.00     0.016 A 
ATOM     34  C   UNL A   1      42.958  21.471  25.450  1.00  0.00     0.016 A 
ATOM     35  C   UNL A   1      42.938  22.440  28.086  1.00  0.00     0.010 A 
ATOM     36  C   UNL A   1      43.536  22.709  25.747  1.00  0.00     0.010 A 
ATOM     37  C   UNL A   1      43.496  23.213  27.058  1.00  0.00    -0.014 A 
BRANCH  37  38
ATOM     38  C   UNL A   1      43.908  24.605  27.349  1.00  0.00     0.031 A 
ATOM     39  C   UNL A   1      42.857  25.610  27.726  1.00  0.00     0.074 A 
ATOM     40  C   UNL A   1      45.206  24.954  27.326  1.00  0.00     0.049 A 
ATOM     41  N   UNL A   1      42.993  26.867  28.063  1.00  0.00    -0.248 NA
ATOM     42  C   UNL A   1      41.464  25.134  27.719  1.00  0.00     0.031 C 
ATOM     43  C   UNL A   1      46.313  24.060  26.997  1.00  0.00     0.029 A 
ATOM     44  N   UNL A   1      45.807  26.158  27.588  1.00  0.00    -0.354 N 
ATOM     45  C   UNL A   1      41.707  27.328  28.316  1.00  0.00     0.074 A 
ATOM     46  C   UNL A   1      40.802  26.230  28.059  1.00  0.00     0.031 C 
ATOM     47  C   UNL A   1      47.465  24.749  27.073  1.00  0.00     0.029 A 
ATOM     48  C   UNL A   1      47.172  26.133  27.441  1.00  0.00     0.049 A 
ATOM     49  H   UNL A   1      45.308  26.963  27.855  1.00  0.00     0.167 HD
ATOM     50  C   UNL A   1      41.321  28.555  28.739  1.00  0.00     0.037 A 
ATOM     51  C   UNL A   1      48.077  27.120  27.585  1.00  0.00     0.037 A 
ATOM     52  C   UNL A   1      42.221  29.647  28.992  1.00  0.00     0.049 A 
ATOM     53  C   UNL A   1      47.616  28.489  28.009  1.00  0.00     0.074 A 
ATOM     54  C   UNL A   1      41.930  30.924  29.440  1.00  0.00     0.029 A 
ATOM     55  N   UNL A   1      43.596  29.591  28.809  1.00  0.00    -0.354 N 
ATOM     56  N   UNL A   1      46.404  28.905  28.288  1.00  0.00    -0.248 NA
ATOM     57  C   UNL A   1      48.651  29.523  28.148  1.00  0.00     0.031 C 
ATOM     58  C   UNL A   1      43.123  31.652  29.490  1.00  0.00     0.029 A 
ATOM     59  C   UNL A   1      44.163  30.816  29.115  1.00  0.00     0.049 A 
ATOM     60  H   UNL A   1      44.094  28.797  28.507  1.00  0.00     0.167 HD
ATOM     61  C   UNL A   1      46.533  30.237  28.662  1.00  0.00     0.074 A 
ATOM     62  C   UNL A   1      47.943  30.557  28.582  1.00  0.00     0.031 C 
ATOM     63  C   UNL A   1      45.570  31.114  29.038  1.00  0.00     0.037 A 
BRANCH  50  64
ATOM     64  C   UNL A   1      39.852  28.783  28.938  1.00  0.00     0.064 A 
ATOM     65  C   UNL A   1      39.236  28.552  30.178  1.00  0.00     0.173 A 
ATOM     66  C   UNL A   1      39.058  29.261  27.887  1.00  0.00     0.173 A 
ATOM     67  F   UNL A   1      39.951  28.079  31.209  1.00  0.00    -0.203 F 
ATOM     68  C   UNL A   1      37.872  28.772  30.350  1.00  0.00     0.198 A 
ATOM     69  C   UNL A   1      37.700  29.504  28.069  1.00  0.00     0.198 A 
ATOM     70  F   UNL A   1      39.601  29.499  26.683  1.00  0.00    -0.203 F 
ATOM     71  F   UNL A   1      37.295  28.507  31.530  1.00  0.00    -0.200 F 
ATOM     72  C   UNL A   1      37.106  29.254  29.298  1.00  0.00     0.200 A 
ATOM     73  F   UNL A   1      36.962  29.976  27.054  1.00  0.00    -0.200 F 
ATOM     74  F   UNL A   1      35.794  29.469  29.465  1.00  0.00    -0.200 F 
ENDBRANCH  50  64
BRANCH  51  75
ATOM     75  C   UNL A   1      49.514  26.845  27.334  1.00  0.00     0.064 A 
ATOM     76  C   UNL A   1      50.057  26.951  26.047  1.00  0.00     0.173 A 
ATOM     77  C   UNL A   1      50.371  26.462  28.376  1.00  0.00     0.173 A 
ATOM     78  F   UNL A   1      49.271  27.291  25.015  1.00  0.00    -0.203 F 
ATOM     79  C   UNL A   1      51.401  26.672  25.808  1.00  0.00     0.198 A 
ATOM     80  C   UNL A   1      51.719  26.205  28.141  1.00  0.00     0.198 A 
ATOM     81  F   UNL A   1      49.898  26.344  29.626  1.00  0.00    -0.203 F 
ATOM     82  F   UNL A   1      51.887  26.743  24.561  1.00  0.00    -0.200 F 
ATOM     83  C   UNL A   1      52.232  26.305  26.856  1.00  0.00     0.200 A 
ATOM     84  F   UNL A   1      52.521  25.860  29.157  1.00  0.00    -0.200 F 
ATOM     85  F   UNL A   1      53.525  26.039  26.627  1.00  0.00    -0.200 F 
ENDBRANCH  51  75
BRANCH  63  86
ATOM     86  C   UNL A   1      46.011  32.494  29.426  1.00  0.00     0.064 A 
ATOM     87  C   UNL A   1      46.379  32.805  30.743  1.00  0.00     0.173 A 
ATOM     88  C   UNL A   1      46.108  33.506  28.459  1.00  0.00     0.173 A 
ATOM     89  F   UNL A   1      46.289  31.874  31.706  1.00  0.00    -0.203 F 
ATOM     90  C   UNL A   1      46.809  34.084  31.082  1.00  0.00     0.198 A 
ATOM     91  C   UNL A   1      46.562  34.778  28.797  1.00  0.00     0.198 A 
ATOM     92  F   UNL A   1      45.773  33.257  27.184  1.00  0.00    -0.203 F 
ATOM     93  F   UNL A   1      47.118  34.370  32.355  1.00  0.00    -0.200 F 
ATOM     94  C   UNL A   1      46.907  35.068  30.108  1.00  0.00     0.200 A 
ATOM     95  F   UNL A   1      46.667  35.724  27.853  1.00  0.00    -0.200 F 
ATOM     96  F   UNL A   1      47.327  36.297  30.436  1.00  0.00    -0.200 F 
ENDBRANCH  63  86
ENDBRANCH  37  38
ENDBRANCH  30  32
ENDBRANCH  29  30
ENDBRANCH  28  29
ENDBRANCH  27  28
ENDBRANCH   1  27
TORSDOF 17
ENDMDL
