MODEL 1
REMARK VINA RESULT:     -12.3      0.000      0.000
REMARK SMILES C[C@@H](C(=O)OCCOCCOC(=O)c1ccc(-c2c3nc(c(-c4c(F)c(F)c(F)c(F)c4F)c4ccc([nH]4)c(-c4c(F)c(F)c(F)c(F)c4F)c4nc(c(-c5c(F)c(F)c(F)c(F)c5F)c5ccc2[nH]5)C=C4)C=C3)cc1)c1ccc(C[C@H]2CCCC2=O)c(-c2ccc(F)cc2)c1
REMARK SMILES IDX 7 1 6 2 5 3 3 4 4 5 2 6 1 7 77 8 78 9 96 10 79 11 88 12
REMARK SMILES IDX 80 13 89 14 90 15 95 16 91 17 94 18 92 19 93 20 81 21 82 22
REMARK SMILES IDX 83 23 86 24 84 25 85 26 87 27 8 28 9 29 10 30 11 31 12 32
REMARK SMILES IDX 13 33 14 34 15 35 76 36 16 37 75 38 17 39 18 40 19 41 69 42
REMARK SMILES IDX 20 43 74 44 68 45 70 46 21 47 73 48 67 49 66 50 22 52 54 53
REMARK SMILES IDX 34 54 53 55 35 56 38 57 52 58 71 59 36 60 37 61 51 63 72 64
REMARK SMILES IDX 39 65 23 66 24 67 32 68 25 69 26 70 30 71 33 72 27 73 28 74
REMARK SMILES IDX 31 75 29 76 55 77 56 78 64 79 57 80 58 81 62 82 65 83 59 84
REMARK SMILES IDX 60 85 63 86 61 87 40 88 41 89 49 90 42 91 43 92 47 93 50 94
REMARK SMILES IDX 44 95 45 96 48 97 46 98
REMARK H PARENT 70 51 38 62
REMARK Flexibility Score: inf
ROOT
ATOM      1  C   UNL A   1      33.280  33.952  28.674  1.00  0.00     0.202 C 
ENDROOT
BRANCH   1   2
ATOM      2  C   UNL A   1      33.222  33.032  27.450  1.00  0.00     0.261 C 
BRANCH   2   3
ATOM      3  O   UNL A   1      33.841  31.766  27.758  1.00  0.00    -0.463 OA
BRANCH   3   4
ATOM      4  C   UNL A   1      33.216  30.663  27.265  1.00  0.00     0.313 C 
ATOM      5  O   UNL A   1      32.076  30.668  26.811  1.00  0.00    -0.252 OA
BRANCH   4   6
ATOM      6  C   UNL A   1      34.097  29.405  27.325  1.00  0.00     0.126 C 
ATOM      7  C   UNL A   1      35.566  29.648  27.683  1.00  0.00     0.025 C 
BRANCH   6   8
ATOM      8  C   UNL A   1      33.941  28.600  26.039  1.00  0.00    -0.033 A 
ATOM      9  C   UNL A   1      33.626  29.196  24.817  1.00  0.00     0.005 A 
ATOM     10  C   UNL A   1      34.024  27.203  26.083  1.00  0.00     0.013 A 
ATOM     11  C   UNL A   1      33.296  28.419  23.707  1.00  0.00     0.004 A 
ATOM     12  C   UNL A   1      33.727  26.391  24.965  1.00  0.00    -0.015 A 
ATOM     13  C   UNL A   1      33.288  27.016  23.774  1.00  0.00    -0.039 A 
BRANCH  12  14
ATOM     14  C   UNL A   1      33.911  24.935  25.107  1.00  0.00    -0.018 A 
ATOM     15  C   UNL A   1      34.848  24.248  24.312  1.00  0.00     0.012 A 
ATOM     16  C   UNL A   1      33.207  24.208  26.083  1.00  0.00     0.012 A 
ATOM     17  C   UNL A   1      35.049  22.875  24.463  1.00  0.00     0.040 A 
ATOM     18  C   UNL A   1      33.419  22.838  26.246  1.00  0.00     0.040 A 
ATOM     19  C   UNL A   1      34.333  22.183  25.430  1.00  0.00     0.123 A 
ATOM     20  F   UNL A   1      34.531  20.868  25.583  1.00  0.00    -0.207 F 
ENDBRANCH  12  14
BRANCH  13  21
ATOM     21  C   UNL A   1      32.765  26.259  22.567  1.00  0.00     0.047 C 
BRANCH  21  22
ATOM     22  C   UNL A   1      31.256  25.971  22.529  1.00  0.00     0.060 C 
ATOM     23  C   UNL A   1      30.701  25.027  23.600  1.00  0.00     0.012 C 
ATOM     24  C   UNL A   1      30.406  27.208  22.725  1.00  0.00     0.136 C 
ATOM     25  C   UNL A   1      30.070  25.915  24.664  1.00  0.00     0.009 C 
ATOM     26  C   UNL A   1      29.474  27.088  23.900  1.00  0.00     0.076 C 
ATOM     27  O   UNL A   1      30.445  28.186  21.987  1.00  0.00    -0.299 OA
ENDBRANCH  21  22
ENDBRANCH  13  21
ENDBRANCH   6   8
ENDBRANCH   4   6
ENDBRANCH   3   4
ENDBRANCH   2   3
ENDBRANCH   1   2
BRANCH   1  28
ATOM     28  O   UNL A   1      34.187  33.560  29.710  1.00  0.00    -0.374 OA
BRANCH  28  29
ATOM     29  C   UNL A   1      34.390  34.485  30.773  1.00  0.00     0.202 C 
BRANCH  29  30
ATOM     30  C   UNL A   1      34.429  33.899  32.189  1.00  0.00     0.261 C 
BRANCH  30  31
ATOM     31  O   UNL A   1      34.791  32.510  32.188  1.00  0.00    -0.460 OA
BRANCH  31  32
ATOM     32  C   UNL A   1      35.901  32.229  32.909  1.00  0.00     0.338 C 
ATOM     33  O   UNL A   1      36.083  32.422  34.104  1.00  0.00    -0.246 OA
BRANCH  32  34
ATOM     34  C   UNL A   1      36.860  31.474  32.086  1.00  0.00     0.060 A 
ATOM     35  C   UNL A   1      37.855  30.760  32.764  1.00  0.00     0.016 A 
ATOM     36  C   UNL A   1      36.834  31.512  30.690  1.00  0.00     0.016 A 
ATOM     37  C   UNL A   1      38.864  30.124  32.050  1.00  0.00     0.010 A 
ATOM     38  C   UNL A   1      37.856  30.881  29.973  1.00  0.00     0.010 A 
ATOM     39  C   UNL A   1      38.895  30.219  30.652  1.00  0.00    -0.014 A 
BRANCH  39  40
ATOM     40  C   UNL A   1      40.106  29.766  29.929  1.00  0.00     0.031 A 
ATOM     41  C   UNL A   1      41.250  30.729  29.760  1.00  0.00     0.074 A 
ATOM     42  C   UNL A   1      40.209  28.504  29.480  1.00  0.00     0.049 A 
ATOM     43  N   UNL A   1      42.407  30.552  29.175  1.00  0.00    -0.248 NA
ATOM     44  C   UNL A   1      41.063  32.073  30.331  1.00  0.00     0.031 C 
ATOM     45  C   UNL A   1      39.185  27.471  29.627  1.00  0.00     0.029 A 
ATOM     46  N   UNL A   1      41.230  27.877  28.813  1.00  0.00    -0.354 N 
ATOM     47  C   UNL A   1      43.082  31.758  29.304  1.00  0.00     0.074 A 
ATOM     48  C   UNL A   1      42.197  32.669  29.996  1.00  0.00     0.031 C 
ATOM     49  C   UNL A   1      39.629  26.336  29.059  1.00  0.00     0.029 A 
ATOM     50  C   UNL A   1      40.953  26.572  28.488  1.00  0.00     0.049 A 
ATOM     51  H   UNL A   1      42.080  28.320  28.586  1.00  0.00     0.167 HD
ATOM     52  C   UNL A   1      44.332  32.072  28.891  1.00  0.00     0.037 A 
ATOM     53  C   UNL A   1      41.685  25.678  27.795  1.00  0.00     0.037 A 
ATOM     54  C   UNL A   1      45.212  31.162  28.208  1.00  0.00     0.049 A 
ATOM     55  C   UNL A   1      43.046  26.076  27.284  1.00  0.00     0.074 A 
ATOM     56  C   UNL A   1      46.505  31.377  27.768  1.00  0.00     0.029 A 
ATOM     57  N   UNL A   1      44.881  29.860  27.859  1.00  0.00    -0.354 N 
ATOM     58  N   UNL A   1      43.690  27.209  27.436  1.00  0.00    -0.248 NA
ATOM     59  C   UNL A   1      43.783  25.070  26.507  1.00  0.00     0.031 C 
ATOM     60  C   UNL A   1      46.940  30.222  27.108  1.00  0.00     0.029 A 
ATOM     61  C   UNL A   1      45.936  29.270  27.182  1.00  0.00     0.049 A 
ATOM     62  H   UNL A   1      44.023  29.422  28.061  1.00  0.00     0.167 HD
ATOM     63  C   UNL A   1      44.914  27.042  26.802  1.00  0.00     0.074 A 
ATOM     64  C   UNL A   1      44.928  25.694  26.272  1.00  0.00     0.031 C 
ATOM     65  C   UNL A   1      45.935  27.924  26.671  1.00  0.00     0.037 A 
BRANCH  52  66
ATOM     66  C   UNL A   1      44.813  33.470  29.142  1.00  0.00     0.064 A 
ATOM     67  C   UNL A   1      45.529  33.808  30.301  1.00  0.00     0.173 A 
ATOM     68  C   UNL A   1      44.584  34.479  28.194  1.00  0.00     0.173 A 
ATOM     69  F   UNL A   1      45.760  32.883  31.245  1.00  0.00    -0.203 F 
ATOM     70  C   UNL A   1      45.977  35.110  30.512  1.00  0.00     0.198 A 
ATOM     71  C   UNL A   1      45.058  35.772  28.395  1.00  0.00     0.198 A 
ATOM     72  F   UNL A   1      43.908  34.208  27.068  1.00  0.00    -0.203 F 
ATOM     73  F   UNL A   1      46.622  35.419  31.645  1.00  0.00    -0.200 F 
ATOM     74  C   UNL A   1      45.748  36.088  29.556  1.00  0.00     0.200 A 
ATOM     75  F   UNL A   1      44.845  36.714  27.467  1.00  0.00    -0.200 F 
ATOM     76  F   UNL A   1      46.187  37.338  29.757  1.00  0.00    -0.200 F 
ENDBRANCH  52  66
BRANCH  53  77
ATOM     77  C   UNL A   1      41.146  24.318  27.535  1.00  0.00     0.064 A 
ATOM     78  C   UNL A   1      41.697  23.189  28.156  1.00  0.00     0.173 A 
ATOM     79  C   UNL A   1      40.083  24.118  26.642  1.00  0.00     0.173 A 
ATOM     80  F   UNL A   1      42.733  23.327  28.997  1.00  0.00    -0.203 F 
ATOM     81  C   UNL A   1      41.218  21.910  27.882  1.00  0.00     0.198 A 
ATOM     82  C   UNL A   1      39.585  22.841  26.390  1.00  0.00     0.198 A 
ATOM     83  F   UNL A   1      39.522  25.165  26.019  1.00  0.00    -0.203 F 
ATOM     84  F   UNL A   1      41.793  20.844  28.453  1.00  0.00    -0.200 F 
ATOM     85  C   UNL A   1      40.158  21.737  27.003  1.00  0.00     0.200 A 
ATOM     86  F   UNL A   1      38.555  22.680  25.549  1.00  0.00    -0.200 F 
ATOM     87  F   UNL A   1      39.696  20.508  26.741  1.00  0.00    -0.200 F 
ENDBRANCH  53  77
BRANCH  65  88
ATOM     88  C   UNL A   1      47.169  27.449  25.958  1.00  0.00     0.064 A 
ATOM     89  C   UNL A   1      47.337  27.632  24.579  1.00  0.00     0.173 A 
ATOM     90  C   UNL A   1      48.214  26.846  26.675  1.00  0.00     0.173 A 
ATOM     91  F   UNL A   1      46.362  28.191  23.847  1.00  0.00    -0.203 F 
ATOM     92  C   UNL A   1      48.497  27.206  23.937  1.00  0.00     0.198 A 
ATOM     93  C   UNL A   1      49.384  26.447  26.036  1.00  0.00     0.198 A 
ATOM     94  F   UNL A   1      48.105  26.656  27.999  1.00  0.00    -0.203 F 
ATOM     95  F   UNL A   1      48.619  27.349  22.610  1.00  0.00    -0.200 F 
ATOM     96  C   UNL A   1      49.522  26.621  24.667  1.00  0.00     0.200 A 
ATOM     97  F   UNL A   1      50.379  25.895  26.744  1.00  0.00    -0.200 F 
ATOM     98  F   UNL A   1      50.641  26.218  24.049  1.00  0.00    -0.200 F 
ENDBRANCH  65  88
ENDBRANCH  39  40
ENDBRANCH  32  34
ENDBRANCH  31  32
ENDBRANCH  30  31
ENDBRANCH  29  30
ENDBRANCH  28  29
ENDBRANCH   1  28
TORSDOF 18
ENDMDL
MODEL 2
REMARK VINA RESULT:     -12.2      3.414      8.471
REMARK SMILES C[C@@H](C(=O)OCCOCCOC(=O)c1ccc(-c2c3nc(c(-c4c(F)c(F)c(F)c(F)c4F)c4ccc([nH]4)c(-c4c(F)c(F)c(F)c(F)c4F)c4nc(c(-c5c(F)c(F)c(F)c(F)c5F)c5ccc2[nH]5)C=C4)C=C3)cc1)c1ccc(C[C@H]2CCCC2=O)c(-c2ccc(F)cc2)c1
REMARK SMILES IDX 7 1 6 2 5 3 3 4 4 5 2 6 1 7 77 8 78 9 96 10 79 11 88 12
REMARK SMILES IDX 80 13 89 14 90 15 95 16 91 17 94 18 92 19 93 20 81 21 82 22
REMARK SMILES IDX 83 23 86 24 84 25 85 26 87 27 8 28 9 29 10 30 11 31 12 32
REMARK SMILES IDX 13 33 14 34 15 35 76 36 16 37 75 38 17 39 18 40 19 41 69 42
REMARK SMILES IDX 20 43 74 44 68 45 70 46 21 47 73 48 67 49 66 50 22 52 54 53
REMARK SMILES IDX 34 54 53 55 35 56 38 57 52 58 71 59 36 60 37 61 51 63 72 64
REMARK SMILES IDX 39 65 23 66 24 67 32 68 25 69 26 70 30 71 33 72 27 73 28 74
REMARK SMILES IDX 31 75 29 76 55 77 56 78 64 79 57 80 58 81 62 82 65 83 59 84
REMARK SMILES IDX 60 85 63 86 61 87 40 88 41 89 49 90 42 91 43 92 47 93 50 94
REMARK SMILES IDX 44 95 45 96 48 97 46 98
REMARK H PARENT 70 51 38 62
REMARK Flexibility Score: inf
ROOT
ATOM      1  C   UNL A   1      34.656  22.296  23.938  1.00  0.00     0.202 C 
ENDROOT
BRANCH   1   2
ATOM      2  C   UNL A   1      33.463  23.224  24.187  1.00  0.00     0.261 C 
BRANCH   2   3
ATOM      3  O   UNL A   1      33.069  23.157  25.572  1.00  0.00    -0.463 OA
BRANCH   3   4
ATOM      4  C   UNL A   1      31.825  22.660  25.814  1.00  0.00     0.313 C 
ATOM      5  O   UNL A   1      31.406  21.608  25.343  1.00  0.00    -0.252 OA
BRANCH   4   6
ATOM      6  C   UNL A   1      31.002  23.552  26.756  1.00  0.00     0.126 C 
ATOM      7  C   UNL A   1      29.678  22.953  27.238  1.00  0.00     0.025 C 
BRANCH   6   8
ATOM      8  C   UNL A   1      30.819  24.933  26.134  1.00  0.00    -0.033 A 
ATOM      9  C   UNL A   1      29.879  25.184  25.133  1.00  0.00     0.005 A 
ATOM     10  C   UNL A   1      31.676  25.977  26.503  1.00  0.00     0.013 A 
ATOM     11  C   UNL A   1      29.871  26.399  24.449  1.00  0.00     0.004 A 
ATOM     12  C   UNL A   1      31.669  27.230  25.849  1.00  0.00    -0.015 A 
ATOM     13  C   UNL A   1      30.792  27.415  24.754  1.00  0.00    -0.039 A 
BRANCH  12  14
ATOM     14  C   UNL A   1      32.570  28.277  26.364  1.00  0.00    -0.018 A 
ATOM     15  C   UNL A   1      32.069  29.539  26.733  1.00  0.00     0.012 A 
ATOM     16  C   UNL A   1      33.938  28.021  26.563  1.00  0.00     0.012 A 
ATOM     17  C   UNL A   1      32.912  30.524  27.249  1.00  0.00     0.040 A 
ATOM     18  C   UNL A   1      34.780  28.999  27.095  1.00  0.00     0.040 A 
ATOM     19  C   UNL A   1      34.260  30.244  27.427  1.00  0.00     0.123 A 
ATOM     20  F   UNL A   1      35.068  31.184  27.932  1.00  0.00    -0.207 F 
ENDBRANCH  12  14
BRANCH  13  21
ATOM     21  C   UNL A   1      30.812  28.637  23.855  1.00  0.00     0.047 C 
BRANCH  21  22
ATOM     22  C   UNL A   1      31.832  28.636  22.705  1.00  0.00     0.060 C 
ATOM     23  C   UNL A   1      33.287  28.951  23.066  1.00  0.00     0.012 C 
ATOM     24  C   UNL A   1      31.958  27.293  22.019  1.00  0.00     0.136 C 
ATOM     25  C   UNL A   1      34.007  27.610  23.135  1.00  0.00     0.009 C 
ATOM     26  C   UNL A   1      33.364  26.758  22.051  1.00  0.00     0.076 C 
ATOM     27  O   UNL A   1      31.027  26.719  21.465  1.00  0.00    -0.299 OA
ENDBRANCH  21  22
ENDBRANCH  13  21
ENDBRANCH   6   8
ENDBRANCH   4   6
ENDBRANCH   3   4
ENDBRANCH   2   3
ENDBRANCH   1   2
BRANCH   1  28
ATOM     28  O   UNL A   1      34.775  21.178  24.822  1.00  0.00    -0.374 OA
BRANCH  28  29
ATOM     29  C   UNL A   1      35.933  21.130  25.650  1.00  0.00     0.202 C 
BRANCH  29  30
ATOM     30  C   UNL A   1      37.216  20.602  24.998  1.00  0.00     0.261 C 
BRANCH  30  31
ATOM     31  O   UNL A   1      38.286  21.558  25.062  1.00  0.00    -0.460 OA
BRANCH  31  32
ATOM     32  C   UNL A   1      39.215  21.283  26.006  1.00  0.00     0.338 C 
ATOM     33  O   UNL A   1      39.752  20.207  26.232  1.00  0.00    -0.246 OA
BRANCH  32  34
ATOM     34  C   UNL A   1      39.655  22.526  26.659  1.00  0.00     0.060 A 
ATOM     35  C   UNL A   1      39.035  23.713  26.251  1.00  0.00     0.016 A 
ATOM     36  C   UNL A   1      40.691  22.548  27.596  1.00  0.00     0.016 A 
ATOM     37  C   UNL A   1      39.484  24.936  26.736  1.00  0.00     0.010 A 
ATOM     38  C   UNL A   1      41.150  23.780  28.075  1.00  0.00     0.010 A 
ATOM     39  C   UNL A   1      40.574  24.978  27.617  1.00  0.00    -0.014 A 
BRANCH  39  40
ATOM     40  C   UNL A   1      41.203  26.285  27.916  1.00  0.00     0.031 A 
ATOM     41  C   UNL A   1      42.605  26.540  27.434  1.00  0.00     0.074 A 
ATOM     42  C   UNL A   1      40.520  27.249  28.556  1.00  0.00     0.049 A 
ATOM     43  N   UNL A   1      43.350  27.607  27.569  1.00  0.00    -0.248 NA
ATOM     44  C   UNL A   1      43.253  25.443  26.696  1.00  0.00     0.031 C 
ATOM     45  C   UNL A   1      39.142  27.132  29.030  1.00  0.00     0.029 A 
ATOM     46  N   UNL A   1      40.895  28.518  28.915  1.00  0.00    -0.354 N 
ATOM     47  C   UNL A   1      44.551  27.309  26.939  1.00  0.00     0.074 A 
ATOM     48  C   UNL A   1      44.449  25.954  26.446  1.00  0.00     0.031 C 
ATOM     49  C   UNL A   1      38.788  28.286  29.623  1.00  0.00     0.029 A 
ATOM     50  C   UNL A   1      39.921  29.208  29.594  1.00  0.00     0.049 A 
ATOM     51  H   UNL A   1      41.779  28.899  28.706  1.00  0.00     0.167 HD
ATOM     52  C   UNL A   1      45.638  28.101  26.778  1.00  0.00     0.037 A 
ATOM     53  C   UNL A   1      39.952  30.438  30.140  1.00  0.00     0.037 A 
ATOM     54  C   UNL A   1      45.734  29.452  27.264  1.00  0.00     0.049 A 
ATOM     55  C   UNL A   1      41.200  31.273  30.008  1.00  0.00     0.074 A 
ATOM     56  C   UNL A   1      46.782  30.344  27.132  1.00  0.00     0.029 A 
ATOM     57  N   UNL A   1      44.743  30.102  27.984  1.00  0.00    -0.354 N 
ATOM     58  N   UNL A   1      42.321  30.996  29.385  1.00  0.00    -0.248 NA
ATOM     59  C   UNL A   1      41.186  32.594  30.653  1.00  0.00     0.031 C 
ATOM     60  C   UNL A   1      46.446  31.518  27.816  1.00  0.00     0.029 A 
ATOM     61  C   UNL A   1      45.167  31.374  28.330  1.00  0.00     0.049 A 
ATOM     62  H   UNL A   1      43.867  29.715  28.217  1.00  0.00     0.167 HD
ATOM     63  C   UNL A   1      43.130  32.114  29.538  1.00  0.00     0.074 A 
ATOM     64  C   UNL A   1      42.368  33.079  30.303  1.00  0.00     0.031 C 
ATOM     65  C   UNL A   1      44.390  32.324  29.084  1.00  0.00     0.037 A 
BRANCH  52  66
ATOM     66  C   UNL A   1      46.822  27.516  26.068  1.00  0.00     0.064 A 
ATOM     67  C   UNL A   1      46.975  27.620  24.678  1.00  0.00     0.173 A 
ATOM     68  C   UNL A   1      47.834  26.870  26.795  1.00  0.00     0.173 A 
ATOM     69  F   UNL A   1      46.028  28.213  23.936  1.00  0.00    -0.203 F 
ATOM     70  C   UNL A   1      48.088  27.079  24.038  1.00  0.00     0.198 A 
ATOM     71  C   UNL A   1      48.959  26.356  26.155  1.00  0.00     0.198 A 
ATOM     72  F   UNL A   1      47.737  26.747  28.127  1.00  0.00    -0.203 F 
ATOM     73  F   UNL A   1      48.194  27.153  22.704  1.00  0.00    -0.200 F 
ATOM     74  C   UNL A   1      49.081  26.455  24.777  1.00  0.00     0.200 A 
ATOM     75  F   UNL A   1      49.922  25.762  26.872  1.00  0.00    -0.200 F 
ATOM     76  F   UNL A   1      50.155  25.942  24.161  1.00  0.00    -0.200 F 
ENDBRANCH  52  66
BRANCH  53  77
ATOM     77  C   UNL A   1      38.767  30.958  30.871  1.00  0.00     0.064 A 
ATOM     78  C   UNL A   1      38.644  30.798  32.258  1.00  0.00     0.173 A 
ATOM     79  C   UNL A   1      37.723  31.605  30.193  1.00  0.00     0.173 A 
ATOM     80  F   UNL A   1      39.603  30.162  32.946  1.00  0.00    -0.203 F 
ATOM     81  C   UNL A   1      37.514  31.250  32.937  1.00  0.00     0.198 A 
ATOM     82  C   UNL A   1      36.607  32.081  30.877  1.00  0.00     0.198 A 
ATOM     83  F   UNL A   1      37.791  31.779  28.866  1.00  0.00    -0.203 F 
ATOM     84  F   UNL A   1      37.401  31.044  34.256  1.00  0.00    -0.200 F 
ATOM     85  C   UNL A   1      36.499  31.897  32.247  1.00  0.00     0.200 A 
ATOM     86  F   UNL A   1      35.634  32.714  30.208  1.00  0.00    -0.200 F 
ATOM     87  F   UNL A   1      35.414  32.333  32.901  1.00  0.00    -0.200 F 
ENDBRANCH  53  77
BRANCH  65  88
ATOM     88  C   UNL A   1      45.013  33.661  29.370  1.00  0.00     0.064 A 
ATOM     89  C   UNL A   1      44.847  34.750  28.503  1.00  0.00     0.173 A 
ATOM     90  C   UNL A   1      45.744  33.864  30.550  1.00  0.00     0.173 A 
ATOM     91  F   UNL A   1      44.168  34.603  27.355  1.00  0.00    -0.203 F 
ATOM     92  C   UNL A   1      45.412  35.988  28.795  1.00  0.00     0.198 A 
ATOM     93  C   UNL A   1      46.284  35.111  30.854  1.00  0.00     0.198 A 
ATOM     94  F   UNL A   1      45.924  32.855  31.416  1.00  0.00    -0.203 F 
ATOM     95  F   UNL A   1      45.281  37.004  27.931  1.00  0.00    -0.200 F 
ATOM     96  C   UNL A   1      46.123  36.169  29.972  1.00  0.00     0.200 A 
ATOM     97  F   UNL A   1      46.959  35.287  31.998  1.00  0.00    -0.200 F 
ATOM     98  F   UNL A   1      46.661  37.364  30.256  1.00  0.00    -0.200 F 
ENDBRANCH  65  88
ENDBRANCH  39  40
ENDBRANCH  32  34
ENDBRANCH  31  32
ENDBRANCH  30  31
ENDBRANCH  29  30
ENDBRANCH  28  29
ENDBRANCH   1  28
TORSDOF 18
ENDMDL
MODEL 3
REMARK VINA RESULT:     -11.9      3.440      8.713
REMARK SMILES C[C@@H](C(=O)OCCOCCOC(=O)c1ccc(-c2c3nc(c(-c4c(F)c(F)c(F)c(F)c4F)c4ccc([nH]4)c(-c4c(F)c(F)c(F)c(F)c4F)c4nc(c(-c5c(F)c(F)c(F)c(F)c5F)c5ccc2[nH]5)C=C4)C=C3)cc1)c1ccc(C[C@H]2CCCC2=O)c(-c2ccc(F)cc2)c1
REMARK SMILES IDX 7 1 6 2 5 3 3 4 4 5 2 6 1 7 77 8 78 9 96 10 79 11 88 12
REMARK SMILES IDX 80 13 89 14 90 15 95 16 91 17 94 18 92 19 93 20 81 21 82 22
REMARK SMILES IDX 83 23 86 24 84 25 85 26 87 27 8 28 9 29 10 30 11 31 12 32
REMARK SMILES IDX 13 33 14 34 15 35 76 36 16 37 75 38 17 39 18 40 19 41 69 42
REMARK SMILES IDX 20 43 74 44 68 45 70 46 21 47 73 48 67 49 66 50 22 52 54 53
REMARK SMILES IDX 34 54 53 55 35 56 38 57 52 58 71 59 36 60 37 61 51 63 72 64
REMARK SMILES IDX 39 65 23 66 24 67 32 68 25 69 26 70 30 71 33 72 27 73 28 74
REMARK SMILES IDX 31 75 29 76 55 77 56 78 64 79 57 80 58 81 62 82 65 83 59 84
REMARK SMILES IDX 60 85 63 86 61 87 40 88 41 89 49 90 42 91 43 92 47 93 50 94
REMARK SMILES IDX 44 95 45 96 48 97 46 98
REMARK H PARENT 70 51 38 62
REMARK Flexibility Score: inf
ROOT
ATOM      1  C   UNL A   1      34.706  20.635  25.054  1.00  0.00     0.202 C 
ENDROOT
BRANCH   1   2
ATOM      2  C   UNL A   1      33.383  20.829  25.802  1.00  0.00     0.261 C 
BRANCH   2   3
ATOM      3  O   UNL A   1      32.305  21.000  24.859  1.00  0.00    -0.463 OA
BRANCH   3   4
ATOM      4  C   UNL A   1      31.709  22.223  24.853  1.00  0.00     0.313 C 
ATOM      5  O   UNL A   1      31.235  22.759  25.850  1.00  0.00    -0.252 OA
BRANCH   4   6
ATOM      6  C   UNL A   1      31.704  22.875  23.461  1.00  0.00     0.126 C 
ATOM      7  C   UNL A   1      32.470  22.112  22.376  1.00  0.00     0.025 C 
BRANCH   6   8
ATOM      8  C   UNL A   1      32.147  24.330  23.567  1.00  0.00    -0.033 A 
ATOM      9  C   UNL A   1      33.420  24.694  24.009  1.00  0.00     0.005 A 
ATOM     10  C   UNL A   1      31.229  25.354  23.303  1.00  0.00     0.013 A 
ATOM     11  C   UNL A   1      33.727  26.026  24.284  1.00  0.00     0.004 A 
ATOM     12  C   UNL A   1      31.523  26.715  23.541  1.00  0.00    -0.015 A 
ATOM     13  C   UNL A   1      32.777  27.046  24.108  1.00  0.00    -0.039 A 
BRANCH  12  14
ATOM     14  C   UNL A   1      30.505  27.713  23.165  1.00  0.00    -0.018 A 
ATOM     15  C   UNL A   1      30.848  28.830  22.380  1.00  0.00     0.012 A 
ATOM     16  C   UNL A   1      29.156  27.540  23.521  1.00  0.00     0.012 A 
ATOM     17  C   UNL A   1      29.883  29.761  21.995  1.00  0.00     0.040 A 
ATOM     18  C   UNL A   1      28.186  28.462  23.122  1.00  0.00     0.040 A 
ATOM     19  C   UNL A   1      28.560  29.568  22.369  1.00  0.00     0.123 A 
ATOM     20  F   UNL A   1      27.631  30.455  21.993  1.00  0.00    -0.207 F 
ENDBRANCH  12  14
BRANCH  13  21
ATOM     21  C   UNL A   1      33.148  28.440  24.581  1.00  0.00     0.047 C 
BRANCH  21  22
ATOM     22  C   UNL A   1      32.878  28.766  26.058  1.00  0.00     0.060 C 
ATOM     23  C   UNL A   1      34.039  28.564  27.037  1.00  0.00     0.012 C 
ATOM     24  C   UNL A   1      32.512  30.215  26.293  1.00  0.00     0.136 C 
ATOM     25  C   UNL A   1      34.631  29.946  27.284  1.00  0.00     0.009 C 
ATOM     26  C   UNL A   1      33.444  30.897  27.258  1.00  0.00     0.076 C 
ATOM     27  O   UNL A   1      31.542  30.765  25.784  1.00  0.00    -0.299 OA
ENDBRANCH  21  22
ENDBRANCH  13  21
ENDBRANCH   6   8
ENDBRANCH   4   6
ENDBRANCH   3   4
ENDBRANCH   2   3
ENDBRANCH   1   2
BRANCH   1  28
ATOM     28  O   UNL A   1      35.700  21.642  25.269  1.00  0.00    -0.374 OA
BRANCH  28  29
ATOM     29  C   UNL A   1      36.956  21.455  24.625  1.00  0.00     0.202 C 
BRANCH  29  30
ATOM     30  C   UNL A   1      37.966  20.554  25.347  1.00  0.00     0.261 C 
BRANCH  30  31
ATOM     31  O   UNL A   1      39.286  21.119  25.350  1.00  0.00    -0.460 OA
BRANCH  31  32
ATOM     32  C   UNL A   1      39.955  20.950  26.513  1.00  0.00     0.338 C 
ATOM     33  O   UNL A   1      40.371  19.901  26.989  1.00  0.00    -0.246 OA
BRANCH  32  34
ATOM     34  C   UNL A   1      40.292  22.257  27.098  1.00  0.00     0.060 A 
ATOM     35  C   UNL A   1      39.563  23.364  26.644  1.00  0.00     0.016 A 
ATOM     36  C   UNL A   1      41.333  22.417  28.015  1.00  0.00     0.016 A 
ATOM     37  C   UNL A   1      39.909  24.644  27.061  1.00  0.00     0.010 A 
ATOM     38  C   UNL A   1      41.687  23.706  28.426  1.00  0.00     0.010 A 
ATOM     39  C   UNL A   1      41.002  24.825  27.920  1.00  0.00    -0.014 A 
BRANCH  39  40
ATOM     40  C   UNL A   1      41.516  26.196  28.145  1.00  0.00     0.031 A 
ATOM     41  C   UNL A   1      42.889  26.545  27.639  1.00  0.00     0.074 A 
ATOM     42  C   UNL A   1      40.754  27.130  28.739  1.00  0.00     0.049 A 
ATOM     43  N   UNL A   1      43.539  27.678  27.712  1.00  0.00    -0.248 NA
ATOM     44  C   UNL A   1      43.627  25.470  26.956  1.00  0.00     0.031 C 
ATOM     45  C   UNL A   1      39.393  26.920  29.228  1.00  0.00     0.029 A 
ATOM     46  N   UNL A   1      41.018  28.444  29.027  1.00  0.00    -0.354 N 
ATOM     47  C   UNL A   1      44.759  27.452  27.089  1.00  0.00     0.074 A 
ATOM     48  C   UNL A   1      44.774  26.068  26.670  1.00  0.00     0.031 C 
ATOM     49  C   UNL A   1      38.942  28.068  29.763  1.00  0.00     0.029 A 
ATOM     50  C   UNL A   1      39.991  29.082  29.676  1.00  0.00     0.049 A 
ATOM     51  H   UNL A   1      41.865  28.888  28.791  1.00  0.00     0.167 HD
ATOM     52  C   UNL A   1      45.773  28.324  26.878  1.00  0.00     0.037 A 
ATOM     53  C   UNL A   1      39.917  30.338  30.156  1.00  0.00     0.037 A 
ATOM     54  C   UNL A   1      45.753  29.703  27.291  1.00  0.00     0.049 A 
ATOM     55  C   UNL A   1      41.087  31.270  29.970  1.00  0.00     0.074 A 
ATOM     56  C   UNL A   1      46.720  30.674  27.104  1.00  0.00     0.029 A 
ATOM     57  N   UNL A   1      44.711  30.302  27.984  1.00  0.00    -0.354 N 
ATOM     58  N   UNL A   1      42.226  31.058  29.354  1.00  0.00    -0.248 NA
ATOM     59  C   UNL A   1      40.961  32.616  30.545  1.00  0.00     0.031 C 
ATOM     60  C   UNL A   1      46.285  31.849  27.727  1.00  0.00     0.029 A 
ATOM     61  C   UNL A   1      45.025  31.623  28.258  1.00  0.00     0.049 A 
ATOM     62  H   UNL A   1      43.874  29.854  28.244  1.00  0.00     0.167 HD
ATOM     63  C   UNL A   1      42.935  32.248  29.441  1.00  0.00     0.074 A 
ATOM     64  C   UNL A   1      42.096  33.183  30.160  1.00  0.00     0.031 C 
ATOM     65  C   UNL A   1      44.171  32.541  28.967  1.00  0.00     0.037 A 
BRANCH  52  66
ATOM     66  C   UNL A   1      47.001  27.807  26.191  1.00  0.00     0.064 A 
ATOM     67  C   UNL A   1      48.107  27.333  26.913  1.00  0.00     0.173 A 
ATOM     68  C   UNL A   1      47.059  27.755  24.790  1.00  0.00     0.173 A 
ATOM     69  F   UNL A   1      48.107  27.375  28.253  1.00  0.00    -0.203 F 
ATOM     70  C   UNL A   1      49.235  26.846  26.255  1.00  0.00     0.198 A 
ATOM     71  C   UNL A   1      48.177  27.242  24.137  1.00  0.00     0.198 A 
ATOM     72  F   UNL A   1      46.027  28.194  24.054  1.00  0.00    -0.203 F 
ATOM     73  F   UNL A   1      50.296  26.437  26.964  1.00  0.00    -0.200 F 
ATOM     74  C   UNL A   1      49.265  26.795  24.870  1.00  0.00     0.200 A 
ATOM     75  F   UNL A   1      48.201  27.184  22.799  1.00  0.00    -0.200 F 
ATOM     76  F   UNL A   1      50.348  26.319  24.240  1.00  0.00    -0.200 F 
ENDBRANCH  52  66
BRANCH  53  77
ATOM     77  C   UNL A   1      38.694  30.791  30.868  1.00  0.00     0.064 A 
ATOM     78  C   UNL A   1      37.570  31.244  30.162  1.00  0.00     0.173 A 
ATOM     79  C   UNL A   1      38.631  30.802  32.269  1.00  0.00     0.173 A 
ATOM     80  F   UNL A   1      37.592  31.279  28.822  1.00  0.00    -0.203 F 
ATOM     81  C   UNL A   1      36.438  31.706  30.830  1.00  0.00     0.198 A 
ATOM     82  C   UNL A   1      37.489  31.237  32.936  1.00  0.00     0.198 A 
ATOM     83  F   UNL A   1      39.680  30.381  32.991  1.00  0.00    -0.203 F 
ATOM     84  F   UNL A   1      35.396  32.177  30.132  1.00  0.00    -0.200 F 
ATOM     85  C   UNL A   1      36.396  31.696  32.217  1.00  0.00     0.200 A 
ATOM     86  F   UNL A   1      37.448  31.216  34.275  1.00  0.00    -0.200 F 
ATOM     87  F   UNL A   1      35.306  32.139  32.859  1.00  0.00    -0.200 F 
ENDBRANCH  53  77
BRANCH  65  88
ATOM     88  C   UNL A   1      44.676  33.940  29.177  1.00  0.00     0.064 A 
ATOM     89  C   UNL A   1      44.384  34.971  28.274  1.00  0.00     0.173 A 
ATOM     90  C   UNL A   1      45.423  34.259  30.322  1.00  0.00     0.173 A 
ATOM     91  F   UNL A   1      43.685  34.714  27.158  1.00  0.00    -0.203 F 
ATOM     92  C   UNL A   1      44.841  36.267  28.496  1.00  0.00     0.198 A 
ATOM     93  C   UNL A   1      45.854  35.562  30.556  1.00  0.00     0.198 A 
ATOM     94  F   UNL A   1      45.723  33.309  31.221  1.00  0.00    -0.203 F 
ATOM     95  F   UNL A   1      44.589  37.229  27.597  1.00  0.00    -0.200 F 
ATOM     96  C   UNL A   1      45.569  36.563  29.639  1.00  0.00     0.200 A 
ATOM     97  F   UNL A   1      46.546  35.848  31.667  1.00  0.00    -0.200 F 
ATOM     98  F   UNL A   1      46.003  37.813  29.855  1.00  0.00    -0.200 F 
ENDBRANCH  65  88
ENDBRANCH  39  40
ENDBRANCH  32  34
ENDBRANCH  31  32
ENDBRANCH  30  31
ENDBRANCH  29  30
ENDBRANCH  28  29
ENDBRANCH   1  28
TORSDOF 18
ENDMDL
