MODEL 1
REMARK VINA RESULT:     -12.0      0.000      0.000
REMARK SMILES C/C(=N/OCc1ccccc1Nc1c(Cl)cccc1Cl)C(=O)OCCOCCOC(=O)c1ccc(-c2c3nc(c(-c4c(F)c(F)c(F)c(F)c4F)c4ccc([nH]4)c(-c4c(F)c(F)c(F)c(F)c4F)c4nc(c(-c5c(F)c(F)c(F)c(F)c5F)c5ccc2[nH]5)C=C4)C=C3)cc1
REMARK SMILES IDX 24 1 23 2 21 3 22 4 2 5 1 6 3 7 4 8 5 9 6 10 7 11 11 12 8 13
REMARK SMILES IDX 10 14 9 15 12 16 13 18 14 19 19 20 15 21 16 22 18 23 20 24
REMARK SMILES IDX 17 25 25 26 26 27 27 28 28 29 29 30 30 31 31 32 32 33 33 34
REMARK SMILES IDX 94 35 34 36 93 37 35 38 36 39 37 40 87 41 38 42 92 43 86 44
REMARK SMILES IDX 88 45 39 46 91 47 85 48 84 49 40 51 72 52 52 53 71 54 53 55
REMARK SMILES IDX 56 56 70 57 89 58 54 59 55 60 69 62 90 63 57 64 41 65 42 66
REMARK SMILES IDX 50 67 43 68 44 69 48 70 51 71 45 72 46 73 49 74 47 75 73 76
REMARK SMILES IDX 74 77 82 78 75 79 76 80 80 81 83 82 77 83 78 84 81 85 79 86
REMARK SMILES IDX 58 87 59 88 67 89 60 90 61 91 65 92 68 93 62 94 63 95 66 96
REMARK SMILES IDX 64 97
REMARK H PARENT 12 17 88 50 56 61
REMARK Flexibility Score: inf
ROOT
ATOM      1  C   UNL A   1      33.176  23.450  26.967  1.00  0.00     0.261 C 
ENDROOT
BRANCH   1   2
ATOM      2  O   UNL A   1      32.777  24.249  25.847  1.00  0.00    -0.459 OA
BRANCH   2   3
ATOM      3  C   UNL A   1      31.449  24.338  25.641  1.00  0.00     0.355 C 
ATOM      4  O   UNL A   1      30.632  24.803  26.417  1.00  0.00    -0.245 OA
BRANCH   3   5
ATOM      5  C   UNL A   1      31.087  24.014  24.187  1.00  0.00     0.161 C 
ATOM      6  C   UNL A   1      31.460  22.631  23.720  1.00  0.00     0.079 C 
ATOM      7  N   UNL A   1      30.441  24.784  23.361  1.00  0.00    -0.084 NA
BRANCH   7   8
ATOM      8  O   UNL A   1      30.166  26.050  23.894  1.00  0.00    -0.390 OA
BRANCH   8   9
ATOM      9  C   UNL A   1      30.425  27.049  22.900  1.00  0.00     0.302 C 
BRANCH   9  10
ATOM     10  C   UNL A   1      29.627  28.329  23.091  1.00  0.00     0.016 A 
ATOM     11  C   UNL A   1      28.232  28.236  22.917  1.00  0.00     0.009 A 
ATOM     12  C   UNL A   1      30.190  29.570  23.474  1.00  0.00     0.045 A 
ATOM     13  C   UNL A   1      27.413  29.351  23.071  1.00  0.00     0.001 A 
ATOM     14  C   UNL A   1      29.349  30.684  23.602  1.00  0.00     0.026 A 
ATOM     15  C   UNL A   1      27.973  30.578  23.402  1.00  0.00     0.002 A 
BRANCH  12  16
ATOM     16  N   UNL A   1      31.573  29.702  23.699  1.00  0.00    -0.353 N 
ATOM     17  H   UNL A   1      32.086  30.040  22.931  1.00  0.00     0.167 HD
BRANCH  16  18
ATOM     18  C   UNL A   1      32.341  29.428  24.851  1.00  0.00     0.076 A 
ATOM     19  C   UNL A   1      33.182  28.298  24.905  1.00  0.00     0.066 A 
ATOM     20  C   UNL A   1      32.140  30.143  26.047  1.00  0.00     0.066 A 
ATOM     21  Cl  UNL A   1      33.675  27.474  23.466  1.00  0.00    -0.082 Cl
ATOM     22  C   UNL A   1      33.724  27.851  26.115  1.00  0.00     0.023 A 
ATOM     23  C   UNL A   1      32.741  29.735  27.243  1.00  0.00     0.023 A 
ATOM     24  Cl  UNL A   1      31.141  31.556  26.098  1.00  0.00    -0.082 Cl
ATOM     25  C   UNL A   1      33.504  28.570  27.285  1.00  0.00     0.003 A 
ENDBRANCH  16  18
ENDBRANCH  12  16
ENDBRANCH   9  10
ENDBRANCH   8   9
ENDBRANCH   7   8
ENDBRANCH   3   5
ENDBRANCH   2   3
ENDBRANCH   1   2
BRANCH   1  26
ATOM     26  C   UNL A   1      34.016  22.260  26.498  1.00  0.00     0.202 C 
BRANCH  26  27
ATOM     27  O   UNL A   1      34.915  22.459  25.407  1.00  0.00    -0.374 OA
BRANCH  27  28
ATOM     28  C   UNL A   1      35.425  21.328  24.710  1.00  0.00     0.202 C 
BRANCH  28  29
ATOM     29  C   UNL A   1      36.840  20.821  25.024  1.00  0.00     0.261 C 
BRANCH  29  30
ATOM     30  O   UNL A   1      37.821  21.859  25.133  1.00  0.00    -0.460 OA
BRANCH  30  31
ATOM     31  C   UNL A   1      38.897  21.508  25.878  1.00  0.00     0.338 C 
ATOM     32  O   UNL A   1      39.494  20.443  25.862  1.00  0.00    -0.246 OA
BRANCH  31  33
ATOM     33  C   UNL A   1      39.403  22.667  26.629  1.00  0.00     0.060 A 
ATOM     34  C   UNL A   1      38.804  23.904  26.362  1.00  0.00     0.016 A 
ATOM     35  C   UNL A   1      40.500  22.575  27.489  1.00  0.00     0.016 A 
ATOM     36  C   UNL A   1      39.343  25.064  26.900  1.00  0.00     0.010 A 
ATOM     37  C   UNL A   1      41.041  23.747  28.029  1.00  0.00     0.010 A 
ATOM     38  C   UNL A   1      40.492  25.000  27.700  1.00  0.00    -0.014 A 
BRANCH  38  39
ATOM     39  C   UNL A   1      41.166  26.269  28.067  1.00  0.00     0.031 A 
ATOM     40  C   UNL A   1      42.574  26.520  27.601  1.00  0.00     0.074 A 
ATOM     41  C   UNL A   1      40.489  27.223  28.727  1.00  0.00     0.049 A 
ATOM     42  N   UNL A   1      43.312  27.594  27.732  1.00  0.00    -0.248 NA
ATOM     43  C   UNL A   1      43.239  25.418  26.891  1.00  0.00     0.031 C 
ATOM     44  C   UNL A   1      39.113  27.102  29.204  1.00  0.00     0.029 A 
ATOM     45  N   UNL A   1      40.864  28.491  29.094  1.00  0.00    -0.354 N 
ATOM     46  C   UNL A   1      44.524  27.297  27.121  1.00  0.00     0.074 A 
ATOM     47  C   UNL A   1      44.438  25.929  26.656  1.00  0.00     0.031 C 
ATOM     48  C   UNL A   1      38.753  28.256  29.791  1.00  0.00     0.029 A 
ATOM     49  C   UNL A   1      39.881  29.184  29.754  1.00  0.00     0.049 A 
ATOM     50  H   UNL A   1      41.753  28.867  28.902  1.00  0.00     0.167 HD
ATOM     51  C   UNL A   1      45.603  28.098  26.950  1.00  0.00     0.037 A 
ATOM     52  C   UNL A   1      39.893  30.426  30.274  1.00  0.00     0.037 A 
ATOM     53  C   UNL A   1      45.683  29.460  27.415  1.00  0.00     0.049 A 
ATOM     54  C   UNL A   1      41.125  31.277  30.112  1.00  0.00     0.074 A 
ATOM     55  C   UNL A   1      46.725  30.360  27.277  1.00  0.00     0.029 A 
ATOM     56  N   UNL A   1      44.683  30.115  28.119  1.00  0.00    -0.354 N 
ATOM     57  N   UNL A   1      42.251  31.001  29.502  1.00  0.00    -0.248 NA
ATOM     58  C   UNL A   1      41.076  32.622  30.702  1.00  0.00     0.031 C 
ATOM     59  C   UNL A   1      46.380  31.539  27.949  1.00  0.00     0.029 A 
ATOM     60  C   UNL A   1      45.095  31.399  28.446  1.00  0.00     0.049 A 
ATOM     61  H   UNL A   1      43.810  29.726  28.352  1.00  0.00     0.167 HD
ATOM     62  C   UNL A   1      43.034  32.144  29.608  1.00  0.00     0.074 A 
ATOM     63  C   UNL A   1      42.240  33.124  30.320  1.00  0.00     0.031 C 
ATOM     64  C   UNL A   1      44.297  32.364  29.161  1.00  0.00     0.037 A 
BRANCH  51  65
ATOM     65  C   UNL A   1      46.800  27.515  26.252  1.00  0.00     0.064 A 
ATOM     66  C   UNL A   1      46.971  27.619  24.862  1.00  0.00     0.173 A 
ATOM     67  C   UNL A   1      47.807  26.872  26.988  1.00  0.00     0.173 A 
ATOM     68  F   UNL A   1      46.034  28.212  24.108  1.00  0.00    -0.203 F 
ATOM     69  C   UNL A   1      48.092  27.079  24.235  1.00  0.00     0.198 A 
ATOM     70  C   UNL A   1      48.942  26.362  26.361  1.00  0.00     0.198 A 
ATOM     71  F   UNL A   1      47.697  26.746  28.319  1.00  0.00    -0.203 F 
ATOM     72  F   UNL A   1      48.210  27.147  22.901  1.00  0.00    -0.200 F 
ATOM     73  C   UNL A   1      49.080  26.458  24.986  1.00  0.00     0.200 A 
ATOM     74  F   UNL A   1      49.901  25.777  27.091  1.00  0.00    -0.200 F 
ATOM     75  F   UNL A   1      50.162  25.948  24.382  1.00  0.00    -0.200 F 
ENDBRANCH  51  65
BRANCH  52  76
ATOM     76  C   UNL A   1      38.697  30.942  30.992  1.00  0.00     0.064 A 
ATOM     77  C   UNL A   1      38.593  30.858  32.387  1.00  0.00     0.173 A 
ATOM     78  C   UNL A   1      37.624  31.513  30.291  1.00  0.00     0.173 A 
ATOM     79  F   UNL A   1      39.583  30.298  33.100  1.00  0.00    -0.203 F 
ATOM     80  C   UNL A   1      37.453  31.301  33.052  1.00  0.00     0.198 A 
ATOM     81  C   UNL A   1      36.498  31.987  30.960  1.00  0.00     0.198 A 
ATOM     82  F   UNL A   1      37.674  31.618  28.956  1.00  0.00    -0.203 F 
ATOM     83  F   UNL A   1      37.355  31.158  34.381  1.00  0.00    -0.200 F 
ATOM     84  C   UNL A   1      36.408  31.872  32.339  1.00  0.00     0.200 A 
ATOM     85  F   UNL A   1      35.499  32.551  30.269  1.00  0.00    -0.200 F 
ATOM     86  F   UNL A   1      35.313  32.301  32.979  1.00  0.00    -0.200 F 
ENDBRANCH  52  76
BRANCH  64  87
ATOM     87  C   UNL A   1      44.877  33.731  29.398  1.00  0.00     0.064 A 
ATOM     88  C   UNL A   1      45.599  34.039  30.562  1.00  0.00     0.173 A 
ATOM     89  C   UNL A   1      44.703  34.751  28.449  1.00  0.00     0.173 A 
ATOM     90  F   UNL A   1      45.786  33.105  31.507  1.00  0.00    -0.203 F 
ATOM     91  C   UNL A   1      46.076  35.327  30.791  1.00  0.00     0.198 A 
ATOM     92  C   UNL A   1      45.217  36.027  28.663  1.00  0.00     0.198 A 
ATOM     93  F   UNL A   1      44.033  34.511  27.312  1.00  0.00    -0.203 F 
ATOM     94  F   UNL A   1      46.693  35.615  31.945  1.00  0.00    -0.200 F 
ATOM     95  C   UNL A   1      45.888  36.319  29.840  1.00  0.00     0.200 A 
ATOM     96  F   UNL A   1      45.049  36.979  27.735  1.00  0.00    -0.200 F 
ATOM     97  F   UNL A   1      46.343  37.559  30.065  1.00  0.00    -0.200 F 
ENDBRANCH  64  87
ENDBRANCH  38  39
ENDBRANCH  31  33
ENDBRANCH  30  31
ENDBRANCH  29  30
ENDBRANCH  28  29
ENDBRANCH  27  28
ENDBRANCH  26  27
ENDBRANCH   1  26
TORSDOF 19
ENDMDL
MODEL 2
REMARK VINA RESULT:     -11.8      4.257      9.966
REMARK SMILES C/C(=N/OCc1ccccc1Nc1c(Cl)cccc1Cl)C(=O)OCCOCCOC(=O)c1ccc(-c2c3nc(c(-c4c(F)c(F)c(F)c(F)c4F)c4ccc([nH]4)c(-c4c(F)c(F)c(F)c(F)c4F)c4nc(c(-c5c(F)c(F)c(F)c(F)c5F)c5ccc2[nH]5)C=C4)C=C3)cc1
REMARK SMILES IDX 24 1 23 2 21 3 22 4 2 5 1 6 3 7 4 8 5 9 6 10 7 11 11 12 8 13
REMARK SMILES IDX 10 14 9 15 12 16 13 18 14 19 19 20 15 21 16 22 18 23 20 24
REMARK SMILES IDX 17 25 25 26 26 27 27 28 28 29 29 30 30 31 31 32 32 33 33 34
REMARK SMILES IDX 94 35 34 36 93 37 35 38 36 39 37 40 87 41 38 42 92 43 86 44
REMARK SMILES IDX 88 45 39 46 91 47 85 48 84 49 40 51 72 52 52 53 71 54 53 55
REMARK SMILES IDX 56 56 70 57 89 58 54 59 55 60 69 62 90 63 57 64 41 65 42 66
REMARK SMILES IDX 50 67 43 68 44 69 48 70 51 71 45 72 46 73 49 74 47 75 73 76
REMARK SMILES IDX 74 77 82 78 75 79 76 80 80 81 83 82 77 83 78 84 81 85 79 86
REMARK SMILES IDX 58 87 59 88 67 89 60 90 61 91 65 92 68 93 62 94 63 95 66 96
REMARK SMILES IDX 64 97
REMARK H PARENT 12 17 88 50 56 61
REMARK Flexibility Score: inf
ROOT
ATOM      1  C   UNL A   1      32.673  26.589  26.133  1.00  0.00     0.261 C 
ENDROOT
BRANCH   1   2
ATOM      2  O   UNL A   1      31.420  26.157  26.678  1.00  0.00    -0.459 OA
BRANCH   2   3
ATOM      3  C   UNL A   1      31.055  24.899  26.367  1.00  0.00     0.355 C 
ATOM      4  O   UNL A   1      30.810  24.005  27.160  1.00  0.00    -0.245 OA
BRANCH   3   5
ATOM      5  C   UNL A   1      30.725  24.766  24.876  1.00  0.00     0.161 C 
ATOM      6  C   UNL A   1      29.770  25.795  24.330  1.00  0.00     0.079 C 
ATOM      7  N   UNL A   1      31.237  23.905  24.045  1.00  0.00    -0.084 NA
BRANCH   7   8
ATOM      8  O   UNL A   1      32.093  22.986  24.667  1.00  0.00    -0.390 OA
BRANCH   8   9
ATOM      9  C   UNL A   1      32.891  22.335  23.671  1.00  0.00     0.302 C 
BRANCH   9  10
ATOM     10  C   UNL A   1      32.876  20.818  23.766  1.00  0.00     0.016 A 
ATOM     11  C   UNL A   1      32.248  20.125  22.712  1.00  0.00     0.009 A 
ATOM     12  C   UNL A   1      33.489  20.078  24.806  1.00  0.00     0.045 A 
ATOM     13  C   UNL A   1      32.184  18.734  22.704  1.00  0.00     0.001 A 
ATOM     14  C   UNL A   1      33.392  18.679  24.789  1.00  0.00     0.026 A 
ATOM     15  C   UNL A   1      32.745  18.012  23.749  1.00  0.00     0.002 A 
BRANCH  12  16
ATOM     16  N   UNL A   1      34.163  20.724  25.858  1.00  0.00    -0.353 N 
ATOM     17  H   UNL A   1      33.711  20.675  26.730  1.00  0.00     0.167 HD
BRANCH  16  18
ATOM     18  C   UNL A   1      35.384  21.432  25.862  1.00  0.00     0.076 A 
ATOM     19  C   UNL A   1      35.433  22.784  26.258  1.00  0.00     0.066 A 
ATOM     20  C   UNL A   1      36.544  20.887  25.278  1.00  0.00     0.066 A 
ATOM     21  Cl  UNL A   1      34.153  23.498  27.178  1.00  0.00    -0.082 Cl
ATOM     22  C   UNL A   1      36.557  23.578  26.003  1.00  0.00     0.023 A 
ATOM     23  C   UNL A   1      37.692  21.664  25.088  1.00  0.00     0.023 A 
ATOM     24  Cl  UNL A   1      36.605  19.234  24.768  1.00  0.00    -0.082 Cl
ATOM     25  C   UNL A   1      37.687  23.017  25.418  1.00  0.00     0.003 A 
ENDBRANCH  16  18
ENDBRANCH  12  16
ENDBRANCH   9  10
ENDBRANCH   8   9
ENDBRANCH   7   8
ENDBRANCH   3   5
ENDBRANCH   2   3
ENDBRANCH   1   2
BRANCH   1  26
ATOM     26  C   UNL A   1      33.094  27.920  26.759  1.00  0.00     0.202 C 
BRANCH  26  27
ATOM     27  O   UNL A   1      32.074  28.867  27.077  1.00  0.00    -0.374 OA
BRANCH  27  28
ATOM     28  C   UNL A   1      31.921  30.025  26.263  1.00  0.00     0.202 C 
BRANCH  28  29
ATOM     29  C   UNL A   1      31.916  31.413  26.918  1.00  0.00     0.261 C 
BRANCH  29  30
ATOM     30  O   UNL A   1      33.064  32.212  26.604  1.00  0.00    -0.460 OA
BRANCH  30  31
ATOM     31  C   UNL A   1      33.584  32.855  27.677  1.00  0.00     0.338 C 
ATOM     32  O   UNL A   1      33.029  33.678  28.388  1.00  0.00    -0.246 OA
BRANCH  31  33
ATOM     33  C   UNL A   1      34.905  32.304  28.017  1.00  0.00     0.060 A 
ATOM     34  C   UNL A   1      34.953  30.950  28.367  1.00  0.00     0.016 A 
ATOM     35  C   UNL A   1      36.046  33.105  28.097  1.00  0.00     0.016 A 
ATOM     36  C   UNL A   1      36.129  30.405  28.865  1.00  0.00     0.010 A 
ATOM     37  C   UNL A   1      37.230  32.553  28.601  1.00  0.00     0.010 A 
ATOM     38  C   UNL A   1      37.262  31.213  29.029  1.00  0.00    -0.014 A 
BRANCH  38  39
ATOM     39  C   UNL A   1      38.421  30.659  29.770  1.00  0.00     0.031 A 
ATOM     40  C   UNL A   1      38.626  31.035  31.212  1.00  0.00     0.074 A 
ATOM     41  C   UNL A   1      39.222  29.752  29.185  1.00  0.00     0.049 A 
ATOM     42  N   UNL A   1      39.517  30.596  32.066  1.00  0.00    -0.248 NA
ATOM     43  C   UNL A   1      37.706  32.039  31.767  1.00  0.00     0.031 C 
ATOM     44  C   UNL A   1      39.102  29.290  27.804  1.00  0.00     0.029 A 
ATOM     45  N   UNL A   1      40.285  29.044  29.687  1.00  0.00    -0.354 N 
ATOM     46  C   UNL A   1      39.263  31.266  33.256  1.00  0.00     0.074 A 
ATOM     47  C   UNL A   1      38.163  32.173  33.003  1.00  0.00     0.031 C 
ATOM     48  C   UNL A   1      40.048  28.365  27.571  1.00  0.00     0.029 A 
ATOM     49  C   UNL A   1      40.853  28.190  28.777  1.00  0.00     0.049 A 
ATOM     50  H   UNL A   1      40.608  29.140  30.612  1.00  0.00     0.167 HD
ATOM     51  C   UNL A   1      39.881  31.126  34.453  1.00  0.00     0.037 A 
ATOM     52  C   UNL A   1      41.909  27.364  28.903  1.00  0.00     0.037 A 
ATOM     53  C   UNL A   1      40.977  30.223  34.699  1.00  0.00     0.049 A 
ATOM     54  C   UNL A   1      42.609  27.265  30.233  1.00  0.00     0.074 A 
ATOM     55  C   UNL A   1      41.660  29.995  35.880  1.00  0.00     0.029 A 
ATOM     56  N   UNL A   1      41.556  29.403  33.741  1.00  0.00    -0.354 N 
ATOM     57  N   UNL A   1      42.339  27.875  31.361  1.00  0.00    -0.248 NA
ATOM     58  C   UNL A   1      43.755  26.348  30.306  1.00  0.00     0.031 C 
ATOM     59  C   UNL A   1      42.691  29.083  35.623  1.00  0.00     0.029 A 
ATOM     60  C   UNL A   1      42.607  28.690  34.298  1.00  0.00     0.049 A 
ATOM     61  H   UNL A   1      41.264  29.339  32.803  1.00  0.00     0.167 HD
ATOM     62  C   UNL A   1      43.260  27.396  32.285  1.00  0.00     0.074 A 
ATOM     63  C   UNL A   1      44.078  26.425  31.588  1.00  0.00     0.031 C 
ATOM     64  C   UNL A   1      43.418  27.730  33.591  1.00  0.00     0.037 A 
BRANCH  51  65
ATOM     65  C   UNL A   1      39.405  31.991  35.587  1.00  0.00     0.064 A 
ATOM     66  C   UNL A   1      38.488  31.524  36.542  1.00  0.00     0.173 A 
ATOM     67  C   UNL A   1      39.901  33.295  35.741  1.00  0.00     0.173 A 
ATOM     68  F   UNL A   1      37.972  30.290  36.436  1.00  0.00    -0.203 F 
ATOM     69  C   UNL A   1      38.067  32.338  37.591  1.00  0.00     0.198 A 
ATOM     70  C   UNL A   1      39.502  34.095  36.810  1.00  0.00     0.198 A 
ATOM     71  F   UNL A   1      40.782  33.792  34.860  1.00  0.00    -0.203 F 
ATOM     72  F   UNL A   1      37.152  31.887  38.462  1.00  0.00    -0.200 F 
ATOM     73  C   UNL A   1      38.580  33.620  37.728  1.00  0.00     0.200 A 
ATOM     74  F   UNL A   1      40.011  35.326  36.948  1.00  0.00    -0.200 F 
ATOM     75  F   UNL A   1      38.180  34.398  38.744  1.00  0.00    -0.200 F 
ENDBRANCH  51  65
BRANCH  52  76
ATOM     76  C   UNL A   1      42.366  26.560  27.738  1.00  0.00     0.064 A 
ATOM     77  C   UNL A   1      43.381  27.022  26.888  1.00  0.00     0.173 A 
ATOM     78  C   UNL A   1      41.781  25.320  27.442  1.00  0.00     0.173 A 
ATOM     79  F   UNL A   1      43.955  28.212  27.116  1.00  0.00    -0.203 F 
ATOM     80  C   UNL A   1      43.775  26.287  25.773  1.00  0.00     0.198 A 
ATOM     81  C   UNL A   1      42.199  24.570  26.346  1.00  0.00     0.198 A 
ATOM     82  F   UNL A   1      40.807  24.833  28.224  1.00  0.00    -0.203 F 
ATOM     83  F   UNL A   1      44.708  26.776  24.945  1.00  0.00    -0.200 F 
ATOM     84  C   UNL A   1      43.189  25.058  25.506  1.00  0.00     0.200 A 
ATOM     85  F   UNL A   1      41.641  23.377  26.100  1.00  0.00    -0.200 F 
ATOM     86  F   UNL A   1      43.570  24.350  24.435  1.00  0.00    -0.200 F 
ENDBRANCH  52  76
BRANCH  64  87
ATOM     87  C   UNL A   1      44.494  27.008  34.356  1.00  0.00     0.064 A 
ATOM     88  C   UNL A   1      44.253  25.786  35.002  1.00  0.00     0.173 A 
ATOM     89  C   UNL A   1      45.785  27.552  34.448  1.00  0.00     0.173 A 
ATOM     90  F   UNL A   1      43.034  25.227  34.956  1.00  0.00    -0.203 F 
ATOM     91  C   UNL A   1      45.246  25.164  35.755  1.00  0.00     0.198 A 
ATOM     92  C   UNL A   1      46.786  26.907  35.168  1.00  0.00     0.198 A 
ATOM     93  F   UNL A   1      46.077  28.712  33.840  1.00  0.00    -0.203 F 
ATOM     94  F   UNL A   1      44.967  24.039  36.427  1.00  0.00    -0.200 F 
ATOM     95  C   UNL A   1      46.512  25.723  35.835  1.00  0.00     0.200 A 
ATOM     96  F   UNL A   1      48.015  27.440  35.229  1.00  0.00    -0.200 F 
ATOM     97  F   UNL A   1      47.465  25.126  36.565  1.00  0.00    -0.200 F 
ENDBRANCH  64  87
ENDBRANCH  38  39
ENDBRANCH  31  33
ENDBRANCH  30  31
ENDBRANCH  29  30
ENDBRANCH  28  29
ENDBRANCH  27  28
ENDBRANCH  26  27
ENDBRANCH   1  26
TORSDOF 19
ENDMDL
MODEL 3
REMARK VINA RESULT:     -11.7      1.166      2.379
REMARK SMILES C/C(=N/OCc1ccccc1Nc1c(Cl)cccc1Cl)C(=O)OCCOCCOC(=O)c1ccc(-c2c3nc(c(-c4c(F)c(F)c(F)c(F)c4F)c4ccc([nH]4)c(-c4c(F)c(F)c(F)c(F)c4F)c4nc(c(-c5c(F)c(F)c(F)c(F)c5F)c5ccc2[nH]5)C=C4)C=C3)cc1
REMARK SMILES IDX 24 1 23 2 21 3 22 4 2 5 1 6 3 7 4 8 5 9 6 10 7 11 11 12 8 13
REMARK SMILES IDX 10 14 9 15 12 16 13 18 14 19 19 20 15 21 16 22 18 23 20 24
REMARK SMILES IDX 17 25 25 26 26 27 27 28 28 29 29 30 30 31 31 32 32 33 33 34
REMARK SMILES IDX 94 35 34 36 93 37 35 38 36 39 37 40 87 41 38 42 92 43 86 44
REMARK SMILES IDX 88 45 39 46 91 47 85 48 84 49 40 51 72 52 52 53 71 54 53 55
REMARK SMILES IDX 56 56 70 57 89 58 54 59 55 60 69 62 90 63 57 64 41 65 42 66
REMARK SMILES IDX 50 67 43 68 44 69 48 70 51 71 45 72 46 73 49 74 47 75 73 76
REMARK SMILES IDX 74 77 82 78 75 79 76 80 80 81 83 82 77 83 78 84 81 85 79 86
REMARK SMILES IDX 58 87 59 88 67 89 60 90 61 91 65 92 68 93 62 94 63 95 66 96
REMARK SMILES IDX 64 97
REMARK H PARENT 12 17 88 50 56 61
REMARK Flexibility Score: inf
ROOT
ATOM      1  C   UNL A   1      33.317  21.495  23.688  1.00  0.00     0.261 C 
ENDROOT
BRANCH   1   2
ATOM      2  O   UNL A   1      32.011  21.748  24.220  1.00  0.00    -0.459 OA
BRANCH   2   3
ATOM      3  C   UNL A   1      31.600  23.029  24.168  1.00  0.00     0.355 C 
ATOM      4  O   UNL A   1      30.797  23.494  23.377  1.00  0.00    -0.245 OA
BRANCH   3   5
ATOM      5  C   UNL A   1      32.069  23.816  25.397  1.00  0.00     0.161 C 
ATOM      6  C   UNL A   1      31.902  23.112  26.718  1.00  0.00     0.079 C 
ATOM      7  N   UNL A   1      32.646  24.982  25.394  1.00  0.00    -0.084 NA
BRANCH   7   8
ATOM      8  O   UNL A   1      32.728  25.549  24.115  1.00  0.00    -0.390 OA
BRANCH   8   9
ATOM      9  C   UNL A   1      33.620  26.670  24.151  1.00  0.00     0.302 C 
BRANCH   9  10
ATOM     10  C   UNL A   1      33.057  27.882  24.876  1.00  0.00     0.016 A 
ATOM     11  C   UNL A   1      33.822  28.392  25.944  1.00  0.00     0.009 A 
ATOM     12  C   UNL A   1      31.859  28.543  24.512  1.00  0.00     0.045 A 
ATOM     13  C   UNL A   1      33.394  29.500  26.669  1.00  0.00     0.001 A 
ATOM     14  C   UNL A   1      31.436  29.643  25.271  1.00  0.00     0.026 A 
ATOM     15  C   UNL A   1      32.194  30.119  26.341  1.00  0.00     0.002 A 
BRANCH  12  16
ATOM     16  N   UNL A   1      31.083  28.096  23.427  1.00  0.00    -0.353 N 
ATOM     17  H   UNL A   1      31.589  27.646  22.714  1.00  0.00     0.167 HD
BRANCH  16  18
ATOM     18  C   UNL A   1      29.694  28.189  23.198  1.00  0.00     0.076 A 
ATOM     19  C   UNL A   1      29.152  29.273  22.478  1.00  0.00     0.066 A 
ATOM     20  C   UNL A   1      28.789  27.329  23.850  1.00  0.00     0.066 A 
ATOM     21  Cl  UNL A   1      30.144  30.264  21.463  1.00  0.00    -0.082 Cl
ATOM     22  C   UNL A   1      27.778  29.538  22.483  1.00  0.00     0.023 A 
ATOM     23  C   UNL A   1      27.409  27.555  23.795  1.00  0.00     0.023 A 
ATOM     24  Cl  UNL A   1      29.337  25.956  24.750  1.00  0.00    -0.082 Cl
ATOM     25  C   UNL A   1      26.906  28.678  23.141  1.00  0.00     0.003 A 
ENDBRANCH  16  18
ENDBRANCH  12  16
ENDBRANCH   9  10
ENDBRANCH   8   9
ENDBRANCH   7   8
ENDBRANCH   3   5
ENDBRANCH   2   3
ENDBRANCH   1   2
BRANCH   1  26
ATOM     26  C   UNL A   1      34.145  20.675  24.679  1.00  0.00     0.202 C 
BRANCH  26  27
ATOM     27  O   UNL A   1      35.550  20.918  24.745  1.00  0.00    -0.374 OA
BRANCH  27  28
ATOM     28  C   UNL A   1      36.432  19.832  25.005  1.00  0.00     0.202 C 
BRANCH  28  29
ATOM     29  C   UNL A   1      37.949  20.051  24.907  1.00  0.00     0.261 C 
BRANCH  29  30
ATOM     30  O   UNL A   1      38.415  21.226  25.582  1.00  0.00    -0.460 OA
BRANCH  30  31
ATOM     31  C   UNL A   1      39.605  21.054  26.206  1.00  0.00     0.338 C 
ATOM     32  O   UNL A   1      40.344  20.084  26.139  1.00  0.00    -0.246 OA
BRANCH  31  33
ATOM     33  C   UNL A   1      40.018  22.295  26.879  1.00  0.00     0.060 A 
ATOM     34  C   UNL A   1      39.367  23.471  26.488  1.00  0.00     0.016 A 
ATOM     35  C   UNL A   1      41.081  22.333  27.784  1.00  0.00     0.016 A 
ATOM     36  C   UNL A   1      39.822  24.699  26.950  1.00  0.00     0.010 A 
ATOM     37  C   UNL A   1      41.537  23.572  28.247  1.00  0.00     0.010 A 
ATOM     38  C   UNL A   1      40.938  24.762  27.795  1.00  0.00    -0.014 A 
BRANCH  38  39
ATOM     39  C   UNL A   1      41.529  26.092  28.083  1.00  0.00     0.031 A 
ATOM     40  C   UNL A   1      42.903  26.418  27.565  1.00  0.00     0.074 A 
ATOM     41  C   UNL A   1      40.803  27.028  28.716  1.00  0.00     0.049 A 
ATOM     42  N   UNL A   1      43.566  27.546  27.624  1.00  0.00    -0.248 NA
ATOM     43  C   UNL A   1      43.627  25.331  26.889  1.00  0.00     0.031 C 
ATOM     44  C   UNL A   1      39.451  26.834  29.238  1.00  0.00     0.029 A 
ATOM     45  N   UNL A   1      41.095  28.336  29.012  1.00  0.00    -0.354 N 
ATOM     46  C   UNL A   1      44.780  27.305  26.993  1.00  0.00     0.074 A 
ATOM     47  C   UNL A   1      44.780  25.913  26.596  1.00  0.00     0.031 C 
ATOM     48  C   UNL A   1      39.024  27.987  29.780  1.00  0.00     0.029 A 
ATOM     49  C   UNL A   1      40.082  28.989  29.667  1.00  0.00     0.049 A 
ATOM     50  H   UNL A   1      41.950  28.763  28.777  1.00  0.00     0.167 HD
ATOM     51  C   UNL A   1      45.794  28.171  26.753  1.00  0.00     0.037 A 
ATOM     52  C   UNL A   1      40.019  30.253  30.127  1.00  0.00     0.037 A 
ATOM     53  C   UNL A   1      45.789  29.556  27.151  1.00  0.00     0.049 A 
ATOM     54  C   UNL A   1      41.182  31.179  29.889  1.00  0.00     0.074 A 
ATOM     55  C   UNL A   1      46.760  30.519  26.941  1.00  0.00     0.029 A 
ATOM     56  N   UNL A   1      44.763  30.173  27.852  1.00  0.00    -0.354 N 
ATOM     57  N   UNL A   1      42.310  30.953  29.261  1.00  0.00    -0.248 NA
ATOM     58  C   UNL A   1      41.053  32.545  30.417  1.00  0.00     0.031 C 
ATOM     59  C   UNL A   1      46.349  31.702  27.566  1.00  0.00     0.029 A 
ATOM     60  C   UNL A   1      45.090  31.497  28.106  1.00  0.00     0.049 A 
ATOM     61  H   UNL A   1      43.925  29.736  28.128  1.00  0.00     0.167 HD
ATOM     62  C   UNL A   1      43.012  32.152  29.291  1.00  0.00     0.074 A 
ATOM     63  C   UNL A   1      42.168  33.108  29.978  1.00  0.00     0.031 C 
ATOM     64  C   UNL A   1      44.244  32.437  28.797  1.00  0.00     0.037 A 
BRANCH  51  65
ATOM     65  C   UNL A   1      47.012  27.638  26.049  1.00  0.00     0.064 A 
ATOM     66  C   UNL A   1      47.098  27.596  24.648  1.00  0.00     0.173 A 
ATOM     67  C   UNL A   1      48.121  27.197  26.786  1.00  0.00     0.173 A 
ATOM     68  F   UNL A   1      46.062  27.993  23.895  1.00  0.00    -0.203 F 
ATOM     69  C   UNL A   1      48.239  27.107  24.015  1.00  0.00     0.198 A 
ATOM     70  C   UNL A   1      49.272  26.740  26.149  1.00  0.00     0.198 A 
ATOM     71  F   UNL A   1      48.094  27.219  28.127  1.00  0.00    -0.203 F 
ATOM     72  F   UNL A   1      48.279  27.029  22.677  1.00  0.00    -0.200 F 
ATOM     73  C   UNL A   1      49.327  26.687  24.766  1.00  0.00     0.200 A 
ATOM     74  F   UNL A   1      50.327  26.350  26.877  1.00  0.00    -0.200 F 
ATOM     75  F   UNL A   1      50.427  26.227  24.154  1.00  0.00    -0.200 F 
ENDBRANCH  51  65
BRANCH  52  76
ATOM     76  C   UNL A   1      38.808  30.718  30.854  1.00  0.00     0.064 A 
ATOM     77  C   UNL A   1      38.698  30.585  32.245  1.00  0.00     0.173 A 
ATOM     78  C   UNL A   1      37.727  31.289  30.166  1.00  0.00     0.173 A 
ATOM     79  F   UNL A   1      39.695  30.024  32.945  1.00  0.00    -0.203 F 
ATOM     80  C   UNL A   1      37.544  30.981  32.916  1.00  0.00     0.198 A 
ATOM     81  C   UNL A   1      36.587  31.716  30.842  1.00  0.00     0.198 A 
ATOM     82  F   UNL A   1      37.782  31.441  28.835  1.00  0.00    -0.203 F 
ATOM     83  F   UNL A   1      37.442  30.792  34.239  1.00  0.00    -0.200 F 
ATOM     84  C   UNL A   1      36.492  31.553  32.216  1.00  0.00     0.200 A 
ATOM     85  F   UNL A   1      35.580  32.282  30.164  1.00  0.00    -0.200 F 
ATOM     86  F   UNL A   1      35.383  31.937  32.863  1.00  0.00    -0.200 F 
ENDBRANCH  52  76
BRANCH  64  87
ATOM     87  C   UNL A   1      44.731  33.852  28.953  1.00  0.00     0.064 A 
ATOM     88  C   UNL A   1      45.453  34.268  30.083  1.00  0.00     0.173 A 
ATOM     89  C   UNL A   1      44.466  34.808  27.959  1.00  0.00     0.173 A 
ATOM     90  F   UNL A   1      45.724  33.399  31.068  1.00  0.00    -0.203 F 
ATOM     91  C   UNL A   1      45.843  35.596  30.236  1.00  0.00     0.198 A 
ATOM     92  C   UNL A   1      44.893  36.125  28.098  1.00  0.00     0.198 A 
ATOM     93  F   UNL A   1      43.792  34.465  26.852  1.00  0.00    -0.203 F 
ATOM     94  F   UNL A   1      46.461  35.984  31.360  1.00  0.00    -0.200 F 
ATOM     95  C   UNL A   1      45.566  36.523  29.242  1.00  0.00     0.200 A 
ATOM     96  F   UNL A   1      44.640  37.015  27.128  1.00  0.00    -0.200 F 
ATOM     97  F   UNL A   1      45.936  37.802  29.395  1.00  0.00    -0.200 F 
ENDBRANCH  64  87
ENDBRANCH  38  39
ENDBRANCH  31  33
ENDBRANCH  30  31
ENDBRANCH  29  30
ENDBRANCH  28  29
ENDBRANCH  27  28
ENDBRANCH  26  27
ENDBRANCH   1  26
TORSDOF 19
ENDMDL
