MODEL 1
REMARK VINA RESULT:     -11.6      0.000      0.000
REMARK SMILES Cc1ccc(Cl)c(NC(=O)C[N@@H+]2CCC[C@H]2C(=O)OCCOCCOC(=O)c2ccc(-c3c4nc(c(-c5c(F)c(F)c(F)c(F)c5F)c5ccc([nH]5)c(-c5c(F)c(F)c(F)c(F)c5F)c5nc(c(-c6c(F)c(F)c(F)c(F)c6F)c6ccc3[nH]6)C=C5)C=C4)cc2)c1Cl
REMARK SMILES IDX 21 1 20 2 19 3 17 4 18 5 16 6 12 7 13 8 14 10 15 11 11 12
REMARK SMILES IDX 9 13 8 14 10 16 7 17 1 18 2 19 3 20 91 21 4 22 92 23 5 24
REMARK SMILES IDX 6 25 22 26 23 27 24 28 25 29 26 30 27 31 28 32 29 33 90 34
REMARK SMILES IDX 30 35 89 36 31 37 32 38 33 39 83 40 34 41 88 42 82 43 84 44
REMARK SMILES IDX 35 45 87 46 81 47 80 48 36 50 68 51 48 52 67 53 49 54 52 55
REMARK SMILES IDX 66 56 85 57 50 58 51 59 65 61 86 62 53 63 37 64 38 65 46 66
REMARK SMILES IDX 39 67 40 68 44 69 47 70 41 71 42 72 45 73 43 74 69 75 70 76
REMARK SMILES IDX 78 77 71 78 72 79 76 80 79 81 73 82 74 83 77 84 75 85 54 86
REMARK SMILES IDX 55 87 63 88 56 89 57 90 61 91 64 92 58 93 59 94 62 95 60 96
REMARK H PARENT 12 9 8 15 84 49 52 60
REMARK Flexibility Score: inf
ROOT
ATOM      1  C   UNL A   1      40.695  21.234  27.275  1.00  0.00     0.202 C 
ENDROOT
BRANCH   1   2
ATOM      2  C   UNL A   1      39.944  21.369  25.946  1.00  0.00     0.261 C 
BRANCH   2   3
ATOM      3  O   UNL A   1      38.565  21.719  26.140  1.00  0.00    -0.459 OA
BRANCH   3   4
ATOM      4  C   UNL A   1      37.706  21.282  25.170  1.00  0.00     0.365 C 
ATOM      5  O   UNL A   1      37.409  20.110  24.971  1.00  0.00    -0.245 OA
BRANCH   4   6
ATOM      6  C   UNL A   1      37.077  22.483  24.432  1.00  0.00     0.295 C 
ATOM      7  N   UNL A   1      35.634  22.234  24.206  1.00  0.00    -0.315 N 
ATOM      8  C   UNL A   1      34.995  22.726  25.448  1.00  0.00     0.263 C 
ATOM      9  H   UNL A   1      35.470  21.249  23.999  1.00  0.00     0.349 HD
ATOM     10  C   UNL A   1      35.764  23.982  25.825  1.00  0.00     0.068 C 
ATOM     11  C   UNL A   1      37.178  23.730  25.322  1.00  0.00     0.083 C 
BRANCH   7  12
ATOM     12  C   UNL A   1      35.076  22.976  23.050  1.00  0.00     0.364 C 
BRANCH  12  13
ATOM     13  C   UNL A   1      33.560  23.100  23.053  1.00  0.00     0.279 C 
ATOM     14  N   UNL A   1      32.836  24.222  23.293  1.00  0.00    -0.319 N 
ATOM     15  H   UNL A   1      31.876  24.007  23.325  1.00  0.00     0.170 HD
ATOM     16  O   UNL A   1      32.876  22.098  22.780  1.00  0.00    -0.268 OA
BRANCH  14  17
ATOM     17  C   UNL A   1      33.034  25.611  23.512  1.00  0.00     0.079 A 
ATOM     18  C   UNL A   1      34.128  28.310  26.019  1.00  0.00     0.046 C 
ATOM     19  C   UNL A   1      33.680  27.630  24.749  1.00  0.00    -0.030 A 
ATOM     20  C   UNL A   1      33.862  28.320  23.544  1.00  0.00     0.006 A 
ATOM     21  C   UNL A   1      33.173  26.305  24.724  1.00  0.00     0.069 A 
ATOM     22  C   UNL A   1      33.536  27.716  22.339  1.00  0.00     0.023 A 
ATOM     23  Cl  UNL A   1      32.401  25.747  26.171  1.00  0.00    -0.082 Cl
ATOM     24  C   UNL A   1      33.137  26.380  22.326  1.00  0.00     0.066 A 
ATOM     25  Cl  UNL A   1      32.773  25.677  20.780  1.00  0.00    -0.082 Cl
ENDBRANCH  14  17
ENDBRANCH  12  13
ENDBRANCH   7  12
ENDBRANCH   4   6
ENDBRANCH   3   4
ENDBRANCH   2   3
ENDBRANCH   1   2
BRANCH   1  26
ATOM     26  O   UNL A   1      42.116  21.363  27.225  1.00  0.00    -0.374 OA
BRANCH  26  27
ATOM     27  C   UNL A   1      42.784  20.914  26.048  1.00  0.00     0.202 C 
BRANCH  27  28
ATOM     28  C   UNL A   1      43.695  21.929  25.352  1.00  0.00     0.261 C 
BRANCH  28  29
ATOM     29  O   UNL A   1      42.988  23.106  24.929  1.00  0.00    -0.460 OA
BRANCH  29  30
ATOM     30  C   UNL A   1      43.709  24.251  25.027  1.00  0.00     0.338 C 
ATOM     31  O   UNL A   1      44.735  24.535  24.438  1.00  0.00    -0.246 OA
BRANCH  30  32
ATOM     32  C   UNL A   1      43.053  25.184  25.956  1.00  0.00     0.060 A 
ATOM     33  C   UNL A   1      43.631  26.432  26.205  1.00  0.00     0.016 A 
ATOM     34  C   UNL A   1      41.953  24.754  26.697  1.00  0.00     0.016 A 
ATOM     35  C   UNL A   1      43.114  27.244  27.218  1.00  0.00     0.010 A 
ATOM     36  C   UNL A   1      41.416  25.581  27.687  1.00  0.00     0.010 A 
ATOM     37  C   UNL A   1      42.018  26.814  27.983  1.00  0.00    -0.014 A 
BRANCH  37  38
ATOM     38  C   UNL A   1      41.576  27.609  29.159  1.00  0.00     0.031 A 
ATOM     39  C   UNL A   1      42.331  27.509  30.458  1.00  0.00     0.074 A 
ATOM     40  C   UNL A   1      40.517  28.432  29.063  1.00  0.00     0.049 A 
ATOM     41  N   UNL A   1      42.138  28.153  31.583  1.00  0.00    -0.248 NA
ATOM     42  C   UNL A   1      43.443  26.548  30.499  1.00  0.00     0.031 C 
ATOM     43  C   UNL A   1      39.685  28.599  27.873  1.00  0.00     0.029 A 
ATOM     44  N   UNL A   1      39.960  29.282  29.986  1.00  0.00    -0.354 N 
ATOM     45  C   UNL A   1      43.102  27.675  32.461  1.00  0.00     0.074 A 
ATOM     46  C   UNL A   1      43.848  26.655  31.756  1.00  0.00     0.031 C 
ATOM     47  C   UNL A   1      38.725  29.502  28.136  1.00  0.00     0.029 A 
ATOM     48  C   UNL A   1      38.868  29.967  29.514  1.00  0.00     0.049 A 
ATOM     49  H   UNL A   1      40.311  29.391  30.900  1.00  0.00     0.167 HD
ATOM     50  C   UNL A   1      43.358  28.064  33.735  1.00  0.00     0.037 A 
ATOM     51  C   UNL A   1      38.074  30.868  30.123  1.00  0.00     0.037 A 
ATOM     52  C   UNL A   1      42.621  29.082  34.438  1.00  0.00     0.049 A 
ATOM     53  C   UNL A   1      38.378  31.288  31.537  1.00  0.00     0.074 A 
ATOM     54  C   UNL A   1      42.828  29.573  35.717  1.00  0.00     0.029 A 
ATOM     55  N   UNL A   1      41.528  29.763  33.921  1.00  0.00    -0.354 N 
ATOM     56  N   UNL A   1      39.334  30.879  32.336  1.00  0.00    -0.248 NA
ATOM     57  C   UNL A   1      37.502  32.310  32.127  1.00  0.00     0.031 C 
ATOM     58  C   UNL A   1      41.835  30.522  35.987  1.00  0.00     0.029 A 
ATOM     59  C   UNL A   1      41.038  30.656  34.862  1.00  0.00     0.049 A 
ATOM     60  H   UNL A   1      41.156  29.631  33.020  1.00  0.00     0.167 HD
ATOM     61  C   UNL A   1      39.185  31.602  33.512  1.00  0.00     0.074 A 
ATOM     62  C   UNL A   1      38.060  32.492  33.315  1.00  0.00     0.031 C 
ATOM     63  C   UNL A   1      39.914  31.533  34.653  1.00  0.00     0.037 A 
BRANCH  50  64
ATOM     64  C   UNL A   1      44.484  27.377  34.450  1.00  0.00     0.064 A 
ATOM     65  C   UNL A   1      45.776  27.924  34.483  1.00  0.00     0.173 A 
ATOM     66  C   UNL A   1      44.268  26.164  35.123  1.00  0.00     0.173 A 
ATOM     67  F   UNL A   1      46.038  29.074  33.845  1.00  0.00    -0.203 F 
ATOM     68  C   UNL A   1      46.818  27.266  35.133  1.00  0.00     0.198 A 
ATOM     69  C   UNL A   1      45.305  25.523  35.796  1.00  0.00     0.198 A 
ATOM     70  F   UNL A   1      43.051  25.602  35.128  1.00  0.00    -0.203 F 
ATOM     71  F   UNL A   1      48.054  27.781  35.105  1.00  0.00    -0.200 F 
ATOM     72  C   UNL A   1      46.580  26.069  35.792  1.00  0.00     0.200 A 
ATOM     73  F   UNL A   1      45.072  24.372  36.442  1.00  0.00    -0.200 F 
ATOM     74  F   UNL A   1      47.583  25.436  36.417  1.00  0.00    -0.200 F 
ENDBRANCH  50  64
BRANCH  51  75
ATOM     75  C   UNL A   1      36.926  31.451  29.386  1.00  0.00     0.064 A 
ATOM     76  C   UNL A   1      35.791  30.684  29.089  1.00  0.00     0.173 A 
ATOM     77  C   UNL A   1      36.938  32.790  28.970  1.00  0.00     0.173 A 
ATOM     78  F   UNL A   1      35.744  29.393  29.446  1.00  0.00    -0.203 F 
ATOM     79  C   UNL A   1      34.716  31.232  28.392  1.00  0.00     0.198 A 
ATOM     80  C   UNL A   1      35.852  33.344  28.295  1.00  0.00     0.198 A 
ATOM     81  F   UNL A   1      38.002  33.564  29.230  1.00  0.00    -0.203 F 
ATOM     82  F   UNL A   1      33.659  30.467  28.087  1.00  0.00    -0.200 F 
ATOM     83  C   UNL A   1      34.744  32.563  28.001  1.00  0.00     0.200 A 
ATOM     84  F   UNL A   1      35.879  34.632  27.927  1.00  0.00    -0.200 F 
ATOM     85  F   UNL A   1      33.708  33.090  27.337  1.00  0.00    -0.200 F 
ENDBRANCH  51  75
BRANCH  63  86
ATOM     86  C   UNL A   1      39.526  32.456  35.772  1.00  0.00     0.064 A 
ATOM     87  C   UNL A   1      38.586  32.078  36.743  1.00  0.00     0.173 A 
ATOM     88  C   UNL A   1      40.118  33.722  35.888  1.00  0.00     0.173 A 
ATOM     89  F   UNL A   1      37.981  30.882  36.667  1.00  0.00    -0.203 F 
ATOM     90  C   UNL A   1      38.233  32.946  37.773  1.00  0.00     0.198 A 
ATOM     91  C   UNL A   1      39.782  34.576  36.935  1.00  0.00     0.198 A 
ATOM     92  F   UNL A   1      41.027  34.129  34.989  1.00  0.00    -0.203 F 
ATOM     93  F   UNL A   1      37.298  32.583  38.661  1.00  0.00    -0.200 F 
ATOM     94  C   UNL A   1      38.835  34.191  37.871  1.00  0.00     0.200 A 
ATOM     95  F   UNL A   1      40.372  35.776  37.035  1.00  0.00    -0.200 F 
ATOM     96  F   UNL A   1      38.494  35.024  38.864  1.00  0.00    -0.200 F 
ENDBRANCH  63  86
ENDBRANCH  37  38
ENDBRANCH  30  32
ENDBRANCH  29  30
ENDBRANCH  28  29
ENDBRANCH  27  28
ENDBRANCH  26  27
ENDBRANCH   1  26
TORSDOF 17
ENDMDL
MODEL 2
REMARK VINA RESULT:     -11.2      3.446      8.881
REMARK SMILES Cc1ccc(Cl)c(NC(=O)C[N@@H+]2CCC[C@H]2C(=O)OCCOCCOC(=O)c2ccc(-c3c4nc(c(-c5c(F)c(F)c(F)c(F)c5F)c5ccc([nH]5)c(-c5c(F)c(F)c(F)c(F)c5F)c5nc(c(-c6c(F)c(F)c(F)c(F)c6F)c6ccc3[nH]6)C=C5)C=C4)cc2)c1Cl
REMARK SMILES IDX 21 1 20 2 19 3 17 4 18 5 16 6 12 7 13 8 14 10 15 11 11 12
REMARK SMILES IDX 9 13 8 14 10 16 7 17 1 18 2 19 3 20 91 21 4 22 92 23 5 24
REMARK SMILES IDX 6 25 22 26 23 27 24 28 25 29 26 30 27 31 28 32 29 33 90 34
REMARK SMILES IDX 30 35 89 36 31 37 32 38 33 39 83 40 34 41 88 42 82 43 84 44
REMARK SMILES IDX 35 45 87 46 81 47 80 48 36 50 68 51 48 52 67 53 49 54 52 55
REMARK SMILES IDX 66 56 85 57 50 58 51 59 65 61 86 62 53 63 37 64 38 65 46 66
REMARK SMILES IDX 39 67 40 68 44 69 47 70 41 71 42 72 45 73 43 74 69 75 70 76
REMARK SMILES IDX 78 77 71 78 72 79 76 80 79 81 73 82 74 83 77 84 75 85 54 86
REMARK SMILES IDX 55 87 63 88 56 89 57 90 61 91 64 92 58 93 59 94 62 95 60 96
REMARK H PARENT 12 9 8 15 84 49 52 60
REMARK Flexibility Score: inf
ROOT
ATOM      1  C   UNL A   1      32.228  30.047  26.955  1.00  0.00     0.202 C 
ENDROOT
BRANCH   1   2
ATOM      2  C   UNL A   1      33.435  29.311  26.363  1.00  0.00     0.261 C 
BRANCH   2   3
ATOM      3  O   UNL A   1      33.077  28.018  25.849  1.00  0.00    -0.459 OA
BRANCH   3   4
ATOM      4  C   UNL A   1      33.483  27.762  24.568  1.00  0.00     0.365 C 
ATOM      5  O   UNL A   1      34.023  28.575  23.827  1.00  0.00    -0.245 OA
BRANCH   4   6
ATOM      6  C   UNL A   1      33.265  26.273  24.225  1.00  0.00     0.295 C 
ATOM      7  N   UNL A   1      31.858  25.896  24.496  1.00  0.00    -0.315 N 
ATOM      8  C   UNL A   1      31.155  26.238  23.238  1.00  0.00     0.263 C 
ATOM      9  H   UNL A   1      31.514  26.378  25.326  1.00  0.00     0.349 HD
ATOM     10  C   UNL A   1      32.115  25.853  22.124  1.00  0.00     0.068 C 
ATOM     11  C   UNL A   1      33.499  26.064  22.722  1.00  0.00     0.083 C 
BRANCH   7  12
ATOM     12  C   UNL A   1      31.673  24.452  24.775  1.00  0.00     0.364 C 
BRANCH  12  13
ATOM     13  C   UNL A   1      32.076  24.023  26.177  1.00  0.00     0.279 C 
ATOM     14  N   UNL A   1      33.060  23.148  26.508  1.00  0.00    -0.319 N 
ATOM     15  H   UNL A   1      33.051  22.978  27.478  1.00  0.00     0.170 HD
ATOM     16  O   UNL A   1      31.490  24.526  27.150  1.00  0.00    -0.268 OA
BRANCH  14  17
ATOM     17  C   UNL A   1      34.099  22.404  25.891  1.00  0.00     0.079 A 
ATOM     18  C   UNL A   1      37.896  21.907  25.574  1.00  0.00     0.046 C 
ATOM     19  C   UNL A   1      36.408  21.718  25.419  1.00  0.00    -0.030 A 
ATOM     20  C   UNL A   1      35.955  20.468  24.978  1.00  0.00     0.006 A 
ATOM     21  C   UNL A   1      35.464  22.712  25.782  1.00  0.00     0.069 A 
ATOM     22  C   UNL A   1      34.595  20.212  24.886  1.00  0.00     0.023 A 
ATOM     23  Cl  UNL A   1      36.009  24.355  25.712  1.00  0.00    -0.082 Cl
ATOM     24  C   UNL A   1      33.684  21.164  25.344  1.00  0.00     0.066 A 
ATOM     25  Cl  UNL A   1      31.998  20.766  25.228  1.00  0.00    -0.082 Cl
ENDBRANCH  14  17
ENDBRANCH  12  13
ENDBRANCH   7  12
ENDBRANCH   4   6
ENDBRANCH   3   4
ENDBRANCH   2   3
ENDBRANCH   1   2
BRANCH   1  26
ATOM     26  O   UNL A   1      31.580  30.999  26.111  1.00  0.00    -0.374 OA
BRANCH  26  27
ATOM     27  C   UNL A   1      31.463  32.338  26.587  1.00  0.00     0.202 C 
BRANCH  27  28
ATOM     28  C   UNL A   1      32.468  32.771  27.658  1.00  0.00     0.261 C 
BRANCH  28  29
ATOM     29  O   UNL A   1      33.012  34.077  27.407  1.00  0.00    -0.460 OA
BRANCH  29  30
ATOM     30  C   UNL A   1      33.078  34.871  28.504  1.00  0.00     0.338 C 
ATOM     31  O   UNL A   1      32.320  35.772  28.816  1.00  0.00    -0.246 OA
BRANCH  30  32
ATOM     32  C   UNL A   1      34.217  34.478  29.347  1.00  0.00     0.060 A 
ATOM     33  C   UNL A   1      35.499  34.416  28.793  1.00  0.00     0.016 A 
ATOM     34  C   UNL A   1      33.984  34.018  30.643  1.00  0.00     0.016 A 
ATOM     35  C   UNL A   1      36.549  33.870  29.536  1.00  0.00     0.010 A 
ATOM     36  C   UNL A   1      35.042  33.504  31.398  1.00  0.00     0.010 A 
ATOM     37  C   UNL A   1      36.323  33.388  30.836  1.00  0.00    -0.014 A 
BRANCH  37  38
ATOM     38  C   UNL A   1      37.404  32.666  31.557  1.00  0.00     0.031 A 
ATOM     39  C   UNL A   1      38.088  31.495  30.905  1.00  0.00     0.074 A 
ATOM     40  C   UNL A   1      37.786  33.066  32.783  1.00  0.00     0.049 A 
ATOM     41  N   UNL A   1      39.083  30.764  31.344  1.00  0.00    -0.248 NA
ATOM     42  C   UNL A   1      37.578  31.085  29.588  1.00  0.00     0.031 C 
ATOM     43  C   UNL A   1      37.186  34.166  33.536  1.00  0.00     0.029 A 
ATOM     44  N   UNL A   1      38.773  32.590  33.610  1.00  0.00    -0.354 N 
ATOM     45  C   UNL A   1      39.315  29.811  30.360  1.00  0.00     0.074 A 
ATOM     46  C   UNL A   1      38.329  30.026  29.323  1.00  0.00     0.031 C 
ATOM     47  C   UNL A   1      37.821  34.286  34.713  1.00  0.00     0.029 A 
ATOM     48  C   UNL A   1      38.864  33.264  34.803  1.00  0.00     0.049 A 
ATOM     49  H   UNL A   1      39.360  31.837  33.371  1.00  0.00     0.167 HD
ATOM     50  C   UNL A   1      40.276  28.856  30.313  1.00  0.00     0.037 A 
ATOM     51  C   UNL A   1      39.692  33.080  35.848  1.00  0.00     0.037 A 
ATOM     52  C   UNL A   1      41.263  28.642  31.340  1.00  0.00     0.049 A 
ATOM     53  C   UNL A   1      40.754  32.015  35.773  1.00  0.00     0.074 A 
ATOM     54  C   UNL A   1      42.299  27.724  31.367  1.00  0.00     0.029 A 
ATOM     55  N   UNL A   1      41.329  29.354  32.528  1.00  0.00    -0.354 N 
ATOM     56  N   UNL A   1      41.007  31.164  34.808  1.00  0.00    -0.248 NA
ATOM     57  C   UNL A   1      41.657  31.898  36.926  1.00  0.00     0.031 C 
ATOM     58  C   UNL A   1      42.969  27.855  32.589  1.00  0.00     0.029 A 
ATOM     59  C   UNL A   1      42.378  28.884  33.304  1.00  0.00     0.049 A 
ATOM     60  H   UNL A   1      40.721  30.085  32.783  1.00  0.00     0.167 HD
ATOM     61  C   UNL A   1      42.104  30.424  35.230  1.00  0.00     0.074 A 
ATOM     62  C   UNL A   1      42.483  30.941  36.528  1.00  0.00     0.031 C 
ATOM     63  C   UNL A   1      42.740  29.406  34.597  1.00  0.00     0.037 A 
BRANCH  50  64
ATOM     64  C   UNL A   1      40.299  27.964  29.105  1.00  0.00     0.064 A 
ATOM     65  C   UNL A   1      41.053  28.289  27.967  1.00  0.00     0.173 A 
ATOM     66  C   UNL A   1      39.572  26.764  29.090  1.00  0.00     0.173 A 
ATOM     67  F   UNL A   1      41.756  29.430  27.926  1.00  0.00    -0.203 F 
ATOM     68  C   UNL A   1      41.050  27.463  26.845  1.00  0.00     0.198 A 
ATOM     69  C   UNL A   1      39.593  25.927  27.977  1.00  0.00     0.198 A 
ATOM     70  F   UNL A   1      38.840  26.403  30.154  1.00  0.00    -0.203 F 
ATOM     71  F   UNL A   1      41.735  27.821  25.750  1.00  0.00    -0.200 F 
ATOM     72  C   UNL A   1      40.325  26.281  26.853  1.00  0.00     0.200 A 
ATOM     73  F   UNL A   1      38.900  24.780  27.990  1.00  0.00    -0.200 F 
ATOM     74  F   UNL A   1      40.322  25.488  25.772  1.00  0.00    -0.200 F 
ENDBRANCH  50  64
BRANCH  51  75
ATOM     75  C   UNL A   1      39.564  33.944  37.047  1.00  0.00     0.064 A 
ATOM     76  C   UNL A   1      38.826  33.529  38.164  1.00  0.00     0.173 A 
ATOM     77  C   UNL A   1      40.184  35.200  37.104  1.00  0.00     0.173 A 
ATOM     78  F   UNL A   1      38.196  32.345  38.146  1.00  0.00    -0.203 F 
ATOM     79  C   UNL A   1      38.703  34.343  39.287  1.00  0.00     0.198 A 
ATOM     80  C   UNL A   1      40.081  36.004  38.237  1.00  0.00     0.198 A 
ATOM     81  F   UNL A   1      40.901  35.642  36.059  1.00  0.00    -0.203 F 
ATOM     82  F   UNL A   1      37.959  33.939  40.327  1.00  0.00    -0.200 F 
ATOM     83  C   UNL A   1      39.335  35.577  39.326  1.00  0.00     0.200 A 
ATOM     84  F   UNL A   1      40.701  37.191  38.275  1.00  0.00    -0.200 F 
ATOM     85  F   UNL A   1      39.221  36.357  40.409  1.00  0.00    -0.200 F 
ENDBRANCH  51  75
BRANCH  63  86
ATOM     86  C   UNL A   1      43.920  28.795  35.296  1.00  0.00     0.064 A 
ATOM     87  C   UNL A   1      45.225  29.259  35.075  1.00  0.00     0.173 A 
ATOM     88  C   UNL A   1      43.741  27.751  36.215  1.00  0.00     0.173 A 
ATOM     89  F   UNL A   1      45.450  30.247  34.194  1.00  0.00    -0.203 F 
ATOM     90  C   UNL A   1      46.311  28.681  35.727  1.00  0.00     0.198 A 
ATOM     91  C   UNL A   1      44.826  27.193  36.886  1.00  0.00     0.198 A 
ATOM     92  F   UNL A   1      42.512  27.275  36.468  1.00  0.00    -0.203 F 
ATOM     93  F   UNL A   1      47.553  29.108  35.464  1.00  0.00    -0.200 F 
ATOM     94  C   UNL A   1      46.110  27.653  36.636  1.00  0.00     0.200 A 
ATOM     95  F   UNL A   1      44.630  26.206  37.772  1.00  0.00    -0.200 F 
ATOM     96  F   UNL A   1      47.156  27.099  37.264  1.00  0.00    -0.200 F 
ENDBRANCH  63  86
ENDBRANCH  37  38
ENDBRANCH  30  32
ENDBRANCH  29  30
ENDBRANCH  28  29
ENDBRANCH  27  28
ENDBRANCH  26  27
ENDBRANCH   1  26
TORSDOF 17
ENDMDL
MODEL 3
REMARK VINA RESULT:     -11.1      3.647      9.019
REMARK SMILES Cc1ccc(Cl)c(NC(=O)C[N@@H+]2CCC[C@H]2C(=O)OCCOCCOC(=O)c2ccc(-c3c4nc(c(-c5c(F)c(F)c(F)c(F)c5F)c5ccc([nH]5)c(-c5c(F)c(F)c(F)c(F)c5F)c5nc(c(-c6c(F)c(F)c(F)c(F)c6F)c6ccc3[nH]6)C=C5)C=C4)cc2)c1Cl
REMARK SMILES IDX 21 1 20 2 19 3 17 4 18 5 16 6 12 7 13 8 14 10 15 11 11 12
REMARK SMILES IDX 9 13 8 14 10 16 7 17 1 18 2 19 3 20 91 21 4 22 92 23 5 24
REMARK SMILES IDX 6 25 22 26 23 27 24 28 25 29 26 30 27 31 28 32 29 33 90 34
REMARK SMILES IDX 30 35 89 36 31 37 32 38 33 39 83 40 34 41 88 42 82 43 84 44
REMARK SMILES IDX 35 45 87 46 81 47 80 48 36 50 68 51 48 52 67 53 49 54 52 55
REMARK SMILES IDX 66 56 85 57 50 58 51 59 65 61 86 62 53 63 37 64 38 65 46 66
REMARK SMILES IDX 39 67 40 68 44 69 47 70 41 71 42 72 45 73 43 74 69 75 70 76
REMARK SMILES IDX 78 77 71 78 72 79 76 80 79 81 73 82 74 83 77 84 75 85 54 86
REMARK SMILES IDX 55 87 63 88 56 89 57 90 61 91 64 92 58 93 59 94 62 95 60 96
REMARK H PARENT 12 9 8 15 84 49 52 60
REMARK Flexibility Score: inf
ROOT
ATOM      1  C   UNL A   1      32.400  30.304  26.800  1.00  0.00     0.202 C 
ENDROOT
BRANCH   1   2
ATOM      2  C   UNL A   1      32.944  29.188  25.901  1.00  0.00     0.261 C 
BRANCH   2   3
ATOM      3  O   UNL A   1      31.892  28.372  25.362  1.00  0.00    -0.459 OA
BRANCH   3   4
ATOM      4  C   UNL A   1      31.576  27.262  26.096  1.00  0.00     0.365 C 
ATOM      5  O   UNL A   1      31.020  27.277  27.188  1.00  0.00    -0.245 OA
BRANCH   4   6
ATOM      6  C   UNL A   1      31.919  25.982  25.306  1.00  0.00     0.295 C 
ATOM      7  N   UNL A   1      30.735  25.093  25.250  1.00  0.00    -0.315 N 
ATOM      8  C   UNL A   1      29.995  25.570  24.059  1.00  0.00     0.263 C 
ATOM      9  H   UNL A   1      30.215  25.137  26.126  1.00  0.00     0.349 HD
ATOM     10  C   UNL A   1      31.064  25.908  23.031  1.00  0.00     0.068 C 
ATOM     11  C   UNL A   1      32.259  26.360  23.857  1.00  0.00     0.083 C 
BRANCH   7  12
ATOM     12  C   UNL A   1      31.074  23.662  25.065  1.00  0.00     0.364 C 
BRANCH  12  13
ATOM     13  C   UNL A   1      31.457  22.934  26.345  1.00  0.00     0.279 C 
ATOM     14  N   UNL A   1      32.602  22.242  26.575  1.00  0.00    -0.319 N 
ATOM     15  H   UNL A   1      32.557  21.792  27.450  1.00  0.00     0.170 HD
ATOM     16  O   UNL A   1      30.682  22.980  27.315  1.00  0.00    -0.268 OA
BRANCH  14  17
ATOM     17  C   UNL A   1      33.845  21.967  25.947  1.00  0.00     0.079 A 
ATOM     18  C   UNL A   1      37.529  23.005  25.603  1.00  0.00     0.046 C 
ATOM     19  C   UNL A   1      36.234  22.245  25.457  1.00  0.00    -0.030 A 
ATOM     20  C   UNL A   1      36.305  20.918  25.014  1.00  0.00     0.006 A 
ATOM     21  C   UNL A   1      34.978  22.788  25.831  1.00  0.00     0.069 A 
ATOM     22  C   UNL A   1      35.155  20.148  24.930  1.00  0.00     0.023 A 
ATOM     23  Cl  UNL A   1      34.832  24.513  25.765  1.00  0.00    -0.082 Cl
ATOM     24  C   UNL A   1      33.947  20.665  25.398  1.00  0.00     0.066 A 
ATOM     25  Cl  UNL A   1      32.552  19.636  25.291  1.00  0.00    -0.082 Cl
ENDBRANCH  14  17
ENDBRANCH  12  13
ENDBRANCH   7  12
ENDBRANCH   4   6
ENDBRANCH   3   4
ENDBRANCH   2   3
ENDBRANCH   1   2
BRANCH   1  26
ATOM     26  O   UNL A   1      31.431  31.178  26.222  1.00  0.00    -0.374 OA
BRANCH  26  27
ATOM     27  C   UNL A   1      31.430  32.541  26.642  1.00  0.00     0.202 C 
BRANCH  27  28
ATOM     28  C   UNL A   1      32.489  32.936  27.676  1.00  0.00     0.261 C 
BRANCH  28  29
ATOM     29  O   UNL A   1      33.025  34.249  27.441  1.00  0.00    -0.460 OA
BRANCH  29  30
ATOM     30  C   UNL A   1      33.093  35.026  28.550  1.00  0.00     0.338 C 
ATOM     31  O   UNL A   1      32.339  35.926  28.873  1.00  0.00    -0.246 OA
BRANCH  30  32
ATOM     32  C   UNL A   1      34.228  34.615  29.389  1.00  0.00     0.060 A 
ATOM     33  C   UNL A   1      35.498  34.483  28.819  1.00  0.00     0.016 A 
ATOM     34  C   UNL A   1      33.998  34.209  30.703  1.00  0.00     0.016 A 
ATOM     35  C   UNL A   1      36.536  33.920  29.565  1.00  0.00     0.010 A 
ATOM     36  C   UNL A   1      35.046  33.678  31.460  1.00  0.00     0.010 A 
ATOM     37  C   UNL A   1      36.313  33.492  30.883  1.00  0.00    -0.014 A 
BRANCH  37  38
ATOM     38  C   UNL A   1      37.374  32.751  31.613  1.00  0.00     0.031 A 
ATOM     39  C   UNL A   1      38.043  31.567  30.967  1.00  0.00     0.074 A 
ATOM     40  C   UNL A   1      37.755  33.145  32.842  1.00  0.00     0.049 A 
ATOM     41  N   UNL A   1      39.022  30.819  31.413  1.00  0.00    -0.248 NA
ATOM     42  C   UNL A   1      37.536  31.166  29.646  1.00  0.00     0.031 C 
ATOM     43  C   UNL A   1      37.168  34.255  33.590  1.00  0.00     0.029 A 
ATOM     44  N   UNL A   1      38.726  32.651  33.677  1.00  0.00    -0.354 N 
ATOM     45  C   UNL A   1      39.245  29.862  30.431  1.00  0.00     0.074 A 
ATOM     46  C   UNL A   1      38.270  30.094  29.387  1.00  0.00     0.031 C 
ATOM     47  C   UNL A   1      37.796  34.363  34.772  1.00  0.00     0.029 A 
ATOM     48  C   UNL A   1      38.819  33.324  34.870  1.00  0.00     0.049 A 
ATOM     49  H   UNL A   1      39.302  31.887  33.443  1.00  0.00     0.167 HD
ATOM     50  C   UNL A   1      40.189  28.890  30.391  1.00  0.00     0.037 A 
ATOM     51  C   UNL A   1      39.637  33.125  35.921  1.00  0.00     0.037 A 
ATOM     52  C   UNL A   1      41.163  28.659  31.426  1.00  0.00     0.049 A 
ATOM     53  C   UNL A   1      40.680  32.042  35.854  1.00  0.00     0.074 A 
ATOM     54  C   UNL A   1      42.183  27.723  31.461  1.00  0.00     0.029 A 
ATOM     55  N   UNL A   1      41.233  29.370  32.615  1.00  0.00    -0.354 N 
ATOM     56  N   UNL A   1      40.926  31.186  34.892  1.00  0.00    -0.248 NA
ATOM     57  C   UNL A   1      41.572  31.909  37.015  1.00  0.00     0.031 C 
ATOM     58  C   UNL A   1      42.846  27.842  32.689  1.00  0.00     0.029 A 
ATOM     59  C   UNL A   1      42.267  28.882  33.399  1.00  0.00     0.049 A 
ATOM     60  H   UNL A   1      40.636  30.112  32.865  1.00  0.00     0.167 HD
ATOM     61  C   UNL A   1      42.006  30.427  35.322  1.00  0.00     0.074 A 
ATOM     62  C   UNL A   1      42.384  30.938  36.623  1.00  0.00     0.031 C 
ATOM     63  C   UNL A   1      42.628  29.398  34.695  1.00  0.00     0.037 A 
BRANCH  50  64
ATOM     64  C   UNL A   1      40.205  27.997  29.184  1.00  0.00     0.064 A 
ATOM     65  C   UNL A   1      39.513  26.777  29.165  1.00  0.00     0.173 A 
ATOM     66  C   UNL A   1      40.909  28.372  28.030  1.00  0.00     0.173 A 
ATOM     67  F   UNL A   1      38.835  26.368  30.247  1.00  0.00    -0.203 F 
ATOM     68  C   UNL A   1      39.553  25.948  28.046  1.00  0.00     0.198 A 
ATOM     69  C   UNL A   1      40.925  27.553  26.903  1.00  0.00     0.198 A 
ATOM     70  F   UNL A   1      41.583  29.530  27.994  1.00  0.00    -0.203 F 
ATOM     71  F   UNL A   1      38.928  24.762  28.069  1.00  0.00    -0.200 F 
ATOM     72  C   UNL A   1      40.255  26.338  26.915  1.00  0.00     0.200 A 
ATOM     73  F   UNL A   1      41.594  27.936  25.807  1.00  0.00    -0.200 F 
ATOM     74  F   UNL A   1      40.293  25.539  25.839  1.00  0.00    -0.200 F 
ENDBRANCH  50  64
BRANCH  51  75
ATOM     75  C   UNL A   1      39.514  33.992  37.119  1.00  0.00     0.064 A 
ATOM     76  C   UNL A   1      40.115  35.258  37.163  1.00  0.00     0.173 A 
ATOM     77  C   UNL A   1      38.787  33.575  38.243  1.00  0.00     0.173 A 
ATOM     78  F   UNL A   1      40.841  35.689  36.121  1.00  0.00    -0.203 F 
ATOM     79  C   UNL A   1      40.003  36.068  38.290  1.00  0.00     0.198 A 
ATOM     80  C   UNL A   1      38.654  34.396  39.360  1.00  0.00     0.198 A 
ATOM     81  F   UNL A   1      38.194  32.371  38.250  1.00  0.00    -0.203 F 
ATOM     82  F   UNL A   1      40.619  37.258  38.321  1.00  0.00    -0.200 F 
ATOM     83  C   UNL A   1      39.267  35.640  39.386  1.00  0.00     0.200 A 
ATOM     84  F   UNL A   1      37.936  33.983  40.413  1.00  0.00    -0.200 F 
ATOM     85  F   UNL A   1      39.156  36.423  40.467  1.00  0.00    -0.200 F 
ENDBRANCH  51  75
BRANCH  63  86
ATOM     86  C   UNL A   1      43.792  28.766  35.403  1.00  0.00     0.064 A 
ATOM     87  C   UNL A   1      43.612  27.720  36.322  1.00  0.00     0.173 A 
ATOM     88  C   UNL A   1      45.102  29.194  35.143  1.00  0.00     0.173 A 
ATOM     89  F   UNL A   1      42.377  27.285  36.616  1.00  0.00    -0.203 F 
ATOM     90  C   UNL A   1      44.700  27.146  36.974  1.00  0.00     0.198 A 
ATOM     91  C   UNL A   1      46.189  28.599  35.777  1.00  0.00     0.198 A 
ATOM     92  F   UNL A   1      45.328  30.186  34.268  1.00  0.00    -0.203 F 
ATOM     93  F   UNL A   1      44.501  26.183  37.883  1.00  0.00    -0.200 F 
ATOM     94  C   UNL A   1      45.987  27.582  36.697  1.00  0.00     0.200 A 
ATOM     95  F   UNL A   1      47.434  29.014  35.501  1.00  0.00    -0.200 F 
ATOM     96  F   UNL A   1      47.033  27.027  37.325  1.00  0.00    -0.200 F 
ENDBRANCH  63  86
ENDBRANCH  37  38
ENDBRANCH  30  32
ENDBRANCH  29  30
ENDBRANCH  28  29
ENDBRANCH  27  28
ENDBRANCH  26  27
ENDBRANCH   1  26
TORSDOF 17
ENDMDL
