MODEL 1
REMARK VINA RESULT:     -11.7      0.000      0.000
REMARK SMILES O=C(OCCOCCOC(=O)[C@H]1C[C@@H](O)C[N@H+]1Cc1ccccc1)c1ccc(-c2c3nc(c(-c4c(F)c(F)c(F)c(F)c4F)c4ccc([nH]4)c(-c4c(F)c(F)c(F)c(F)c4F)c4nc(c(-c5c(F)c(F)c(F)c(F)c5F)c5ccc2[nH]5)C=C4)C=C3)cc1
REMARK SMILES IDX 6 1 5 2 4 3 3 4 2 5 1 6 25 7 26 8 87 9 27 10 86 11 28 12
REMARK SMILES IDX 29 13 30 14 80 15 31 16 85 17 79 18 81 19 32 20 84 21 78 22
REMARK SMILES IDX 77 23 33 25 65 26 45 27 64 28 46 29 49 30 63 31 82 32 47 33
REMARK SMILES IDX 48 34 62 36 83 37 50 38 34 39 35 40 43 41 36 42 37 43 41 44
REMARK SMILES IDX 44 45 38 46 39 47 42 48 40 49 66 50 67 51 75 52 68 53 69 54
REMARK SMILES IDX 73 55 76 56 70 57 71 58 74 59 72 60 51 61 52 62 60 63 53 64
REMARK SMILES IDX 54 65 58 66 61 67 55 68 56 69 59 70 57 71 7 72 8 73 9 74
REMARK SMILES IDX 10 75 11 76 12 77 13 78 17 79 14 80 16 81 18 83 19 84 20 85
REMARK SMILES IDX 24 86 21 87 23 88 22 89 15 90
REMARK H PARENT 81 24 49 35 17 82 15 91
REMARK Flexibility Score: inf
ROOT
ATOM      1  O   UNL A   1      32.140  27.344  24.482  1.00  0.00    -0.374 OA
ENDROOT
BRANCH   1   2
ATOM      2  C   UNL A   1      31.895  28.670  24.047  1.00  0.00     0.202 C 
BRANCH   2   3
ATOM      3  C   UNL A   1      31.862  29.739  25.141  1.00  0.00     0.261 C 
BRANCH   3   4
ATOM      4  O   UNL A   1      33.142  29.949  25.768  1.00  0.00    -0.460 OA
BRANCH   4   5
ATOM      5  C   UNL A   1      33.354  30.854  26.759  1.00  0.00     0.338 C 
ATOM      6  O   UNL A   1      32.516  31.695  27.066  1.00  0.00    -0.246 OA
BRANCH   5   7
ATOM      7  C   UNL A   1      34.610  30.752  27.524  1.00  0.00     0.060 A 
ATOM      8  C   UNL A   1      35.066  29.509  27.931  1.00  0.00     0.016 A 
ATOM      9  C   UNL A   1      35.340  31.889  27.852  1.00  0.00     0.016 A 
ATOM     10  C   UNL A   1      36.066  29.404  28.876  1.00  0.00     0.010 A 
ATOM     11  C   UNL A   1      36.524  31.743  28.585  1.00  0.00     0.010 A 
ATOM     12  C   UNL A   1      36.896  30.493  29.118  1.00  0.00    -0.014 A 
BRANCH  12  13
ATOM     13  C   UNL A   1      38.169  30.282  29.861  1.00  0.00     0.031 A 
ATOM     14  C   UNL A   1      39.272  29.487  29.228  1.00  0.00     0.074 A 
ATOM     15  C   UNL A   1      38.330  30.787  31.105  1.00  0.00     0.049 A 
ATOM     16  N   UNL A   1      40.293  28.897  29.789  1.00  0.00    -0.248 NA
ATOM     17  C   UNL A   1      39.193  29.297  27.772  1.00  0.00     0.031 C 
ATOM     18  C   UNL A   1      37.371  31.637  31.822  1.00  0.00     0.029 A 
ATOM     19  N   UNL A   1      39.371  30.675  31.995  1.00  0.00    -0.354 N 
ATOM     20  C   UNL A   1      40.911  28.174  28.779  1.00  0.00     0.074 A 
ATOM     21  C   UNL A   1      40.161  28.417  27.565  1.00  0.00     0.031 C 
ATOM     22  C   UNL A   1      37.904  32.049  32.977  1.00  0.00     0.029 A 
ATOM     23  C   UNL A   1      39.156  31.346  33.177  1.00  0.00     0.049 A 
ATOM     24  H   UNL A   1      40.191  30.165  31.804  1.00  0.00     0.167 HD
ATOM     25  C   UNL A   1      41.991  27.364  28.881  1.00  0.00     0.037 A 
ATOM     26  C   UNL A   1      39.841  31.329  34.335  1.00  0.00     0.037 A 
ATOM     27  C   UNL A   1      42.749  27.208  30.096  1.00  0.00     0.049 A 
ATOM     28  C   UNL A   1      41.019  30.406  34.431  1.00  0.00     0.074 A 
ATOM     29  C   UNL A   1      43.861  26.421  30.332  1.00  0.00     0.029 A 
ATOM     30  N   UNL A   1      42.477  27.881  31.282  1.00  0.00    -0.354 N 
ATOM     31  N   UNL A   1      41.536  29.628  33.509  1.00  0.00    -0.248 NA
ATOM     32  C   UNL A   1      41.682  30.324  35.735  1.00  0.00     0.031 C 
ATOM     33  C   UNL A   1      44.235  26.586  31.672  1.00  0.00     0.029 A 
ATOM     34  C   UNL A   1      43.396  27.522  32.255  1.00  0.00     0.049 A 
ATOM     35  H   UNL A   1      41.740  28.520  31.412  1.00  0.00     0.167 HD
ATOM     36  C   UNL A   1      42.597  28.976  34.115  1.00  0.00     0.074 A 
ATOM     37  C   UNL A   1      42.662  29.469  35.478  1.00  0.00     0.031 C 
ATOM     38  C   UNL A   1      43.438  28.047  33.598  1.00  0.00     0.037 A 
BRANCH  25  39
ATOM     39  C   UNL A   1      42.356  26.541  27.677  1.00  0.00     0.064 A 
ATOM     40  C   UNL A   1      41.775  25.293  27.408  1.00  0.00     0.173 A 
ATOM     41  C   UNL A   1      43.338  27.005  26.785  1.00  0.00     0.173 A 
ATOM     42  F   UNL A   1      40.847  24.789  28.235  1.00  0.00    -0.203 F 
ATOM     43  C   UNL A   1      42.197  24.522  26.326  1.00  0.00     0.198 A 
ATOM     44  C   UNL A   1      43.729  26.249  25.682  1.00  0.00     0.198 A 
ATOM     45  F   UNL A   1      43.930  28.192  26.987  1.00  0.00    -0.203 F 
ATOM     46  F   UNL A   1      41.683  23.297  26.139  1.00  0.00    -0.200 F 
ATOM     47  C   UNL A   1      43.169  25.001  25.463  1.00  0.00     0.200 A 
ATOM     48  F   UNL A   1      44.662  26.722  24.844  1.00  0.00    -0.200 F 
ATOM     49  F   UNL A   1      43.578  24.254  24.427  1.00  0.00    -0.200 F 
ENDBRANCH  25  39
BRANCH  26  50
ATOM     50  C   UNL A   1      39.391  32.147  35.496  1.00  0.00     0.064 A 
ATOM     51  C   UNL A   1      38.505  31.616  36.444  1.00  0.00     0.173 A 
ATOM     52  C   UNL A   1      39.835  33.464  35.694  1.00  0.00     0.173 A 
ATOM     53  F   UNL A   1      38.029  30.371  36.291  1.00  0.00    -0.203 F 
ATOM     54  C   UNL A   1      38.073  32.371  37.534  1.00  0.00     0.198 A 
ATOM     55  C   UNL A   1      39.436  34.204  36.806  1.00  0.00     0.198 A 
ATOM     56  F   UNL A   1      40.683  34.029  34.822  1.00  0.00    -0.203 F 
ATOM     57  F   UNL A   1      37.187  31.854  38.395  1.00  0.00    -0.200 F 
ATOM     58  C   UNL A   1      38.548  33.661  37.720  1.00  0.00     0.200 A 
ATOM     59  F   UNL A   1      39.917  35.442  36.992  1.00  0.00    -0.200 F 
ATOM     60  F   UNL A   1      38.142  34.383  38.774  1.00  0.00    -0.200 F 
ENDBRANCH  26  50
BRANCH  38  61
ATOM     61  C   UNL A   1      44.533  27.563  34.498  1.00  0.00     0.064 A 
ATOM     62  C   UNL A   1      45.765  28.227  34.589  1.00  0.00     0.173 A 
ATOM     63  C   UNL A   1      44.337  26.423  35.291  1.00  0.00     0.173 A 
ATOM     64  F   UNL A   1      46.008  29.308  33.832  1.00  0.00    -0.203 F 
ATOM     65  C   UNL A   1      46.773  27.747  35.420  1.00  0.00     0.198 A 
ATOM     66  C   UNL A   1      45.333  25.968  36.147  1.00  0.00     0.198 A 
ATOM     67  F   UNL A   1      43.174  25.756  35.239  1.00  0.00    -0.203 F 
ATOM     68  F   UNL A   1      47.965  28.360  35.446  1.00  0.00    -0.200 F 
ATOM     69  C   UNL A   1      46.553  26.624  36.203  1.00  0.00     0.200 A 
ATOM     70  F   UNL A   1      45.113  24.891  36.914  1.00  0.00    -0.200 F 
ATOM     71  F   UNL A   1      47.523  26.166  37.008  1.00  0.00    -0.200 F 
ENDBRANCH  38  61
ENDBRANCH  12  13
ENDBRANCH   5   7
ENDBRANCH   4   5
ENDBRANCH   3   4
ENDBRANCH   2   3
ENDBRANCH   1   2
BRANCH   1  72
ATOM     72  C   UNL A   1      30.979  26.598  24.811  1.00  0.00     0.202 C 
BRANCH  72  73
ATOM     73  C   UNL A   1      31.107  25.168  24.292  1.00  0.00     0.261 C 
BRANCH  73  74
ATOM     74  O   UNL A   1      30.588  24.205  25.244  1.00  0.00    -0.459 OA
BRANCH  74  75
ATOM     75  C   UNL A   1      31.477  23.738  26.172  1.00  0.00     0.365 C 
ATOM     76  O   UNL A   1      31.265  23.751  27.380  1.00  0.00    -0.245 OA
BRANCH  75  77
ATOM     77  C   UNL A   1      32.824  23.345  25.547  1.00  0.00     0.298 C 
ATOM     78  C   UNL A   1      34.005  23.513  26.519  1.00  0.00     0.115 C 
ATOM     79  N   UNL A   1      33.014  22.013  24.950  1.00  0.00    -0.317 N 
ATOM     80  C   UNL A   1      34.977  22.377  26.214  1.00  0.00     0.175 C 
ATOM     81  C   UNL A   1      34.441  21.709  24.956  1.00  0.00     0.295 C 
ATOM     82  H   UNL A   1      32.569  22.185  24.048  1.00  0.00     0.349 HD
BRANCH  79  83
ATOM     83  C   UNL A   1      32.134  20.871  25.059  1.00  0.00     0.299 C 
BRANCH  83  84
ATOM     84  C   UNL A   1      32.462  19.542  24.398  1.00  0.00     0.006 A 
ATOM     85  C   UNL A   1      33.184  18.589  25.144  1.00  0.00     0.009 A 
ATOM     86  C   UNL A   1      32.217  19.232  23.055  1.00  0.00     0.009 A 
ATOM     87  C   UNL A   1      33.632  17.392  24.570  1.00  0.00     0.001 A 
ATOM     88  C   UNL A   1      32.667  18.040  22.474  1.00  0.00     0.001 A 
ATOM     89  C   UNL A   1      33.379  17.120  23.231  1.00  0.00     0.000 A 
ENDBRANCH  83  84
ENDBRANCH  79  83
BRANCH  80  90
ATOM     90  O   UNL A   1      35.047  21.469  27.310  1.00  0.00    -0.387 OA
ATOM     91  H   UNL A   1      35.896  21.000  27.287  1.00  0.00     0.211 HD
ENDBRANCH  80  90
ENDBRANCH  75  77
ENDBRANCH  74  75
ENDBRANCH  73  74
ENDBRANCH  72  73
ENDBRANCH   1  72
TORSDOF 17
ENDMDL
MODEL 2
REMARK VINA RESULT:     -11.6      0.711      1.846
REMARK SMILES O=C(OCCOCCOC(=O)[C@H]1C[C@@H](O)C[N@H+]1Cc1ccccc1)c1ccc(-c2c3nc(c(-c4c(F)c(F)c(F)c(F)c4F)c4ccc([nH]4)c(-c4c(F)c(F)c(F)c(F)c4F)c4nc(c(-c5c(F)c(F)c(F)c(F)c5F)c5ccc2[nH]5)C=C4)C=C3)cc1
REMARK SMILES IDX 6 1 5 2 4 3 3 4 2 5 1 6 25 7 26 8 87 9 27 10 86 11 28 12
REMARK SMILES IDX 29 13 30 14 80 15 31 16 85 17 79 18 81 19 32 20 84 21 78 22
REMARK SMILES IDX 77 23 33 25 65 26 45 27 64 28 46 29 49 30 63 31 82 32 47 33
REMARK SMILES IDX 48 34 62 36 83 37 50 38 34 39 35 40 43 41 36 42 37 43 41 44
REMARK SMILES IDX 44 45 38 46 39 47 42 48 40 49 66 50 67 51 75 52 68 53 69 54
REMARK SMILES IDX 73 55 76 56 70 57 71 58 74 59 72 60 51 61 52 62 60 63 53 64
REMARK SMILES IDX 54 65 58 66 61 67 55 68 56 69 59 70 57 71 7 72 8 73 9 74
REMARK SMILES IDX 10 75 11 76 12 77 13 78 17 79 14 80 16 81 18 83 19 84 20 85
REMARK SMILES IDX 24 86 21 87 23 88 22 89 15 90
REMARK H PARENT 81 24 49 35 17 82 15 91
REMARK Flexibility Score: inf
ROOT
ATOM      1  O   UNL A   1      31.019  26.797  26.681  1.00  0.00    -0.374 OA
ENDROOT
BRANCH   1   2
ATOM      2  C   UNL A   1      31.826  27.919  26.992  1.00  0.00     0.202 C 
BRANCH   2   3
ATOM      3  C   UNL A   1      31.853  29.036  25.947  1.00  0.00     0.261 C 
BRANCH   3   4
ATOM      4  O   UNL A   1      33.092  29.770  25.932  1.00  0.00    -0.460 OA
BRANCH   4   5
ATOM      5  C   UNL A   1      33.377  30.783  26.792  1.00  0.00     0.338 C 
ATOM      6  O   UNL A   1      32.602  31.713  26.984  1.00  0.00    -0.246 OA
BRANCH   5   7
ATOM      7  C   UNL A   1      34.630  30.696  27.563  1.00  0.00     0.060 A 
ATOM      8  C   UNL A   1      35.098  29.459  27.975  1.00  0.00     0.016 A 
ATOM      9  C   UNL A   1      35.346  31.841  27.891  1.00  0.00     0.016 A 
ATOM     10  C   UNL A   1      36.094  29.368  28.925  1.00  0.00     0.010 A 
ATOM     11  C   UNL A   1      36.529  31.711  28.630  1.00  0.00     0.010 A 
ATOM     12  C   UNL A   1      36.912  30.466  29.167  1.00  0.00    -0.014 A 
BRANCH  12  13
ATOM     13  C   UNL A   1      38.184  30.271  29.916  1.00  0.00     0.031 A 
ATOM     14  C   UNL A   1      39.288  29.464  29.301  1.00  0.00     0.074 A 
ATOM     15  C   UNL A   1      38.343  30.801  31.150  1.00  0.00     0.049 A 
ATOM     16  N   UNL A   1      40.309  28.886  29.876  1.00  0.00    -0.248 NA
ATOM     17  C   UNL A   1      39.212  29.244  27.849  1.00  0.00     0.031 C 
ATOM     18  C   UNL A   1      37.383  31.666  31.848  1.00  0.00     0.029 A 
ATOM     19  N   UNL A   1      39.382  30.708  32.043  1.00  0.00    -0.354 N 
ATOM     20  C   UNL A   1      40.928  28.142  28.882  1.00  0.00     0.074 A 
ATOM     21  C   UNL A   1      40.180  28.360  27.662  1.00  0.00     0.031 C 
ATOM     22  C   UNL A   1      37.914  32.101  32.995  1.00  0.00     0.029 A 
ATOM     23  C   UNL A   1      39.166  31.403  33.211  1.00  0.00     0.049 A 
ATOM     24  H   UNL A   1      40.204  30.195  31.864  1.00  0.00     0.167 HD
ATOM     25  C   UNL A   1      42.008  27.335  29.001  1.00  0.00     0.037 A 
ATOM     26  C   UNL A   1      39.849  31.410  34.370  1.00  0.00     0.037 A 
ATOM     27  C   UNL A   1      42.765  27.204  30.220  1.00  0.00     0.049 A 
ATOM     28  C   UNL A   1      41.027  30.489  34.487  1.00  0.00     0.074 A 
ATOM     29  C   UNL A   1      43.877  26.422  30.474  1.00  0.00     0.029 A 
ATOM     30  N   UNL A   1      42.491  27.902  31.392  1.00  0.00    -0.354 N 
ATOM     31  N   UNL A   1      41.546  29.693  33.582  1.00  0.00    -0.248 NA
ATOM     32  C   UNL A   1      41.689  30.434  35.793  1.00  0.00     0.031 C 
ATOM     33  C   UNL A   1      44.249  26.615  31.811  1.00  0.00     0.029 A 
ATOM     34  C   UNL A   1      43.409  27.563  32.373  1.00  0.00     0.049 A 
ATOM     35  H   UNL A   1      41.753  28.543  31.508  1.00  0.00     0.167 HD
ATOM     36  C   UNL A   1      42.607  29.054  34.202  1.00  0.00     0.074 A 
ATOM     37  C   UNL A   1      42.669  29.575  35.555  1.00  0.00     0.031 C 
ATOM     38  C   UNL A   1      43.448  28.115  33.705  1.00  0.00     0.037 A 
BRANCH  25  39
ATOM     39  C   UNL A   1      42.376  26.487  27.815  1.00  0.00     0.064 A 
ATOM     40  C   UNL A   1      43.341  26.878  26.875  1.00  0.00     0.173 A 
ATOM     41  C   UNL A   1      41.719  25.264  27.600  1.00  0.00     0.173 A 
ATOM     42  F   UNL A   1      43.988  28.045  27.016  1.00  0.00    -0.203 F 
ATOM     43  C   UNL A   1      43.599  26.104  25.745  1.00  0.00     0.198 A 
ATOM     44  C   UNL A   1      42.006  24.474  26.490  1.00  0.00     0.198 A 
ATOM     45  F   UNL A   1      40.786  24.836  28.465  1.00  0.00    -0.203 F 
ATOM     46  F   UNL A   1      44.467  26.539  24.821  1.00  0.00    -0.200 F 
ATOM     47  C   UNL A   1      42.934  24.902  25.555  1.00  0.00     0.200 A 
ATOM     48  F   UNL A   1      41.370  23.307  26.316  1.00  0.00    -0.200 F 
ATOM     49  F   UNL A   1      43.178  24.163  24.463  1.00  0.00    -0.200 F 
ENDBRANCH  25  39
BRANCH  26  50
ATOM     50  C   UNL A   1      39.397  32.251  35.514  1.00  0.00     0.064 A 
ATOM     51  C   UNL A   1      39.833  33.578  35.642  1.00  0.00     0.173 A 
ATOM     52  C   UNL A   1      38.521  31.762  36.495  1.00  0.00     0.173 A 
ATOM     53  F   UNL A   1      40.691  34.090  34.746  1.00  0.00    -0.203 F 
ATOM     54  C   UNL A   1      39.421  34.375  36.710  1.00  0.00     0.198 A 
ATOM     55  C   UNL A   1      38.076  32.572  37.539  1.00  0.00     0.198 A 
ATOM     56  F   UNL A   1      38.070  30.501  36.429  1.00  0.00    -0.203 F 
ATOM     57  F   UNL A   1      39.894  35.622  36.833  1.00  0.00    -0.200 F 
ATOM     58  C   UNL A   1      38.534  33.875  37.651  1.00  0.00     0.200 A 
ATOM     59  F   UNL A   1      37.201  32.089  38.433  1.00  0.00    -0.200 F 
ATOM     60  F   UNL A   1      38.129  34.645  38.671  1.00  0.00    -0.200 F 
ENDBRANCH  26  50
BRANCH  38  61
ATOM     61  C   UNL A   1      44.543  27.650  34.617  1.00  0.00     0.064 A 
ATOM     62  C   UNL A   1      45.775  28.314  34.693  1.00  0.00     0.173 A 
ATOM     63  C   UNL A   1      44.344  26.529  35.436  1.00  0.00     0.173 A 
ATOM     64  F   UNL A   1      46.021  29.377  33.911  1.00  0.00    -0.203 F 
ATOM     65  C   UNL A   1      46.782  27.851  35.535  1.00  0.00     0.198 A 
ATOM     66  C   UNL A   1      45.339  26.092  36.302  1.00  0.00     0.198 A 
ATOM     67  F   UNL A   1      43.180  25.863  35.399  1.00  0.00    -0.203 F 
ATOM     68  F   UNL A   1      47.976  28.463  35.548  1.00  0.00    -0.200 F 
ATOM     69  C   UNL A   1      46.561  26.747  36.344  1.00  0.00     0.200 A 
ATOM     70  F   UNL A   1      45.117  25.034  37.094  1.00  0.00    -0.200 F 
ATOM     71  F   UNL A   1      47.529  26.307  37.159  1.00  0.00    -0.200 F 
ENDBRANCH  38  61
ENDBRANCH  12  13
ENDBRANCH   5   7
ENDBRANCH   4   5
ENDBRANCH   3   4
ENDBRANCH   2   3
ENDBRANCH   1   2
BRANCH   1  72
ATOM     72  C   UNL A   1      31.729  25.587  26.472  1.00  0.00     0.202 C 
BRANCH  72  73
ATOM     73  C   UNL A   1      30.778  24.494  25.992  1.00  0.00     0.261 C 
BRANCH  73  74
ATOM     74  O   UNL A   1      31.480  23.256  25.715  1.00  0.00    -0.459 OA
BRANCH  74  75
ATOM     75  C   UNL A   1      32.014  23.136  24.462  1.00  0.00     0.365 C 
ATOM     76  O   UNL A   1      31.393  23.387  23.434  1.00  0.00    -0.245 OA
BRANCH  75  77
ATOM     77  C   UNL A   1      33.414  22.504  24.480  1.00  0.00     0.298 C 
ATOM     78  C   UNL A   1      34.286  23.017  25.639  1.00  0.00     0.115 C 
ATOM     79  N   UNL A   1      33.577  21.041  24.505  1.00  0.00    -0.317 N 
ATOM     80  C   UNL A   1      35.138  21.835  26.092  1.00  0.00     0.175 C 
ATOM     81  C   UNL A   1      34.888  20.737  25.068  1.00  0.00     0.295 C 
ATOM     82  H   UNL A   1      33.430  20.854  23.513  1.00  0.00     0.349 HD
BRANCH  79  83
ATOM     83  C   UNL A   1      32.551  20.050  24.746  1.00  0.00     0.299 C 
BRANCH  83  84
ATOM     84  C   UNL A   1      32.827  18.562  24.598  1.00  0.00     0.006 A 
ATOM     85  C   UNL A   1      32.612  17.733  25.717  1.00  0.00     0.009 A 
ATOM     86  C   UNL A   1      33.402  17.960  23.472  1.00  0.00     0.009 A 
ATOM     87  C   UNL A   1      32.957  16.375  25.703  1.00  0.00     0.001 A 
ATOM     88  C   UNL A   1      33.755  16.605  23.454  1.00  0.00     0.001 A 
ATOM     89  C   UNL A   1      33.536  15.812  24.571  1.00  0.00     0.000 A 
ENDBRANCH  83  84
ENDBRANCH  79  83
BRANCH  80  90
ATOM     90  O   UNL A   1      34.771  21.429  27.407  1.00  0.00    -0.387 OA
ATOM     91  H   UNL A   1      34.125  20.706  27.354  1.00  0.00     0.211 HD
ENDBRANCH  80  90
ENDBRANCH  75  77
ENDBRANCH  74  75
ENDBRANCH  73  74
ENDBRANCH  72  73
ENDBRANCH   1  72
TORSDOF 17
ENDMDL
MODEL 3
REMARK VINA RESULT:     -11.6      1.487      2.153
REMARK SMILES O=C(OCCOCCOC(=O)[C@H]1C[C@@H](O)C[N@H+]1Cc1ccccc1)c1ccc(-c2c3nc(c(-c4c(F)c(F)c(F)c(F)c4F)c4ccc([nH]4)c(-c4c(F)c(F)c(F)c(F)c4F)c4nc(c(-c5c(F)c(F)c(F)c(F)c5F)c5ccc2[nH]5)C=C4)C=C3)cc1
REMARK SMILES IDX 6 1 5 2 4 3 3 4 2 5 1 6 25 7 26 8 87 9 27 10 86 11 28 12
REMARK SMILES IDX 29 13 30 14 80 15 31 16 85 17 79 18 81 19 32 20 84 21 78 22
REMARK SMILES IDX 77 23 33 25 65 26 45 27 64 28 46 29 49 30 63 31 82 32 47 33
REMARK SMILES IDX 48 34 62 36 83 37 50 38 34 39 35 40 43 41 36 42 37 43 41 44
REMARK SMILES IDX 44 45 38 46 39 47 42 48 40 49 66 50 67 51 75 52 68 53 69 54
REMARK SMILES IDX 73 55 76 56 70 57 71 58 74 59 72 60 51 61 52 62 60 63 53 64
REMARK SMILES IDX 54 65 58 66 61 67 55 68 56 69 59 70 57 71 7 72 8 73 9 74
REMARK SMILES IDX 10 75 11 76 12 77 13 78 17 79 14 80 16 81 18 83 19 84 20 85
REMARK SMILES IDX 24 86 21 87 23 88 22 89 15 90
REMARK H PARENT 81 24 49 35 17 82 15 91
REMARK Flexibility Score: inf
ROOT
ATOM      1  O   UNL A   1      31.823  27.802  24.380  1.00  0.00    -0.374 OA
ENDROOT
BRANCH   1   2
ATOM      2  C   UNL A   1      31.362  29.141  24.346  1.00  0.00     0.202 C 
BRANCH   2   3
ATOM      3  C   UNL A   1      31.545  29.944  25.636  1.00  0.00     0.261 C 
BRANCH   3   4
ATOM      4  O   UNL A   1      32.907  30.361  25.857  1.00  0.00    -0.460 OA
BRANCH   4   5
ATOM      5  C   UNL A   1      33.283  31.199  26.858  1.00  0.00     0.338 C 
ATOM      6  O   UNL A   1      32.595  32.152  27.204  1.00  0.00    -0.246 OA
BRANCH   5   7
ATOM      7  C   UNL A   1      34.527  30.885  27.583  1.00  0.00     0.060 A 
ATOM      8  C   UNL A   1      35.369  31.912  27.980  1.00  0.00     0.016 A 
ATOM      9  C   UNL A   1      34.875  29.569  27.867  1.00  0.00     0.016 A 
ATOM     10  C   UNL A   1      36.655  31.642  28.398  1.00  0.00     0.010 A 
ATOM     11  C   UNL A   1      36.070  29.318  28.553  1.00  0.00     0.010 A 
ATOM     12  C   UNL A   1      36.984  30.358  28.817  1.00  0.00    -0.014 A 
BRANCH  12  13
ATOM     13  C   UNL A   1      38.241  30.146  29.586  1.00  0.00     0.031 A 
ATOM     14  C   UNL A   1      39.347  29.332  28.986  1.00  0.00     0.074 A 
ATOM     15  C   UNL A   1      38.384  30.667  30.827  1.00  0.00     0.049 A 
ATOM     16  N   UNL A   1      40.352  28.740  29.574  1.00  0.00    -0.248 NA
ATOM     17  C   UNL A   1      39.294  29.121  27.531  1.00  0.00     0.031 C 
ATOM     18  C   UNL A   1      37.420  31.536  31.513  1.00  0.00     0.029 A 
ATOM     19  N   UNL A   1      39.406  30.558  31.737  1.00  0.00    -0.354 N 
ATOM     20  C   UNL A   1      40.981  27.996  28.586  1.00  0.00     0.074 A 
ATOM     21  C   UNL A   1      40.257  28.229  27.355  1.00  0.00     0.031 C 
ATOM     22  C   UNL A   1      37.936  31.959  32.672  1.00  0.00     0.029 A 
ATOM     23  C   UNL A   1      39.177  31.247  32.906  1.00  0.00     0.049 A 
ATOM     24  H   UNL A   1      40.225  30.038  31.569  1.00  0.00     0.167 HD
ATOM     25  C   UNL A   1      42.051  27.178  28.719  1.00  0.00     0.037 A 
ATOM     26  C   UNL A   1      39.840  31.241  34.076  1.00  0.00     0.037 A 
ATOM     27  C   UNL A   1      42.785  27.032  29.951  1.00  0.00     0.049 A 
ATOM     28  C   UNL A   1      41.006  30.307  34.207  1.00  0.00     0.074 A 
ATOM     29  C   UNL A   1      43.885  26.237  30.219  1.00  0.00     0.029 A 
ATOM     30  N   UNL A   1      42.498  27.725  31.122  1.00  0.00    -0.354 N 
ATOM     31  N   UNL A   1      41.533  29.512  33.306  1.00  0.00    -0.248 NA
ATOM     32  C   UNL A   1      41.644  30.238  35.525  1.00  0.00     0.031 C 
ATOM     33  C   UNL A   1      44.235  26.418  31.562  1.00  0.00     0.029 A 
ATOM     34  C   UNL A   1      43.395  27.370  32.116  1.00  0.00     0.049 A 
ATOM     35  H   UNL A   1      41.764  28.372  31.229  1.00  0.00     0.167 HD
ATOM     36  C   UNL A   1      42.576  28.858  33.941  1.00  0.00     0.074 A 
ATOM     37  C   UNL A   1      42.620  29.370  35.297  1.00  0.00     0.031 C 
ATOM     38  C   UNL A   1      43.417  27.914  33.452  1.00  0.00     0.037 A 
BRANCH  25  39
ATOM     39  C   UNL A   1      42.431  26.333  27.534  1.00  0.00     0.064 A 
ATOM     40  C   UNL A   1      41.810  25.109  27.247  1.00  0.00     0.173 A 
ATOM     41  C   UNL A   1      43.466  26.753  26.681  1.00  0.00     0.173 A 
ATOM     42  F   UNL A   1      40.828  24.648  28.036  1.00  0.00    -0.203 F 
ATOM     43  C   UNL A   1      42.242  24.316  26.185  1.00  0.00     0.198 A 
ATOM     44  C   UNL A   1      43.870  25.975  25.598  1.00  0.00     0.198 A 
ATOM     45  F   UNL A   1      44.098  27.915  26.904  1.00  0.00    -0.203 F 
ATOM     46  F   UNL A   1      41.686  23.113  25.982  1.00  0.00    -0.200 F 
ATOM     47  C   UNL A   1      43.269  24.750  25.361  1.00  0.00     0.200 A 
ATOM     48  F   UNL A   1      44.855  26.404  24.797  1.00  0.00    -0.200 F 
ATOM     49  F   UNL A   1      43.688  23.981  24.345  1.00  0.00    -0.200 F 
ENDBRANCH  25  39
BRANCH  26  50
ATOM     50  C   UNL A   1      39.376  32.079  35.217  1.00  0.00     0.064 A 
ATOM     51  C   UNL A   1      38.528  31.547  36.197  1.00  0.00     0.173 A 
ATOM     52  C   UNL A   1      39.771  33.419  35.363  1.00  0.00     0.173 A 
ATOM     53  F   UNL A   1      38.099  30.279  36.094  1.00  0.00    -0.203 F 
ATOM     54  C   UNL A   1      38.084  32.321  37.269  1.00  0.00     0.198 A 
ATOM     55  C   UNL A   1      39.361  34.180  36.456  1.00  0.00     0.198 A 
ATOM     56  F   UNL A   1      40.581  33.986  34.457  1.00  0.00    -0.203 F 
ATOM     57  F   UNL A   1      37.233  31.799  38.162  1.00  0.00    -0.200 F 
ATOM     58  C   UNL A   1      38.510  33.634  37.403  1.00  0.00     0.200 A 
ATOM     59  F   UNL A   1      39.794  35.442  36.592  1.00  0.00    -0.200 F 
ATOM     60  F   UNL A   1      38.092  34.375  38.439  1.00  0.00    -0.200 F 
ENDBRANCH  26  50
BRANCH  38  61
ATOM     61  C   UNL A   1      44.491  27.432  34.380  1.00  0.00     0.064 A 
ATOM     62  C   UNL A   1      45.696  28.130  34.542  1.00  0.00     0.173 A 
ATOM     63  C   UNL A   1      44.299  26.261  35.127  1.00  0.00     0.173 A 
ATOM     64  F   UNL A   1      45.936  29.243  33.832  1.00  0.00    -0.203 F 
ATOM     65  C   UNL A   1      46.685  27.652  35.397  1.00  0.00     0.198 A 
ATOM     66  C   UNL A   1      45.274  25.806  36.006  1.00  0.00     0.198 A 
ATOM     67  F   UNL A   1      43.161  25.561  35.006  1.00  0.00    -0.203 F 
ATOM     68  F   UNL A   1      47.856  28.299  35.492  1.00  0.00    -0.200 F 
ATOM     69  C   UNL A   1      46.470  26.496  36.134  1.00  0.00     0.200 A 
ATOM     70  F   UNL A   1      45.058  24.698  36.728  1.00  0.00    -0.200 F 
ATOM     71  F   UNL A   1      47.422  26.041  36.961  1.00  0.00    -0.200 F 
ENDBRANCH  38  61
ENDBRANCH  12  13
ENDBRANCH   5   7
ENDBRANCH   4   5
ENDBRANCH   3   4
ENDBRANCH   2   3
ENDBRANCH   1   2
BRANCH   1  72
ATOM     72  C   UNL A   1      32.920  27.525  23.525  1.00  0.00     0.202 C 
BRANCH  72  73
ATOM     73  C   UNL A   1      33.811  26.451  24.144  1.00  0.00     0.261 C 
BRANCH  73  74
ATOM     74  O   UNL A   1      33.791  25.226  23.367  1.00  0.00    -0.459 OA
BRANCH  74  75
ATOM     75  C   UNL A   1      32.758  24.369  23.624  1.00  0.00     0.365 C 
ATOM     76  O   UNL A   1      32.103  23.814  22.747  1.00  0.00    -0.245 OA
BRANCH  75  77
ATOM     77  C   UNL A   1      32.409  24.303  25.119  1.00  0.00     0.298 C 
ATOM     78  C   UNL A   1      30.913  24.050  25.372  1.00  0.00     0.115 C 
ATOM     79  N   UNL A   1      33.106  23.361  26.011  1.00  0.00    -0.317 N 
ATOM     80  C   UNL A   1      30.830  23.171  26.617  1.00  0.00     0.175 C 
ATOM     81  C   UNL A   1      32.249  23.104  27.163  1.00  0.00     0.295 C 
ATOM     82  H   UNL A   1      33.959  23.900  26.164  1.00  0.00     0.349 HD
BRANCH  79  83
ATOM     83  C   UNL A   1      33.977  22.272  25.627  1.00  0.00     0.299 C 
BRANCH  83  84
ATOM     84  C   UNL A   1      35.488  22.435  25.580  1.00  0.00     0.006 A 
ATOM     85  C   UNL A   1      36.264  21.320  25.208  1.00  0.00     0.009 A 
ATOM     86  C   UNL A   1      36.186  23.573  26.002  1.00  0.00     0.009 A 
ATOM     87  C   UNL A   1      37.664  21.350  25.258  1.00  0.00     0.001 A 
ATOM     88  C   UNL A   1      37.584  23.607  26.059  1.00  0.00     0.001 A 
ATOM     89  C   UNL A   1      38.325  22.493  25.691  1.00  0.00     0.000 A 
ENDBRANCH  83  84
ENDBRANCH  79  83
BRANCH  80  90
ATOM     90  O   UNL A   1      30.326  21.880  26.285  1.00  0.00    -0.387 OA
ATOM     91  H   UNL A   1      30.916  21.200  26.649  1.00  0.00     0.211 HD
ENDBRANCH  80  90
ENDBRANCH  75  77
ENDBRANCH  74  75
ENDBRANCH  73  74
ENDBRANCH  72  73
ENDBRANCH   1  72
TORSDOF 17
ENDMDL
