MODEL 1
REMARK VINA RESULT:     -11.9      0.000      0.000
REMARK SMILES C[C@H]1[C@H](C(=O)OCCOCCOC(=O)c2ccc(-c3c4nc(c(-c5c(F)c(F)c(F)c(F)c5F)c5ccc([nH]5)c(-c5c(F)c(F)c(F)c(F)c5F)c5nc(c(-c6c(F)c(F)c(F)c(F)c6F)c6ccc3[nH]6)C=C5)C=C4)cc2)CCN1c1ncnc2sccc12
REMARK SMILES IDX 10 1 9 2 8 3 7 4 6 5 4 6 5 7 3 8 1 9 2 10 80 11 78 12 79 13
REMARK SMILES IDX 81 14 82 15 89 16 83 17 85 18 88 19 84 20 86 21 87 22 11 23
REMARK SMILES IDX 12 24 13 25 14 26 15 27 16 28 77 29 17 30 76 31 18 32 19 33
REMARK SMILES IDX 20 34 70 35 21 36 75 37 69 38 71 39 22 40 74 41 68 42 67 43
REMARK SMILES IDX 23 45 55 46 35 47 54 48 36 49 39 50 53 51 72 52 37 53 38 54
REMARK SMILES IDX 52 56 73 57 40 58 24 59 25 60 33 61 26 62 27 63 31 64 34 65
REMARK SMILES IDX 28 66 29 67 32 68 30 69 56 70 57 71 65 72 58 73 59 74 63 75
REMARK SMILES IDX 66 76 60 77 61 78 64 79 62 80 41 81 42 82 50 83 43 84 44 85
REMARK SMILES IDX 48 86 51 87 45 88 46 89 49 90 47 91
REMARK H PARENT 71 44 39 55
REMARK Flexibility Score: inf
ROOT
ATOM      1  C   UNL A   1      43.124  21.514  25.934  1.00  0.00     0.202 C 
ENDROOT
BRANCH   1   2
ATOM      2  O   UNL A   1      41.745  21.716  25.631  1.00  0.00    -0.374 OA
BRANCH   2   3
ATOM      3  C   UNL A   1      40.787  21.120  26.503  1.00  0.00     0.202 C 
BRANCH   3   4
ATOM      4  C   UNL A   1      39.546  21.958  26.823  1.00  0.00     0.261 C 
BRANCH   4   5
ATOM      5  O   UNL A   1      38.478  21.726  25.886  1.00  0.00    -0.463 OA
BRANCH   5   6
ATOM      6  C   UNL A   1      37.758  22.819  25.518  1.00  0.00     0.311 C 
ATOM      7  O   UNL A   1      38.175  23.971  25.545  1.00  0.00    -0.252 OA
BRANCH   6   8
ATOM      8  C   UNL A   1      36.331  22.495  25.146  1.00  0.00     0.123 C 
ATOM      9  C   UNL A   1      34.720  21.873  26.972  1.00  0.00     0.032 C 
ATOM     10  C   UNL A   1      35.225  23.022  26.088  1.00  0.00     0.095 C 
ATOM     11  N   UNL A   1      34.173  23.500  25.172  1.00  0.00    -0.352 N 
ATOM     12  C   UNL A   1      36.031  23.105  23.789  1.00  0.00     0.039 C 
ATOM     13  C   UNL A   1      34.528  23.306  23.782  1.00  0.00     0.119 C 
BRANCH  11  14
ATOM     14  C   UNL A   1      33.032  24.132  25.619  1.00  0.00     0.141 A 
ATOM     15  N   UNL A   1      31.924  23.362  25.794  1.00  0.00    -0.219 NA
ATOM     16  C   UNL A   1      32.901  25.519  25.924  1.00  0.00     0.054 A 
ATOM     17  C   UNL A   1      30.775  23.911  26.211  1.00  0.00     0.225 A 
ATOM     18  C   UNL A   1      31.655  25.937  26.379  1.00  0.00     0.128 A 
ATOM     19  C   UNL A   1      33.787  26.660  25.863  1.00  0.00     0.026 A 
ATOM     20  N   UNL A   1      30.557  25.182  26.534  1.00  0.00    -0.225 NA
ATOM     21  S   UNL A   1      31.590  27.598  26.766  1.00  0.00    -0.124 S 
ATOM     22  C   UNL A   1      33.214  27.829  26.316  1.00  0.00     0.068 A 
ENDBRANCH  11  14
ENDBRANCH   6   8
ENDBRANCH   5   6
ENDBRANCH   4   5
ENDBRANCH   3   4
ENDBRANCH   2   3
ENDBRANCH   1   2
BRANCH   1  23
ATOM     23  C   UNL A   1      44.129  22.302  25.089  1.00  0.00     0.261 C 
BRANCH  23  24
ATOM     24  O   UNL A   1      43.545  23.500  24.542  1.00  0.00    -0.460 OA
BRANCH  24  25
ATOM     25  C   UNL A   1      44.171  24.641  24.903  1.00  0.00     0.338 C 
ATOM     26  O   UNL A   1      45.272  25.031  24.531  1.00  0.00    -0.246 OA
BRANCH  25  27
ATOM     27  C   UNL A   1      43.290  25.494  25.722  1.00  0.00     0.060 A 
ATOM     28  C   UNL A   1      43.791  26.749  26.089  1.00  0.00     0.016 A 
ATOM     29  C   UNL A   1      42.065  25.044  26.223  1.00  0.00     0.016 A 
ATOM     30  C   UNL A   1      43.117  27.520  27.031  1.00  0.00     0.010 A 
ATOM     31  C   UNL A   1      41.389  25.821  27.173  1.00  0.00     0.010 A 
ATOM     32  C   UNL A   1      41.943  27.034  27.621  1.00  0.00    -0.014 A 
BRANCH  32  33
ATOM     33  C   UNL A   1      41.433  27.718  28.836  1.00  0.00     0.031 A 
ATOM     34  C   UNL A   1      42.195  27.568  30.126  1.00  0.00     0.074 A 
ATOM     35  C   UNL A   1      40.369  28.537  28.773  1.00  0.00     0.049 A 
ATOM     36  N   UNL A   1      41.993  28.144  31.285  1.00  0.00    -0.248 NA
ATOM     37  C   UNL A   1      43.343  26.647  30.106  1.00  0.00     0.031 C 
ATOM     38  C   UNL A   1      39.570  28.792  27.577  1.00  0.00     0.029 A 
ATOM     39  N   UNL A   1      39.791  29.321  29.741  1.00  0.00    -0.354 N 
ATOM     40  C   UNL A   1      42.989  27.662  32.124  1.00  0.00     0.074 A 
ATOM     41  C   UNL A   1      43.771  26.716  31.358  1.00  0.00     0.031 C 
ATOM     42  C   UNL A   1      38.605  29.676  27.880  1.00  0.00     0.029 A 
ATOM     43  C   UNL A   1      38.710  30.038  29.293  1.00  0.00     0.049 A 
ATOM     44  H   UNL A   1      40.120  29.363  30.668  1.00  0.00     0.167 HD
ATOM     45  C   UNL A   1      43.241  27.988  33.414  1.00  0.00     0.037 A 
ATOM     46  C   UNL A   1      37.902  30.891  29.952  1.00  0.00     0.037 A 
ATOM     47  C   UNL A   1      42.468  28.930  34.180  1.00  0.00     0.049 A 
ATOM     48  C   UNL A   1      38.175  31.202  31.401  1.00  0.00     0.074 A 
ATOM     49  C   UNL A   1      42.650  29.336  35.491  1.00  0.00     0.029 A 
ATOM     50  N   UNL A   1      41.358  29.610  33.701  1.00  0.00    -0.354 N 
ATOM     51  N   UNL A   1      39.139  30.768  32.175  1.00  0.00    -0.248 NA
ATOM     52  C   UNL A   1      37.252  32.136  32.062  1.00  0.00     0.031 C 
ATOM     53  C   UNL A   1      41.625  30.231  35.818  1.00  0.00     0.029 A 
ATOM     54  C   UNL A   1      40.833  30.419  34.696  1.00  0.00     0.049 A 
ATOM     55  H   UNL A   1      40.997  29.530  32.789  1.00  0.00     0.167 HD
ATOM     56  C   UNL A   1      38.956  31.393  33.402  1.00  0.00     0.074 A 
ATOM     57  C   UNL A   1      37.797  32.250  33.265  1.00  0.00     0.031 C 
ATOM     58  C   UNL A   1      39.683  31.271  34.540  1.00  0.00     0.037 A 
BRANCH  45  59
ATOM     59  C   UNL A   1      44.396  27.306  34.086  1.00  0.00     0.064 A 
ATOM     60  C   UNL A   1      45.679  27.872  34.097  1.00  0.00     0.173 A 
ATOM     61  C   UNL A   1      44.211  26.083  34.748  1.00  0.00     0.173 A 
ATOM     62  F   UNL A   1      45.911  29.032  33.465  1.00  0.00    -0.203 F 
ATOM     63  C   UNL A   1      46.741  27.225  34.726  1.00  0.00     0.198 A 
ATOM     64  C   UNL A   1      45.268  25.453  35.398  1.00  0.00     0.198 A 
ATOM     65  F   UNL A   1      43.002  25.501  34.769  1.00  0.00    -0.203 F 
ATOM     66  F   UNL A   1      47.968  27.763  34.687  1.00  0.00    -0.200 F 
ATOM     67  C   UNL A   1      46.533  26.021  35.381  1.00  0.00     0.200 A 
ATOM     68  F   UNL A   1      45.065  24.294  36.039  1.00  0.00    -0.200 F 
ATOM     69  F   UNL A   1      47.555  25.403  35.990  1.00  0.00    -0.200 F 
ENDBRANCH  45  59
BRANCH  46  70
ATOM     70  C   UNL A   1      36.759  31.522  29.244  1.00  0.00     0.064 A 
ATOM     71  C   UNL A   1      36.758  32.891  28.945  1.00  0.00     0.173 A 
ATOM     72  C   UNL A   1      35.635  30.770  28.871  1.00  0.00     0.173 A 
ATOM     73  F   UNL A   1      37.799  33.656  29.305  1.00  0.00    -0.203 F 
ATOM     74  C   UNL A   1      35.667  33.488  28.315  1.00  0.00     0.198 A 
ATOM     75  C   UNL A   1      34.557  31.364  28.218  1.00  0.00     0.198 A 
ATOM     76  F   UNL A   1      35.587  29.458  29.138  1.00  0.00    -0.203 F 
ATOM     77  F   UNL A   1      35.673  34.808  28.081  1.00  0.00    -0.200 F 
ATOM     78  C   UNL A   1      34.572  32.724  27.947  1.00  0.00     0.200 A 
ATOM     79  F   UNL A   1      33.504  30.619  27.856  1.00  0.00    -0.200 F 
ATOM     80  F   UNL A   1      33.524  33.298  27.340  1.00  0.00    -0.200 F 
ENDBRANCH  46  70
BRANCH  58  81
ATOM     81  C   UNL A   1      39.265  32.107  35.715  1.00  0.00     0.064 A 
ATOM     82  C   UNL A   1      38.373  31.622  36.684  1.00  0.00     0.173 A 
ATOM     83  C   UNL A   1      39.788  33.398  35.889  1.00  0.00     0.173 A 
ATOM     84  F   UNL A   1      37.835  30.400  36.555  1.00  0.00    -0.203 F 
ATOM     85  C   UNL A   1      37.996  32.412  37.766  1.00  0.00     0.198 A 
ATOM     86  C   UNL A   1      39.430  34.173  36.988  1.00  0.00     0.198 A 
ATOM     87  F   UNL A   1      40.652  33.904  34.997  1.00  0.00    -0.203 F 
ATOM     88  F   UNL A   1      37.102  31.949  38.652  1.00  0.00    -0.200 F 
ATOM     89  C   UNL A   1      38.527  33.684  37.921  1.00  0.00     0.200 A 
ATOM     90  F   UNL A   1      39.954  35.396  37.143  1.00  0.00    -0.200 F 
ATOM     91  F   UNL A   1      38.164  34.441  38.964  1.00  0.00    -0.200 F 
ENDBRANCH  58  81
ENDBRANCH  32  33
ENDBRANCH  25  27
ENDBRANCH  24  25
ENDBRANCH  23  24
ENDBRANCH   1  23
TORSDOF 15
ENDMDL
MODEL 2
REMARK VINA RESULT:     -11.8      3.407      8.827
REMARK SMILES C[C@H]1[C@H](C(=O)OCCOCCOC(=O)c2ccc(-c3c4nc(c(-c5c(F)c(F)c(F)c(F)c5F)c5ccc([nH]5)c(-c5c(F)c(F)c(F)c(F)c5F)c5nc(c(-c6c(F)c(F)c(F)c(F)c6F)c6ccc3[nH]6)C=C5)C=C4)cc2)CCN1c1ncnc2sccc12
REMARK SMILES IDX 10 1 9 2 8 3 7 4 6 5 4 6 5 7 3 8 1 9 2 10 80 11 78 12 79 13
REMARK SMILES IDX 81 14 82 15 89 16 83 17 85 18 88 19 84 20 86 21 87 22 11 23
REMARK SMILES IDX 12 24 13 25 14 26 15 27 16 28 77 29 17 30 76 31 18 32 19 33
REMARK SMILES IDX 20 34 70 35 21 36 75 37 69 38 71 39 22 40 74 41 68 42 67 43
REMARK SMILES IDX 23 45 55 46 35 47 54 48 36 49 39 50 53 51 72 52 37 53 38 54
REMARK SMILES IDX 52 56 73 57 40 58 24 59 25 60 33 61 26 62 27 63 31 64 34 65
REMARK SMILES IDX 28 66 29 67 32 68 30 69 56 70 57 71 65 72 58 73 59 74 63 75
REMARK SMILES IDX 66 76 60 77 61 78 64 79 62 80 41 81 42 82 50 83 43 84 44 85
REMARK SMILES IDX 48 86 51 87 45 88 46 89 49 90 47 91
REMARK H PARENT 71 44 39 55
REMARK Flexibility Score: inf
ROOT
ATOM      1  C   UNL A   1      31.093  30.920  25.517  1.00  0.00     0.202 C 
ENDROOT
BRANCH   1   2
ATOM      2  O   UNL A   1      31.403  29.539  25.694  1.00  0.00    -0.374 OA
BRANCH   2   3
ATOM      3  C   UNL A   1      31.672  28.770  24.523  1.00  0.00     0.202 C 
BRANCH   3   4
ATOM      4  C   UNL A   1      33.076  28.908  23.928  1.00  0.00     0.261 C 
BRANCH   4   5
ATOM      5  O   UNL A   1      33.830  27.686  24.027  1.00  0.00    -0.463 OA
BRANCH   5   6
ATOM      6  C   UNL A   1      33.641  26.786  23.025  1.00  0.00     0.311 C 
ATOM      7  O   UNL A   1      33.836  27.012  21.837  1.00  0.00    -0.252 OA
BRANCH   6   8
ATOM      8  C   UNL A   1      33.069  25.473  23.504  1.00  0.00     0.123 C 
ATOM      9  C   UNL A   1      33.247  23.462  22.006  1.00  0.00     0.032 C 
ATOM     10  C   UNL A   1      33.885  24.199  23.192  1.00  0.00     0.095 C 
ATOM     11  N   UNL A   1      33.796  23.405  24.432  1.00  0.00    -0.352 N 
ATOM     12  C   UNL A   1      32.949  25.517  25.016  1.00  0.00     0.039 C 
ATOM     13  C   UNL A   1      33.004  24.065  25.449  1.00  0.00     0.119 C 
BRANCH  11  14
ATOM     14  C   UNL A   1      34.472  22.215  24.600  1.00  0.00     0.141 A 
ATOM     15  N   UNL A   1      35.798  22.292  24.900  1.00  0.00    -0.219 NA
ATOM     16  C   UNL A   1      33.915  20.906  24.495  1.00  0.00     0.054 A 
ATOM     17  C   UNL A   1      36.522  21.176  25.061  1.00  0.00     0.225 A 
ATOM     18  C   UNL A   1      34.785  19.844  24.723  1.00  0.00     0.128 A 
ATOM     19  C   UNL A   1      32.605  20.383  24.185  1.00  0.00     0.026 A 
ATOM     20  N   UNL A   1      36.095  19.919  25.001  1.00  0.00    -0.225 NA
ATOM     21  S   UNL A   1      34.036  18.314  24.625  1.00  0.00    -0.124 S 
ATOM     22  C   UNL A   1      32.528  19.008  24.250  1.00  0.00     0.068 A 
ENDBRANCH  11  14
ENDBRANCH   6   8
ENDBRANCH   5   6
ENDBRANCH   4   5
ENDBRANCH   3   4
ENDBRANCH   2   3
ENDBRANCH   1   2
BRANCH   1  23
ATOM     23  C   UNL A   1      31.535  31.865  26.638  1.00  0.00     0.261 C 
BRANCH  23  24
ATOM     24  O   UNL A   1      32.765  31.433  27.250  1.00  0.00    -0.460 OA
BRANCH  24  25
ATOM     25  C   UNL A   1      33.553  32.438  27.689  1.00  0.00     0.338 C 
ATOM     26  O   UNL A   1      33.202  33.570  28.003  1.00  0.00    -0.246 OA
BRANCH  25  27
ATOM     27  C   UNL A   1      34.934  31.973  27.909  1.00  0.00     0.060 A 
ATOM     28  C   UNL A   1      35.128  30.590  28.004  1.00  0.00     0.016 A 
ATOM     29  C   UNL A   1      35.994  32.855  28.140  1.00  0.00     0.016 A 
ATOM     30  C   UNL A   1      36.355  30.084  28.421  1.00  0.00     0.010 A 
ATOM     31  C   UNL A   1      37.229  32.344  28.562  1.00  0.00     0.010 A 
ATOM     32  C   UNL A   1      37.394  30.961  28.758  1.00  0.00    -0.014 A 
BRANCH  32  33
ATOM     33  C   UNL A   1      38.560  30.416  29.498  1.00  0.00     0.031 A 
ATOM     34  C   UNL A   1      38.753  30.809  30.939  1.00  0.00     0.074 A 
ATOM     35  C   UNL A   1      39.376  29.511  28.932  1.00  0.00     0.049 A 
ATOM     36  N   UNL A   1      39.639  30.388  31.806  1.00  0.00    -0.248 NA
ATOM     37  C   UNL A   1      37.816  31.810  31.476  1.00  0.00     0.031 C 
ATOM     38  C   UNL A   1      39.273  29.025  27.558  1.00  0.00     0.029 A 
ATOM     39  N   UNL A   1      40.446  28.827  29.455  1.00  0.00    -0.354 N 
ATOM     40  C   UNL A   1      39.362  31.064  32.987  1.00  0.00     0.074 A 
ATOM     41  C   UNL A   1      38.253  31.953  32.718  1.00  0.00     0.031 C 
ATOM     42  C   UNL A   1      40.240  28.115  27.346  1.00  0.00     0.029 A 
ATOM     43  C   UNL A   1      41.037  27.967  28.564  1.00  0.00     0.049 A 
ATOM     44  H   UNL A   1      40.759  28.944  30.381  1.00  0.00     0.167 HD
ATOM     45  C   UNL A   1      39.967  30.945  34.193  1.00  0.00     0.037 A 
ATOM     46  C   UNL A   1      42.098  27.153  28.718  1.00  0.00     0.037 A 
ATOM     47  C   UNL A   1      41.068  30.061  34.466  1.00  0.00     0.049 A 
ATOM     48  C   UNL A   1      42.784  27.072  30.057  1.00  0.00     0.074 A 
ATOM     49  C   UNL A   1      41.743  29.861  35.658  1.00  0.00     0.029 A 
ATOM     50  N   UNL A   1      41.662  29.231  33.526  1.00  0.00    -0.354 N 
ATOM     51  N   UNL A   1      42.493  27.690  31.176  1.00  0.00    -0.248 NA
ATOM     52  C   UNL A   1      43.939  26.169  30.155  1.00  0.00     0.031 C 
ATOM     53  C   UNL A   1      42.771  28.939  35.430  1.00  0.00     0.029 A 
ATOM     54  C   UNL A   1      42.707  28.530  34.107  1.00  0.00     0.049 A 
ATOM     55  H   UNL A   1      41.382  29.151  32.586  1.00  0.00     0.167 HD
ATOM     56  C   UNL A   1      43.408  27.231  32.116  1.00  0.00     0.074 A 
ATOM     57  C   UNL A   1      44.254  26.271  31.439  1.00  0.00     0.031 C 
ATOM     58  C   UNL A   1      43.535  27.572  33.421  1.00  0.00     0.037 A 
BRANCH  45  59
ATOM     59  C   UNL A   1      39.457  31.809  35.309  1.00  0.00     0.064 A 
ATOM     60  C   UNL A   1      38.536  31.326  36.251  1.00  0.00     0.173 A 
ATOM     61  C   UNL A   1      39.914  33.128  35.453  1.00  0.00     0.173 A 
ATOM     62  F   UNL A   1      38.057  30.078  36.148  1.00  0.00    -0.203 F 
ATOM     63  C   UNL A   1      38.073  32.141  37.281  1.00  0.00     0.198 A 
ATOM     64  C   UNL A   1      39.469  33.930  36.499  1.00  0.00     0.198 A 
ATOM     65  F   UNL A   1      40.797  33.637  34.580  1.00  0.00    -0.203 F 
ATOM     66  F   UNL A   1      37.161  31.673  38.144  1.00  0.00    -0.200 F 
ATOM     67  C   UNL A   1      38.545  33.439  37.408  1.00  0.00     0.200 A 
ATOM     68  F   UNL A   1      39.932  35.182  36.627  1.00  0.00    -0.200 F 
ATOM     69  F   UNL A   1      38.101  34.220  38.404  1.00  0.00    -0.200 F 
ENDBRANCH  45  59
BRANCH  46  70
ATOM     70  C   UNL A   1      42.575  26.335  27.573  1.00  0.00     0.064 A 
ATOM     71  C   UNL A   1      42.042  25.065  27.315  1.00  0.00     0.173 A 
ATOM     72  C   UNL A   1      43.591  26.802  26.725  1.00  0.00     0.173 A 
ATOM     73  F   UNL A   1      41.087  24.566  28.114  1.00  0.00    -0.203 F 
ATOM     74  C   UNL A   1      42.518  24.285  26.263  1.00  0.00     0.198 A 
ATOM     75  C   UNL A   1      44.047  26.031  25.658  1.00  0.00     0.198 A 
ATOM     76  F   UNL A   1      44.136  28.009  26.931  1.00  0.00    -0.203 F 
ATOM     77  F   UNL A   1      42.021  23.056  26.066  1.00  0.00    -0.200 F 
ATOM     78  C   UNL A   1      43.515  24.770  25.433  1.00  0.00     0.200 A 
ATOM     79  F   UNL A   1      45.006  26.508  24.852  1.00  0.00    -0.200 F 
ATOM     80  F   UNL A   1      43.972  24.020  24.420  1.00  0.00    -0.200 F 
ENDBRANCH  46  70
BRANCH  58  81
ATOM     81  C   UNL A   1      44.607  26.880  34.211  1.00  0.00     0.064 A 
ATOM     82  C   UNL A   1      45.894  27.423  34.340  1.00  0.00     0.173 A 
ATOM     83  C   UNL A   1      44.333  25.673  34.872  1.00  0.00     0.173 A 
ATOM     84  F   UNL A   1      46.209  28.568  33.716  1.00  0.00    -0.203 F 
ATOM     85  C   UNL A   1      46.877  26.766  35.075  1.00  0.00     0.198 A 
ATOM     86  C   UNL A   1      45.310  25.033  35.630  1.00  0.00     0.198 A 
ATOM     87  F   UNL A   1      43.116  25.117  34.788  1.00  0.00    -0.203 F 
ATOM     88  F   UNL A   1      48.114  27.276  35.142  1.00  0.00    -0.200 F 
ATOM     89  C   UNL A   1      46.584  25.575  35.724  1.00  0.00     0.200 A 
ATOM     90  F   UNL A   1      45.022  23.890  36.266  1.00  0.00    -0.200 F 
ATOM     91  F   UNL A   1      47.530  24.945  36.432  1.00  0.00    -0.200 F 
ENDBRANCH  58  81
ENDBRANCH  32  33
ENDBRANCH  25  27
ENDBRANCH  24  25
ENDBRANCH  23  24
ENDBRANCH   1  23
TORSDOF 15
ENDMDL
MODEL 3
REMARK VINA RESULT:     -11.7      4.539      6.877
REMARK SMILES C[C@H]1[C@H](C(=O)OCCOCCOC(=O)c2ccc(-c3c4nc(c(-c5c(F)c(F)c(F)c(F)c5F)c5ccc([nH]5)c(-c5c(F)c(F)c(F)c(F)c5F)c5nc(c(-c6c(F)c(F)c(F)c(F)c6F)c6ccc3[nH]6)C=C5)C=C4)cc2)CCN1c1ncnc2sccc12
REMARK SMILES IDX 10 1 9 2 8 3 7 4 6 5 4 6 5 7 3 8 1 9 2 10 80 11 78 12 79 13
REMARK SMILES IDX 81 14 82 15 89 16 83 17 85 18 88 19 84 20 86 21 87 22 11 23
REMARK SMILES IDX 12 24 13 25 14 26 15 27 16 28 77 29 17 30 76 31 18 32 19 33
REMARK SMILES IDX 20 34 70 35 21 36 75 37 69 38 71 39 22 40 74 41 68 42 67 43
REMARK SMILES IDX 23 45 55 46 35 47 54 48 36 49 39 50 53 51 72 52 37 53 38 54
REMARK SMILES IDX 52 56 73 57 40 58 24 59 25 60 33 61 26 62 27 63 31 64 34 65
REMARK SMILES IDX 28 66 29 67 32 68 30 69 56 70 57 71 65 72 58 73 59 74 63 75
REMARK SMILES IDX 66 76 60 77 61 78 64 79 62 80 41 81 42 82 50 83 43 84 44 85
REMARK SMILES IDX 48 86 51 87 45 88 46 89 49 90 47 91
REMARK H PARENT 71 44 39 55
REMARK Flexibility Score: inf
ROOT
ATOM      1  C   UNL A   1      36.326  20.259  24.921  1.00  0.00     0.202 C 
ENDROOT
BRANCH   1   2
ATOM      2  O   UNL A   1      35.796  21.396  25.601  1.00  0.00    -0.374 OA
BRANCH   2   3
ATOM      3  C   UNL A   1      34.385  21.597  25.545  1.00  0.00     0.202 C 
BRANCH   3   4
ATOM      4  C   UNL A   1      33.902  23.046  25.636  1.00  0.00     0.261 C 
BRANCH   4   5
ATOM      5  O   UNL A   1      34.785  23.957  24.954  1.00  0.00    -0.463 OA
BRANCH   5   6
ATOM      6  C   UNL A   1      34.545  24.138  23.628  1.00  0.00     0.311 C 
ATOM      7  O   UNL A   1      34.841  23.338  22.748  1.00  0.00    -0.252 OA
BRANCH   6   8
ATOM      8  C   UNL A   1      33.945  25.487  23.311  1.00  0.00     0.123 C 
ATOM      9  C   UNL A   1      32.399  25.686  21.338  1.00  0.00     0.032 C 
ATOM     10  C   UNL A   1      32.467  25.508  22.862  1.00  0.00     0.095 C 
ATOM     11  N   UNL A   1      31.895  26.670  23.567  1.00  0.00    -0.352 N 
ATOM     12  C   UNL A   1      34.001  26.351  24.558  1.00  0.00     0.039 C 
ATOM     13  C   UNL A   1      32.877  27.353  24.382  1.00  0.00     0.119 C 
BRANCH  11  14
ATOM     14  C   UNL A   1      30.555  26.991  23.502  1.00  0.00     0.141 A 
ATOM     15  N   UNL A   1      29.677  26.092  24.026  1.00  0.00    -0.219 NA
ATOM     16  C   UNL A   1      29.998  28.178  22.944  1.00  0.00     0.054 A 
ATOM     17  C   UNL A   1      28.359  26.329  23.984  1.00  0.00     0.225 A 
ATOM     18  C   UNL A   1      28.613  28.299  23.004  1.00  0.00     0.128 A 
ATOM     19  C   UNL A   1      30.544  29.345  22.288  1.00  0.00     0.026 A 
ATOM     20  N   UNL A   1      27.746  27.406  23.503  1.00  0.00    -0.225 NA
ATOM     21  S   UNL A   1      28.026  29.766  22.358  1.00  0.00    -0.124 S 
ATOM     22  C   UNL A   1      29.594  30.285  21.951  1.00  0.00     0.068 A 
ENDBRANCH  11  14
ENDBRANCH   6   8
ENDBRANCH   5   6
ENDBRANCH   4   5
ENDBRANCH   3   4
ENDBRANCH   2   3
ENDBRANCH   1   2
BRANCH   1  23
ATOM     23  C   UNL A   1      37.837  20.041  25.037  1.00  0.00     0.261 C 
BRANCH  23  24
ATOM     24  O   UNL A   1      38.531  21.258  25.371  1.00  0.00    -0.460 OA
BRANCH  24  25
ATOM     25  C   UNL A   1      39.635  21.081  26.128  1.00  0.00     0.338 C 
ATOM     26  O   UNL A   1      40.383  20.110  26.130  1.00  0.00    -0.246 OA
BRANCH  25  27
ATOM     27  C   UNL A   1      39.957  22.300  26.891  1.00  0.00     0.060 A 
ATOM     28  C   UNL A   1      39.257  23.463  26.548  1.00  0.00     0.016 A 
ATOM     29  C   UNL A   1      40.993  22.347  27.829  1.00  0.00     0.016 A 
ATOM     30  C   UNL A   1      39.650  24.693  27.067  1.00  0.00     0.010 A 
ATOM     31  C   UNL A   1      41.389  23.586  28.349  1.00  0.00     0.010 A 
ATOM     32  C   UNL A   1      40.755  24.768  27.925  1.00  0.00    -0.014 A 
BRANCH  32  33
ATOM     33  C   UNL A   1      41.342  26.104  28.199  1.00  0.00     0.031 A 
ATOM     34  C   UNL A   1      42.721  26.411  27.677  1.00  0.00     0.074 A 
ATOM     35  C   UNL A   1      40.625  27.061  28.812  1.00  0.00     0.049 A 
ATOM     36  N   UNL A   1      43.394  27.533  27.712  1.00  0.00    -0.248 NA
ATOM     37  C   UNL A   1      43.435  25.303  27.022  1.00  0.00     0.031 C 
ATOM     38  C   UNL A   1      39.270  26.898  29.332  1.00  0.00     0.029 A 
ATOM     39  N   UNL A   1      40.938  28.370  29.086  1.00  0.00    -0.354 N 
ATOM     40  C   UNL A   1      44.603  27.268  27.081  1.00  0.00     0.074 A 
ATOM     41  C   UNL A   1      44.590  25.871  26.707  1.00  0.00     0.031 C 
ATOM     42  C   UNL A   1      38.863  28.065  29.859  1.00  0.00     0.029 A 
ATOM     43  C   UNL A   1      39.935  29.052  29.726  1.00  0.00     0.049 A 
ATOM     44  H   UNL A   1      41.801  28.779  28.845  1.00  0.00     0.167 HD
ATOM     45  C   UNL A   1      45.626  28.116  26.821  1.00  0.00     0.037 A 
ATOM     46  C   UNL A   1      39.890  30.328  30.154  1.00  0.00     0.037 A 
ATOM     47  C   UNL A   1      45.642  29.507  27.188  1.00  0.00     0.049 A 
ATOM     48  C   UNL A   1      41.061  31.240  29.894  1.00  0.00     0.074 A 
ATOM     49  C   UNL A   1      46.628  30.451  26.959  1.00  0.00     0.029 A 
ATOM     50  N   UNL A   1      44.620  30.153  27.869  1.00  0.00    -0.354 N 
ATOM     51  N   UNL A   1      42.184  30.989  29.267  1.00  0.00    -0.248 NA
ATOM     52  C   UNL A   1      40.949  32.618  30.392  1.00  0.00     0.031 C 
ATOM     53  C   UNL A   1      46.221  31.659  27.538  1.00  0.00     0.029 A 
ATOM     54  C   UNL A   1      44.960  31.479  28.085  1.00  0.00     0.049 A 
ATOM     55  H   UNL A   1      43.778  29.731  28.155  1.00  0.00     0.167 HD
ATOM     56  C   UNL A   1      42.899  32.180  29.269  1.00  0.00     0.074 A 
ATOM     57  C   UNL A   1      42.075  33.159  29.948  1.00  0.00     0.031 C 
ATOM     58  C   UNL A   1      44.126  32.442  28.756  1.00  0.00     0.037 A 
BRANCH  45  59
ATOM     59  C   UNL A   1      46.826  27.554  26.116  1.00  0.00     0.064 A 
ATOM     60  C   UNL A   1      47.870  26.936  26.821  1.00  0.00     0.173 A 
ATOM     61  C   UNL A   1      46.920  27.611  24.718  1.00  0.00     0.173 A 
ATOM     62  F   UNL A   1      47.834  26.869  28.160  1.00  0.00    -0.203 F 
ATOM     63  C   UNL A   1      48.977  26.418  26.152  1.00  0.00     0.198 A 
ATOM     64  C   UNL A   1      48.015  27.070  24.051  1.00  0.00     0.198 A 
ATOM     65  F   UNL A   1      45.948  28.189  23.997  1.00  0.00    -0.203 F 
ATOM     66  F   UNL A   1      49.982  25.871  26.848  1.00  0.00    -0.200 F 
ATOM     67  C   UNL A   1      49.044  26.479  24.768  1.00  0.00     0.200 A 
ATOM     68  F   UNL A   1      48.076  27.120  22.713  1.00  0.00    -0.200 F 
ATOM     69  F   UNL A   1      50.108  25.976  24.126  1.00  0.00    -0.200 F 
ENDBRANCH  45  59
BRANCH  46  70
ATOM     70  C   UNL A   1      38.685  30.827  30.866  1.00  0.00     0.064 A 
ATOM     71  C   UNL A   1      37.604  31.378  30.165  1.00  0.00     0.173 A 
ATOM     72  C   UNL A   1      38.602  30.781  32.266  1.00  0.00     0.173 A 
ATOM     73  F   UNL A   1      37.649  31.466  28.828  1.00  0.00    -0.203 F 
ATOM     74  C   UNL A   1      36.491  31.880  30.838  1.00  0.00     0.198 A 
ATOM     75  C   UNL A   1      37.478  31.260  32.935  1.00  0.00     0.198 A 
ATOM     76  F   UNL A   1      39.612  30.267  32.982  1.00  0.00    -0.203 F 
ATOM     77  F   UNL A   1      35.491  32.441  30.146  1.00  0.00    -0.200 F 
ATOM     78  C   UNL A   1      36.427  31.816  32.221  1.00  0.00     0.200 A 
ATOM     79  F   UNL A   1      37.416  31.188  34.272  1.00  0.00    -0.200 F 
ATOM     80  F   UNL A   1      35.357  32.297  32.868  1.00  0.00    -0.200 F 
ENDBRANCH  46  70
BRANCH  58  81
ATOM     81  C   UNL A   1      44.637  33.847  28.879  1.00  0.00     0.064 A 
ATOM     82  C   UNL A   1      44.357  34.820  27.907  1.00  0.00     0.173 A 
ATOM     83  C   UNL A   1      45.392  34.233  29.997  1.00  0.00     0.173 A 
ATOM     84  F   UNL A   1      43.651  34.498  26.813  1.00  0.00    -0.203 F 
ATOM     85  C   UNL A   1      44.841  36.119  28.036  1.00  0.00     0.198 A 
ATOM     86  C   UNL A   1      45.850  35.540  30.136  1.00  0.00     0.198 A 
ATOM     87  F   UNL A   1      45.679  33.343  30.958  1.00  0.00    -0.203 F 
ATOM     88  F   UNL A   1      44.606  37.019  27.071  1.00  0.00    -0.200 F 
ATOM     89  C   UNL A   1      45.582  36.480  29.152  1.00  0.00     0.200 A 
ATOM     90  F   UNL A   1      46.555  35.890  31.220  1.00  0.00    -0.200 F 
ATOM     91  F   UNL A   1      46.046  37.730  29.275  1.00  0.00    -0.200 F 
ENDBRANCH  58  81
ENDBRANCH  32  33
ENDBRANCH  25  27
ENDBRANCH  24  25
ENDBRANCH  23  24
ENDBRANCH   1  23
TORSDOF 15
ENDMDL
