MODEL 1
REMARK VINA RESULT:     -11.4      0.000      0.000
REMARK SMILES Cc1onc(-c2cccc(Br)c2)c1C(=O)OCCOCCOC(=O)c1ccc(-c2c3nc(c(-c4c(F)c(F)c(F)c(F)c4F)c4ccc([nH]4)c(-c4c(F)c(F)c(F)c(F)c4F)c4nc(c(-c5c(F)c(F)c(F)c(F)c5F)c5ccc2[nH]5)C=C4)C=C3)cc1
REMARK SMILES IDX 20 1 19 2 18 3 17 4 16 5 14 6 15 7 13 8 1 9 2 10 3 11 4 12
REMARK SMILES IDX 5 13 6 14 7 15 12 16 8 17 10 18 9 19 11 20 21 21 22 22 23 23
REMARK SMILES IDX 24 24 25 25 26 26 87 27 27 28 86 29 28 30 29 31 30 32 80 33
REMARK SMILES IDX 31 34 85 35 79 36 81 37 32 38 84 39 78 40 77 41 33 43 65 44
REMARK SMILES IDX 45 45 64 46 46 47 49 48 63 49 82 50 47 51 48 52 62 54 83 55
REMARK SMILES IDX 50 56 34 57 35 58 43 59 36 60 37 61 41 62 44 63 38 64 39 65
REMARK SMILES IDX 42 66 40 67 66 68 67 69 75 70 68 71 69 72 73 73 76 74 70 75
REMARK SMILES IDX 71 76 74 77 72 78 51 79 52 80 60 81 53 82 54 83 58 84 61 85
REMARK SMILES IDX 55 86 56 87 59 88 57 89
REMARK H PARENT 81 42 49 53
REMARK Flexibility Score: inf
ROOT
ATOM      1  C   UNL A   1      31.972  29.645  25.321  1.00  0.00     0.202 C 
ENDROOT
BRANCH   1   2
ATOM      2  O   UNL A   1      33.250  29.578  24.686  1.00  0.00    -0.374 OA
BRANCH   2   3
ATOM      3  C   UNL A   1      33.438  28.487  23.778  1.00  0.00     0.202 C 
BRANCH   3   4
ATOM      4  C   UNL A   1      32.444  27.346  24.012  1.00  0.00     0.261 C 
BRANCH   4   5
ATOM      5  O   UNL A   1      33.187  26.128  24.206  1.00  0.00    -0.459 OA
BRANCH   5   6
ATOM      6  C   UNL A   1      32.493  24.968  24.046  1.00  0.00     0.344 C 
ATOM      7  O   UNL A   1      32.301  24.419  22.971  1.00  0.00    -0.246 OA
BRANCH   6   8
ATOM      8  C   UNL A   1      32.124  24.383  25.313  1.00  0.00     0.130 A 
ATOM      9  C   UNL A   1      29.876  25.578  26.027  1.00  0.00     0.092 C 
ATOM     10  C   UNL A   1      31.041  24.675  26.118  1.00  0.00     0.148 A 
ATOM     11  O   UNL A   1      31.114  23.927  27.251  1.00  0.00    -0.360 OA
ATOM     12  N   UNL A   1      32.268  23.171  27.238  1.00  0.00    -0.079 NA
ATOM     13  C   UNL A   1      32.875  23.443  26.077  1.00  0.00     0.128 A 
BRANCH  13  14
ATOM     14  C   UNL A   1      34.198  22.922  25.777  1.00  0.00     0.006 A 
ATOM     15  C   UNL A   1      34.320  21.648  25.203  1.00  0.00     0.010 A 
ATOM     16  C   UNL A   1      35.345  23.643  26.119  1.00  0.00     0.026 A 
ATOM     17  C   UNL A   1      35.581  21.085  25.000  1.00  0.00     0.002 A 
ATOM     18  C   UNL A   1      36.601  23.077  25.902  1.00  0.00     0.018 A 
ATOM     19  C   UNL A   1      36.724  21.801  25.353  1.00  0.00     0.016 A 
ATOM     20  Br  UNL A   1      38.156  24.045  26.372  1.00  0.00    -0.051 Br
ENDBRANCH  13  14
ENDBRANCH   6   8
ENDBRANCH   5   6
ENDBRANCH   4   5
ENDBRANCH   3   4
ENDBRANCH   2   3
ENDBRANCH   1   2
BRANCH   1  21
ATOM     21  C   UNL A   1      31.778  30.911  26.157  1.00  0.00     0.261 C 
BRANCH  21  22
ATOM     22  O   UNL A   1      32.581  30.836  27.347  1.00  0.00    -0.460 OA
BRANCH  22  23
ATOM     23  C   UNL A   1      33.364  31.917  27.567  1.00  0.00     0.338 C 
ATOM     24  O   UNL A   1      33.030  33.090  27.541  1.00  0.00    -0.246 OA
BRANCH  23  25
ATOM     25  C   UNL A   1      34.708  31.479  27.998  1.00  0.00     0.060 A 
ATOM     26  C   UNL A   1      34.887  30.112  28.242  1.00  0.00     0.016 A 
ATOM     27  C   UNL A   1      35.768  32.374  28.185  1.00  0.00     0.016 A 
ATOM     28  C   UNL A   1      36.108  29.642  28.717  1.00  0.00     0.010 A 
ATOM     29  C   UNL A   1      36.992  31.902  28.669  1.00  0.00     0.010 A 
ATOM     30  C   UNL A   1      37.155  30.539  28.966  1.00  0.00    -0.014 A 
BRANCH  30  31
ATOM     31  C   UNL A   1      38.360  30.058  29.675  1.00  0.00     0.031 A 
ATOM     32  C   UNL A   1      38.623  30.547  31.070  1.00  0.00     0.074 A 
ATOM     33  C   UNL A   1      39.181  29.160  29.105  1.00  0.00     0.049 A 
ATOM     34  N   UNL A   1      39.575  30.211  31.901  1.00  0.00    -0.248 NA
ATOM     35  C   UNL A   1      37.682  31.548  31.602  1.00  0.00     0.031 C 
ATOM     36  C   UNL A   1      39.018  28.597  27.766  1.00  0.00     0.029 A 
ATOM     37  N   UNL A   1      40.316  28.563  29.588  1.00  0.00    -0.354 N 
ATOM     38  C   UNL A   1      39.341  30.944  33.056  1.00  0.00     0.074 A 
ATOM     39  C   UNL A   1      38.176  31.767  32.811  1.00  0.00     0.031 C 
ATOM     40  C   UNL A   1      40.024  27.736  27.532  1.00  0.00     0.029 A 
ATOM     41  C   UNL A   1      40.901  27.695  28.701  1.00  0.00     0.049 A 
ATOM     42  H   UNL A   1      40.678  28.741  30.486  1.00  0.00     0.167 HD
ATOM     43  C   UNL A   1      40.028  30.922  34.221  1.00  0.00     0.037 A 
ATOM     44  C   UNL A   1      42.019  26.957  28.823  1.00  0.00     0.037 A 
ATOM     45  C   UNL A   1      41.190  30.114  34.467  1.00  0.00     0.049 A 
ATOM     46  C   UNL A   1      42.801  26.997  30.108  1.00  0.00     0.074 A 
ATOM     47  C   UNL A   1      41.941  30.008  35.625  1.00  0.00     0.029 A 
ATOM     48  N   UNL A   1      41.776  29.278  33.530  1.00  0.00    -0.354 N 
ATOM     49  N   UNL A   1      42.545  27.658  31.210  1.00  0.00    -0.248 NA
ATOM     50  C   UNL A   1      44.026  26.185  30.165  1.00  0.00     0.031 C 
ATOM     51  C   UNL A   1      43.002  29.129  35.377  1.00  0.00     0.029 A 
ATOM     52  C   UNL A   1      42.894  28.670  34.074  1.00  0.00     0.049 A 
ATOM     53  H   UNL A   1      41.446  29.138  32.613  1.00  0.00     0.167 HD
ATOM     54  C   UNL A   1      43.560  27.328  32.098  1.00  0.00     0.074 A 
ATOM     55  C   UNL A   1      44.436  26.403  31.408  1.00  0.00     0.031 C 
ATOM     56  C   UNL A   1      43.750  27.752  33.370  1.00  0.00     0.037 A 
BRANCH  43  57
ATOM     57  C   UNL A   1      39.536  31.813  35.319  1.00  0.00     0.064 A 
ATOM     58  C   UNL A   1      39.981  33.137  35.434  1.00  0.00     0.173 A 
ATOM     59  C   UNL A   1      38.602  31.343  36.253  1.00  0.00     0.173 A 
ATOM     60  F   UNL A   1      40.888  33.622  34.573  1.00  0.00    -0.203 F 
ATOM     61  C   UNL A   1      39.515  33.959  36.457  1.00  0.00     0.198 A 
ATOM     62  C   UNL A   1      38.127  32.173  37.264  1.00  0.00     0.198 A 
ATOM     63  F   UNL A   1      38.153  30.081  36.183  1.00  0.00    -0.203 F 
ATOM     64  F   UNL A   1      39.975  35.213  36.568  1.00  0.00    -0.200 F 
ATOM     65  C   UNL A   1      38.586  33.478  37.368  1.00  0.00     0.200 A 
ATOM     66  F   UNL A   1      37.230  31.708  38.144  1.00  0.00    -0.200 F 
ATOM     67  F   UNL A   1      38.140  34.270  38.352  1.00  0.00    -0.200 F 
ENDBRANCH  43  57
BRANCH  44  68
ATOM     68  C   UNL A   1      42.467  26.106  27.694  1.00  0.00     0.064 A 
ATOM     69  C   UNL A   1      43.434  26.560  26.788  1.00  0.00     0.173 A 
ATOM     70  C   UNL A   1      41.930  24.827  27.497  1.00  0.00     0.173 A 
ATOM     71  F   UNL A   1      43.958  27.786  26.926  1.00  0.00    -0.203 F 
ATOM     72  C   UNL A   1      43.841  25.766  25.717  1.00  0.00     0.198 A 
ATOM     73  C   UNL A   1      42.349  24.028  26.436  1.00  0.00     0.198 A 
ATOM     74  F   UNL A   1      40.998  24.353  28.338  1.00  0.00    -0.203 F 
ATOM     75  F   UNL A   1      44.745  26.232  24.846  1.00  0.00    -0.200 F 
ATOM     76  C   UNL A   1      43.301  24.500  25.545  1.00  0.00     0.200 A 
ATOM     77  F   UNL A   1      41.830  22.803  26.275  1.00  0.00    -0.200 F 
ATOM     78  F   UNL A   1      43.694  23.736  24.515  1.00  0.00    -0.200 F 
ENDBRANCH  44  68
BRANCH  56  79
ATOM     79  C   UNL A   1      44.937  27.210  34.104  1.00  0.00     0.064 A 
ATOM     80  C   UNL A   1      44.863  26.006  34.818  1.00  0.00     0.173 A 
ATOM     81  C   UNL A   1      46.170  27.875  34.053  1.00  0.00     0.173 A 
ATOM     82  F   UNL A   1      43.699  25.345  34.905  1.00  0.00    -0.203 F 
ATOM     83  C   UNL A   1      45.982  25.492  35.466  1.00  0.00     0.198 A 
ATOM     84  C   UNL A   1      47.292  27.349  34.687  1.00  0.00     0.198 A 
ATOM     85  F   UNL A   1      46.288  29.029  33.379  1.00  0.00    -0.203 F 
ATOM     86  F   UNL A   1      45.885  24.354  36.167  1.00  0.00    -0.200 F 
ATOM     87  C   UNL A   1      47.196  26.160  35.396  1.00  0.00     0.200 A 
ATOM     88  F   UNL A   1      48.465  27.992  34.615  1.00  0.00    -0.200 F 
ATOM     89  F   UNL A   1      48.273  25.661  36.017  1.00  0.00    -0.200 F 
ENDBRANCH  56  79
ENDBRANCH  30  31
ENDBRANCH  23  25
ENDBRANCH  22  23
ENDBRANCH  21  22
ENDBRANCH   1  21
TORSDOF 15
ENDMDL
MODEL 2
REMARK VINA RESULT:     -11.4      0.397      1.658
REMARK SMILES Cc1onc(-c2cccc(Br)c2)c1C(=O)OCCOCCOC(=O)c1ccc(-c2c3nc(c(-c4c(F)c(F)c(F)c(F)c4F)c4ccc([nH]4)c(-c4c(F)c(F)c(F)c(F)c4F)c4nc(c(-c5c(F)c(F)c(F)c(F)c5F)c5ccc2[nH]5)C=C4)C=C3)cc1
REMARK SMILES IDX 20 1 19 2 18 3 17 4 16 5 14 6 15 7 13 8 1 9 2 10 3 11 4 12
REMARK SMILES IDX 5 13 6 14 7 15 12 16 8 17 10 18 9 19 11 20 21 21 22 22 23 23
REMARK SMILES IDX 24 24 25 25 26 26 87 27 27 28 86 29 28 30 29 31 30 32 80 33
REMARK SMILES IDX 31 34 85 35 79 36 81 37 32 38 84 39 78 40 77 41 33 43 65 44
REMARK SMILES IDX 45 45 64 46 46 47 49 48 63 49 82 50 47 51 48 52 62 54 83 55
REMARK SMILES IDX 50 56 34 57 35 58 43 59 36 60 37 61 41 62 44 63 38 64 39 65
REMARK SMILES IDX 42 66 40 67 66 68 67 69 75 70 68 71 69 72 73 73 76 74 70 75
REMARK SMILES IDX 71 76 74 77 72 78 51 79 52 80 60 81 53 82 54 83 58 84 61 85
REMARK SMILES IDX 55 86 56 87 59 88 57 89
REMARK H PARENT 81 42 49 53
REMARK Flexibility Score: inf
ROOT
ATOM      1  C   UNL A   1      31.623  29.039  25.348  1.00  0.00     0.202 C 
ENDROOT
BRANCH   1   2
ATOM      2  O   UNL A   1      32.712  28.188  25.713  1.00  0.00    -0.374 OA
BRANCH   2   3
ATOM      3  C   UNL A   1      33.779  28.100  24.763  1.00  0.00     0.202 C 
BRANCH   3   4
ATOM      4  C   UNL A   1      33.458  27.157  23.601  1.00  0.00     0.261 C 
BRANCH   4   5
ATOM      5  O   UNL A   1      33.750  25.810  24.014  1.00  0.00    -0.459 OA
BRANCH   5   6
ATOM      6  C   UNL A   1      32.716  24.926  23.960  1.00  0.00     0.344 C 
ATOM      7  O   UNL A   1      32.208  24.518  22.927  1.00  0.00    -0.246 OA
BRANCH   6   8
ATOM      8  C   UNL A   1      32.374  24.418  25.268  1.00  0.00     0.130 A 
ATOM      9  C   UNL A   1      30.136  25.647  25.954  1.00  0.00     0.092 C 
ATOM     10  C   UNL A   1      31.306  24.756  26.076  1.00  0.00     0.148 A 
ATOM     11  O   UNL A   1      31.406  24.078  27.251  1.00  0.00    -0.360 OA
ATOM     12  N   UNL A   1      32.562  23.325  27.260  1.00  0.00    -0.079 NA
ATOM     13  C   UNL A   1      33.145  23.529  26.072  1.00  0.00     0.128 A 
BRANCH  13  14
ATOM     14  C   UNL A   1      34.464  22.994  25.778  1.00  0.00     0.006 A 
ATOM     15  C   UNL A   1      34.575  21.720  25.203  1.00  0.00     0.010 A 
ATOM     16  C   UNL A   1      35.616  23.703  26.126  1.00  0.00     0.026 A 
ATOM     17  C   UNL A   1      35.831  21.145  25.004  1.00  0.00     0.002 A 
ATOM     18  C   UNL A   1      36.867  23.125  25.914  1.00  0.00     0.018 A 
ATOM     19  C   UNL A   1      36.980  21.848  25.364  1.00  0.00     0.016 A 
ATOM     20  Br  UNL A   1      38.431  24.075  26.393  1.00  0.00    -0.051 Br
ENDBRANCH  13  14
ENDBRANCH   6   8
ENDBRANCH   5   6
ENDBRANCH   4   5
ENDBRANCH   3   4
ENDBRANCH   2   3
ENDBRANCH   1   2
BRANCH   1  21
ATOM     21  C   UNL A   1      31.776  30.471  25.864  1.00  0.00     0.261 C 
BRANCH  21  22
ATOM     22  O   UNL A   1      32.516  30.468  27.095  1.00  0.00    -0.460 OA
BRANCH  22  23
ATOM     23  C   UNL A   1      33.245  31.587  27.318  1.00  0.00     0.338 C 
ATOM     24  O   UNL A   1      32.857  32.743  27.272  1.00  0.00    -0.246 OA
BRANCH  23  25
ATOM     25  C   UNL A   1      34.600  31.217  27.777  1.00  0.00     0.060 A 
ATOM     26  C   UNL A   1      34.846  29.859  28.011  1.00  0.00     0.016 A 
ATOM     27  C   UNL A   1      35.605  32.165  28.001  1.00  0.00     0.016 A 
ATOM     28  C   UNL A   1      36.079  29.449  28.512  1.00  0.00     0.010 A 
ATOM     29  C   UNL A   1      36.840  31.754  28.511  1.00  0.00     0.010 A 
ATOM     30  C   UNL A   1      37.069  30.398  28.797  1.00  0.00    -0.014 A 
BRANCH  30  31
ATOM     31  C   UNL A   1      38.280  29.973  29.531  1.00  0.00     0.031 A 
ATOM     32  C   UNL A   1      38.508  30.501  30.918  1.00  0.00     0.074 A 
ATOM     33  C   UNL A   1      39.138  29.092  28.990  1.00  0.00     0.049 A 
ATOM     34  N   UNL A   1      39.460  30.215  31.768  1.00  0.00    -0.248 NA
ATOM     35  C   UNL A   1      37.527  31.480  31.416  1.00  0.00     0.031 C 
ATOM     36  C   UNL A   1      39.012  28.495  27.662  1.00  0.00     0.029 A 
ATOM     37  N   UNL A   1      40.287  28.545  29.500  1.00  0.00    -0.354 N 
ATOM     38  C   UNL A   1      39.187  30.964  32.904  1.00  0.00     0.074 A 
ATOM     39  C   UNL A   1      37.998  31.742  32.627  1.00  0.00     0.031 C 
ATOM     40  C   UNL A   1      40.049  27.664  27.460  1.00  0.00     0.029 A 
ATOM     41  C   UNL A   1      40.912  27.678  28.639  1.00  0.00     0.049 A 
ATOM     42  H   UNL A   1      40.631  28.754  30.399  1.00  0.00     0.167 HD
ATOM     43  C   UNL A   1      39.859  30.991  34.077  1.00  0.00     0.037 A 
ATOM     44  C   UNL A   1      42.053  26.981  28.791  1.00  0.00     0.037 A 
ATOM     45  C   UNL A   1      41.044  30.229  34.355  1.00  0.00     0.049 A 
ATOM     46  C   UNL A   1      42.816  27.075  30.085  1.00  0.00     0.074 A 
ATOM     47  C   UNL A   1      41.783  30.173  35.524  1.00  0.00     0.029 A 
ATOM     48  N   UNL A   1      41.671  29.393  33.443  1.00  0.00    -0.354 N 
ATOM     49  N   UNL A   1      42.523  27.750  31.169  1.00  0.00    -0.248 NA
ATOM     50  C   UNL A   1      44.067  26.307  30.175  1.00  0.00     0.031 C 
ATOM     51  C   UNL A   1      42.877  29.326  35.308  1.00  0.00     0.029 A 
ATOM     52  C   UNL A   1      42.801  28.836  34.013  1.00  0.00     0.049 A 
ATOM     53  H   UNL A   1      41.357  29.222  32.525  1.00  0.00     0.167 HD
ATOM     54  C   UNL A   1      43.538  27.475  32.075  1.00  0.00     0.074 A 
ATOM     55  C   UNL A   1      44.453  26.566  31.417  1.00  0.00     0.031 C 
ATOM     56  C   UNL A   1      43.697  27.932  33.341  1.00  0.00     0.037 A 
BRANCH  43  57
ATOM     57  C   UNL A   1      39.323  31.888  35.149  1.00  0.00     0.064 A 
ATOM     58  C   UNL A   1      39.639  33.253  35.178  1.00  0.00     0.173 A 
ATOM     59  C   UNL A   1      38.477  31.381  36.144  1.00  0.00     0.173 A 
ATOM     60  F   UNL A   1      40.459  33.777  34.255  1.00  0.00    -0.203 F 
ATOM     61  C   UNL A   1      39.132  34.080  36.177  1.00  0.00     0.198 A 
ATOM     62  C   UNL A   1      37.961  32.214  37.133  1.00  0.00     0.198 A 
ATOM     63  F   UNL A   1      38.154  30.079  36.158  1.00  0.00    -0.203 F 
ATOM     64  F   UNL A   1      39.469  35.377  36.206  1.00  0.00    -0.200 F 
ATOM     65  C   UNL A   1      38.291  33.561  37.151  1.00  0.00     0.200 A 
ATOM     66  F   UNL A   1      37.148  31.712  38.073  1.00  0.00    -0.200 F 
ATOM     67  F   UNL A   1      37.806  34.358  38.112  1.00  0.00    -0.200 F 
ENDBRANCH  43  57
BRANCH  44  68
ATOM     68  C   UNL A   1      42.544  26.122  27.687  1.00  0.00     0.064 A 
ATOM     69  C   UNL A   1      42.082  24.810  27.533  1.00  0.00     0.173 A 
ATOM     70  C   UNL A   1      43.492  26.598  26.769  1.00  0.00     0.173 A 
ATOM     71  F   UNL A   1      41.193  24.307  28.401  1.00  0.00    -0.203 F 
ATOM     72  C   UNL A   1      42.558  23.998  26.504  1.00  0.00     0.198 A 
ATOM     73  C   UNL A   1      43.954  25.792  25.732  1.00  0.00     0.198 A 
ATOM     74  F   UNL A   1      43.965  27.848  26.881  1.00  0.00    -0.203 F 
ATOM     75  F   UNL A   1      42.124  22.736  26.395  1.00  0.00    -0.200 F 
ATOM     76  C   UNL A   1      43.490  24.491  25.604  1.00  0.00     0.200 A 
ATOM     77  F   UNL A   1      44.851  26.273  24.861  1.00  0.00    -0.200 F 
ATOM     78  F   UNL A   1      43.947  23.711  24.614  1.00  0.00    -0.200 F 
ENDBRANCH  44  68
BRANCH  56  79
ATOM     79  C   UNL A   1      44.892  27.447  34.101  1.00  0.00     0.064 A 
ATOM     80  C   UNL A   1      46.097  28.163  34.095  1.00  0.00     0.173 A 
ATOM     81  C   UNL A   1      44.817  26.282  34.878  1.00  0.00     0.173 A 
ATOM     82  F   UNL A   1      46.217  29.274  33.354  1.00  0.00    -0.203 F 
ATOM     83  C   UNL A   1      47.191  27.722  34.834  1.00  0.00     0.198 A 
ATOM     84  C   UNL A   1      45.907  25.854  35.630  1.00  0.00     0.198 A 
ATOM     85  F   UNL A   1      43.683  25.567  34.915  1.00  0.00    -0.203 F 
ATOM     86  F   UNL A   1      48.343  28.405  34.795  1.00  0.00    -0.200 F 
ATOM     87  C   UNL A   1      47.093  26.573  35.605  1.00  0.00     0.200 A 
ATOM     88  F   UNL A   1      45.811  24.747  36.378  1.00  0.00    -0.200 F 
ATOM     89  F   UNL A   1      48.146  26.153  36.319  1.00  0.00    -0.200 F 
ENDBRANCH  56  79
ENDBRANCH  30  31
ENDBRANCH  23  25
ENDBRANCH  22  23
ENDBRANCH  21  22
ENDBRANCH   1  21
TORSDOF 15
ENDMDL
MODEL 3
REMARK VINA RESULT:     -11.4      1.920      3.263
REMARK SMILES Cc1onc(-c2cccc(Br)c2)c1C(=O)OCCOCCOC(=O)c1ccc(-c2c3nc(c(-c4c(F)c(F)c(F)c(F)c4F)c4ccc([nH]4)c(-c4c(F)c(F)c(F)c(F)c4F)c4nc(c(-c5c(F)c(F)c(F)c(F)c5F)c5ccc2[nH]5)C=C4)C=C3)cc1
REMARK SMILES IDX 20 1 19 2 18 3 17 4 16 5 14 6 15 7 13 8 1 9 2 10 3 11 4 12
REMARK SMILES IDX 5 13 6 14 7 15 12 16 8 17 10 18 9 19 11 20 21 21 22 22 23 23
REMARK SMILES IDX 24 24 25 25 26 26 87 27 27 28 86 29 28 30 29 31 30 32 80 33
REMARK SMILES IDX 31 34 85 35 79 36 81 37 32 38 84 39 78 40 77 41 33 43 65 44
REMARK SMILES IDX 45 45 64 46 46 47 49 48 63 49 82 50 47 51 48 52 62 54 83 55
REMARK SMILES IDX 50 56 34 57 35 58 43 59 36 60 37 61 41 62 44 63 38 64 39 65
REMARK SMILES IDX 42 66 40 67 66 68 67 69 75 70 68 71 69 72 73 73 76 74 70 75
REMARK SMILES IDX 71 76 74 77 72 78 51 79 52 80 60 81 53 82 54 83 58 84 61 85
REMARK SMILES IDX 55 86 56 87 59 88 57 89
REMARK H PARENT 81 42 49 53
REMARK Flexibility Score: inf
ROOT
ATOM      1  C   UNL A   1      31.847  29.791  25.516  1.00  0.00     0.202 C 
ENDROOT
BRANCH   1   2
ATOM      2  O   UNL A   1      33.126  29.559  24.923  1.00  0.00    -0.374 OA
BRANCH   2   3
ATOM      3  C   UNL A   1      33.692  28.264  25.151  1.00  0.00     0.202 C 
BRANCH   3   4
ATOM      4  C   UNL A   1      33.219  27.635  26.464  1.00  0.00     0.261 C 
BRANCH   4   5
ATOM      5  O   UNL A   1      32.771  26.294  26.192  1.00  0.00    -0.459 OA
BRANCH   5   6
ATOM      6  C   UNL A   1      31.424  26.097  26.192  1.00  0.00     0.344 C 
ATOM      7  O   UNL A   1      30.635  26.717  26.890  1.00  0.00    -0.246 OA
BRANCH   6   8
ATOM      8  C   UNL A   1      31.017  25.162  25.170  1.00  0.00     0.130 A 
ATOM      9  C   UNL A   1      31.584  22.763  26.125  1.00  0.00     0.092 C 
ATOM     10  C   UNL A   1      31.118  23.785  25.168  1.00  0.00     0.148 A 
ATOM     11  O   UNL A   1      30.667  23.308  23.977  1.00  0.00    -0.360 OA
ATOM     12  N   UNL A   1      30.312  24.359  23.157  1.00  0.00    -0.079 NA
ATOM     13  C   UNL A   1      30.522  25.472  23.871  1.00  0.00     0.128 A 
BRANCH  13  14
ATOM     14  C   UNL A   1      30.381  26.790  23.273  1.00  0.00     0.006 A 
ATOM     15  C   UNL A   1      31.469  27.354  22.591  1.00  0.00     0.010 A 
ATOM     16  C   UNL A   1      29.204  27.524  23.431  1.00  0.00     0.026 A 
ATOM     17  C   UNL A   1      31.391  28.656  22.096  1.00  0.00     0.002 A 
ATOM     18  C   UNL A   1      29.130  28.821  22.924  1.00  0.00     0.018 A 
ATOM     19  C   UNL A   1      30.219  29.392  22.266  1.00  0.00     0.016 A 
ATOM     20  Br  UNL A   1      27.542  29.823  23.145  1.00  0.00    -0.051 Br
ENDBRANCH  13  14
ENDBRANCH   6   8
ENDBRANCH   5   6
ENDBRANCH   4   5
ENDBRANCH   3   4
ENDBRANCH   2   3
ENDBRANCH   1   2
BRANCH   1  21
ATOM     21  C   UNL A   1      31.745  31.145  26.221  1.00  0.00     0.261 C 
BRANCH  21  22
ATOM     22  O   UNL A   1      32.496  31.114  27.446  1.00  0.00    -0.460 OA
BRANCH  22  23
ATOM     23  C   UNL A   1      33.317  32.174  27.632  1.00  0.00     0.338 C 
ATOM     24  O   UNL A   1      33.022  33.356  27.570  1.00  0.00    -0.246 OA
BRANCH  23  25
ATOM     25  C   UNL A   1      34.646  31.704  28.075  1.00  0.00     0.060 A 
ATOM     26  C   UNL A   1      34.781  30.339  28.354  1.00  0.00     0.016 A 
ATOM     27  C   UNL A   1      35.733  32.570  28.242  1.00  0.00     0.016 A 
ATOM     28  C   UNL A   1      35.986  29.842  28.843  1.00  0.00     0.010 A 
ATOM     29  C   UNL A   1      36.941  32.071  28.739  1.00  0.00     0.010 A 
ATOM     30  C   UNL A   1      37.060  30.711  29.070  1.00  0.00    -0.014 A 
BRANCH  30  31
ATOM     31  C   UNL A   1      38.249  30.209  29.793  1.00  0.00     0.031 A 
ATOM     32  C   UNL A   1      38.484  30.665  31.204  1.00  0.00     0.074 A 
ATOM     33  C   UNL A   1      39.079  29.322  29.219  1.00  0.00     0.049 A 
ATOM     34  N   UNL A   1      39.418  30.306  32.046  1.00  0.00    -0.248 NA
ATOM     35  C   UNL A   1      37.536  31.657  31.739  1.00  0.00     0.031 C 
ATOM     36  C   UNL A   1      38.943  28.791  27.864  1.00  0.00     0.029 A 
ATOM     37  N   UNL A   1      40.202  28.710  29.712  1.00  0.00    -0.354 N 
ATOM     38  C   UNL A   1      39.162  31.013  33.213  1.00  0.00     0.074 A 
ATOM     39  C   UNL A   1      38.005  31.846  32.963  1.00  0.00     0.031 C 
ATOM     40  C   UNL A   1      39.950  27.932  27.632  1.00  0.00     0.029 A 
ATOM     41  C   UNL A   1      40.802  27.861  28.817  1.00  0.00     0.049 A 
ATOM     42  H   UNL A   1      40.546  28.866  30.621  1.00  0.00     0.167 HD
ATOM     43  C   UNL A   1      39.825  30.962  34.391  1.00  0.00     0.037 A 
ATOM     44  C   UNL A   1      41.916  27.116  28.945  1.00  0.00     0.037 A 
ATOM     45  C   UNL A   1      40.979  30.145  34.643  1.00  0.00     0.049 A 
ATOM     46  C   UNL A   1      42.671  27.123  30.247  1.00  0.00     0.074 A 
ATOM     47  C   UNL A   1      41.705  30.009  35.813  1.00  0.00     0.029 A 
ATOM     48  N   UNL A   1      41.582  29.329  33.698  1.00  0.00    -0.354 N 
ATOM     49  N   UNL A   1      42.394  27.760  31.358  1.00  0.00    -0.248 NA
ATOM     50  C   UNL A   1      43.892  26.306  30.311  1.00  0.00     0.031 C 
ATOM     51  C   UNL A   1      42.769  29.133  35.567  1.00  0.00     0.029 A 
ATOM     52  C   UNL A   1      42.686  28.705  34.251  1.00  0.00     0.049 A 
ATOM     53  H   UNL A   1      41.271  29.211  32.772  1.00  0.00     0.167 HD
ATOM     54  C   UNL A   1      43.389  27.406  32.259  1.00  0.00     0.074 A 
ATOM     55  C   UNL A   1      44.277  26.494  31.567  1.00  0.00     0.031 C 
ATOM     56  C   UNL A   1      43.554  27.800  33.545  1.00  0.00     0.037 A 
BRANCH  43  57
ATOM     57  C   UNL A   1      39.313  31.829  35.499  1.00  0.00     0.064 A 
ATOM     58  C   UNL A   1      38.404  31.337  36.446  1.00  0.00     0.173 A 
ATOM     59  C   UNL A   1      39.747  33.156  35.624  1.00  0.00     0.173 A 
ATOM     60  F   UNL A   1      37.948  30.078  36.354  1.00  0.00    -0.203 F 
ATOM     61  C   UNL A   1      37.937  32.150  37.475  1.00  0.00     0.198 A 
ATOM     62  C   UNL A   1      39.289  33.961  36.662  1.00  0.00     0.198 A 
ATOM     63  F   UNL A   1      40.613  33.670  34.737  1.00  0.00    -0.203 F 
ATOM     64  F   UNL A   1      37.045  31.671  38.353  1.00  0.00    -0.200 F 
ATOM     65  C   UNL A   1      38.382  33.459  37.584  1.00  0.00     0.200 A 
ATOM     66  F   UNL A   1      39.720  35.225  36.768  1.00  0.00    -0.200 F 
ATOM     67  F   UNL A   1      37.930  34.240  38.575  1.00  0.00    -0.200 F 
ENDBRANCH  43  57
BRANCH  44  68
ATOM     68  C   UNL A   1      42.385  26.290  27.806  1.00  0.00     0.064 A 
ATOM     69  C   UNL A   1      41.877  25.004  27.590  1.00  0.00     0.173 A 
ATOM     70  C   UNL A   1      43.357  26.771  26.918  1.00  0.00     0.173 A 
ATOM     71  F   UNL A   1      40.962  24.496  28.428  1.00  0.00    -0.203 F 
ATOM     72  C   UNL A   1      42.331  24.222  26.529  1.00  0.00     0.198 A 
ATOM     73  C   UNL A   1      43.799  25.996  25.849  1.00  0.00     0.198 A 
ATOM     74  F   UNL A   1      43.875  27.997  27.089  1.00  0.00    -0.203 F 
ATOM     75  F   UNL A   1      41.852  22.983  26.360  1.00  0.00    -0.200 F 
ATOM     76  C   UNL A   1      43.289  24.720  25.658  1.00  0.00     0.200 A 
ATOM     77  F   UNL A   1      44.720  26.482  25.006  1.00  0.00    -0.200 F 
ATOM     78  F   UNL A   1      43.725  23.969  24.638  1.00  0.00    -0.200 F 
ENDBRANCH  44  68
BRANCH  56  79
ATOM     79  C   UNL A   1      44.724  27.237  34.290  1.00  0.00     0.064 A 
ATOM     80  C   UNL A   1      44.656  25.982  34.909  1.00  0.00     0.173 A 
ATOM     81  C   UNL A   1      45.938  27.938  34.344  1.00  0.00     0.173 A 
ATOM     82  F   UNL A   1      43.510  25.284  34.894  1.00  0.00    -0.203 F 
ATOM     83  C   UNL A   1      45.760  25.451  35.568  1.00  0.00     0.198 A 
ATOM     84  C   UNL A   1      47.045  27.397  34.989  1.00  0.00     0.198 A 
ATOM     85  F   UNL A   1      46.049  29.141  33.764  1.00  0.00    -0.203 F 
ATOM     86  F   UNL A   1      45.668  24.261  36.178  1.00  0.00    -0.200 F 
ATOM     87  C   UNL A   1      46.955  26.156  35.603  1.00  0.00     0.200 A 
ATOM     88  F   UNL A   1      48.201  28.075  35.019  1.00  0.00    -0.200 F 
ATOM     89  F   UNL A   1      48.019  25.641  36.234  1.00  0.00    -0.200 F 
ENDBRANCH  56  79
ENDBRANCH  30  31
ENDBRANCH  23  25
ENDBRANCH  22  23
ENDBRANCH  21  22
ENDBRANCH   1  21
TORSDOF 15
ENDMDL
