MODEL 1
REMARK VINA RESULT:     -11.8      0.000      0.000
REMARK SMILES C[C@H]1[C@H](C(=O)OCCOCCOC(=O)c2ccc(-c3c4nc(c(-c5c(F)c(F)c(F)c(F)c5F)c5ccc([nH]5)c(-c5c(F)c(F)c(F)c(F)c5F)c5nc(c(-c6c(F)c(F)c(F)c(F)c6F)c6ccc3[nH]6)C=C5)C=C4)cc2)CC[N@@H+]1Cc1ccc(C(F)(F)F)cc1
REMARK SMILES IDX 8 1 7 2 6 3 4 4 5 5 3 6 1 7 2 8 80 9 78 10 79 11 81 13 82 14
REMARK SMILES IDX 83 15 91 16 84 17 90 18 85 19 86 20 87 21 88 22 89 23 9 24
REMARK SMILES IDX 10 25 11 26 12 27 13 28 14 29 15 30 16 31 77 32 17 33 76 34
REMARK SMILES IDX 18 35 19 36 20 37 70 38 21 39 75 40 69 41 71 42 22 43 74 44
REMARK SMILES IDX 68 45 67 46 23 48 55 49 35 50 54 51 36 52 39 53 53 54 72 55
REMARK SMILES IDX 37 56 38 57 52 59 73 60 40 61 24 62 25 63 33 64 26 65 27 66
REMARK SMILES IDX 31 67 34 68 28 69 29 70 32 71 30 72 56 73 57 74 65 75 58 76
REMARK SMILES IDX 59 77 63 78 66 79 60 80 61 81 64 82 62 83 41 84 42 85 50 86
REMARK SMILES IDX 43 87 44 88 48 89 51 90 45 91 46 92 49 93 47 94
REMARK H PARENT 80 12 71 47 39 58
REMARK Flexibility Score: inf
ROOT
ATOM      1  C   UNL A   1      32.427  29.661  25.335  1.00  0.00     0.202 C 
ENDROOT
BRANCH   1   2
ATOM      2  C   UNL A   1      31.469  28.504  25.041  1.00  0.00     0.261 C 
BRANCH   2   3
ATOM      3  O   UNL A   1      31.466  27.585  26.149  1.00  0.00    -0.463 OA
BRANCH   3   4
ATOM      4  C   UNL A   1      32.217  26.468  26.010  1.00  0.00     0.315 C 
ATOM      5  O   UNL A   1      33.433  26.426  26.160  1.00  0.00    -0.252 OA
BRANCH   4   6
ATOM      6  C   UNL A   1      31.412  25.234  25.649  1.00  0.00     0.162 C 
ATOM      7  C   UNL A   1      30.606  24.505  23.362  1.00  0.00     0.076 C 
ATOM      8  C   UNL A   1      31.778  24.482  24.356  1.00  0.00     0.195 C 
ATOM      9  N   UNL A   1      31.999  23.076  24.730  1.00  0.00    -0.328 N 
ATOM     10  C   UNL A   1      31.535  24.213  26.769  1.00  0.00     0.083 C 
ATOM     11  C   UNL A   1      31.483  22.868  26.075  1.00  0.00     0.263 C 
ATOM     12  H   UNL A   1      31.465  22.490  24.088  1.00  0.00     0.348 HD
BRANCH   9  13
ATOM     13  C   UNL A   1      33.337  22.537  24.461  1.00  0.00     0.299 C 
BRANCH  13  14
ATOM     14  C   UNL A   1      33.474  21.033  24.343  1.00  0.00     0.006 A 
ATOM     15  C   UNL A   1      34.653  20.403  24.768  1.00  0.00     0.010 A 
ATOM     16  C   UNL A   1      32.454  20.241  23.805  1.00  0.00     0.010 A 
ATOM     17  C   UNL A   1      34.784  19.014  24.708  1.00  0.00     0.013 A 
ATOM     18  C   UNL A   1      32.572  18.850  23.764  1.00  0.00     0.013 A 
ATOM     19  C   UNL A   1      33.732  18.220  24.233  1.00  0.00     0.056 A 
BRANCH  19  20
ATOM     20  C   UNL A   1      33.863  16.719  24.213  1.00  0.00     0.416 C 
ATOM     21  F   UNL A   1      34.608  16.244  25.250  1.00  0.00    -0.166 F 
ATOM     22  F   UNL A   1      32.657  16.088  24.304  1.00  0.00    -0.166 F 
ATOM     23  F   UNL A   1      34.445  16.239  23.081  1.00  0.00    -0.166 F 
ENDBRANCH  19  20
ENDBRANCH  13  14
ENDBRANCH   9  13
ENDBRANCH   4   6
ENDBRANCH   3   4
ENDBRANCH   2   3
ENDBRANCH   1   2
BRANCH   1  24
ATOM     24  O   UNL A   1      32.190  30.348  26.566  1.00  0.00    -0.374 OA
BRANCH  24  25
ATOM     25  C   UNL A   1      31.374  31.516  26.514  1.00  0.00     0.202 C 
BRANCH  25  26
ATOM     26  C   UNL A   1      32.085  32.842  26.801  1.00  0.00     0.261 C 
BRANCH  26  27
ATOM     27  O   UNL A   1      32.694  32.870  28.105  1.00  0.00    -0.460 OA
BRANCH  27  28
ATOM     28  C   UNL A   1      33.733  33.730  28.212  1.00  0.00     0.338 C 
ATOM     29  O   UNL A   1      33.682  34.953  28.251  1.00  0.00    -0.246 OA
BRANCH  28  30
ATOM     30  C   UNL A   1      34.999  33.004  28.417  1.00  0.00     0.060 A 
ATOM     31  C   UNL A   1      34.909  31.672  28.836  1.00  0.00     0.016 A 
ATOM     32  C   UNL A   1      36.244  33.631  28.318  1.00  0.00     0.016 A 
ATOM     33  C   UNL A   1      36.053  30.986  29.235  1.00  0.00     0.010 A 
ATOM     34  C   UNL A   1      37.396  32.939  28.712  1.00  0.00     0.010 A 
ATOM     35  C   UNL A   1      37.297  31.631  29.225  1.00  0.00    -0.014 A 
BRANCH  35  36
ATOM     36  C   UNL A   1      38.436  30.993  29.934  1.00  0.00     0.031 A 
ATOM     37  C   UNL A   1      38.667  31.324  31.383  1.00  0.00     0.074 A 
ATOM     38  C   UNL A   1      39.203  30.071  29.326  1.00  0.00     0.049 A 
ATOM     39  N   UNL A   1      39.549  30.835  32.219  1.00  0.00    -0.248 NA
ATOM     40  C   UNL A   1      37.783  32.342  31.973  1.00  0.00     0.031 C 
ATOM     41  C   UNL A   1      39.063  29.640  27.939  1.00  0.00     0.029 A 
ATOM     42  N   UNL A   1      40.247  29.321  29.808  1.00  0.00    -0.354 N 
ATOM     43  C   UNL A   1      39.322  31.482  33.427  1.00  0.00     0.074 A 
ATOM     44  C   UNL A   1      38.254  32.431  33.207  1.00  0.00     0.031 C 
ATOM     45  C   UNL A   1      39.987  28.700  27.677  1.00  0.00     0.029 A 
ATOM     46  C   UNL A   1      40.789  28.470  28.877  1.00  0.00     0.049 A 
ATOM     47  H   UNL A   1      40.576  29.387  30.734  1.00  0.00     0.167 HD
ATOM     48  C   UNL A   1      39.935  31.289  34.619  1.00  0.00     0.037 A 
ATOM     49  C   UNL A   1      41.813  27.602  28.984  1.00  0.00     0.037 A 
ATOM     50  C   UNL A   1      40.991  30.339  34.846  1.00  0.00     0.049 A 
ATOM     51  C   UNL A   1      42.506  27.435  30.311  1.00  0.00     0.074 A 
ATOM     52  C   UNL A   1      41.663  30.058  36.023  1.00  0.00     0.029 A 
ATOM     53  N   UNL A   1      41.530  29.514  33.871  1.00  0.00    -0.354 N 
ATOM     54  N   UNL A   1      42.260  28.024  31.456  1.00  0.00    -0.248 NA
ATOM     55  C   UNL A   1      43.612  26.467  30.364  1.00  0.00     0.031 C 
ATOM     56  C   UNL A   1      42.639  29.092  35.750  1.00  0.00     0.029 A 
ATOM     57  C   UNL A   1      42.541  28.736  34.415  1.00  0.00     0.049 A 
ATOM     58  H   UNL A   1      41.238  29.485  32.931  1.00  0.00     0.167 HD
ATOM     59  C   UNL A   1      43.154  27.479  32.368  1.00  0.00     0.074 A 
ATOM     60  C   UNL A   1      43.941  26.501  31.647  1.00  0.00     0.031 C 
ATOM     61  C   UNL A   1      43.309  27.761  33.685  1.00  0.00     0.037 A 
BRANCH  48  62
ATOM     62  C   UNL A   1      39.481  32.137  35.771  1.00  0.00     0.064 A 
ATOM     63  C   UNL A   1      40.029  33.407  36.010  1.00  0.00     0.173 A 
ATOM     64  C   UNL A   1      38.474  31.682  36.635  1.00  0.00     0.173 A 
ATOM     65  F   UNL A   1      41.007  33.879  35.223  1.00  0.00    -0.203 F 
ATOM     66  C   UNL A   1      39.603  34.178  37.088  1.00  0.00     0.198 A 
ATOM     67  C   UNL A   1      38.032  32.467  37.696  1.00  0.00     0.198 A 
ATOM     68  F   UNL A   1      37.919  30.475  36.449  1.00  0.00    -0.203 F 
ATOM     69  F   UNL A   1      40.173  35.367  37.327  1.00  0.00    -0.200 F 
ATOM     70  C   UNL A   1      38.602  33.711  37.927  1.00  0.00     0.200 A 
ATOM     71  F   UNL A   1      37.058  32.018  38.499  1.00  0.00    -0.200 F 
ATOM     72  F   UNL A   1      38.190  34.455  38.962  1.00  0.00    -0.200 F 
ENDBRANCH  48  62
BRANCH  49  73
ATOM     73  C   UNL A   1      42.239  26.806  27.804  1.00  0.00     0.064 A 
ATOM     74  C   UNL A   1      43.208  27.291  26.914  1.00  0.00     0.173 A 
ATOM     75  C   UNL A   1      41.669  25.554  27.531  1.00  0.00     0.173 A 
ATOM     76  F   UNL A   1      43.762  28.495  27.118  1.00  0.00    -0.203 F 
ATOM     77  C   UNL A   1      43.576  26.562  25.785  1.00  0.00     0.198 A 
ATOM     78  C   UNL A   1      42.055  24.815  26.415  1.00  0.00     0.198 A 
ATOM     79  F   UNL A   1      40.734  25.050  28.349  1.00  0.00    -0.203 F 
ATOM     80  F   UNL A   1      44.468  27.070  24.923  1.00  0.00    -0.200 F 
ATOM     81  C   UNL A   1      43.003  25.322  25.539  1.00  0.00     0.200 A 
ATOM     82  F   UNL A   1      41.504  23.616  26.184  1.00  0.00    -0.200 F 
ATOM     83  F   UNL A   1      43.354  24.624  24.450  1.00  0.00    -0.200 F 
ENDBRANCH  49  73
BRANCH  61  84
ATOM     84  C   UNL A   1      44.343  26.977  34.440  1.00  0.00     0.064 A 
ATOM     85  C   UNL A   1      44.032  25.766  35.073  1.00  0.00     0.173 A 
ATOM     86  C   UNL A   1      45.670  27.432  34.506  1.00  0.00     0.173 A 
ATOM     87  F   UNL A   1      42.776  25.295  35.049  1.00  0.00    -0.203 F 
ATOM     88  C   UNL A   1      45.004  25.051  35.769  1.00  0.00     0.198 A 
ATOM     89  C   UNL A   1      46.645  26.701  35.180  1.00  0.00     0.198 A 
ATOM     90  F   UNL A   1      46.022  28.581  33.911  1.00  0.00    -0.203 F 
ATOM     91  F   UNL A   1      44.672  23.921  36.408  1.00  0.00    -0.200 F 
ATOM     92  C   UNL A   1      46.310  25.516  35.817  1.00  0.00     0.200 A 
ATOM     93  F   UNL A   1      47.909  27.145  35.213  1.00  0.00    -0.200 F 
ATOM     94  F   UNL A   1      47.244  24.826  36.486  1.00  0.00    -0.200 F 
ENDBRANCH  61  84
ENDBRANCH  35  36
ENDBRANCH  28  30
ENDBRANCH  27  28
ENDBRANCH  26  27
ENDBRANCH  25  26
ENDBRANCH  24  25
ENDBRANCH   1  24
TORSDOF 17
ENDMDL
MODEL 2
REMARK VINA RESULT:     -11.8      1.976      2.605
REMARK SMILES C[C@H]1[C@H](C(=O)OCCOCCOC(=O)c2ccc(-c3c4nc(c(-c5c(F)c(F)c(F)c(F)c5F)c5ccc([nH]5)c(-c5c(F)c(F)c(F)c(F)c5F)c5nc(c(-c6c(F)c(F)c(F)c(F)c6F)c6ccc3[nH]6)C=C5)C=C4)cc2)CC[N@@H+]1Cc1ccc(C(F)(F)F)cc1
REMARK SMILES IDX 8 1 7 2 6 3 4 4 5 5 3 6 1 7 2 8 80 9 78 10 79 11 81 13 82 14
REMARK SMILES IDX 83 15 91 16 84 17 90 18 85 19 86 20 87 21 88 22 89 23 9 24
REMARK SMILES IDX 10 25 11 26 12 27 13 28 14 29 15 30 16 31 77 32 17 33 76 34
REMARK SMILES IDX 18 35 19 36 20 37 70 38 21 39 75 40 69 41 71 42 22 43 74 44
REMARK SMILES IDX 68 45 67 46 23 48 55 49 35 50 54 51 36 52 39 53 53 54 72 55
REMARK SMILES IDX 37 56 38 57 52 59 73 60 40 61 24 62 25 63 33 64 26 65 27 66
REMARK SMILES IDX 31 67 34 68 28 69 29 70 32 71 30 72 56 73 57 74 65 75 58 76
REMARK SMILES IDX 59 77 63 78 66 79 60 80 61 81 64 82 62 83 41 84 42 85 50 86
REMARK SMILES IDX 43 87 44 88 48 89 51 90 45 91 46 92 49 93 47 94
REMARK H PARENT 80 12 71 47 39 58
REMARK Flexibility Score: inf
ROOT
ATOM      1  C   UNL A   1      31.617  29.124  25.036  1.00  0.00     0.202 C 
ENDROOT
BRANCH   1   2
ATOM      2  C   UNL A   1      32.645  28.625  24.018  1.00  0.00     0.261 C 
BRANCH   2   3
ATOM      3  O   UNL A   1      33.480  27.622  24.624  1.00  0.00    -0.463 OA
BRANCH   3   4
ATOM      4  C   UNL A   1      32.878  26.461  24.970  1.00  0.00     0.315 C 
ATOM      5  O   UNL A   1      32.949  25.946  26.081  1.00  0.00    -0.252 OA
BRANCH   4   6
ATOM      6  C   UNL A   1      32.080  25.830  23.844  1.00  0.00     0.162 C 
ATOM      7  C   UNL A   1      32.688  25.672  21.392  1.00  0.00     0.076 C 
ATOM      8  C   UNL A   1      32.844  25.024  22.777  1.00  0.00     0.195 C 
ATOM      9  N   UNL A   1      32.208  23.700  22.708  1.00  0.00    -0.328 N 
ATOM     10  C   UNL A   1      31.060  24.869  24.434  1.00  0.00     0.083 C 
ATOM     11  C   UNL A   1      30.934  23.761  23.411  1.00  0.00     0.263 C 
ATOM     12  H   UNL A   1      32.022  23.489  21.727  1.00  0.00     0.348 HD
BRANCH   9  13
ATOM     13  C   UNL A   1      33.065  22.552  23.023  1.00  0.00     0.299 C 
BRANCH  13  14
ATOM     14  C   UNL A   1      34.306  22.812  23.853  1.00  0.00     0.006 A 
ATOM     15  C   UNL A   1      35.539  23.028  23.220  1.00  0.00     0.010 A 
ATOM     16  C   UNL A   1      34.264  22.832  25.252  1.00  0.00     0.010 A 
ATOM     17  C   UNL A   1      36.685  23.312  23.964  1.00  0.00     0.013 A 
ATOM     18  C   UNL A   1      35.405  23.138  25.998  1.00  0.00     0.013 A 
ATOM     19  C   UNL A   1      36.624  23.399  25.361  1.00  0.00     0.056 A 
BRANCH  19  20
ATOM     20  C   UNL A   1      37.856  23.751  26.154  1.00  0.00     0.416 C 
ATOM     21  F   UNL A   1      38.728  24.527  25.452  1.00  0.00    -0.166 F 
ATOM     22  F   UNL A   1      37.565  24.453  27.287  1.00  0.00    -0.166 F 
ATOM     23  F   UNL A   1      38.566  22.665  26.566  1.00  0.00    -0.166 F 
ENDBRANCH  19  20
ENDBRANCH  13  14
ENDBRANCH   9  13
ENDBRANCH   4   6
ENDBRANCH   3   4
ENDBRANCH   2   3
ENDBRANCH   1   2
BRANCH   1  24
ATOM     24  O   UNL A   1      31.748  30.498  25.407  1.00  0.00    -0.374 OA
BRANCH  24  25
ATOM     25  C   UNL A   1      31.724  30.801  26.801  1.00  0.00     0.202 C 
BRANCH  25  26
ATOM     26  C   UNL A   1      31.601  32.285  27.160  1.00  0.00     0.261 C 
BRANCH  26  27
ATOM     27  O   UNL A   1      32.835  33.003  26.969  1.00  0.00    -0.460 OA
BRANCH  27  28
ATOM     28  C   UNL A   1      33.416  33.419  28.117  1.00  0.00     0.338 C 
ATOM     29  O   UNL A   1      32.930  34.148  28.973  1.00  0.00    -0.246 OA
BRANCH  28  30
ATOM     30  C   UNL A   1      34.725  32.769  28.312  1.00  0.00     0.060 A 
ATOM     31  C   UNL A   1      34.718  31.411  28.649  1.00  0.00     0.016 A 
ATOM     32  C   UNL A   1      35.925  33.484  28.281  1.00  0.00     0.016 A 
ATOM     33  C   UNL A   1      35.897  30.781  29.035  1.00  0.00     0.010 A 
ATOM     34  C   UNL A   1      37.113  32.847  28.663  1.00  0.00     0.010 A 
ATOM     35  C   UNL A   1      37.093  31.508  29.096  1.00  0.00    -0.014 A 
BRANCH  35  36
ATOM     36  C   UNL A   1      38.258  30.906  29.794  1.00  0.00     0.031 A 
ATOM     37  C   UNL A   1      38.509  31.268  31.233  1.00  0.00     0.074 A 
ATOM     38  C   UNL A   1      39.033  29.988  29.189  1.00  0.00     0.049 A 
ATOM     39  N   UNL A   1      39.416  30.812  32.061  1.00  0.00    -0.248 NA
ATOM     40  C   UNL A   1      37.615  32.278  31.821  1.00  0.00     0.031 C 
ATOM     41  C   UNL A   1      38.876  29.529  27.812  1.00  0.00     0.029 A 
ATOM     42  N   UNL A   1      40.101  29.268  29.665  1.00  0.00    -0.354 N 
ATOM     43  C   UNL A   1      39.198  31.477  33.261  1.00  0.00     0.074 A 
ATOM     44  C   UNL A   1      38.106  32.399  33.044  1.00  0.00     0.031 C 
ATOM     45  C   UNL A   1      39.815  28.604  27.550  1.00  0.00     0.029 A 
ATOM     46  C   UNL A   1      40.643  28.411  28.739  1.00  0.00     0.049 A 
ATOM     47  H   UNL A   1      40.445  29.358  30.583  1.00  0.00     0.167 HD
ATOM     48  C   UNL A   1      39.837  31.317  34.445  1.00  0.00     0.037 A 
ATOM     49  C   UNL A   1      41.686  27.567  28.843  1.00  0.00     0.037 A 
ATOM     50  C   UNL A   1      40.916  30.393  34.669  1.00  0.00     0.049 A 
ATOM     51  C   UNL A   1      42.407  27.438  30.159  1.00  0.00     0.074 A 
ATOM     52  C   UNL A   1      41.615  30.148  35.838  1.00  0.00     0.029 A 
ATOM     53  N   UNL A   1      41.453  29.561  33.699  1.00  0.00    -0.354 N 
ATOM     54  N   UNL A   1      42.169  28.043  31.298  1.00  0.00    -0.248 NA
ATOM     55  C   UNL A   1      43.533  26.494  30.208  1.00  0.00     0.031 C 
ATOM     56  C   UNL A   1      42.605  29.197  35.564  1.00  0.00     0.029 A 
ATOM     57  C   UNL A   1      42.490  28.815  34.238  1.00  0.00     0.049 A 
ATOM     58  H   UNL A   1      41.145  29.509  32.765  1.00  0.00     0.167 HD
ATOM     59  C   UNL A   1      43.091  27.532  32.203  1.00  0.00     0.074 A 
ATOM     60  C   UNL A   1      43.885  26.558  31.485  1.00  0.00     0.031 C 
ATOM     61  C   UNL A   1      43.265  27.842  33.511  1.00  0.00     0.037 A 
BRANCH  48  62
ATOM     62  C   UNL A   1      39.386  32.177  35.589  1.00  0.00     0.064 A 
ATOM     63  C   UNL A   1      39.878  33.479  35.769  1.00  0.00     0.173 A 
ATOM     64  C   UNL A   1      38.440  31.699  36.508  1.00  0.00     0.173 A 
ATOM     65  F   UNL A   1      40.797  33.975  34.928  1.00  0.00    -0.203 F 
ATOM     66  C   UNL A   1      39.456  34.262  36.841  1.00  0.00     0.198 A 
ATOM     67  C   UNL A   1      38.000  32.494  37.562  1.00  0.00     0.198 A 
ATOM     68  F   UNL A   1      37.939  30.461  36.379  1.00  0.00    -0.203 F 
ATOM     69  F   UNL A   1      39.974  35.484  37.021  1.00  0.00    -0.200 F 
ATOM     70  C   UNL A   1      38.514  33.771  37.733  1.00  0.00     0.200 A 
ATOM     71  F   UNL A   1      37.084  32.021  38.419  1.00  0.00    -0.200 F 
ATOM     72  F   UNL A   1      38.107  34.526  38.763  1.00  0.00    -0.200 F 
ENDBRANCH  48  62
BRANCH  49  73
ATOM     73  C   UNL A   1      42.107  26.758  27.669  1.00  0.00     0.064 A 
ATOM     74  C   UNL A   1      41.522  25.513  27.399  1.00  0.00     0.173 A 
ATOM     75  C   UNL A   1      43.118  27.206  26.806  1.00  0.00     0.173 A 
ATOM     76  F   UNL A   1      40.570  25.031  28.211  1.00  0.00    -0.203 F 
ATOM     77  C   UNL A   1      41.946  24.738  26.322  1.00  0.00     0.198 A 
ATOM     78  C   UNL A   1      43.524  26.441  25.715  1.00  0.00     0.198 A 
ATOM     79  F   UNL A   1      43.712  28.388  27.025  1.00  0.00    -0.203 F 
ATOM     80  F   UNL A   1      41.405  23.529  26.115  1.00  0.00    -0.200 F 
ATOM     81  C   UNL A   1      42.943  25.204  25.478  1.00  0.00     0.200 A 
ATOM     82  F   UNL A   1      44.483  26.898  24.899  1.00  0.00    -0.200 F 
ATOM     83  F   UNL A   1      43.354  24.456  24.445  1.00  0.00    -0.200 F 
ENDBRANCH  49  73
BRANCH  61  84
ATOM     84  C   UNL A   1      44.328  27.093  34.261  1.00  0.00     0.064 A 
ATOM     85  C   UNL A   1      44.076  25.846  34.848  1.00  0.00     0.173 A 
ATOM     86  C   UNL A   1      45.626  27.620  34.368  1.00  0.00     0.173 A 
ATOM     87  F   UNL A   1      42.849  25.306  34.784  1.00  0.00    -0.203 F 
ATOM     88  C   UNL A   1      45.074  25.165  35.540  1.00  0.00     0.198 A 
ATOM     89  C   UNL A   1      46.629  26.923  35.036  1.00  0.00     0.198 A 
ATOM     90  F   UNL A   1      45.922  28.807  33.816  1.00  0.00    -0.203 F 
ATOM     91  F   UNL A   1      44.796  23.997  36.136  1.00  0.00    -0.200 F 
ATOM     92  C   UNL A   1      46.351  25.701  35.628  1.00  0.00     0.200 A 
ATOM     93  F   UNL A   1      47.864  27.436  35.109  1.00  0.00    -0.200 F 
ATOM     94  F   UNL A   1      47.310  25.043  36.293  1.00  0.00    -0.200 F 
ENDBRANCH  61  84
ENDBRANCH  35  36
ENDBRANCH  28  30
ENDBRANCH  27  28
ENDBRANCH  26  27
ENDBRANCH  25  26
ENDBRANCH  24  25
ENDBRANCH   1  24
TORSDOF 17
ENDMDL
MODEL 3
REMARK VINA RESULT:     -11.7      0.267      1.974
REMARK SMILES C[C@H]1[C@H](C(=O)OCCOCCOC(=O)c2ccc(-c3c4nc(c(-c5c(F)c(F)c(F)c(F)c5F)c5ccc([nH]5)c(-c5c(F)c(F)c(F)c(F)c5F)c5nc(c(-c6c(F)c(F)c(F)c(F)c6F)c6ccc3[nH]6)C=C5)C=C4)cc2)CC[N@@H+]1Cc1ccc(C(F)(F)F)cc1
REMARK SMILES IDX 8 1 7 2 6 3 4 4 5 5 3 6 1 7 2 8 80 9 78 10 79 11 81 13 82 14
REMARK SMILES IDX 83 15 91 16 84 17 90 18 85 19 86 20 87 21 88 22 89 23 9 24
REMARK SMILES IDX 10 25 11 26 12 27 13 28 14 29 15 30 16 31 77 32 17 33 76 34
REMARK SMILES IDX 18 35 19 36 20 37 70 38 21 39 75 40 69 41 71 42 22 43 74 44
REMARK SMILES IDX 68 45 67 46 23 48 55 49 35 50 54 51 36 52 39 53 53 54 72 55
REMARK SMILES IDX 37 56 38 57 52 59 73 60 40 61 24 62 25 63 33 64 26 65 27 66
REMARK SMILES IDX 31 67 34 68 28 69 29 70 32 71 30 72 56 73 57 74 65 75 58 76
REMARK SMILES IDX 59 77 63 78 66 79 60 80 61 81 64 82 62 83 41 84 42 85 50 86
REMARK SMILES IDX 43 87 44 88 48 89 51 90 45 91 46 92 49 93 47 94
REMARK H PARENT 80 12 71 47 39 58
REMARK Flexibility Score: inf
ROOT
ATOM      1  C   UNL A   1      32.246  29.318  25.325  1.00  0.00     0.202 C 
ENDROOT
BRANCH   1   2
ATOM      2  C   UNL A   1      31.201  28.266  24.945  1.00  0.00     0.261 C 
BRANCH   2   3
ATOM      3  O   UNL A   1      31.017  27.348  26.037  1.00  0.00    -0.463 OA
BRANCH   3   4
ATOM      4  C   UNL A   1      31.800  26.243  26.036  1.00  0.00     0.315 C 
ATOM      5  O   UNL A   1      32.972  26.222  26.397  1.00  0.00    -0.252 OA
BRANCH   4   6
ATOM      6  C   UNL A   1      31.091  24.995  25.544  1.00  0.00     0.162 C 
ATOM      7  C   UNL A   1      30.610  24.307  23.157  1.00  0.00     0.076 C 
ATOM      8  C   UNL A   1      31.645  24.292  24.292  1.00  0.00     0.195 C 
ATOM      9  N   UNL A   1      31.865  22.884  24.657  1.00  0.00    -0.328 N 
ATOM     10  C   UNL A   1      31.105  23.947  26.646  1.00  0.00     0.083 C 
ATOM     11  C   UNL A   1      31.189  22.622  25.919  1.00  0.00     0.263 C 
ATOM     12  H   UNL A   1      31.438  22.300  23.938  1.00  0.00     0.348 HD
BRANCH   9  13
ATOM     13  C   UNL A   1      33.244  22.395  24.550  1.00  0.00     0.299 C 
BRANCH  13  14
ATOM     14  C   UNL A   1      33.446  20.904  24.379  1.00  0.00     0.006 A 
ATOM     15  C   UNL A   1      34.626  20.300  24.839  1.00  0.00     0.010 A 
ATOM     16  C   UNL A   1      32.486  20.097  23.758  1.00  0.00     0.010 A 
ATOM     17  C   UNL A   1      34.814  18.921  24.731  1.00  0.00     0.013 A 
ATOM     18  C   UNL A   1      32.661  18.714  23.668  1.00  0.00     0.013 A 
ATOM     19  C   UNL A   1      33.820  18.109  24.171  1.00  0.00     0.056 A 
BRANCH  19  20
ATOM     20  C   UNL A   1      34.010  16.616  24.098  1.00  0.00     0.416 C 
ATOM     21  F   UNL A   1      32.972  15.928  24.650  1.00  0.00    -0.166 F 
ATOM     22  F   UNL A   1      34.113  16.164  22.816  1.00  0.00    -0.166 F 
ATOM     23  F   UNL A   1      35.131  16.179  24.734  1.00  0.00    -0.166 F 
ENDBRANCH  19  20
ENDBRANCH  13  14
ENDBRANCH   9  13
ENDBRANCH   4   6
ENDBRANCH   3   4
ENDBRANCH   2   3
ENDBRANCH   1   2
BRANCH   1  24
ATOM     24  O   UNL A   1      32.037  29.953  26.589  1.00  0.00    -0.374 OA
BRANCH  24  25
ATOM     25  C   UNL A   1      31.291  31.168  26.591  1.00  0.00     0.202 C 
BRANCH  25  26
ATOM     26  C   UNL A   1      32.113  32.457  26.691  1.00  0.00     0.261 C 
BRANCH  26  27
ATOM     27  O   UNL A   1      32.715  32.628  27.987  1.00  0.00    -0.460 OA
BRANCH  27  28
ATOM     28  C   UNL A   1      33.754  33.494  28.005  1.00  0.00     0.338 C 
ATOM     29  O   UNL A   1      33.701  34.717  27.958  1.00  0.00    -0.246 OA
BRANCH  28  30
ATOM     30  C   UNL A   1      35.027  32.785  28.228  1.00  0.00     0.060 A 
ATOM     31  C   UNL A   1      34.949  31.456  28.661  1.00  0.00     0.016 A 
ATOM     32  C   UNL A   1      36.265  33.426  28.131  1.00  0.00     0.016 A 
ATOM     33  C   UNL A   1      36.097  30.789  29.076  1.00  0.00     0.010 A 
ATOM     34  C   UNL A   1      37.422  32.751  28.542  1.00  0.00     0.010 A 
ATOM     35  C   UNL A   1      37.334  31.448  29.069  1.00  0.00    -0.014 A 
BRANCH  35  36
ATOM     36  C   UNL A   1      38.475  30.831  29.793  1.00  0.00     0.031 A 
ATOM     37  C   UNL A   1      38.683  31.170  31.244  1.00  0.00     0.074 A 
ATOM     38  C   UNL A   1      39.264  29.920  29.197  1.00  0.00     0.049 A 
ATOM     39  N   UNL A   1      39.562  30.698  32.092  1.00  0.00    -0.248 NA
ATOM     40  C   UNL A   1      37.774  32.174  31.821  1.00  0.00     0.031 C 
ATOM     41  C   UNL A   1      39.149  29.483  27.809  1.00  0.00     0.029 A 
ATOM     42  N   UNL A   1      40.315  29.189  29.694  1.00  0.00    -0.354 N 
ATOM     43  C   UNL A   1      39.310  31.344  33.295  1.00  0.00     0.074 A 
ATOM     44  C   UNL A   1      38.228  32.274  33.060  1.00  0.00     0.031 C 
ATOM     45  C   UNL A   1      40.091  28.558  27.561  1.00  0.00     0.029 A 
ATOM     46  C   UNL A   1      40.882  28.344  28.772  1.00  0.00     0.049 A 
ATOM     47  H   UNL A   1      40.631  29.263  30.623  1.00  0.00     0.167 HD
ATOM     48  C   UNL A   1      39.911  31.164  34.495  1.00  0.00     0.037 A 
ATOM     49  C   UNL A   1      41.919  27.495  28.894  1.00  0.00     0.037 A 
ATOM     50  C   UNL A   1      40.980  30.233  34.738  1.00  0.00     0.049 A 
ATOM     51  C   UNL A   1      42.599  27.342  30.230  1.00  0.00     0.074 A 
ATOM     52  C   UNL A   1      41.642  29.966  35.923  1.00  0.00     0.029 A 
ATOM     53  N   UNL A   1      41.545  29.414  33.771  1.00  0.00    -0.354 N 
ATOM     54  N   UNL A   1      42.329  27.931  31.370  1.00  0.00    -0.248 NA
ATOM     55  C   UNL A   1      43.720  26.394  30.299  1.00  0.00     0.031 C 
ATOM     56  C   UNL A   1      42.637  29.016  35.665  1.00  0.00     0.029 A 
ATOM     57  C   UNL A   1      42.561  28.655  34.330  1.00  0.00     0.049 A 
ATOM     58  H   UNL A   1      41.265  29.377  32.828  1.00  0.00     0.167 HD
ATOM     59  C   UNL A   1      43.221  27.402  32.294  1.00  0.00     0.074 A 
ATOM     60  C   UNL A   1      44.033  26.436  31.586  1.00  0.00     0.031 C 
ATOM     61  C   UNL A   1      43.355  27.691  33.613  1.00  0.00     0.037 A 
BRANCH  48  62
ATOM     62  C   UNL A   1      39.429  32.007  35.639  1.00  0.00     0.064 A 
ATOM     63  C   UNL A   1      38.477  31.530  36.554  1.00  0.00     0.173 A 
ATOM     64  C   UNL A   1      39.937  33.300  35.833  1.00  0.00     0.173 A 
ATOM     65  F   UNL A   1      37.948  30.307  36.401  1.00  0.00    -0.203 F 
ATOM     66  C   UNL A   1      38.034  32.328  37.606  1.00  0.00     0.198 A 
ATOM     67  C   UNL A   1      39.511  34.084  36.901  1.00  0.00     0.198 A 
ATOM     68  F   UNL A   1      40.849  33.802  34.986  1.00  0.00    -0.203 F 
ATOM     69  F   UNL A   1      37.089  31.871  38.439  1.00  0.00    -0.200 F 
ATOM     70  C   UNL A   1      38.554  33.601  37.782  1.00  0.00     0.200 A 
ATOM     71  F   UNL A   1      40.021  35.311  37.075  1.00  0.00    -0.200 F 
ATOM     72  F   UNL A   1      38.128  34.366  38.796  1.00  0.00    -0.200 F 
ENDBRANCH  48  62
BRANCH  49  73
ATOM     73  C   UNL A   1      42.373  26.703  27.721  1.00  0.00     0.064 A 
ATOM     74  C   UNL A   1      41.863  25.421  27.471  1.00  0.00     0.173 A 
ATOM     75  C   UNL A   1      43.341  27.205  26.839  1.00  0.00     0.173 A 
ATOM     76  F   UNL A   1      40.956  24.887  28.302  1.00  0.00    -0.203 F 
ATOM     77  C   UNL A   1      42.320  24.664  26.394  1.00  0.00     0.198 A 
ATOM     78  C   UNL A   1      43.779  26.457  25.749  1.00  0.00     0.198 A 
ATOM     79  F   UNL A   1      43.863  28.424  27.039  1.00  0.00    -0.203 F 
ATOM     80  F   UNL A   1      41.854  23.421  26.206  1.00  0.00    -0.200 F 
ATOM     81  C   UNL A   1      43.274  25.184  25.531  1.00  0.00     0.200 A 
ATOM     82  F   UNL A   1      44.695  26.966  24.914  1.00  0.00    -0.200 F 
ATOM     83  F   UNL A   1      43.716  24.453  24.498  1.00  0.00    -0.200 F 
ENDBRANCH  49  73
BRANCH  61  84
ATOM     84  C   UNL A   1      44.393  26.927  34.382  1.00  0.00     0.064 A 
ATOM     85  C   UNL A   1      45.702  27.406  34.530  1.00  0.00     0.173 A 
ATOM     86  C   UNL A   1      44.063  25.712  35.005  1.00  0.00     0.173 A 
ATOM     87  F   UNL A   1      46.070  28.555  33.943  1.00  0.00    -0.203 F 
ATOM     88  C   UNL A   1      46.652  26.683  35.247  1.00  0.00     0.198 A 
ATOM     89  C   UNL A   1      45.008  25.007  35.746  1.00  0.00     0.198 A 
ATOM     90  F   UNL A   1      42.821  25.215  34.902  1.00  0.00    -0.203 F 
ATOM     91  F   UNL A   1      47.911  27.136  35.332  1.00  0.00    -0.200 F 
ATOM     92  C   UNL A   1      46.303  25.488  35.859  1.00  0.00     0.200 A 
ATOM     93  F   UNL A   1      44.665  23.860  36.347  1.00  0.00    -0.200 F 
ATOM     94  F   UNL A   1      47.218  24.796  36.551  1.00  0.00    -0.200 F 
ENDBRANCH  61  84
ENDBRANCH  35  36
ENDBRANCH  28  30
ENDBRANCH  27  28
ENDBRANCH  26  27
ENDBRANCH  25  26
ENDBRANCH  24  25
ENDBRANCH   1  24
TORSDOF 17
ENDMDL
