MODEL 1
REMARK VINA RESULT:     -12.7      0.000      0.000
REMARK SMILES Cc1c(C[NH2+]Cc2cccc(F)c2)c(C(=O)OCCOCCOC(=O)c2ccc(-c3c4nc(c(-c5c(F)c(F)c(F)c(F)c5F)c5ccc([nH]5)c(-c5c(F)c(F)c(F)c(F)c5F)c5nc(c(-c6c(F)c(F)c(F)c(F)c6F)c6ccc3[nH]6)C=C5)C=C4)cc2)c(C)n1Cc1c(F)cccc1Cl
REMARK SMILES IDX 19 1 18 2 17 3 15 4 16 5 14 6 1 7 2 8 3 9 91 10 89 11 90 12
REMARK SMILES IDX 4 13 5 14 6 17 7 18 8 19 13 20 9 21 11 22 10 23 12 24 92 25
REMARK SMILES IDX 93 26 94 27 99 28 95 29 96 30 98 31 100 32 97 33 20 34 21 35
REMARK SMILES IDX 22 36 23 37 24 38 25 39 26 40 27 41 88 42 28 43 87 44 29 45
REMARK SMILES IDX 30 46 31 47 81 48 32 49 86 50 80 51 82 52 33 53 85 54 79 55
REMARK SMILES IDX 78 56 34 58 66 59 46 60 65 61 47 62 50 63 64 64 83 65 48 66
REMARK SMILES IDX 49 67 63 69 84 70 51 71 35 72 36 73 44 74 37 75 38 76 42 77
REMARK SMILES IDX 45 78 39 79 40 80 43 81 41 82 67 83 68 84 76 85 69 86 70 87
REMARK SMILES IDX 74 88 77 89 71 90 72 91 75 92 73 93 52 94 53 95 61 96 54 97
REMARK SMILES IDX 55 98 59 99 62 100 56 101 57 102 60 103 58 104
REMARK H PARENT 5 15 5 16 82 57 50 68
REMARK Flexibility Score: inf
ROOT
ATOM      1  C   UNL A   1      37.926  22.344  26.039  1.00  0.00     0.202 C 
ENDROOT
BRANCH   1   2
ATOM      2  C   UNL A   1      37.849  23.708  25.329  1.00  0.00     0.261 C 
BRANCH   2   3
ATOM      3  O   UNL A   1      36.518  23.987  24.897  1.00  0.00    -0.460 OA
BRANCH   3   4
ATOM      4  C   UNL A   1      36.094  23.366  23.750  1.00  0.00     0.340 C 
ATOM      5  O   UNL A   1      36.806  23.148  22.795  1.00  0.00    -0.246 OA
BRANCH   4   6
ATOM      6  C   UNL A   1      34.684  22.946  23.879  1.00  0.00     0.089 A 
ATOM      7  C   UNL A   1      30.974  23.196  23.596  1.00  0.00     0.065 C 
ATOM      8  C   UNL A   1      32.415  22.830  23.745  1.00  0.00     0.025 A 
ATOM      9  C   UNL A   1      33.521  23.593  23.352  1.00  0.00     0.042 A 
ATOM     10  N   UNL A   1      32.884  21.656  24.335  1.00  0.00    -0.343 N 
ATOM     11  C   UNL A   1      34.243  21.816  24.563  1.00  0.00     0.030 A 
ATOM     12  C   UNL A   1      35.082  20.905  25.396  1.00  0.00     0.065 C 
BRANCH   9  13
ATOM     13  C   UNL A   1      33.508  24.853  22.518  1.00  0.00     0.300 C 
BRANCH  13  14
ATOM     14  N   UNL A   1      33.692  26.008  23.382  1.00  0.00    -0.339 N 
ATOM     15  H   UNL A   1      34.155  26.740  22.844  1.00  0.00     0.346 HD
ATOM     16  H   UNL A   1      34.248  25.696  24.179  1.00  0.00     0.346 HD
BRANCH  14  17
ATOM     17  C   UNL A   1      32.449  26.548  23.919  1.00  0.00     0.297 C 
BRANCH  17  18
ATOM     18  C   UNL A   1      32.551  27.251  25.259  1.00  0.00     0.009 A 
ATOM     19  C   UNL A   1      31.460  27.411  26.132  1.00  0.00     0.010 A 
ATOM     20  C   UNL A   1      33.798  27.755  25.665  1.00  0.00     0.048 A 
ATOM     21  C   UNL A   1      31.590  28.108  27.335  1.00  0.00     0.004 A 
ATOM     22  C   UNL A   1      33.922  28.434  26.874  1.00  0.00     0.123 A 
ATOM     23  C   UNL A   1      32.825  28.628  27.704  1.00  0.00     0.039 A 
ATOM     24  F   UNL A   1      35.117  28.915  27.241  1.00  0.00    -0.207 F 
ENDBRANCH  17  18
ENDBRANCH  14  17
ENDBRANCH  13  14
ENDBRANCH   9  13
BRANCH  10  25
ATOM     25  C   UNL A   1      32.064  20.523  24.822  1.00  0.00     0.162 C 
BRANCH  25  26
ATOM     26  C   UNL A   1      32.531  19.139  24.401  1.00  0.00     0.026 A 
ATOM     27  C   UNL A   1      32.831  18.161  25.363  1.00  0.00     0.129 A 
ATOM     28  C   UNL A   1      32.583  18.705  23.065  1.00  0.00     0.048 A 
ATOM     29  F   UNL A   1      32.604  18.389  26.656  1.00  0.00    -0.207 F 
ATOM     30  C   UNL A   1      33.267  16.874  25.043  1.00  0.00     0.040 A 
ATOM     31  C   UNL A   1      32.983  17.396  22.731  1.00  0.00     0.021 A 
ATOM     32  Cl  UNL A   1      32.072  19.698  21.746  1.00  0.00    -0.084 Cl
ATOM     33  C   UNL A   1      33.352  16.486  23.717  1.00  0.00     0.005 A 
ENDBRANCH  25  26
ENDBRANCH  10  25
ENDBRANCH   4   6
ENDBRANCH   3   4
ENDBRANCH   2   3
ENDBRANCH   1   2
BRANCH   1  34
ATOM     34  O   UNL A   1      39.070  21.546  25.742  1.00  0.00    -0.374 OA
BRANCH  34  35
ATOM     35  C   UNL A   1      40.230  21.728  26.575  1.00  0.00     0.202 C 
BRANCH  35  36
ATOM     36  C   UNL A   1      41.502  20.882  26.224  1.00  0.00     0.261 C 
BRANCH  36  37
ATOM     37  O   UNL A   1      42.866  21.490  26.308  1.00  0.00    -0.460 OA
BRANCH  37  38
ATOM     38  C   UNL A   1      43.169  22.513  25.425  1.00  0.00     0.338 C 
ATOM     39  O   UNL A   1      43.418  22.297  24.243  1.00  0.00    -0.246 OA
BRANCH  38  40
ATOM     40  C   UNL A   1      43.161  23.992  25.938  1.00  0.00     0.060 A 
ATOM     41  C   UNL A   1      42.799  24.255  27.256  1.00  0.00     0.016 A 
ATOM     42  C   UNL A   1      43.177  25.166  25.143  1.00  0.00     0.016 A 
ATOM     43  C   UNL A   1      42.547  25.608  27.752  1.00  0.00     0.010 A 
ATOM     44  C   UNL A   1      42.838  26.551  25.644  1.00  0.00     0.010 A 
ATOM     45  C   UNL A   1      42.504  26.846  26.986  1.00  0.00    -0.014 A 
BRANCH  45  46
ATOM     46  C   UNL A   1      41.646  28.173  27.666  1.00  0.00     0.031 A 
ATOM     47  C   UNL A   1      42.766  29.152  27.778  1.00  0.00     0.074 A 
ATOM     48  C   UNL A   1      40.441  28.676  28.255  1.00  0.00     0.049 A 
ATOM     49  N   UNL A   1      43.834  28.797  28.443  1.00  0.00    -0.248 NA
ATOM     50  C   UNL A   1      42.963  30.296  26.886  1.00  0.00     0.031 C 
ATOM     51  C   UNL A   1      39.186  27.951  28.561  1.00  0.00     0.029 A 
ATOM     52  N   UNL A   1      40.020  29.997  28.760  1.00  0.00    -0.354 N 
ATOM     53  C   UNL A   1      44.702  29.847  28.358  1.00  0.00     0.074 A 
ATOM     54  C   UNL A   1      44.235  30.592  27.192  1.00  0.00     0.031 C 
ATOM     55  C   UNL A   1      38.173  28.773  28.996  1.00  0.00     0.029 A 
ATOM     56  C   UNL A   1      38.599  30.172  29.124  1.00  0.00     0.049 A 
ATOM     57  H   UNL A   1      40.664  30.736  28.852  1.00  0.00     0.167 HD
ATOM     58  C   UNL A   1      45.100  30.322  29.573  1.00  0.00     0.037 A 
ATOM     59  C   UNL A   1      37.841  31.282  29.583  1.00  0.00     0.037 A 
ATOM     60  C   UNL A   1      44.385  31.512  29.946  1.00  0.00     0.049 A 
ATOM     61  C   UNL A   1      38.782  32.136  30.311  1.00  0.00     0.074 A 
ATOM     62  C   UNL A   1      43.911  32.600  29.240  1.00  0.00     0.029 A 
ATOM     63  N   UNL A   1      43.661  31.460  31.111  1.00  0.00    -0.354 N 
ATOM     64  N   UNL A   1      39.171  31.834  31.512  1.00  0.00    -0.248 NA
ATOM     65  C   UNL A   1      39.190  33.450  29.826  1.00  0.00     0.031 C 
ATOM     66  C   UNL A   1      42.596  32.771  29.713  1.00  0.00     0.029 A 
ATOM     67  C   UNL A   1      42.475  32.126  30.937  1.00  0.00     0.049 A 
ATOM     68  H   UNL A   1      43.947  31.015  31.941  1.00  0.00     0.167 HD
ATOM     69  C   UNL A   1      40.273  32.606  31.664  1.00  0.00     0.074 A 
ATOM     70  C   UNL A   1      40.080  33.742  30.778  1.00  0.00     0.031 C 
ATOM     71  C   UNL A   1      41.405  31.896  31.871  1.00  0.00     0.037 A 
BRANCH  58  72
ATOM     72  C   UNL A   1      45.461  29.241  30.569  1.00  0.00     0.064 A 
ATOM     73  C   UNL A   1      44.519  28.345  31.127  1.00  0.00     0.173 A 
ATOM     74  C   UNL A   1      46.796  29.071  30.941  1.00  0.00     0.173 A 
ATOM     75  F   UNL A   1      43.199  28.553  30.993  1.00  0.00    -0.203 F 
ATOM     76  C   UNL A   1      44.913  27.248  31.884  1.00  0.00     0.198 A 
ATOM     77  C   UNL A   1      47.178  28.015  31.771  1.00  0.00     0.198 A 
ATOM     78  F   UNL A   1      47.725  29.943  30.524  1.00  0.00    -0.203 F 
ATOM     79  F   UNL A   1      43.995  26.374  32.321  1.00  0.00    -0.200 F 
ATOM     80  C   UNL A   1      46.245  27.085  32.207  1.00  0.00     0.200 A 
ATOM     81  F   UNL A   1      48.455  27.904  32.161  1.00  0.00    -0.200 F 
ATOM     82  F   UNL A   1      46.623  26.054  32.977  1.00  0.00    -0.200 F 
ENDBRANCH  58  72
BRANCH  59  83
ATOM     83  C   UNL A   1      36.393  31.934  29.876  1.00  0.00     0.064 A 
ATOM     84  C   UNL A   1      35.883  33.006  29.122  1.00  0.00     0.173 A 
ATOM     85  C   UNL A   1      35.759  31.848  31.183  1.00  0.00     0.173 A 
ATOM     86  F   UNL A   1      36.364  33.240  27.897  1.00  0.00    -0.203 F 
ATOM     87  C   UNL A   1      34.925  33.936  29.639  1.00  0.00     0.198 A 
ATOM     88  C   UNL A   1      34.845  32.794  31.705  1.00  0.00     0.198 A 
ATOM     89  F   UNL A   1      36.062  30.868  32.045  1.00  0.00    -0.203 F 
ATOM     90  F   UNL A   1      34.526  34.972  28.884  1.00  0.00    -0.200 F 
ATOM     91  C   UNL A   1      34.441  33.854  30.935  1.00  0.00     0.200 A 
ATOM     92  F   UNL A   1      34.424  32.705  32.979  1.00  0.00    -0.200 F 
ATOM     93  F   UNL A   1      33.629  34.798  31.443  1.00  0.00    -0.200 F 
ENDBRANCH  59  83
BRANCH  71  94
ATOM     94  C   UNL A   1      41.361  30.778  32.896  1.00  0.00     0.064 A 
ATOM     95  C   UNL A   1      41.786  31.110  34.189  1.00  0.00     0.173 A 
ATOM     96  C   UNL A   1      40.926  29.442  32.710  1.00  0.00     0.173 A 
ATOM     97  F   UNL A   1      42.240  32.348  34.442  1.00  0.00    -0.203 F 
ATOM     98  C   UNL A   1      41.807  30.181  35.226  1.00  0.00     0.198 A 
ATOM     99  C   UNL A   1      40.896  28.527  33.768  1.00  0.00     0.198 A 
ATOM    100  F   UNL A   1      40.557  28.965  31.513  1.00  0.00    -0.203 F 
ATOM    101  F   UNL A   1      42.298  30.540  36.420  1.00  0.00    -0.200 F 
ATOM    102  C   UNL A   1      41.350  28.895  35.021  1.00  0.00     0.200 A 
ATOM    103  F   UNL A   1      40.445  27.279  33.566  1.00  0.00    -0.200 F 
ATOM    104  F   UNL A   1      41.368  28.006  36.024  1.00  0.00    -0.200 F 
ENDBRANCH  71  94
ENDBRANCH  45  46
ENDBRANCH  38  40
ENDBRANCH  37  38
ENDBRANCH  36  37
ENDBRANCH  35  36
ENDBRANCH  34  35
ENDBRANCH   1  34
TORSDOF 20
ENDMDL
MODEL 2
REMARK VINA RESULT:     -12.6      3.879      8.420
REMARK SMILES Cc1c(C[NH2+]Cc2cccc(F)c2)c(C(=O)OCCOCCOC(=O)c2ccc(-c3c4nc(c(-c5c(F)c(F)c(F)c(F)c5F)c5ccc([nH]5)c(-c5c(F)c(F)c(F)c(F)c5F)c5nc(c(-c6c(F)c(F)c(F)c(F)c6F)c6ccc3[nH]6)C=C5)C=C4)cc2)c(C)n1Cc1c(F)cccc1Cl
REMARK SMILES IDX 19 1 18 2 17 3 15 4 16 5 14 6 1 7 2 8 3 9 91 10 89 11 90 12
REMARK SMILES IDX 4 13 5 14 6 17 7 18 8 19 13 20 9 21 11 22 10 23 12 24 92 25
REMARK SMILES IDX 93 26 94 27 99 28 95 29 96 30 98 31 100 32 97 33 20 34 21 35
REMARK SMILES IDX 22 36 23 37 24 38 25 39 26 40 27 41 88 42 28 43 87 44 29 45
REMARK SMILES IDX 30 46 31 47 81 48 32 49 86 50 80 51 82 52 33 53 85 54 79 55
REMARK SMILES IDX 78 56 34 58 66 59 46 60 65 61 47 62 50 63 64 64 83 65 48 66
REMARK SMILES IDX 49 67 63 69 84 70 51 71 35 72 36 73 44 74 37 75 38 76 42 77
REMARK SMILES IDX 45 78 39 79 40 80 43 81 41 82 67 83 68 84 76 85 69 86 70 87
REMARK SMILES IDX 74 88 77 89 71 90 72 91 75 92 73 93 52 94 53 95 61 96 54 97
REMARK SMILES IDX 55 98 59 99 62 100 56 101 57 102 60 103 58 104
REMARK H PARENT 5 15 5 16 82 57 50 68
REMARK Flexibility Score: inf
ROOT
ATOM      1  C   UNL A   1      32.205  30.108  26.862  1.00  0.00     0.202 C 
ENDROOT
BRANCH   1   2
ATOM      2  C   UNL A   1      33.264  29.142  26.299  1.00  0.00     0.261 C 
BRANCH   2   3
ATOM      3  O   UNL A   1      33.119  27.838  26.860  1.00  0.00    -0.460 OA
BRANCH   3   4
ATOM      4  C   UNL A   1      32.111  27.055  26.359  1.00  0.00     0.340 C 
ATOM      5  O   UNL A   1      30.999  26.995  26.834  1.00  0.00    -0.246 OA
BRANCH   4   6
ATOM      6  C   UNL A   1      32.555  26.362  25.132  1.00  0.00     0.089 A 
ATOM      7  C   UNL A   1      32.793  25.625  21.484  1.00  0.00     0.065 C 
ATOM      8  C   UNL A   1      32.923  25.769  22.965  1.00  0.00     0.025 A 
ATOM      9  C   UNL A   1      32.316  26.740  23.772  1.00  0.00     0.042 A 
ATOM     10  N   UNL A   1      33.667  24.923  23.788  1.00  0.00    -0.343 N 
ATOM     11  C   UNL A   1      33.300  25.186  25.100  1.00  0.00     0.030 A 
ATOM     12  C   UNL A   1      33.668  24.342  26.275  1.00  0.00     0.065 C 
BRANCH   9  13
ATOM     13  C   UNL A   1      31.563  27.965  23.311  1.00  0.00     0.300 C 
BRANCH  13  14
ATOM     14  N   UNL A   1      30.245  27.983  23.924  1.00  0.00    -0.339 N 
ATOM     15  H   UNL A   1      30.246  28.681  24.668  1.00  0.00     0.346 HD
ATOM     16  H   UNL A   1      30.068  27.041  24.271  1.00  0.00     0.346 HD
BRANCH  14  17
ATOM     17  C   UNL A   1      29.166  28.303  22.996  1.00  0.00     0.297 C 
BRANCH  17  18
ATOM     18  C   UNL A   1      28.916  29.778  22.746  1.00  0.00     0.009 A 
ATOM     19  C   UNL A   1      29.170  30.776  23.703  1.00  0.00     0.010 A 
ATOM     20  C   UNL A   1      28.424  30.176  21.492  1.00  0.00     0.048 A 
ATOM     21  C   UNL A   1      28.879  32.117  23.445  1.00  0.00     0.004 A 
ATOM     22  C   UNL A   1      28.153  31.518  21.238  1.00  0.00     0.123 A 
ATOM     23  C   UNL A   1      28.361  32.489  22.209  1.00  0.00     0.039 A 
ATOM     24  F   UNL A   1      27.676  31.879  20.040  1.00  0.00    -0.207 F 
ENDBRANCH  17  18
ENDBRANCH  14  17
ENDBRANCH  13  14
ENDBRANCH   9  13
BRANCH  10  25
ATOM     25  C   UNL A   1      34.536  23.806  23.352  1.00  0.00     0.162 C 
BRANCH  25  26
ATOM     26  C   UNL A   1      34.102  22.418  23.797  1.00  0.00     0.026 A 
ATOM     27  C   UNL A   1      32.872  21.885  23.381  1.00  0.00     0.129 A 
ATOM     28  C   UNL A   1      34.919  21.543  24.534  1.00  0.00     0.048 A 
ATOM     29  F   UNL A   1      32.113  22.536  22.500  1.00  0.00    -0.207 F 
ATOM     30  C   UNL A   1      32.414  20.620  23.756  1.00  0.00     0.040 A 
ATOM     31  C   UNL A   1      34.485  20.249  24.884  1.00  0.00     0.021 A 
ATOM     32  Cl  UNL A   1      36.541  21.941  24.978  1.00  0.00    -0.084 Cl
ATOM     33  C   UNL A   1      33.221  19.795  24.520  1.00  0.00     0.005 A 
ENDBRANCH  25  26
ENDBRANCH  10  25
ENDBRANCH   4   6
ENDBRANCH   3   4
ENDBRANCH   2   3
ENDBRANCH   1   2
BRANCH   1  34
ATOM     34  O   UNL A   1      32.677  31.393  27.261  1.00  0.00    -0.374 OA
BRANCH  34  35
ATOM     35  C   UNL A   1      34.023  31.468  27.769  1.00  0.00     0.202 C 
BRANCH  35  36
ATOM     36  C   UNL A   1      34.450  32.807  28.462  1.00  0.00     0.261 C 
BRANCH  36  37
ATOM     37  O   UNL A   1      34.029  33.104  29.867  1.00  0.00    -0.460 OA
BRANCH  37  38
ATOM     38  C   UNL A   1      35.015  33.451  30.774  1.00  0.00     0.338 C 
ATOM     39  O   UNL A   1      35.014  34.534  31.352  1.00  0.00    -0.246 OA
BRANCH  38  40
ATOM     40  C   UNL A   1      36.149  32.421  31.102  1.00  0.00     0.060 A 
ATOM     41  C   UNL A   1      37.369  32.515  30.439  1.00  0.00     0.016 A 
ATOM     42  C   UNL A   1      36.001  31.184  31.779  1.00  0.00     0.016 A 
ATOM     43  C   UNL A   1      38.392  31.472  30.514  1.00  0.00     0.010 A 
ATOM     44  C   UNL A   1      37.031  30.078  31.787  1.00  0.00     0.010 A 
ATOM     45  C   UNL A   1      38.291  30.166  31.151  1.00  0.00    -0.014 A 
BRANCH  45  46
ATOM     46  C   UNL A   1      39.373  28.938  30.624  1.00  0.00     0.031 A 
ATOM     47  C   UNL A   1      40.304  28.921  31.789  1.00  0.00     0.074 A 
ATOM     48  C   UNL A   1      39.824  28.075  29.573  1.00  0.00     0.049 A 
ATOM     49  N   UNL A   1      40.881  30.042  32.137  1.00  0.00    -0.248 NA
ATOM     50  C   UNL A   1      40.321  27.887  32.826  1.00  0.00     0.031 C 
ATOM     51  C   UNL A   1      39.331  27.976  28.179  1.00  0.00     0.029 A 
ATOM     52  N   UNL A   1      40.876  27.045  29.472  1.00  0.00    -0.354 N 
ATOM     53  C   UNL A   1      41.637  29.755  33.238  1.00  0.00     0.074 A 
ATOM     54  C   UNL A   1      41.045  28.526  33.756  1.00  0.00     0.031 C 
ATOM     55  C   UNL A   1      39.893  26.938  27.475  1.00  0.00     0.029 A 
ATOM     56  C   UNL A   1      40.907  26.214  28.251  1.00  0.00     0.049 A 
ATOM     57  H   UNL A   1      41.534  26.917  30.193  1.00  0.00     0.167 HD
ATOM     58  C   UNL A   1      42.955  30.074  33.088  1.00  0.00     0.037 A 
ATOM     59  C   UNL A   1      41.717  25.123  27.836  1.00  0.00     0.037 A 
ATOM     60  C   UNL A   1      43.756  28.921  32.780  1.00  0.00     0.049 A 
ATOM     61  C   UNL A   1      43.011  25.312  28.498  1.00  0.00     0.074 A 
ATOM     62  C   UNL A   1      43.719  27.599  33.181  1.00  0.00     0.029 A 
ATOM     63  N   UNL A   1      44.451  28.947  31.597  1.00  0.00    -0.354 N 
ATOM     64  N   UNL A   1      43.866  26.186  28.063  1.00  0.00    -0.248 NA
ATOM     65  C   UNL A   1      43.495  24.422  29.547  1.00  0.00     0.031 C 
ATOM     66  C   UNL A   1      43.858  26.872  31.983  1.00  0.00     0.029 A 
ATOM     67  C   UNL A   1      44.407  27.705  31.018  1.00  0.00     0.049 A 
ATOM     68  H   UNL A   1      44.911  29.733  31.223  1.00  0.00     0.167 HD
ATOM     69  C   UNL A   1      44.704  26.323  29.118  1.00  0.00     0.074 A 
ATOM     70  C   UNL A   1      44.624  25.068  29.846  1.00  0.00     0.031 C 
ATOM     71  C   UNL A   1      44.735  27.577  29.623  1.00  0.00     0.037 A 
BRANCH  58  72
ATOM     72  C   UNL A   1      43.194  31.426  32.452  1.00  0.00     0.064 A 
ATOM     73  C   UNL A   1      42.895  31.720  31.100  1.00  0.00     0.173 A 
ATOM     74  C   UNL A   1      43.696  32.470  33.231  1.00  0.00     0.173 A 
ATOM     75  F   UNL A   1      42.604  30.741  30.226  1.00  0.00    -0.203 F 
ATOM     76  C   UNL A   1      42.945  33.017  30.604  1.00  0.00     0.198 A 
ATOM     77  C   UNL A   1      43.824  33.757  32.704  1.00  0.00     0.198 A 
ATOM     78  F   UNL A   1      44.088  32.238  34.492  1.00  0.00    -0.203 F 
ATOM     79  F   UNL A   1      42.569  33.264  29.342  1.00  0.00    -0.200 F 
ATOM     80  C   UNL A   1      43.412  34.037  31.409  1.00  0.00     0.200 A 
ATOM     81  F   UNL A   1      44.362  34.731  33.452  1.00  0.00    -0.200 F 
ATOM     82  F   UNL A   1      43.507  35.281  30.920  1.00  0.00    -0.200 F 
ENDBRANCH  58  72
BRANCH  59  83
ATOM     83  C   UNL A   1      41.964  23.904  26.807  1.00  0.00     0.064 A 
ATOM     84  C   UNL A   1      41.840  22.557  27.191  1.00  0.00     0.173 A 
ATOM     85  C   UNL A   1      42.799  24.050  25.624  1.00  0.00     0.173 A 
ATOM     86  F   UNL A   1      41.116  22.241  28.270  1.00  0.00    -0.203 F 
ATOM     87  C   UNL A   1      42.537  21.493  26.535  1.00  0.00     0.198 A 
ATOM     88  C   UNL A   1      43.520  23.000  25.006  1.00  0.00     0.198 A 
ATOM     89  F   UNL A   1      43.009  25.246  25.059  1.00  0.00    -0.203 F 
ATOM     90  F   UNL A   1      42.421  20.236  26.993  1.00  0.00    -0.200 F 
ATOM     91  C   UNL A   1      43.403  21.718  25.477  1.00  0.00     0.200 A 
ATOM     92  F   UNL A   1      44.379  23.261  24.004  1.00  0.00    -0.200 F 
ATOM     93  F   UNL A   1      44.136  20.725  24.944  1.00  0.00    -0.200 F 
ENDBRANCH  59  83
BRANCH  71  94
ATOM     94  C   UNL A   1      44.874  28.729  28.645  1.00  0.00     0.064 A 
ATOM     95  C   UNL A   1      46.172  29.225  28.457  1.00  0.00     0.173 A 
ATOM     96  C   UNL A   1      43.855  29.355  27.885  1.00  0.00     0.173 A 
ATOM     97  F   UNL A   1      47.190  28.705  29.161  1.00  0.00    -0.203 F 
ATOM     98  C   UNL A   1      46.445  30.285  27.597  1.00  0.00     0.198 A 
ATOM     99  C   UNL A   1      44.142  30.383  26.980  1.00  0.00     0.198 A 
ATOM    100  F   UNL A   1      42.561  29.032  28.012  1.00  0.00    -0.203 F 
ATOM    101  F   UNL A   1      47.694  30.764  27.521  1.00  0.00    -0.200 F 
ATOM    102  C   UNL A   1      45.435  30.856  26.849  1.00  0.00     0.200 A 
ATOM    103  F   UNL A   1      43.159  30.931  26.250  1.00  0.00    -0.200 F 
ATOM    104  F   UNL A   1      45.705  31.873  26.019  1.00  0.00    -0.200 F 
ENDBRANCH  71  94
ENDBRANCH  45  46
ENDBRANCH  38  40
ENDBRANCH  37  38
ENDBRANCH  36  37
ENDBRANCH  35  36
ENDBRANCH  34  35
ENDBRANCH   1  34
TORSDOF 20
ENDMDL
MODEL 3
REMARK VINA RESULT:     -12.6      1.463      4.526
REMARK SMILES Cc1c(C[NH2+]Cc2cccc(F)c2)c(C(=O)OCCOCCOC(=O)c2ccc(-c3c4nc(c(-c5c(F)c(F)c(F)c(F)c5F)c5ccc([nH]5)c(-c5c(F)c(F)c(F)c(F)c5F)c5nc(c(-c6c(F)c(F)c(F)c(F)c6F)c6ccc3[nH]6)C=C5)C=C4)cc2)c(C)n1Cc1c(F)cccc1Cl
REMARK SMILES IDX 19 1 18 2 17 3 15 4 16 5 14 6 1 7 2 8 3 9 91 10 89 11 90 12
REMARK SMILES IDX 4 13 5 14 6 17 7 18 8 19 13 20 9 21 11 22 10 23 12 24 92 25
REMARK SMILES IDX 93 26 94 27 99 28 95 29 96 30 98 31 100 32 97 33 20 34 21 35
REMARK SMILES IDX 22 36 23 37 24 38 25 39 26 40 27 41 88 42 28 43 87 44 29 45
REMARK SMILES IDX 30 46 31 47 81 48 32 49 86 50 80 51 82 52 33 53 85 54 79 55
REMARK SMILES IDX 78 56 34 58 66 59 46 60 65 61 47 62 50 63 64 64 83 65 48 66
REMARK SMILES IDX 49 67 63 69 84 70 51 71 35 72 36 73 44 74 37 75 38 76 42 77
REMARK SMILES IDX 45 78 39 79 40 80 43 81 41 82 67 83 68 84 76 85 69 86 70 87
REMARK SMILES IDX 74 88 77 89 71 90 72 91 75 92 73 93 52 94 53 95 61 96 54 97
REMARK SMILES IDX 55 98 59 99 62 100 56 101 57 102 60 103 58 104
REMARK H PARENT 5 15 5 16 82 57 50 68
REMARK Flexibility Score: inf
ROOT
ATOM      1  C   UNL A   1      37.462  21.549  24.858  1.00  0.00     0.202 C 
ENDROOT
BRANCH   1   2
ATOM      2  C   UNL A   1      36.933  22.620  23.886  1.00  0.00     0.261 C 
BRANCH   2   3
ATOM      3  O   UNL A   1      35.727  23.206  24.374  1.00  0.00    -0.460 OA
BRANCH   3   4
ATOM      4  C   UNL A   1      34.703  23.360  23.474  1.00  0.00     0.340 C 
ATOM      5  O   UNL A   1      34.819  23.190  22.281  1.00  0.00    -0.246 OA
BRANCH   4   6
ATOM      6  C   UNL A   1      33.444  23.689  24.174  1.00  0.00     0.089 A 
ATOM      7  C   UNL A   1      30.692  23.334  26.665  1.00  0.00     0.065 C 
ATOM      8  C   UNL A   1      31.699  23.729  25.635  1.00  0.00     0.025 A 
ATOM      9  C   UNL A   1      32.919  23.096  25.367  1.00  0.00     0.042 A 
ATOM     10  N   UNL A   1      31.560  24.798  24.750  1.00  0.00    -0.343 N 
ATOM     11  C   UNL A   1      32.531  24.659  23.769  1.00  0.00     0.030 A 
ATOM     12  C   UNL A   1      32.580  25.442  22.499  1.00  0.00     0.065 C 
BRANCH   9  13
ATOM     13  C   UNL A   1      33.578  22.006  26.179  1.00  0.00     0.300 C 
BRANCH  13  14
ATOM     14  N   UNL A   1      33.850  20.862  25.324  1.00  0.00    -0.339 N 
ATOM     15  H   UNL A   1      34.561  20.287  25.775  1.00  0.00     0.346 HD
ATOM     16  H   UNL A   1      34.158  21.232  24.425  1.00  0.00     0.346 HD
BRANCH  14  17
ATOM     17  C   UNL A   1      32.682  20.029  25.062  1.00  0.00     0.297 C 
BRANCH  17  18
ATOM     18  C   UNL A   1      32.944  18.542  24.915  1.00  0.00     0.009 A 
ATOM     19  C   UNL A   1      32.565  17.593  25.880  1.00  0.00     0.010 A 
ATOM     20  C   UNL A   1      33.578  18.080  23.750  1.00  0.00     0.048 A 
ATOM     21  C   UNL A   1      32.870  16.239  25.724  1.00  0.00     0.004 A 
ATOM     22  C   UNL A   1      33.863  16.725  23.594  1.00  0.00     0.123 A 
ATOM     23  C   UNL A   1      33.528  15.804  24.579  1.00  0.00     0.039 A 
ATOM     24  F   UNL A   1      34.476  16.303  22.481  1.00  0.00    -0.207 F 
ENDBRANCH  17  18
ENDBRANCH  14  17
ENDBRANCH  13  14
ENDBRANCH   9  13
BRANCH  10  25
ATOM     25  C   UNL A   1      30.460  25.790  24.728  1.00  0.00     0.162 C 
BRANCH  25  26
ATOM     26  C   UNL A   1      30.853  27.221  25.060  1.00  0.00     0.026 A 
ATOM     27  C   UNL A   1      31.457  27.530  26.289  1.00  0.00     0.129 A 
ATOM     28  C   UNL A   1      30.754  28.288  24.151  1.00  0.00     0.048 A 
ATOM     29  F   UNL A   1      31.803  26.563  27.138  1.00  0.00    -0.207 F 
ATOM     30  C   UNL A   1      31.839  28.822  26.656  1.00  0.00     0.040 A 
ATOM     31  C   UNL A   1      31.173  29.590  24.496  1.00  0.00     0.021 A 
ATOM     32  Cl  UNL A   1      30.213  28.076  22.524  1.00  0.00    -0.084 Cl
ATOM     33  C   UNL A   1      31.690  29.865  25.758  1.00  0.00     0.005 A 
ENDBRANCH  25  26
ENDBRANCH  10  25
ENDBRANCH   4   6
ENDBRANCH   3   4
ENDBRANCH   2   3
ENDBRANCH   1   2
BRANCH   1  34
ATOM     34  O   UNL A   1      37.889  22.017  26.136  1.00  0.00    -0.374 OA
BRANCH  34  35
ATOM     35  C   UNL A   1      39.300  22.240  26.314  1.00  0.00     0.202 C 
BRANCH  35  36
ATOM     36  C   UNL A   1      40.247  21.004  26.133  1.00  0.00     0.261 C 
BRANCH  36  37
ATOM     37  O   UNL A   1      41.662  21.054  26.617  1.00  0.00    -0.460 OA
BRANCH  37  38
ATOM     38  C   UNL A   1      42.539  21.896  25.953  1.00  0.00     0.338 C 
ATOM     39  O   UNL A   1      43.231  21.506  25.019  1.00  0.00    -0.246 OA
BRANCH  38  40
ATOM     40  C   UNL A   1      42.626  23.400  26.382  1.00  0.00     0.060 A 
ATOM     41  C   UNL A   1      42.347  23.751  27.700  1.00  0.00     0.016 A 
ATOM     42  C   UNL A   1      42.656  24.526  25.523  1.00  0.00     0.016 A 
ATOM     43  C   UNL A   1      42.185  25.139  28.131  1.00  0.00     0.010 A 
ATOM     44  C   UNL A   1      42.408  25.952  25.961  1.00  0.00     0.010 A 
ATOM     45  C   UNL A   1      42.159  26.335  27.299  1.00  0.00    -0.014 A 
BRANCH  45  46
ATOM     46  C   UNL A   1      41.401  27.737  27.946  1.00  0.00     0.031 A 
ATOM     47  C   UNL A   1      42.568  28.665  27.942  1.00  0.00     0.074 A 
ATOM     48  C   UNL A   1      40.254  28.329  28.568  1.00  0.00     0.049 A 
ATOM     49  N   UNL A   1      43.654  28.296  28.571  1.00  0.00    -0.248 NA
ATOM     50  C   UNL A   1      42.768  29.747  26.977  1.00  0.00     0.031 C 
ATOM     51  C   UNL A   1      38.986  27.683  28.980  1.00  0.00     0.029 A 
ATOM     52  N   UNL A   1      39.922  29.695  29.017  1.00  0.00    -0.354 N 
ATOM     53  C   UNL A   1      44.563  29.297  28.379  1.00  0.00     0.074 A 
ATOM     54  C   UNL A   1      44.067  29.997  27.199  1.00  0.00     0.031 C 
ATOM     55  C   UNL A   1      38.037  28.577  29.419  1.00  0.00     0.029 A 
ATOM     56  C   UNL A   1      38.533  29.958  29.443  1.00  0.00     0.049 A 
ATOM     57  H   UNL A   1      40.603  30.406  29.032  1.00  0.00     0.167 HD
ATOM     58  C   UNL A   1      45.048  29.818  29.543  1.00  0.00     0.037 A 
ATOM     59  C   UNL A   1      37.851  31.127  29.877  1.00  0.00     0.037 A 
ATOM     60  C   UNL A   1      44.410  31.060  29.884  1.00  0.00     0.049 A 
ATOM     61  C   UNL A   1      38.869  31.973  30.505  1.00  0.00     0.074 A 
ATOM     62  C   UNL A   1      43.948  32.129  29.142  1.00  0.00     0.029 A 
ATOM     63  N   UNL A   1      43.749  31.107  31.086  1.00  0.00    -0.354 N 
ATOM     64  N   UNL A   1      39.309  31.719  31.699  1.00  0.00    -0.248 NA
ATOM     65  C   UNL A   1      39.309  33.237  29.925  1.00  0.00     0.031 C 
ATOM     66  C   UNL A   1      42.669  32.389  29.672  1.00  0.00     0.029 A 
ATOM     67  C   UNL A   1      42.587  31.819  30.936  1.00  0.00     0.049 A 
ATOM     68  H   UNL A   1      44.059  30.695  31.924  1.00  0.00     0.167 HD
ATOM     69  C   UNL A   1      40.452  32.444  31.749  1.00  0.00     0.074 A 
ATOM     70  C   UNL A   1      40.262  33.538  30.810  1.00  0.00     0.031 C 
ATOM     71  C   UNL A   1      41.561  31.693  31.936  1.00  0.00     0.037 A 
BRANCH  58  72
ATOM     72  C   UNL A   1      45.414  28.777  30.579  1.00  0.00     0.064 A 
ATOM     73  C   UNL A   1      44.467  27.945  31.222  1.00  0.00     0.173 A 
ATOM     74  C   UNL A   1      46.757  28.578  30.905  1.00  0.00     0.173 A 
ATOM     75  F   UNL A   1      43.150  28.194  31.130  1.00  0.00    -0.203 F 
ATOM     76  C   UNL A   1      44.855  26.875  32.019  1.00  0.00     0.198 A 
ATOM     77  C   UNL A   1      47.138  27.553  31.774  1.00  0.00     0.198 A 
ATOM     78  F   UNL A   1      47.697  29.393  30.405  1.00  0.00    -0.203 F 
ATOM     79  F   UNL A   1      43.927  26.059  32.538  1.00  0.00    -0.200 F 
ATOM     80  C   UNL A   1      46.193  26.681  32.296  1.00  0.00     0.200 A 
ATOM     81  F   UNL A   1      48.426  27.416  32.117  1.00  0.00    -0.200 F 
ATOM     82  F   UNL A   1      46.568  25.678  33.103  1.00  0.00    -0.200 F 
ENDBRANCH  58  72
BRANCH  59  83
ATOM     83  C   UNL A   1      36.454  31.864  30.207  1.00  0.00     0.064 A 
ATOM     84  C   UNL A   1      35.979  32.951  29.454  1.00  0.00     0.173 A 
ATOM     85  C   UNL A   1      35.860  31.832  31.536  1.00  0.00     0.173 A 
ATOM     86  F   UNL A   1      36.430  33.141  28.209  1.00  0.00    -0.203 F 
ATOM     87  C   UNL A   1      35.092  33.941  29.986  1.00  0.00     0.198 A 
ATOM     88  C   UNL A   1      35.018  32.835  32.073  1.00  0.00     0.198 A 
ATOM     89  F   UNL A   1      36.138  30.849  32.403  1.00  0.00    -0.203 F 
ATOM     90  F   UNL A   1      34.725  34.987  29.229  1.00  0.00    -0.200 F 
ATOM     91  C   UNL A   1      34.648  33.905  31.299  1.00  0.00     0.200 A 
ATOM     92  F   UNL A   1      34.637  32.788  33.361  1.00  0.00    -0.200 F 
ATOM     93  F   UNL A   1      33.908  34.900  31.819  1.00  0.00    -0.200 F 
ENDBRANCH  59  83
BRANCH  71  94
ATOM     94  C   UNL A   1      41.522  30.636  33.025  1.00  0.00     0.064 A 
ATOM     95  C   UNL A   1      41.977  31.036  34.289  1.00  0.00     0.173 A 
ATOM     96  C   UNL A   1      41.066  29.298  32.924  1.00  0.00     0.173 A 
ATOM     97  F   UNL A   1      42.452  32.280  34.460  1.00  0.00    -0.203 F 
ATOM     98  C   UNL A   1      42.006  30.169  35.377  1.00  0.00     0.198 A 
ATOM     99  C   UNL A   1      41.045  28.446  34.034  1.00  0.00     0.198 A 
ATOM    100  F   UNL A   1      40.667  28.758  31.765  1.00  0.00    -0.203 F 
ATOM    101  F   UNL A   1      42.526  30.588  36.538  1.00  0.00    -0.200 F 
ATOM    102  C   UNL A   1      41.529  28.879  35.255  1.00  0.00     0.200 A 
ATOM    103  F   UNL A   1      40.574  27.195  33.913  1.00  0.00    -0.200 F 
ATOM    104  F   UNL A   1      41.555  28.049  36.307  1.00  0.00    -0.200 F 
ENDBRANCH  71  94
ENDBRANCH  45  46
ENDBRANCH  38  40
ENDBRANCH  37  38
ENDBRANCH  36  37
ENDBRANCH  35  36
ENDBRANCH  34  35
ENDBRANCH   1  34
TORSDOF 20
ENDMDL
