MODEL 1
REMARK VINA RESULT:     -10.8      0.000      0.000
REMARK SMILES CCCCCCNC(=O)Oc1cccc(-c2ccc([C@@H](C)C(=O)OCCOCCOC(=O)c3ccc(-c4c5nc(c(-c6c(F)c(F)c(F)c(F)c6F)c6ccc([nH]6)c(-c6c(F)c(F)c(F)c(F)c6F)c6nc(c(-c7c(F)c(F)c(F)c(F)c7F)c7ccc4[nH]7)C=C6)C=C5)cc3)cc2Cl)c1
REMARK SMILES IDX 22 1 23 2 20 3 21 4 19 5 16 6 17 7 97 8 18 9 96 10 98 11
REMARK SMILES IDX 15 12 11 13 12 14 99 15 13 16 14 17 10 18 8 19 7 20 9 22
REMARK SMILES IDX 6 23 5 24 4 25 3 26 2 27 1 28 24 29 25 30 26 31 27 32 28 33
REMARK SMILES IDX 29 34 30 35 31 36 32 37 33 38 34 39 95 40 35 41 94 42 36 43
REMARK SMILES IDX 37 44 38 45 88 46 39 47 93 48 87 49 89 50 40 51 92 52 86 53
REMARK SMILES IDX 85 54 41 56 73 57 53 58 72 59 54 60 57 61 71 62 90 63 55 64
REMARK SMILES IDX 56 65 70 67 91 68 58 69 42 70 43 71 51 72 44 73 45 74 49 75
REMARK SMILES IDX 52 76 46 77 47 78 50 79 48 80 74 81 75 82 83 83 76 84 77 85
REMARK SMILES IDX 81 86 84 87 78 88 79 89 82 90 80 91 59 92 60 93 68 94 61 95
REMARK SMILES IDX 62 96 66 97 69 98 63 99 64 100 67 101 65 102
REMARK H PARENT 7 21 89 55 57 66
REMARK Flexibility Score: inf
ROOT
ATOM      1  C   UNL A   1      34.402  33.348  29.910  1.00  0.00     0.313 C 
ATOM      2  O   UNL A   1      34.108  32.588  30.827  1.00  0.00    -0.252 OA
ENDROOT
BRANCH   1   3
ATOM      3  C   UNL A   1      34.780  32.828  28.532  1.00  0.00     0.126 C 
ATOM      4  C   UNL A   1      35.106  34.013  27.625  1.00  0.00     0.025 C 
BRANCH   3   5
ATOM      5  C   UNL A   1      33.844  31.837  27.845  1.00  0.00    -0.033 A 
ATOM      6  C   UNL A   1      32.272  30.008  26.293  1.00  0.00     0.000 A 
ATOM      7  C   UNL A   1      31.777  31.267  26.688  1.00  0.00     0.010 A 
ATOM      8  C   UNL A   1      33.563  29.666  26.739  1.00  0.00     0.049 A 
ATOM      9  C   UNL A   1      32.547  32.168  27.439  1.00  0.00     0.005 A 
ATOM     10  C   UNL A   1      34.326  30.561  27.507  1.00  0.00     0.025 A 
ATOM     11  Cl  UNL A   1      34.335  28.175  26.307  1.00  0.00    -0.084 Cl
BRANCH   6  12
ATOM     12  C   UNL A   1      31.471  29.166  25.376  1.00  0.00    -0.013 A 
ATOM     13  C   UNL A   1      30.560  27.027  24.661  1.00  0.00     0.133 A 
ATOM     14  C   UNL A   1      30.038  27.600  23.504  1.00  0.00     0.047 A 
ATOM     15  C   UNL A   1      31.266  27.793  25.595  1.00  0.00     0.056 A 
ATOM     16  C   UNL A   1      30.208  28.962  23.284  1.00  0.00     0.004 A 
ATOM     17  C   UNL A   1      30.919  29.733  24.207  1.00  0.00     0.009 A 
BRANCH  13  18
ATOM     18  O   UNL A   1      30.465  25.627  24.760  1.00  0.00    -0.410 OA
BRANCH  18  19
ATOM     19  C   UNL A   1      31.460  24.844  24.201  1.00  0.00     0.412 C 
ATOM     20  N   UNL A   1      31.879  23.834  25.022  1.00  0.00    -0.321 N 
ATOM     21  H   UNL A   1      32.581  23.242  24.666  1.00  0.00     0.167 HD
ATOM     22  O   UNL A   1      31.964  25.005  23.090  1.00  0.00    -0.224 OA
BRANCH  20  23
ATOM     23  C   UNL A   1      31.402  23.540  26.361  1.00  0.00     0.119 C 
BRANCH  23  24
ATOM     24  C   UNL A   1      32.499  22.954  27.250  1.00  0.00     0.021 C 
BRANCH  24  25
ATOM     25  C   UNL A   1      33.722  22.411  26.500  1.00  0.00     0.002 C 
BRANCH  25  26
ATOM     26  C   UNL A   1      34.877  23.401  26.307  1.00  0.00    -0.000 C 
BRANCH  26  27
ATOM     27  C   UNL A   1      35.670  23.244  25.008  1.00  0.00    -0.003 C 
ATOM     28  C   UNL A   1      34.862  22.623  23.879  1.00  0.00     0.004 C 
ENDBRANCH  26  27
ENDBRANCH  25  26
ENDBRANCH  24  25
ENDBRANCH  23  24
ENDBRANCH  20  23
ENDBRANCH  18  19
ENDBRANCH  13  18
ENDBRANCH   6  12
ENDBRANCH   3   5
ENDBRANCH   1   3
BRANCH   1  29
ATOM     29  O   UNL A   1      34.457  34.701  30.025  1.00  0.00    -0.463 OA
BRANCH  29  30
ATOM     30  C   UNL A   1      33.260  35.338  30.504  1.00  0.00     0.261 C 
BRANCH  30  31
ATOM     31  C   UNL A   1      33.453  35.881  31.922  1.00  0.00     0.202 C 
BRANCH  31  32
ATOM     32  O   UNL A   1      33.702  34.913  32.941  1.00  0.00    -0.374 OA
BRANCH  32  33
ATOM     33  C   UNL A   1      34.900  35.046  33.704  1.00  0.00     0.202 C 
BRANCH  33  34
ATOM     34  C   UNL A   1      36.139  34.310  33.180  1.00  0.00     0.261 C 
BRANCH  34  35
ATOM     35  O   UNL A   1      35.934  32.890  33.072  1.00  0.00    -0.460 OA
BRANCH  35  36
ATOM     36  C   UNL A   1      36.892  32.142  33.668  1.00  0.00     0.338 C 
ATOM     37  O   UNL A   1      37.053  31.957  34.863  1.00  0.00    -0.246 OA
BRANCH  36  38
ATOM     38  C   UNL A   1      37.659  31.385  32.658  1.00  0.00     0.060 A 
ATOM     39  C   UNL A   1      38.693  30.569  33.131  1.00  0.00     0.016 A 
ATOM     40  C   UNL A   1      37.454  31.547  31.286  1.00  0.00     0.016 A 
ATOM     41  C   UNL A   1      39.576  29.971  32.237  1.00  0.00     0.010 A 
ATOM     42  C   UNL A   1      38.345  30.946  30.387  1.00  0.00     0.010 A 
ATOM     43  C   UNL A   1      39.439  30.196  30.861  1.00  0.00    -0.014 A 
BRANCH  43  44
ATOM     44  C   UNL A   1      40.551  29.793  29.963  1.00  0.00     0.031 A 
ATOM     45  C   UNL A   1      41.659  30.776  29.691  1.00  0.00     0.074 A 
ATOM     46  C   UNL A   1      40.627  28.542  29.474  1.00  0.00     0.049 A 
ATOM     47  N   UNL A   1      42.753  30.625  28.986  1.00  0.00    -0.248 NA
ATOM     48  C   UNL A   1      41.521  32.108  30.304  1.00  0.00     0.031 C 
ATOM     49  C   UNL A   1      39.648  27.483  29.707  1.00  0.00     0.029 A 
ATOM     50  N   UNL A   1      41.586  27.948  28.690  1.00  0.00    -0.354 N 
ATOM     51  C   UNL A   1      43.432  31.834  29.079  1.00  0.00     0.074 A 
ATOM     52  C   UNL A   1      42.611  32.723  29.871  1.00  0.00     0.031 C 
ATOM     53  C   UNL A   1      40.058  26.366  29.082  1.00  0.00     0.029 A 
ATOM     54  C   UNL A   1      41.314  26.637  28.386  1.00  0.00     0.049 A 
ATOM     55  H   UNL A   1      42.392  28.417  28.375  1.00  0.00     0.167 HD
ATOM     56  C   UNL A   1      44.640  32.168  28.565  1.00  0.00     0.037 A 
ATOM     57  C   UNL A   1      41.999  25.761  27.625  1.00  0.00     0.037 A 
ATOM     58  C   UNL A   1      45.462  31.286  27.779  1.00  0.00     0.049 A 
ATOM     59  C   UNL A   1      43.300  26.188  26.994  1.00  0.00     0.074 A 
ATOM     60  C   UNL A   1      46.699  31.535  27.212  1.00  0.00     0.029 A 
ATOM     61  N   UNL A   1      45.124  29.983  27.447  1.00  0.00    -0.354 N 
ATOM     62  N   UNL A   1      43.942  27.326  27.104  1.00  0.00    -0.248 NA
ATOM     63  C   UNL A   1      43.975  25.203  26.135  1.00  0.00     0.031 C 
ATOM     64  C   UNL A   1      47.091  30.396  26.500  1.00  0.00     0.029 A 
ATOM     65  C   UNL A   1      46.121  29.422  26.665  1.00  0.00     0.049 A 
ATOM     66  H   UNL A   1      44.299  29.523  27.726  1.00  0.00     0.167 HD
ATOM     67  C   UNL A   1      45.106  27.182  26.359  1.00  0.00     0.074 A 
ATOM     68  C   UNL A   1      45.091  25.842  25.814  1.00  0.00     0.031 C 
ATOM     69  C   UNL A   1      46.099  28.080  26.144  1.00  0.00     0.037 A 
BRANCH  56  70
ATOM     70  C   UNL A   1      45.147  33.555  28.831  1.00  0.00     0.064 A 
ATOM     71  C   UNL A   1      45.969  33.838  29.932  1.00  0.00     0.173 A 
ATOM     72  C   UNL A   1      44.850  34.602  27.946  1.00  0.00     0.173 A 
ATOM     73  F   UNL A   1      46.272  32.872  30.813  1.00  0.00    -0.203 F 
ATOM     74  C   UNL A   1      46.459  35.123  30.147  1.00  0.00     0.198 A 
ATOM     75  C   UNL A   1      45.364  35.880  28.150  1.00  0.00     0.198 A 
ATOM     76  F   UNL A   1      44.073  34.383  26.875  1.00  0.00    -0.203 F 
ATOM     77  F   UNL A   1      47.214  35.379  31.225  1.00  0.00    -0.200 F 
ATOM     78  C   UNL A   1      46.163  36.140  29.253  1.00  0.00     0.200 A 
ATOM     79  F   UNL A   1      45.087  36.859  27.277  1.00  0.00    -0.200 F 
ATOM     80  F   UNL A   1      46.647  37.375  29.454  1.00  0.00    -0.200 F 
ENDBRANCH  56  70
BRANCH  57  81
ATOM     81  C   UNL A   1      41.472  24.389  27.401  1.00  0.00     0.064 A 
ATOM     82  C   UNL A   1      40.316  24.169  26.638  1.00  0.00     0.173 A 
ATOM     83  C   UNL A   1      42.086  23.272  27.988  1.00  0.00     0.173 A 
ATOM     84  F   UNL A   1      39.677  25.207  26.079  1.00  0.00    -0.203 F 
ATOM     85  C   UNL A   1      39.781  22.890  26.492  1.00  0.00     0.198 A 
ATOM     86  C   UNL A   1      41.568  21.990  27.816  1.00  0.00     0.198 A 
ATOM     87  F   UNL A   1      43.192  23.426  28.731  1.00  0.00    -0.203 F 
ATOM     88  F   UNL A   1      38.643  22.717  25.806  1.00  0.00    -0.200 F 
ATOM     89  C   UNL A   1      40.409  21.802  27.078  1.00  0.00     0.200 A 
ATOM     90  F   UNL A   1      42.184  20.941  28.377  1.00  0.00    -0.200 F 
ATOM     91  F   UNL A   1      39.892  20.574  26.943  1.00  0.00    -0.200 F 
ENDBRANCH  57  81
BRANCH  69  92
ATOM     92  C   UNL A   1      47.271  27.631  25.319  1.00  0.00     0.064 A 
ATOM     93  C   UNL A   1      47.321  27.844  23.933  1.00  0.00     0.173 A 
ATOM     94  C   UNL A   1      48.374  27.016  25.930  1.00  0.00     0.173 A 
ATOM     95  F   UNL A   1      46.286  28.416  23.300  1.00  0.00    -0.203 F 
ATOM     96  C   UNL A   1      48.422  27.433  23.186  1.00  0.00     0.198 A 
ATOM     97  C   UNL A   1      49.486  26.633  25.184  1.00  0.00     0.198 A 
ATOM     98  F   UNL A   1      48.380  26.796  27.253  1.00  0.00    -0.203 F 
ATOM     99  F   UNL A   1      48.427  27.603  21.857  1.00  0.00    -0.200 F 
ATOM    100  C   UNL A   1      49.505  26.835  23.812  1.00  0.00     0.200 A 
ATOM    101  F   UNL A   1      50.538  26.067  25.792  1.00  0.00    -0.200 F 
ATOM    102  F   UNL A   1      50.566  26.445  23.092  1.00  0.00    -0.200 F 
ENDBRANCH  69  92
ENDBRANCH  43  44
ENDBRANCH  36  38
ENDBRANCH  35  36
ENDBRANCH  34  35
ENDBRANCH  33  34
ENDBRANCH  32  33
ENDBRANCH  31  32
ENDBRANCH  30  31
ENDBRANCH  29  30
ENDBRANCH   1  29
TORSDOF 23
ENDMDL
MODEL 2
REMARK VINA RESULT:     -10.6      3.004      9.688
REMARK SMILES CCCCCCNC(=O)Oc1cccc(-c2ccc([C@@H](C)C(=O)OCCOCCOC(=O)c3ccc(-c4c5nc(c(-c6c(F)c(F)c(F)c(F)c6F)c6ccc([nH]6)c(-c6c(F)c(F)c(F)c(F)c6F)c6nc(c(-c7c(F)c(F)c(F)c(F)c7F)c7ccc4[nH]7)C=C6)C=C5)cc3)cc2Cl)c1
REMARK SMILES IDX 22 1 23 2 20 3 21 4 19 5 16 6 17 7 97 8 18 9 96 10 98 11
REMARK SMILES IDX 15 12 11 13 12 14 99 15 13 16 14 17 10 18 8 19 7 20 9 22
REMARK SMILES IDX 6 23 5 24 4 25 3 26 2 27 1 28 24 29 25 30 26 31 27 32 28 33
REMARK SMILES IDX 29 34 30 35 31 36 32 37 33 38 34 39 95 40 35 41 94 42 36 43
REMARK SMILES IDX 37 44 38 45 88 46 39 47 93 48 87 49 89 50 40 51 92 52 86 53
REMARK SMILES IDX 85 54 41 56 73 57 53 58 72 59 54 60 57 61 71 62 90 63 55 64
REMARK SMILES IDX 56 65 70 67 91 68 58 69 42 70 43 71 51 72 44 73 45 74 49 75
REMARK SMILES IDX 52 76 46 77 47 78 50 79 48 80 74 81 75 82 83 83 76 84 77 85
REMARK SMILES IDX 81 86 84 87 78 88 79 89 82 90 80 91 59 92 60 93 68 94 61 95
REMARK SMILES IDX 62 96 66 97 69 98 63 99 64 100 67 101 65 102
REMARK H PARENT 7 21 89 55 57 66
REMARK Flexibility Score: inf
ROOT
ATOM      1  C   UNL A   1      34.972  23.322  23.717  1.00  0.00     0.313 C 
ATOM      2  O   UNL A   1      35.793  23.599  22.848  1.00  0.00    -0.252 OA
ENDROOT
BRANCH   1   3
ATOM      3  C   UNL A   1      33.534  23.810  23.640  1.00  0.00     0.126 C 
ATOM      4  C   UNL A   1      33.032  23.657  22.206  1.00  0.00     0.025 C 
BRANCH   3   5
ATOM      5  C   UNL A   1      33.200  25.189  24.205  1.00  0.00    -0.033 A 
ATOM      6  C   UNL A   1      32.891  27.829  25.281  1.00  0.00     0.000 A 
ATOM      7  C   UNL A   1      32.559  26.678  26.024  1.00  0.00     0.010 A 
ATOM      8  C   UNL A   1      33.338  27.626  23.962  1.00  0.00     0.049 A 
ATOM      9  C   UNL A   1      32.718  25.385  25.504  1.00  0.00     0.005 A 
ATOM     10  C   UNL A   1      33.479  26.331  23.436  1.00  0.00     0.025 A 
ATOM     11  Cl  UNL A   1      33.827  28.931  22.930  1.00  0.00    -0.084 Cl
BRANCH   6  12
ATOM     12  C   UNL A   1      32.845  29.156  25.936  1.00  0.00    -0.013 A 
ATOM     13  C   UNL A   1      33.751  30.855  27.422  1.00  0.00     0.133 A 
ATOM     14  C   UNL A   1      32.619  31.650  27.256  1.00  0.00     0.047 A 
ATOM     15  C   UNL A   1      33.875  29.623  26.771  1.00  0.00     0.056 A 
ATOM     16  C   UNL A   1      31.602  31.216  26.413  1.00  0.00     0.004 A 
ATOM     17  C   UNL A   1      31.714  29.983  25.765  1.00  0.00     0.009 A 
BRANCH  13  18
ATOM     18  O   UNL A   1      34.680  31.289  28.385  1.00  0.00    -0.410 OA
BRANCH  18  19
ATOM     19  C   UNL A   1      34.991  32.636  28.462  1.00  0.00     0.412 C 
ATOM     20  N   UNL A   1      35.062  33.102  29.745  1.00  0.00    -0.321 N 
ATOM     21  H   UNL A   1      35.288  34.054  29.854  1.00  0.00     0.167 HD
ATOM     22  O   UNL A   1      35.177  33.388  27.506  1.00  0.00    -0.224 OA
BRANCH  20  23
ATOM     23  C   UNL A   1      34.839  32.346  30.964  1.00  0.00     0.119 C 
BRANCH  23  24
ATOM     24  C   UNL A   1      36.041  32.400  31.907  1.00  0.00     0.021 C 
BRANCH  24  25
ATOM     25  C   UNL A   1      36.835  33.712  31.872  1.00  0.00     0.002 C 
BRANCH  25  26
ATOM     26  C   UNL A   1      38.125  33.687  31.045  1.00  0.00    -0.000 C 
BRANCH  26  27
ATOM     27  C   UNL A   1      38.797  32.318  30.912  1.00  0.00    -0.003 C 
ATOM     28  C   UNL A   1      39.892  32.081  31.941  1.00  0.00     0.004 C 
ENDBRANCH  26  27
ENDBRANCH  25  26
ENDBRANCH  24  25
ENDBRANCH  23  24
ENDBRANCH  20  23
ENDBRANCH  18  19
ENDBRANCH  13  18
ENDBRANCH   6  12
ENDBRANCH   3   5
ENDBRANCH   1   3
BRANCH   1  29
ATOM     29  O   UNL A   1      35.252  22.599  24.832  1.00  0.00    -0.463 OA
BRANCH  29  30
ATOM     30  C   UNL A   1      35.258  21.170  24.667  1.00  0.00     0.261 C 
BRANCH  30  31
ATOM     31  C   UNL A   1      36.474  20.542  25.351  1.00  0.00     0.202 C 
BRANCH  31  32
ATOM     32  O   UNL A   1      37.753  21.008  24.920  1.00  0.00    -0.374 OA
BRANCH  32  33
ATOM     33  C   UNL A   1      38.460  21.897  25.783  1.00  0.00     0.202 C 
BRANCH  33  34
ATOM     34  C   UNL A   1      39.881  21.485  26.187  1.00  0.00     0.261 C 
BRANCH  34  35
ATOM     35  O   UNL A   1      40.075  20.060  26.149  1.00  0.00    -0.460 OA
BRANCH  35  36
ATOM     36  C   UNL A   1      41.373  19.674  26.167  1.00  0.00     0.338 C 
ATOM     37  O   UNL A   1      41.824  18.573  25.896  1.00  0.00    -0.246 OA
BRANCH  36  38
ATOM     38  C   UNL A   1      42.255  20.837  26.387  1.00  0.00     0.060 A 
ATOM     39  C   UNL A   1      42.340  21.326  27.696  1.00  0.00     0.016 A 
ATOM     40  C   UNL A   1      42.892  21.503  25.338  1.00  0.00     0.016 A 
ATOM     41  C   UNL A   1      43.000  22.524  27.952  1.00  0.00     0.010 A 
ATOM     42  C   UNL A   1      43.555  22.711  25.597  1.00  0.00     0.010 A 
ATOM     43  C   UNL A   1      43.568  23.251  26.898  1.00  0.00    -0.014 A 
BRANCH  43  44
ATOM     44  C   UNL A   1      44.002  24.648  27.152  1.00  0.00     0.031 A 
ATOM     45  C   UNL A   1      42.981  25.653  27.621  1.00  0.00     0.074 A 
ATOM     46  C   UNL A   1      45.298  24.997  27.065  1.00  0.00     0.049 A 
ATOM     47  N   UNL A   1      43.142  26.909  27.955  1.00  0.00    -0.248 NA
ATOM     48  C   UNL A   1      41.594  25.175  27.736  1.00  0.00     0.031 C 
ATOM     49  C   UNL A   1      46.388  24.107  26.675  1.00  0.00     0.029 A 
ATOM     50  N   UNL A   1      45.916  26.198  27.315  1.00  0.00    -0.354 N 
ATOM     51  C   UNL A   1      41.883  27.365  28.326  1.00  0.00     0.074 A 
ATOM     52  C   UNL A   1      40.961  26.267  28.137  1.00  0.00     0.031 C 
ATOM     53  C   UNL A   1      47.545  24.790  26.715  1.00  0.00     0.029 A 
ATOM     54  C   UNL A   1      47.274  26.171  27.110  1.00  0.00     0.049 A 
ATOM     55  H   UNL A   1      45.433  27.002  27.613  1.00  0.00     0.167 HD
ATOM     56  C   UNL A   1      41.529  28.583  28.800  1.00  0.00     0.037 A 
ATOM     57  C   UNL A   1      48.189  27.154  27.220  1.00  0.00     0.037 A 
ATOM     58  C   UNL A   1      42.443  29.678  28.992  1.00  0.00     0.049 A 
ATOM     59  C   UNL A   1      47.752  28.526  27.668  1.00  0.00     0.074 A 
ATOM     60  C   UNL A   1      42.178  30.951  29.464  1.00  0.00     0.029 A 
ATOM     61  N   UNL A   1      43.801  29.627  28.720  1.00  0.00    -0.354 N 
ATOM     62  N   UNL A   1      46.564  28.940  28.034  1.00  0.00    -0.248 NA
ATOM     63  C   UNL A   1      48.790  29.567  27.721  1.00  0.00     0.031 C 
ATOM     64  C   UNL A   1      43.369  31.685  29.435  1.00  0.00     0.029 A 
ATOM     65  C   UNL A   1      44.384  30.853  28.993  1.00  0.00     0.049 A 
ATOM     66  H   UNL A   1      44.281  28.836  28.383  1.00  0.00     0.167 HD
ATOM     67  C   UNL A   1      46.717  30.274  28.391  1.00  0.00     0.074 A 
ATOM     68  C   UNL A   1      48.116  30.597  28.212  1.00  0.00     0.031 C 
ATOM     69  C   UNL A   1      45.782  31.154  28.827  1.00  0.00     0.037 A 
BRANCH  56  70
ATOM     70  C   UNL A   1      40.083  28.803  29.137  1.00  0.00     0.064 A 
ATOM     71  C   UNL A   1      39.149  29.172  28.157  1.00  0.00     0.173 A 
ATOM     72  C   UNL A   1      39.618  28.595  30.444  1.00  0.00     0.173 A 
ATOM     73  F   UNL A   1      39.547  29.395  26.896  1.00  0.00    -0.203 F 
ATOM     74  C   UNL A   1      37.805  29.341  28.478  1.00  0.00     0.198 A 
ATOM     75  C   UNL A   1      38.268  28.739  30.755  1.00  0.00     0.198 A 
ATOM     76  F   UNL A   1      40.469  28.236  31.416  1.00  0.00    -0.203 F 
ATOM     77  F   UNL A   1      36.935  29.728  27.534  1.00  0.00    -0.200 F 
ATOM     78  C   UNL A   1      37.364  29.116  29.773  1.00  0.00     0.200 A 
ATOM     79  F   UNL A   1      37.842  28.508  32.005  1.00  0.00    -0.200 F 
ATOM     80  F   UNL A   1      36.067  29.267  30.078  1.00  0.00    -0.200 F 
ENDBRANCH  56  70
BRANCH  57  81
ATOM     81  C   UNL A   1      49.616  26.890  26.895  1.00  0.00     0.064 A 
ATOM     82  C   UNL A   1      50.086  26.959  25.575  1.00  0.00     0.173 A 
ATOM     83  C   UNL A   1      50.530  26.517  27.891  1.00  0.00     0.173 A 
ATOM     84  F   UNL A   1      49.245  27.285  24.583  1.00  0.00    -0.203 F 
ATOM     85  C   UNL A   1      51.405  26.638  25.262  1.00  0.00     0.198 A 
ATOM     86  C   UNL A   1      51.857  26.226  27.582  1.00  0.00     0.198 A 
ATOM     87  F   UNL A   1      50.133  26.432  29.169  1.00  0.00    -0.203 F 
ATOM     88  F   UNL A   1      51.812  26.655  23.985  1.00  0.00    -0.200 F 
ATOM     89  C   UNL A   1      52.291  26.276  26.266  1.00  0.00     0.200 A 
ATOM     90  F   UNL A   1      52.710  25.885  28.556  1.00  0.00    -0.200 F 
ATOM     91  F   UNL A   1      53.557  25.962  25.964  1.00  0.00    -0.200 F 
ENDBRANCH  57  81
BRANCH  69  92
ATOM     92  C   UNL A   1      46.247  32.538  29.181  1.00  0.00     0.064 A 
ATOM     93  C   UNL A   1      46.721  32.849  30.464  1.00  0.00     0.173 A 
ATOM     94  C   UNL A   1      46.253  33.554  28.213  1.00  0.00     0.173 A 
ATOM     95  F   UNL A   1      46.722  31.916  31.428  1.00  0.00    -0.203 F 
ATOM     96  C   UNL A   1      47.161  34.134  30.772  1.00  0.00     0.198 A 
ATOM     97  C   UNL A   1      46.722  34.829  28.516  1.00  0.00     0.198 A 
ATOM     98  F   UNL A   1      45.817  33.306  26.969  1.00  0.00    -0.203 F 
ATOM     99  F   UNL A   1      47.564  34.421  32.017  1.00  0.00    -0.200 F 
ATOM    100  C   UNL A   1      47.167  35.121  29.797  1.00  0.00     0.200 A 
ATOM    101  F   UNL A   1      46.740  35.778  27.569  1.00  0.00    -0.200 F 
ATOM    102  F   UNL A   1      47.596  36.355  30.093  1.00  0.00    -0.200 F 
ENDBRANCH  69  92
ENDBRANCH  43  44
ENDBRANCH  36  38
ENDBRANCH  35  36
ENDBRANCH  34  35
ENDBRANCH  33  34
ENDBRANCH  32  33
ENDBRANCH  31  32
ENDBRANCH  30  31
ENDBRANCH  29  30
ENDBRANCH   1  29
TORSDOF 23
ENDMDL
MODEL 3
REMARK VINA RESULT:     -10.5      1.012      6.996
REMARK SMILES CCCCCCNC(=O)Oc1cccc(-c2ccc([C@@H](C)C(=O)OCCOCCOC(=O)c3ccc(-c4c5nc(c(-c6c(F)c(F)c(F)c(F)c6F)c6ccc([nH]6)c(-c6c(F)c(F)c(F)c(F)c6F)c6nc(c(-c7c(F)c(F)c(F)c(F)c7F)c7ccc4[nH]7)C=C6)C=C5)cc3)cc2Cl)c1
REMARK SMILES IDX 22 1 23 2 20 3 21 4 19 5 16 6 17 7 97 8 18 9 96 10 98 11
REMARK SMILES IDX 15 12 11 13 12 14 99 15 13 16 14 17 10 18 8 19 7 20 9 22
REMARK SMILES IDX 6 23 5 24 4 25 3 26 2 27 1 28 24 29 25 30 26 31 27 32 28 33
REMARK SMILES IDX 29 34 30 35 31 36 32 37 33 38 34 39 95 40 35 41 94 42 36 43
REMARK SMILES IDX 37 44 38 45 88 46 39 47 93 48 87 49 89 50 40 51 92 52 86 53
REMARK SMILES IDX 85 54 41 56 73 57 53 58 72 59 54 60 57 61 71 62 90 63 55 64
REMARK SMILES IDX 56 65 70 67 91 68 58 69 42 70 43 71 51 72 44 73 45 74 49 75
REMARK SMILES IDX 52 76 46 77 47 78 50 79 48 80 74 81 75 82 83 83 76 84 77 85
REMARK SMILES IDX 81 86 84 87 78 88 79 89 82 90 80 91 59 92 60 93 68 94 61 95
REMARK SMILES IDX 62 96 66 97 69 98 63 99 64 100 67 101 65 102
REMARK H PARENT 7 21 89 55 57 66
REMARK Flexibility Score: inf
ROOT
ATOM      1  C   UNL A   1      35.056  32.312  29.877  1.00  0.00     0.313 C 
ATOM      2  O   UNL A   1      34.655  31.654  30.832  1.00  0.00    -0.252 OA
ENDROOT
BRANCH   1   3
ATOM      3  C   UNL A   1      35.482  31.651  28.576  1.00  0.00     0.126 C 
ATOM      4  C   UNL A   1      36.215  32.676  27.713  1.00  0.00     0.025 C 
BRANCH   3   5
ATOM      5  C   UNL A   1      34.436  30.886  27.770  1.00  0.00    -0.033 A 
ATOM      6  C   UNL A   1      32.677  29.460  26.009  1.00  0.00     0.000 A 
ATOM      7  C   UNL A   1      32.388  30.766  26.453  1.00  0.00     0.010 A 
ATOM      8  C   UNL A   1      33.850  28.864  26.510  1.00  0.00     0.049 A 
ATOM      9  C   UNL A   1      33.252  31.470  27.307  1.00  0.00     0.005 A 
ATOM     10  C   UNL A   1      34.704  29.562  27.379  1.00  0.00     0.025 A 
ATOM     11  Cl  UNL A   1      34.371  27.281  26.031  1.00  0.00    -0.084 Cl
BRANCH   6  12
ATOM     12  C   UNL A   1      31.806  28.828  24.991  1.00  0.00    -0.013 A 
ATOM     13  C   UNL A   1      30.245  27.113  24.260  1.00  0.00     0.133 A 
ATOM     14  C   UNL A   1      30.271  27.600  22.956  1.00  0.00     0.047 A 
ATOM     15  C   UNL A   1      30.997  27.715  25.275  1.00  0.00     0.056 A 
ATOM     16  C   UNL A   1      31.045  28.717  22.663  1.00  0.00     0.004 A 
ATOM     17  C   UNL A   1      31.806  29.320  23.668  1.00  0.00     0.009 A 
BRANCH  13  18
ATOM     18  O   UNL A   1      29.547  25.908  24.462  1.00  0.00    -0.410 OA
BRANCH  18  19
ATOM     19  C   UNL A   1      29.982  25.032  25.441  1.00  0.00     0.412 C 
ATOM     20  N   UNL A   1      30.699  23.979  24.945  1.00  0.00    -0.321 N 
ATOM     21  H   UNL A   1      31.038  23.331  25.603  1.00  0.00     0.167 HD
ATOM     22  O   UNL A   1      29.760  25.133  26.647  1.00  0.00    -0.224 OA
BRANCH  20  23
ATOM     23  C   UNL A   1      31.013  23.713  23.553  1.00  0.00     0.119 C 
BRANCH  23  24
ATOM     24  C   UNL A   1      32.395  23.080  23.383  1.00  0.00     0.021 C 
BRANCH  24  25
ATOM     25  C   UNL A   1      32.525  21.650  23.923  1.00  0.00     0.002 C 
BRANCH  25  26
ATOM     26  C   UNL A   1      33.487  21.471  25.104  1.00  0.00    -0.000 C 
BRANCH  26  27
ATOM     27  C   UNL A   1      34.429  20.269  25.010  1.00  0.00    -0.003 C 
ATOM     28  C   UNL A   1      35.900  20.655  25.002  1.00  0.00     0.004 C 
ENDBRANCH  26  27
ENDBRANCH  25  26
ENDBRANCH  24  25
ENDBRANCH  23  24
ENDBRANCH  20  23
ENDBRANCH  18  19
ENDBRANCH  13  18
ENDBRANCH   6  12
ENDBRANCH   3   5
ENDBRANCH   1   3
BRANCH   1  29
ATOM     29  O   UNL A   1      35.195  33.663  29.882  1.00  0.00    -0.463 OA
BRANCH  29  30
ATOM     30  C   UNL A   1      33.976  34.418  30.004  1.00  0.00     0.261 C 
BRANCH  30  31
ATOM     31  C   UNL A   1      33.873  35.080  31.380  1.00  0.00     0.202 C 
BRANCH  31  32
ATOM     32  O   UNL A   1      33.631  34.209  32.484  1.00  0.00    -0.374 OA
BRANCH  32  33
ATOM     33  C   UNL A   1      34.484  34.326  33.621  1.00  0.00     0.202 C 
BRANCH  33  34
ATOM     34  C   UNL A   1      35.943  33.889  33.439  1.00  0.00     0.261 C 
BRANCH  34  35
ATOM     35  O   UNL A   1      36.071  32.474  33.209  1.00  0.00    -0.460 OA
BRANCH  35  36
ATOM     36  C   UNL A   1      37.161  31.913  33.784  1.00  0.00     0.338 C 
ATOM     37  O   UNL A   1      37.409  31.825  34.975  1.00  0.00    -0.246 OA
BRANCH  36  38
ATOM     38  C   UNL A   1      37.980  31.219  32.770  1.00  0.00     0.060 A 
ATOM     39  C   UNL A   1      38.871  30.245  33.237  1.00  0.00     0.016 A 
ATOM     40  C   UNL A   1      37.967  31.581  31.422  1.00  0.00     0.016 A 
ATOM     41  C   UNL A   1      39.804  29.680  32.373  1.00  0.00     0.010 A 
ATOM     42  C   UNL A   1      38.909  31.014  30.553  1.00  0.00     0.010 A 
ATOM     43  C   UNL A   1      39.864  30.098  31.036  1.00  0.00    -0.014 A 
BRANCH  43  44
ATOM     44  C   UNL A   1      41.041  29.703  30.222  1.00  0.00     0.031 A 
ATOM     45  C   UNL A   1      41.033  28.364  29.532  1.00  0.00     0.074 A 
ATOM     46  C   UNL A   1      42.060  30.557  30.019  1.00  0.00     0.049 A 
ATOM     47  N   UNL A   1      41.923  27.834  28.731  1.00  0.00    -0.248 NA
ATOM     48  C   UNL A   1      39.858  27.509  29.769  1.00  0.00     0.031 C 
ATOM     49  C   UNL A   1      42.162  31.900  30.587  1.00  0.00     0.029 A 
ATOM     50  N   UNL A   1      43.198  30.423  29.262  1.00  0.00    -0.354 N 
ATOM     51  C   UNL A   1      41.413  26.594  28.365  1.00  0.00     0.074 A 
ATOM     52  C   UNL A   1      40.157  26.430  29.062  1.00  0.00     0.031 C 
ATOM     53  C   UNL A   1      43.300  32.470  30.155  1.00  0.00     0.029 A 
ATOM     54  C   UNL A   1      44.018  31.525  29.302  1.00  0.00     0.049 A 
ATOM     55  H   UNL A   1      43.408  29.615  28.741  1.00  0.00     0.167 HD
ATOM     56  C   UNL A   1      41.935  25.683  27.510  1.00  0.00     0.037 A 
ATOM     57  C   UNL A   1      45.215  31.738  28.722  1.00  0.00     0.037 A 
ATOM     58  C   UNL A   1      43.183  25.843  26.812  1.00  0.00     0.049 A 
ATOM     59  C   UNL A   1      45.813  30.668  27.843  1.00  0.00     0.074 A 
ATOM     60  C   UNL A   1      43.795  24.972  25.928  1.00  0.00     0.029 A 
ATOM     61  N   UNL A   1      44.010  26.949  26.922  1.00  0.00    -0.354 N 
ATOM     62  N   UNL A   1      45.314  29.510  27.488  1.00  0.00    -0.248 NA
ATOM     63  C   UNL A   1      47.143  30.942  27.278  1.00  0.00     0.031 C 
ATOM     64  C   UNL A   1      45.016  25.533  25.537  1.00  0.00     0.029 A 
ATOM     65  C   UNL A   1      45.139  26.775  26.139  1.00  0.00     0.049 A 
ATOM     66  H   UNL A   1      43.823  27.743  27.475  1.00  0.00     0.167 HD
ATOM     67  C   UNL A   1      46.249  28.933  26.638  1.00  0.00     0.074 A 
ATOM     68  C   UNL A   1      47.340  29.876  26.516  1.00  0.00     0.031 C 
ATOM     69  C   UNL A   1      46.209  27.730  26.014  1.00  0.00     0.037 A 
BRANCH  56  70
ATOM     70  C   UNL A   1      41.158  24.418  27.287  1.00  0.00     0.064 A 
ATOM     71  C   UNL A   1      39.993  24.401  26.506  1.00  0.00     0.173 A 
ATOM     72  C   UNL A   1      41.613  23.201  27.817  1.00  0.00     0.173 A 
ATOM     73  F   UNL A   1      39.512  25.540  25.987  1.00  0.00    -0.203 F 
ATOM     74  C   UNL A   1      39.301  23.214  26.280  1.00  0.00     0.198 A 
ATOM     75  C   UNL A   1      40.933  22.012  27.566  1.00  0.00     0.198 A 
ATOM     76  F   UNL A   1      42.725  23.163  28.565  1.00  0.00    -0.203 F 
ATOM     77  F   UNL A   1      38.170  23.225  25.561  1.00  0.00    -0.200 F 
ATOM     78  C   UNL A   1      39.776  22.020  26.803  1.00  0.00     0.200 A 
ATOM     79  F   UNL A   1      41.401  20.858  28.062  1.00  0.00    -0.200 F 
ATOM     80  F   UNL A   1      39.116  20.876  26.573  1.00  0.00    -0.200 F 
ENDBRANCH  56  70
BRANCH  57  81
ATOM     81  C   UNL A   1      45.945  33.013  28.953  1.00  0.00     0.064 A 
ATOM     82  C   UNL A   1      45.762  34.119  28.110  1.00  0.00     0.173 A 
ATOM     83  C   UNL A   1      46.877  33.136  29.994  1.00  0.00     0.173 A 
ATOM     84  F   UNL A   1      44.902  34.042  27.084  1.00  0.00    -0.203 F 
ATOM     85  C   UNL A   1      46.502  35.287  28.282  1.00  0.00     0.198 A 
ATOM     86  C   UNL A   1      47.595  34.315  30.184  1.00  0.00     0.198 A 
ATOM     87  F   UNL A   1      47.094  32.108  30.827  1.00  0.00    -0.203 F 
ATOM     88  F   UNL A   1      46.350  36.306  27.426  1.00  0.00    -0.200 F 
ATOM     89  C   UNL A   1      47.415  35.386  29.321  1.00  0.00     0.200 A 
ATOM     90  F   UNL A   1      48.469  34.409  31.195  1.00  0.00    -0.200 F 
ATOM     91  F   UNL A   1      48.131  36.506  29.483  1.00  0.00    -0.200 F 
ENDBRANCH  57  81
BRANCH  69  92
ATOM     92  C   UNL A   1      47.357  27.381  25.110  1.00  0.00     0.064 A 
ATOM     93  C   UNL A   1      47.399  27.809  23.775  1.00  0.00     0.173 A 
ATOM     94  C   UNL A   1      48.445  26.643  25.600  1.00  0.00     0.173 A 
ATOM     95  F   UNL A   1      46.377  28.506  23.257  1.00  0.00    -0.203 F 
ATOM     96  C   UNL A   1      48.478  27.488  22.955  1.00  0.00     0.198 A 
ATOM     97  C   UNL A   1      49.536  26.349  24.785  1.00  0.00     0.198 A 
ATOM     98  F   UNL A   1      48.458  26.216  26.871  1.00  0.00    -0.203 F 
ATOM     99  F   UNL A   1      48.474  27.865  21.670  1.00  0.00    -0.200 F 
ATOM    100  C   UNL A   1      49.547  26.764  23.462  1.00  0.00     0.200 A 
ATOM    101  F   UNL A   1      50.574  25.662  25.280  1.00  0.00    -0.200 F 
ATOM    102  F   UNL A   1      50.587  26.461  22.673  1.00  0.00    -0.200 F 
ENDBRANCH  69  92
ENDBRANCH  43  44
ENDBRANCH  36  38
ENDBRANCH  35  36
ENDBRANCH  34  35
ENDBRANCH  33  34
ENDBRANCH  32  33
ENDBRANCH  31  32
ENDBRANCH  30  31
ENDBRANCH  29  30
ENDBRANCH   1  29
TORSDOF 23
ENDMDL
