MODEL 1
REMARK VINA RESULT:     -12.6      0.000      0.000
REMARK SMILES Cc1ccc(NC(=O)C[C@@H](C(=O)OCCOCCOC(=O)c2ccc(-c3c4nc(c(-c5c(F)c(F)c(F)c(F)c5F)c5ccc([nH]5)c(-c5c(F)c(F)c(F)c(F)c5F)c5nc(c(-c6c(F)c(F)c(F)c(F)c6F)c6ccc3[nH]6)C=C5)C=C4)cc2)[NH+]2CCOCC2)cc1
REMARK SMILES IDX 15 1 14 2 13 3 11 4 12 5 10 6 9 7 7 8 6 9 8 11 5 12 1 13
REMARK SMILES IDX 2 14 3 15 92 16 4 17 91 18 85 19 86 20 90 21 87 23 89 24
REMARK SMILES IDX 88 25 16 26 17 27 18 28 19 29 20 30 21 31 22 32 23 33 84 34
REMARK SMILES IDX 24 35 83 36 25 37 26 38 27 39 77 40 28 41 82 42 76 43 78 44
REMARK SMILES IDX 29 45 81 46 75 47 74 48 30 50 62 51 42 52 61 53 43 54 46 55
REMARK SMILES IDX 60 56 79 57 44 58 45 59 59 61 80 62 47 63 31 64 32 65 40 66
REMARK SMILES IDX 33 67 34 68 38 69 41 70 35 71 36 72 39 73 37 74 63 75 64 76
REMARK SMILES IDX 72 77 65 78 66 79 70 80 73 81 67 82 68 83 71 84 69 85 48 86
REMARK SMILES IDX 49 87 57 88 50 89 51 90 55 91 58 92 52 93 53 94 56 95 54 96
REMARK H PARENT 6 10 85 22 78 49 46 60
REMARK Flexibility Score: inf
ROOT
ATOM      1  C   UNL A   1      34.740  32.291  27.961  1.00  0.00     0.202 C 
ENDROOT
BRANCH   1   2
ATOM      2  C   UNL A   1      34.256  30.096  27.509  1.00  0.00     0.261 C 
BRANCH   2   3
ATOM      3  O   UNL A   1      33.406  29.409  26.545  1.00  0.00    -0.459 OA
BRANCH   3   4
ATOM      4  C   UNL A   1      32.181  29.804  26.307  1.00  0.00     0.365 C 
ATOM      5  O   UNL A   1      31.806  30.956  26.452  1.00  0.00    -0.245 OA
BRANCH   4   6
ATOM      6  C   UNL A   1      31.438  28.654  25.659  1.00  0.00     0.304 C 
BRANCH   6   7
ATOM      7  C   UNL A   1      32.022  27.248  26.127  1.00  0.00     0.177 C 
BRANCH   7   8
ATOM      8  C   UNL A   1      31.155  25.963  26.125  1.00  0.00     0.231 C 
ATOM      9  N   UNL A   1      31.622  24.742  25.648  1.00  0.00    -0.326 N 
ATOM     10  H   UNL A   1      30.948  24.117  25.296  1.00  0.00     0.169 HD
ATOM     11  O   UNL A   1      30.002  25.995  26.571  1.00  0.00    -0.274 OA
BRANCH   9  12
ATOM     12  C   UNL A   1      32.988  24.304  25.616  1.00  0.00     0.041 A 
ATOM     13  C   UNL A   1      37.789  21.168  24.882  1.00  0.00     0.044 C 
ATOM     14  C   UNL A   1      36.378  21.821  24.625  1.00  0.00    -0.051 A 
ATOM     15  C   UNL A   1      35.474  21.867  26.385  1.00  0.00     0.005 A 
ATOM     16  C   UNL A   1      35.414  23.095  23.240  1.00  0.00     0.005 A 
ATOM     17  C   UNL A   1      33.744  22.784  26.665  1.00  0.00     0.026 A 
ATOM     18  C   UNL A   1      34.029  24.359  23.880  1.00  0.00     0.026 A 
ENDBRANCH   9  12
ENDBRANCH   7   8
ENDBRANCH   6   7
BRANCH   6  19
ATOM     19  N   UNL A   1      31.602  29.007  24.239  1.00  0.00    -0.319 N 
ATOM     20  C   UNL A   1      30.375  29.529  23.586  1.00  0.00     0.291 C 
ATOM     21  C   UNL A   1      32.370  28.180  23.340  1.00  0.00     0.291 C 
ATOM     22  H   UNL A   1      32.267  29.764  24.399  1.00  0.00     0.348 HD
ATOM     23  C   UNL A   1      29.548  28.419  22.975  1.00  0.00     0.221 C 
ATOM     24  C   UNL A   1      31.506  27.167  22.586  1.00  0.00     0.221 C 
ATOM     25  O   UNL A   1      30.329  27.738  21.997  1.00  0.00    -0.370 OA
ENDBRANCH   6  19
ENDBRANCH   4   6
ENDBRANCH   3   4
ENDBRANCH   2   3
ENDBRANCH   1   2
BRANCH   1  26
ATOM     26  O   UNL A   1      33.611  33.494  28.328  1.00  0.00    -0.374 OA
BRANCH  26  27
ATOM     27  C   UNL A   1      34.050  34.750  28.626  1.00  0.00     0.202 C 
BRANCH  27  28
ATOM     28  C   UNL A   1      33.350  35.197  29.883  1.00  0.00     0.261 C 
BRANCH  28  29
ATOM     29  O   UNL A   1      34.149  34.798  31.165  1.00  0.00    -0.460 OA
BRANCH  29  30
ATOM     30  C   UNL A   1      34.673  33.588  31.681  1.00  0.00     0.338 C 
ATOM     31  O   UNL A   1      33.893  32.675  31.956  1.00  0.00    -0.246 OA
BRANCH  30  32
ATOM     32  C   UNL A   1      36.295  33.180  31.745  1.00  0.00     0.060 A 
ATOM     33  C   UNL A   1      37.188  33.440  30.183  1.00  0.00     0.016 A 
ATOM     34  C   UNL A   1      37.345  31.781  32.778  1.00  0.00     0.016 A 
ATOM     35  C   UNL A   1      38.713  32.498  29.909  1.00  0.00     0.010 A 
ATOM     36  C   UNL A   1      38.870  31.184  32.230  1.00  0.00     0.010 A 
ATOM     37  C   UNL A   1      39.442  31.328  30.934  1.00  0.00    -0.014 A 
BRANCH  37  38
ATOM     38  C   UNL A   1      40.644  30.365  31.388  1.00  0.00     0.031 A 
ATOM     39  C   UNL A   1      40.859  29.262  30.360  1.00  0.00     0.074 A 
ATOM     40  C   UNL A   1      41.804  31.001  31.992  1.00  0.00     0.049 A 
ATOM     41  N   UNL A   1      41.121  28.012  30.582  1.00  0.00    -0.248 NA
ATOM     42  C   UNL A   1      40.659  29.514  28.911  1.00  0.00     0.031 C 
ATOM     43  C   UNL A   1      43.313  30.965  31.768  1.00  0.00     0.029 A 
ATOM     44  N   UNL A   1      41.818  32.252  32.699  1.00  0.00    -0.354 N 
ATOM     45  C   UNL A   1      41.546  27.503  29.350  1.00  0.00     0.074 A 
ATOM     46  C   UNL A   1      40.888  28.323  28.359  1.00  0.00     0.031 C 
ATOM     47  C   UNL A   1      43.990  31.779  32.639  1.00  0.00     0.029 A 
ATOM     48  C   UNL A   1      43.003  32.498  33.431  1.00  0.00     0.049 A 
ATOM     49  H   UNL A   1      41.065  32.885  32.677  1.00  0.00     0.167 HD
ATOM     50  C   UNL A   1      42.855  27.111  29.182  1.00  0.00     0.037 A 
ATOM     51  C   UNL A   1      42.875  32.593  34.774  1.00  0.00     0.037 A 
ATOM     52  C   UNL A   1      43.714  27.604  30.289  1.00  0.00     0.049 A 
ATOM     53  C   UNL A   1      42.952  31.136  35.174  1.00  0.00     0.074 A 
ATOM     54  C   UNL A   1      44.879  28.346  30.380  1.00  0.00     0.029 A 
ATOM     55  N   UNL A   1      43.235  27.564  31.603  1.00  0.00    -0.354 N 
ATOM     56  N   UNL A   1      42.966  30.159  34.301  1.00  0.00    -0.248 NA
ATOM     57  C   UNL A   1      43.266  30.676  36.500  1.00  0.00     0.031 C 
ATOM     58  C   UNL A   1      45.136  28.608  31.780  1.00  0.00     0.029 A 
ATOM     59  C   UNL A   1      44.077  28.121  32.547  1.00  0.00     0.049 A 
ATOM     60  H   UNL A   1      42.364  27.168  31.836  1.00  0.00     0.167 HD
ATOM     61  C   UNL A   1      43.496  29.031  34.808  1.00  0.00     0.074 A 
ATOM     62  C   UNL A   1      43.616  29.405  36.220  1.00  0.00     0.031 C 
ATOM     63  C   UNL A   1      43.782  27.943  34.006  1.00  0.00     0.037 A 
BRANCH  50  64
ATOM     64  C   UNL A   1      43.370  26.395  27.913  1.00  0.00     0.064 A 
ATOM     65  C   UNL A   1      42.990  25.061  27.636  1.00  0.00     0.173 A 
ATOM     66  C   UNL A   1      44.101  27.006  26.858  1.00  0.00     0.173 A 
ATOM     67  F   UNL A   1      42.264  24.352  28.507  1.00  0.00    -0.203 F 
ATOM     68  C   UNL A   1      43.296  24.408  26.430  1.00  0.00     0.198 A 
ATOM     69  C   UNL A   1      44.431  26.340  25.661  1.00  0.00     0.198 A 
ATOM     70  F   UNL A   1      44.483  28.288  26.915  1.00  0.00    -0.203 F 
ATOM     71  F   UNL A   1      42.860  23.156  26.226  1.00  0.00    -0.200 F 
ATOM     72  C   UNL A   1      44.013  25.046  25.441  1.00  0.00     0.200 A 
ATOM     73  F   UNL A   1      45.128  26.977  24.708  1.00  0.00    -0.200 F 
ATOM     74  F   UNL A   1      44.274  24.429  24.279  1.00  0.00    -0.200 F 
ENDBRANCH  50  64
BRANCH  51  75
ATOM     75  C   UNL A   1      41.862  33.666  35.092  1.00  0.00     0.064 A 
ATOM     76  C   UNL A   1      40.576  33.273  35.562  1.00  0.00     0.173 A 
ATOM     77  C   UNL A   1      42.257  34.976  35.405  1.00  0.00     0.173 A 
ATOM     78  F   UNL A   1      40.142  32.018  35.367  1.00  0.00    -0.203 F 
ATOM     79  C   UNL A   1      39.774  34.121  36.339  1.00  0.00     0.198 A 
ATOM     80  C   UNL A   1      41.465  35.807  36.207  1.00  0.00     0.198 A 
ATOM     81  F   UNL A   1      43.486  35.396  35.075  1.00  0.00    -0.203 F 
ATOM     82  F   UNL A   1      38.635  33.672  36.892  1.00  0.00    -0.200 F 
ATOM     83  C   UNL A   1      40.224  35.387  36.663  1.00  0.00     0.200 A 
ATOM     84  F   UNL A   1      41.963  36.969  36.656  1.00  0.00    -0.200 F 
ATOM     85  F   UNL A   1      39.521  36.153  37.513  1.00  0.00    -0.200 F 
ENDBRANCH  51  75
BRANCH  63  86
ATOM     86  C   UNL A   1      43.751  26.515  34.526  1.00  0.00     0.064 A 
ATOM     87  C   UNL A   1      42.602  25.868  34.995  1.00  0.00     0.173 A 
ATOM     88  C   UNL A   1      44.890  25.668  34.439  1.00  0.00     0.173 A 
ATOM     89  F   UNL A   1      41.424  26.467  35.127  1.00  0.00    -0.203 F 
ATOM     90  C   UNL A   1      42.580  24.523  35.342  1.00  0.00     0.198 A 
ATOM     91  C   UNL A   1      44.851  24.308  34.727  1.00  0.00     0.198 A 
ATOM     92  F   UNL A   1      46.104  26.093  34.071  1.00  0.00    -0.203 F 
ATOM     93  F   UNL A   1      41.441  24.001  35.814  1.00  0.00    -0.200 F 
ATOM     94  C   UNL A   1      43.694  23.737  35.190  1.00  0.00     0.200 A 
ATOM     95  F   UNL A   1      45.951  23.566  34.547  1.00  0.00    -0.200 F 
ATOM     96  F   UNL A   1      43.654  22.437  35.499  1.00  0.00    -0.200 F 
ENDBRANCH  63  86
ENDBRANCH  37  38
ENDBRANCH  30  32
ENDBRANCH  29  30
ENDBRANCH  28  29
ENDBRANCH  27  28
ENDBRANCH  26  27
ENDBRANCH   1  26
TORSDOF 18
ENDMDL
MODEL 2
REMARK VINA RESULT:     -12.0      1.245      2.287
REMARK SMILES Cc1ccc(NC(=O)C[C@@H](C(=O)OCCOCCOC(=O)c2ccc(-c3c4nc(c(-c5c(F)c(F)c(F)c(F)c5F)c5ccc([nH]5)c(-c5c(F)c(F)c(F)c(F)c5F)c5nc(c(-c6c(F)c(F)c(F)c(F)c6F)c6ccc3[nH]6)C=C5)C=C4)cc2)[NH+]2CCOCC2)cc1
REMARK SMILES IDX 15 1 14 2 13 3 11 4 12 5 10 6 9 7 7 8 6 9 8 11 5 12 1 13
REMARK SMILES IDX 2 14 3 15 92 16 4 17 91 18 85 19 86 20 90 21 87 23 89 24
REMARK SMILES IDX 88 25 16 26 17 27 18 28 19 29 20 30 21 31 22 32 23 33 84 34
REMARK SMILES IDX 24 35 83 36 25 37 26 38 27 39 77 40 28 41 82 42 76 43 78 44
REMARK SMILES IDX 29 45 81 46 75 47 74 48 30 50 62 51 42 52 61 53 43 54 46 55
REMARK SMILES IDX 60 56 79 57 44 58 45 59 59 61 80 62 47 63 31 64 32 65 40 66
REMARK SMILES IDX 33 67 34 68 38 69 41 70 35 71 36 72 39 73 37 74 63 75 64 76
REMARK SMILES IDX 72 77 65 78 66 79 70 80 73 81 67 82 68 83 71 84 69 85 48 86
REMARK SMILES IDX 49 87 57 88 50 89 51 90 55 91 58 92 52 93 53 94 56 95 54 96
REMARK H PARENT 6 10 85 22 78 49 46 60
REMARK Flexibility Score: inf
ROOT
ATOM      1  C   UNL A   1      33.883  30.756  27.274  1.00  0.00     0.202 C 
ENDROOT
BRANCH   1   2
ATOM      2  C   UNL A   1      32.265  29.791  25.967  1.00  0.00     0.261 C 
BRANCH   2   3
ATOM      3  O   UNL A   1      31.833  28.423  25.709  1.00  0.00    -0.459 OA
BRANCH   3   4
ATOM      4  C   UNL A   1      31.234  28.093  24.594  1.00  0.00     0.365 C 
ATOM      5  O   UNL A   1      30.708  28.901  23.848  1.00  0.00    -0.245 OA
BRANCH   4   6
ATOM      6  C   UNL A   1      31.499  26.622  24.341  1.00  0.00     0.304 C 
BRANCH   6   7
ATOM      7  C   UNL A   1      31.502  25.791  25.700  1.00  0.00     0.177 C 
BRANCH   7   8
ATOM      8  C   UNL A   1      30.275  24.956  26.148  1.00  0.00     0.231 C 
ATOM      9  N   UNL A   1      30.208  23.575  25.991  1.00  0.00    -0.326 N 
ATOM     10  H   UNL A   1      29.311  23.182  25.900  1.00  0.00     0.169 HD
ATOM     11  O   UNL A   1      29.309  25.515  26.679  1.00  0.00    -0.274 OA
BRANCH   9  12
ATOM     12  C   UNL A   1      31.318  22.666  25.948  1.00  0.00     0.041 A 
ATOM     13  C   UNL A   1      36.501  20.284  25.004  1.00  0.00     0.044 C 
ATOM     14  C   UNL A   1      35.384  21.330  25.384  1.00  0.00    -0.051 A 
ATOM     15  C   UNL A   1      33.896  21.014  24.119  1.00  0.00     0.005 A 
ATOM     16  C   UNL A   1      34.751  22.493  27.032  1.00  0.00     0.005 A 
ATOM     17  C   UNL A   1      32.148  21.925  24.291  1.00  0.00     0.026 A 
ATOM     18  C   UNL A   1      32.817  22.833  27.298  1.00  0.00     0.026 A 
ENDBRANCH   9  12
ENDBRANCH   7   8
ENDBRANCH   6   7
BRANCH   6  19
ATOM     19  N   UNL A   1      32.773  26.710  23.608  1.00  0.00    -0.319 N 
ATOM     20  C   UNL A   1      32.678  26.379  22.163  1.00  0.00     0.291 C 
ATOM     21  C   UNL A   1      34.007  26.235  24.182  1.00  0.00     0.291 C 
ATOM     22  H   UNL A   1      32.891  27.716  23.733  1.00  0.00     0.348 HD
ATOM     23  C   UNL A   1      32.902  24.904  21.910  1.00  0.00     0.221 C 
ATOM     24  C   UNL A   1      34.327  24.792  23.784  1.00  0.00     0.221 C 
ATOM     25  O   UNL A   1      34.198  24.541  22.377  1.00  0.00    -0.370 OA
ENDBRANCH   6  19
ENDBRANCH   4   6
ENDBRANCH   3   4
ENDBRANCH   2   3
ENDBRANCH   1   2
BRANCH   1  26
ATOM     26  O   UNL A   1      33.640  32.019  28.370  1.00  0.00    -0.374 OA
BRANCH  26  27
ATOM     27  C   UNL A   1      33.910  33.298  27.983  1.00  0.00     0.202 C 
BRANCH  27  28
ATOM     28  C   UNL A   1      33.268  34.228  28.980  1.00  0.00     0.261 C 
BRANCH  28  29
ATOM     29  O   UNL A   1      34.089  34.311  30.308  1.00  0.00    -0.460 OA
BRANCH  29  30
ATOM     30  C   UNL A   1      34.722  33.368  31.152  1.00  0.00     0.338 C 
ATOM     31  O   UNL A   1      34.028  32.704  31.922  1.00  0.00    -0.246 OA
BRANCH  30  32
ATOM     32  C   UNL A   1      36.325  32.894  31.051  1.00  0.00     0.060 A 
ATOM     33  C   UNL A   1      36.950  32.753  29.350  1.00  0.00     0.016 A 
ATOM     34  C   UNL A   1      37.504  31.701  32.195  1.00  0.00     0.016 A 
ATOM     35  C   UNL A   1      38.390  31.689  29.060  1.00  0.00     0.010 A 
ATOM     36  C   UNL A   1      38.905  30.914  31.564  1.00  0.00     0.010 A 
ATOM     37  C   UNL A   1      39.257  30.735  30.196  1.00  0.00    -0.014 A 
BRANCH  37  38
ATOM     38  C   UNL A   1      40.499  29.830  30.661  1.00  0.00     0.031 A 
ATOM     39  C   UNL A   1      40.716  28.683  29.683  1.00  0.00     0.074 A 
ATOM     40  C   UNL A   1      41.656  30.528  31.198  1.00  0.00     0.049 A 
ATOM     41  N   UNL A   1      41.021  27.453  29.959  1.00  0.00    -0.248 NA
ATOM     42  C   UNL A   1      40.469  28.856  28.229  1.00  0.00     0.031 C 
ATOM     43  C   UNL A   1      43.159  30.523  30.931  1.00  0.00     0.029 A 
ATOM     44  N   UNL A   1      41.654  31.813  31.842  1.00  0.00    -0.354 N 
ATOM     45  C   UNL A   1      41.426  26.896  28.741  1.00  0.00     0.074 A 
ATOM     46  C   UNL A   1      40.717  27.645  27.731  1.00  0.00     0.031 C 
ATOM     47  C   UNL A   1      43.835  31.398  31.741  1.00  0.00     0.029 A 
ATOM     48  C   UNL A   1      42.851  32.129  32.526  1.00  0.00     0.049 A 
ATOM     49  H   UNL A   1      40.881  32.422  31.811  1.00  0.00     0.167 HD
ATOM     50  C   UNL A   1      42.741  26.532  28.555  1.00  0.00     0.037 A 
ATOM     51  C   UNL A   1      42.758  32.287  33.865  1.00  0.00     0.037 A 
ATOM     52  C   UNL A   1      43.616  27.103  29.609  1.00  0.00     0.049 A 
ATOM     53  C   UNL A   1      42.888  30.855  34.335  1.00  0.00     0.074 A 
ATOM     54  C   UNL A   1      44.761  27.881  29.629  1.00  0.00     0.029 A 
ATOM     55  N   UNL A   1      43.176  27.117  30.938  1.00  0.00    -0.354 N 
ATOM     56  N   UNL A   1      42.907  29.836  33.511  1.00  0.00    -0.248 NA
ATOM     57  C   UNL A   1      43.253  30.471  35.672  1.00  0.00     0.031 C 
ATOM     58  C   UNL A   1      45.049  28.221  31.007  1.00  0.00     0.029 A 
ATOM     59  C   UNL A   1      44.027  27.744  31.828  1.00  0.00     0.049 A 
ATOM     60  H   UNL A   1      42.324  26.709  31.216  1.00  0.00     0.167 HD
ATOM     61  C   UNL A   1      43.483  28.750  34.057  1.00  0.00     0.074 A 
ATOM     62  C   UNL A   1      43.633  29.198  35.444  1.00  0.00     0.031 C 
ATOM     63  C   UNL A   1      43.778  27.632  33.302  1.00  0.00     0.037 A 
BRANCH  50  64
ATOM     64  C   UNL A   1      43.241  25.768  27.308  1.00  0.00     0.064 A 
ATOM     65  C   UNL A   1      44.188  26.353  26.437  1.00  0.00     0.173 A 
ATOM     66  C   UNL A   1      42.953  24.410  27.001  1.00  0.00     0.173 A 
ATOM     67  F   UNL A   1      44.600  27.615  26.608  1.00  0.00    -0.203 F 
ATOM     68  C   UNL A   1      44.795  25.657  25.378  1.00  0.00     0.198 A 
ATOM     69  C   UNL A   1      43.542  23.721  25.921  1.00  0.00     0.198 A 
ATOM     70  F   UNL A   1      42.132  23.673  27.760  1.00  0.00    -0.203 F 
ATOM     71  F   UNL A   1      45.718  26.272  24.624  1.00  0.00    -0.200 F 
ATOM     72  C   UNL A   1      44.476  24.341  25.120  1.00  0.00     0.200 A 
ATOM     73  F   UNL A   1      43.220  22.440  25.686  1.00  0.00    -0.200 F 
ATOM     74  F   UNL A   1      45.082  23.672  24.129  1.00  0.00    -0.200 F 
ENDBRANCH  50  64
BRANCH  51  75
ATOM     75  C   UNL A   1      41.723  33.346  34.160  1.00  0.00     0.064 A 
ATOM     76  C   UNL A   1      40.481  32.947  34.730  1.00  0.00     0.173 A 
ATOM     77  C   UNL A   1      42.084  34.689  34.350  1.00  0.00     0.173 A 
ATOM     78  F   UNL A   1      40.085  31.666  34.654  1.00  0.00    -0.203 F 
ATOM     79  C   UNL A   1      39.690  33.824  35.486  1.00  0.00     0.198 A 
ATOM     80  C   UNL A   1      41.305  35.552  35.132  1.00  0.00     0.198 A 
ATOM     81  F   UNL A   1      43.276  35.124  33.920  1.00  0.00    -0.203 F 
ATOM     82  F   UNL A   1      38.601  33.380  36.136  1.00  0.00    -0.200 F 
ATOM     83  C   UNL A   1      40.108  35.126  35.688  1.00  0.00     0.200 A 
ATOM     84  F   UNL A   1      41.782  36.761  35.463  1.00  0.00    -0.200 F 
ATOM     85  F   UNL A   1      39.423  35.930  36.518  1.00  0.00    -0.200 F 
ENDBRANCH  51  75
BRANCH  63  86
ATOM     86  C   UNL A   1      43.804  26.231  33.893  1.00  0.00     0.064 A 
ATOM     87  C   UNL A   1      44.923  25.390  33.887  1.00  0.00     0.173 A 
ATOM     88  C   UNL A   1      42.706  25.718  34.636  1.00  0.00     0.173 A 
ATOM     89  F   UNL A   1      46.063  25.689  33.275  1.00  0.00    -0.203 F 
ATOM     90  C   UNL A   1      44.954  24.169  34.547  1.00  0.00     0.198 A 
ATOM     91  C   UNL A   1      42.761  24.525  35.349  1.00  0.00     0.198 A 
ATOM     92  F   UNL A   1      41.521  26.331  34.726  1.00  0.00    -0.203 F 
ATOM     93  F   UNL A   1      46.059  23.417  34.454  1.00  0.00    -0.200 F 
ATOM     94  C   UNL A   1      43.885  23.743  35.295  1.00  0.00     0.200 A 
ATOM     95  F   UNL A   1      41.707  24.150  36.086  1.00  0.00    -0.200 F 
ATOM     96  F   UNL A   1      43.937  22.580  35.950  1.00  0.00    -0.200 F 
ENDBRANCH  63  86
ENDBRANCH  37  38
ENDBRANCH  30  32
ENDBRANCH  29  30
ENDBRANCH  28  29
ENDBRANCH  27  28
ENDBRANCH  26  27
ENDBRANCH   1  26
TORSDOF 18
ENDMDL
MODEL 3
REMARK VINA RESULT:     -12.0      0.982      1.994
REMARK SMILES Cc1ccc(NC(=O)C[C@@H](C(=O)OCCOCCOC(=O)c2ccc(-c3c4nc(c(-c5c(F)c(F)c(F)c(F)c5F)c5ccc([nH]5)c(-c5c(F)c(F)c(F)c(F)c5F)c5nc(c(-c6c(F)c(F)c(F)c(F)c6F)c6ccc3[nH]6)C=C5)C=C4)cc2)[NH+]2CCOCC2)cc1
REMARK SMILES IDX 15 1 14 2 13 3 11 4 12 5 10 6 9 7 7 8 6 9 8 11 5 12 1 13
REMARK SMILES IDX 2 14 3 15 92 16 4 17 91 18 85 19 86 20 90 21 87 23 89 24
REMARK SMILES IDX 88 25 16 26 17 27 18 28 19 29 20 30 21 31 22 32 23 33 84 34
REMARK SMILES IDX 24 35 83 36 25 37 26 38 27 39 77 40 28 41 82 42 76 43 78 44
REMARK SMILES IDX 29 45 81 46 75 47 74 48 30 50 62 51 42 52 61 53 43 54 46 55
REMARK SMILES IDX 60 56 79 57 44 58 45 59 59 61 80 62 47 63 31 64 32 65 40 66
REMARK SMILES IDX 33 67 34 68 38 69 41 70 35 71 36 72 39 73 37 74 63 75 64 76
REMARK SMILES IDX 72 77 65 78 66 79 70 80 73 81 67 82 68 83 71 84 69 85 48 86
REMARK SMILES IDX 49 87 57 88 50 89 51 90 55 91 58 92 52 93 53 94 56 95 54 96
REMARK H PARENT 6 10 85 22 78 49 46 60
REMARK Flexibility Score: inf
ROOT
ATOM      1  C   UNL A   1      34.635  31.213  27.323  1.00  0.00     0.202 C 
ENDROOT
BRANCH   1   2
ATOM      2  C   UNL A   1      34.310  28.944  27.275  1.00  0.00     0.261 C 
BRANCH   2   3
ATOM      3  O   UNL A   1      33.288  28.063  26.723  1.00  0.00    -0.459 OA
BRANCH   3   4
ATOM      4  C   UNL A   1      32.014  28.346  26.821  1.00  0.00     0.365 C 
ATOM      5  O   UNL A   1      31.580  29.272  27.485  1.00  0.00    -0.245 OA
BRANCH   4   6
ATOM      6  C   UNL A   1      31.266  27.470  25.838  1.00  0.00     0.304 C 
BRANCH   6   7
ATOM      7  C   UNL A   1      31.531  25.924  26.118  1.00  0.00     0.177 C 
BRANCH   7   8
ATOM      8  C   UNL A   1      30.390  24.877  26.059  1.00  0.00     0.231 C 
ATOM      9  N   UNL A   1      30.501  23.685  25.349  1.00  0.00    -0.326 N 
ATOM     10  H   UNL A   1      29.664  23.289  25.014  1.00  0.00     0.169 HD
ATOM     11  O   UNL A   1      29.334  25.079  26.668  1.00  0.00    -0.274 OA
BRANCH   9  12
ATOM     12  C   UNL A   1      31.713  22.975  25.056  1.00  0.00     0.041 A 
ATOM     13  C   UNL A   1      37.273  21.540  24.376  1.00  0.00     0.044 C 
ATOM     14  C   UNL A   1      35.946  22.129  24.992  1.00  0.00    -0.051 A 
ATOM     15  C   UNL A   1      34.899  22.818  23.461  1.00  0.00     0.005 A 
ATOM     16  C   UNL A   1      34.738  21.933  26.716  1.00  0.00     0.005 A 
ATOM     17  C   UNL A   1      33.045  23.480  23.657  1.00  0.00     0.026 A 
ATOM     18  C   UNL A   1      32.772  22.117  26.553  1.00  0.00     0.026 A 
ENDBRANCH   9  12
ENDBRANCH   7   8
ENDBRANCH   6   7
BRANCH   6  19
ATOM     19  N   UNL A   1      31.771  28.015  24.567  1.00  0.00    -0.319 N 
ATOM     20  C   UNL A   1      30.974  29.142  24.019  1.00  0.00     0.291 C 
ATOM     21  C   UNL A   1      32.264  27.155  23.520  1.00  0.00     0.291 C 
ATOM     22  H   UNL A   1      32.653  28.358  24.949  1.00  0.00     0.348 HD
ATOM     23  C   UNL A   1      29.871  28.657  23.103  1.00  0.00     0.221 C 
ATOM     24  C   UNL A   1      31.188  26.801  22.491  1.00  0.00     0.221 C 
ATOM     25  O   UNL A   1      30.447  27.936  22.018  1.00  0.00    -0.370 OA
ENDBRANCH   6  19
ENDBRANCH   4   6
ENDBRANCH   3   4
ENDBRANCH   2   3
ENDBRANCH   1   2
BRANCH   1  26
ATOM     26  O   UNL A   1      35.357  32.078  28.582  1.00  0.00    -0.374 OA
BRANCH  26  27
ATOM     27  C   UNL A   1      34.714  32.173  29.780  1.00  0.00     0.202 C 
BRANCH  27  28
ATOM     28  C   UNL A   1      34.274  33.604  29.956  1.00  0.00     0.261 C 
BRANCH  28  29
ATOM     29  O   UNL A   1      34.055  33.962  31.461  1.00  0.00    -0.460 OA
BRANCH  29  30
ATOM     30  C   UNL A   1      34.681  33.598  32.677  1.00  0.00     0.338 C 
ATOM     31  O   UNL A   1      33.978  33.410  33.671  1.00  0.00    -0.246 OA
BRANCH  30  32
ATOM     32  C   UNL A   1      36.289  33.168  32.852  1.00  0.00     0.060 A 
ATOM     33  C   UNL A   1      37.415  34.030  31.715  1.00  0.00     0.016 A 
ATOM     34  C   UNL A   1      37.225  31.449  33.392  1.00  0.00     0.016 A 
ATOM     35  C   UNL A   1      39.014  33.254  31.352  1.00  0.00     0.010 A 
ATOM     36  C   UNL A   1      38.851  31.100  32.925  1.00  0.00     0.010 A 
ATOM     37  C   UNL A   1      39.624  31.752  31.922  1.00  0.00    -0.014 A 
BRANCH  37  38
ATOM     38  C   UNL A   1      40.783  30.665  32.147  1.00  0.00     0.031 A 
ATOM     39  C   UNL A   1      40.751  29.617  31.042  1.00  0.00     0.074 A 
ATOM     40  C   UNL A   1      42.069  31.161  32.610  1.00  0.00     0.049 A 
ATOM     41  N   UNL A   1      40.925  28.337  31.158  1.00  0.00    -0.248 NA
ATOM     42  C   UNL A   1      40.377  29.978  29.652  1.00  0.00     0.031 C 
ATOM     43  C   UNL A   1      43.523  31.014  32.170  1.00  0.00     0.029 A 
ATOM     44  N   UNL A   1      42.296  32.357  33.374  1.00  0.00    -0.354 N 
ATOM     45  C   UNL A   1      41.128  27.877  29.852  1.00  0.00     0.074 A 
ATOM     46  C   UNL A   1      40.417  28.811  29.011  1.00  0.00     0.031 C 
ATOM     47  C   UNL A   1      44.386  31.709  32.977  1.00  0.00     0.029 A 
ATOM     48  C   UNL A   1      43.588  32.456  33.940  1.00  0.00     0.049 A 
ATOM     49  H   UNL A   1      41.608  33.051  33.494  1.00  0.00     0.167 HD
ATOM     50  C   UNL A   1      42.359  27.388  29.478  1.00  0.00     0.037 A 
ATOM     51  C   UNL A   1      43.657  32.473  35.290  1.00  0.00     0.037 A 
ATOM     52  C   UNL A   1      43.405  27.734  30.473  1.00  0.00     0.049 A 
ATOM     53  C   UNL A   1      43.654  30.992  35.598  1.00  0.00     0.074 A 
ATOM     54  C   UNL A   1      44.634  28.369  30.435  1.00  0.00     0.029 A 
ATOM     55  N   UNL A   1      43.111  27.649  31.839  1.00  0.00    -0.354 N 
ATOM     56  N   UNL A   1      43.458  30.076  34.681  1.00  0.00    -0.248 NA
ATOM     57  C   UNL A   1      44.106  30.422  36.838  1.00  0.00     0.031 C 
ATOM     58  C   UNL A   1      45.106  28.517  31.796  1.00  0.00     0.029 A 
ATOM     59  C   UNL A   1      44.123  28.071  32.681  1.00  0.00     0.049 A 
ATOM     60  H   UNL A   1      42.248  27.313  32.174  1.00  0.00     0.167 HD
ATOM     61  C   UNL A   1      43.947  28.877  35.046  1.00  0.00     0.074 A 
ATOM     62  C   UNL A   1      44.295  29.147  36.444  1.00  0.00     0.031 C 
ATOM     63  C   UNL A   1      44.018  27.824  34.155  1.00  0.00     0.037 A 
BRANCH  50  64
ATOM     64  C   UNL A   1      42.625  26.716  28.112  1.00  0.00     0.064 A 
ATOM     65  C   UNL A   1      43.319  27.408  27.092  1.00  0.00     0.173 A 
ATOM     66  C   UNL A   1      42.368  25.354  27.797  1.00  0.00     0.173 A 
ATOM     67  F   UNL A   1      43.674  28.690  27.242  1.00  0.00    -0.203 F 
ATOM     68  C   UNL A   1      43.726  26.805  25.891  1.00  0.00     0.198 A 
ATOM     69  C   UNL A   1      42.753  24.757  26.579  1.00  0.00     0.198 A 
ATOM     70  F   UNL A   1      41.783  24.526  28.672  1.00  0.00    -0.203 F 
ATOM     71  F   UNL A   1      44.420  27.519  24.993  1.00  0.00    -0.200 F 
ATOM     72  C   UNL A   1      43.447  25.480  25.633  1.00  0.00     0.200 A 
ATOM     73  F   UNL A   1      42.474  23.466  26.347  1.00  0.00    -0.200 F 
ATOM     74  F   UNL A   1      43.866  24.900  24.499  1.00  0.00    -0.200 F 
ENDBRANCH  50  64
BRANCH  51  75
ATOM     75  C   UNL A   1      42.800  33.604  35.807  1.00  0.00     0.064 A 
ATOM     76  C   UNL A   1      43.213  34.943  35.559  1.00  0.00     0.173 A 
ATOM     77  C   UNL A   1      41.435  33.421  36.076  1.00  0.00     0.173 A 
ATOM     78  F   UNL A   1      44.488  35.205  35.227  1.00  0.00    -0.203 F 
ATOM     79  C   UNL A   1      42.305  36.012  35.529  1.00  0.00     0.198 A 
ATOM     80  C   UNL A   1      40.528  34.487  36.015  1.00  0.00     0.198 A 
ATOM     81  F   UNL A   1      40.948  32.183  36.235  1.00  0.00    -0.203 F 
ATOM     82  F   UNL A   1      42.699  37.238  35.146  1.00  0.00    -0.200 F 
ATOM     83  C   UNL A   1      40.962  35.778  35.754  1.00  0.00     0.200 A 
ATOM     84  F   UNL A   1      39.210  34.243  36.072  1.00  0.00    -0.200 F 
ATOM     85  F   UNL A   1      40.072  36.772  35.597  1.00  0.00    -0.200 F 
ENDBRANCH  51  75
BRANCH  63  86
ATOM     86  C   UNL A   1      43.928  26.372  34.598  1.00  0.00     0.064 A 
ATOM     87  C   UNL A   1      42.735  25.714  34.916  1.00  0.00     0.173 A 
ATOM     88  C   UNL A   1      45.066  25.520  34.585  1.00  0.00     0.173 A 
ATOM     89  F   UNL A   1      41.553  26.317  34.959  1.00  0.00    -0.203 F 
ATOM     90  C   UNL A   1      42.672  24.354  35.193  1.00  0.00     0.198 A 
ATOM     91  C   UNL A   1      44.992  24.148  34.799  1.00  0.00     0.198 A 
ATOM     92  F   UNL A   1      46.313  25.951  34.362  1.00  0.00    -0.203 F 
ATOM     93  F   UNL A   1      41.488  23.821  35.521  1.00  0.00    -0.200 F 
ATOM     94  C   UNL A   1      43.792  23.566  35.115  1.00  0.00     0.200 A 
ATOM     95  F   UNL A   1      46.101  23.405  34.694  1.00  0.00    -0.200 F 
ATOM     96  F   UNL A   1      43.715  22.253  35.353  1.00  0.00    -0.200 F 
ENDBRANCH  63  86
ENDBRANCH  37  38
ENDBRANCH  30  32
ENDBRANCH  29  30
ENDBRANCH  28  29
ENDBRANCH  27  28
ENDBRANCH  26  27
ENDBRANCH   1  26
TORSDOF 18
ENDMDL
