MODEL 1
REMARK VINA RESULT:      -9.9      0.000      0.000
REMARK SMILES CCCCCCCCNC(=O)Oc1cccc(-c2ccc([C@@H](C)C(=O)OCCOCCOC(=O)c3ccc(-c4c5nc(c(-c6c(F)c(F)c(F)c(F)c6F)c6ccc([nH]6)c(-c6c(F)c(F)c(F)c(F)c6F)c6nc(c(-c7c(F)c(F)c(F)c(F)c7F)c7ccc4[nH]7)C=C6)C=C5)cc3)cc2F)c1
REMARK SMILES IDX 22 1 23 2 21 3 18 4 19 5 99 6 20 7 98 8 100 9 17 10 13 11
REMARK SMILES IDX 14 12 101 13 15 14 16 15 12 16 10 17 9 18 11 20 8 21 7 22
REMARK SMILES IDX 6 23 5 24 4 25 3 26 2 27 1 28 24 29 25 30 26 31 27 32 28 33
REMARK SMILES IDX 29 34 30 35 31 36 32 37 33 38 34 39 35 40 36 41 97 42 37 43
REMARK SMILES IDX 96 44 38 45 39 46 40 47 90 48 41 49 95 50 89 51 91 52 42 53
REMARK SMILES IDX 94 54 88 55 87 56 43 58 75 59 55 60 74 61 56 62 59 63 73 64
REMARK SMILES IDX 92 65 57 66 58 67 72 69 93 70 60 71 44 72 45 73 53 74 46 75
REMARK SMILES IDX 47 76 51 77 54 78 48 79 49 80 52 81 50 82 76 83 77 84 85 85
REMARK SMILES IDX 78 86 79 87 83 88 86 89 80 90 81 91 84 92 82 93 61 94 62 95
REMARK SMILES IDX 70 96 63 97 64 98 68 99 71 100 65 101 66 102 69 103 67 104
REMARK H PARENT 9 19 91 57 59 68
REMARK Flexibility Score: inf
ROOT
ATOM      1  C   UNL A   1      33.860  22.488  25.805  1.00  0.00     0.126 C 
ATOM      2  C   UNL A   1      32.751  21.608  26.377  1.00  0.00     0.025 C 
ENDROOT
BRANCH   1   3
ATOM      3  C   UNL A   1      33.536  23.972  25.946  1.00  0.00    -0.031 A 
ATOM      4  C   UNL A   1      32.758  26.719  26.047  1.00  0.00     0.018 A 
ATOM      5  C   UNL A   1      34.022  26.335  25.570  1.00  0.00     0.012 A 
ATOM      6  C   UNL A   1      31.913  25.700  26.504  1.00  0.00     0.131 A 
ATOM      7  C   UNL A   1      34.406  24.985  25.519  1.00  0.00     0.005 A 
ATOM      8  C   UNL A   1      32.286  24.355  26.459  1.00  0.00     0.044 A 
ATOM      9  F   UNL A   1      30.689  25.994  26.971  1.00  0.00    -0.206 F 
BRANCH   4  10
ATOM     10  C   UNL A   1      32.327  28.129  26.030  1.00  0.00    -0.012 A 
ATOM     11  C   UNL A   1      31.016  29.937  25.076  1.00  0.00     0.133 A 
ATOM     12  C   UNL A   1      31.589  30.857  25.949  1.00  0.00     0.047 A 
ATOM     13  C   UNL A   1      31.384  28.590  25.098  1.00  0.00     0.056 A 
ATOM     14  C   UNL A   1      32.524  30.416  26.882  1.00  0.00     0.004 A 
ATOM     15  C   UNL A   1      32.887  29.065  26.921  1.00  0.00     0.009 A 
BRANCH  11  16
ATOM     16  O   UNL A   1      30.155  30.445  24.090  1.00  0.00    -0.410 OA
BRANCH  16  17
ATOM     17  C   UNL A   1      30.297  29.961  22.801  1.00  0.00     0.412 C 
ATOM     18  N   UNL A   1      29.110  29.602  22.226  1.00  0.00    -0.321 N 
ATOM     19  H   UNL A   1      29.154  29.248  21.309  1.00  0.00     0.167 HD
ATOM     20  O   UNL A   1      31.357  29.833  22.190  1.00  0.00    -0.224 OA
BRANCH  18  21
ATOM     21  C   UNL A   1      27.792  29.691  22.824  1.00  0.00     0.119 C 
BRANCH  21  22
ATOM     22  C   UNL A   1      27.385  28.388  23.514  1.00  0.00     0.021 C 
BRANCH  22  23
ATOM     23  C   UNL A   1      28.233  27.165  23.137  1.00  0.00     0.002 C 
BRANCH  23  24
ATOM     24  C   UNL A   1      28.736  26.326  24.316  1.00  0.00     0.000 C 
BRANCH  24  25
ATOM     25  C   UNL A   1      29.824  25.305  23.969  1.00  0.00    -0.000 C 
BRANCH  25  26
ATOM     26  C   UNL A   1      30.871  25.786  22.956  1.00  0.00    -0.000 C 
BRANCH  26  27
ATOM     27  C   UNL A   1      31.965  24.772  22.612  1.00  0.00    -0.003 C 
ATOM     28  C   UNL A   1      33.213  25.408  22.017  1.00  0.00     0.004 C 
ENDBRANCH  26  27
ENDBRANCH  25  26
ENDBRANCH  24  25
ENDBRANCH  23  24
ENDBRANCH  22  23
ENDBRANCH  21  22
ENDBRANCH  18  21
ENDBRANCH  16  17
ENDBRANCH  11  16
ENDBRANCH   4  10
ENDBRANCH   1   3
BRANCH   1  29
ATOM     29  C   UNL A   1      34.251  21.968  24.430  1.00  0.00     0.313 C 
ATOM     30  O   UNL A   1      33.407  21.634  23.604  1.00  0.00    -0.252 OA
BRANCH  29  31
ATOM     31  O   UNL A   1      35.591  21.951  24.208  1.00  0.00    -0.463 OA
BRANCH  31  32
ATOM     32  C   UNL A   1      36.413  21.659  25.352  1.00  0.00     0.261 C 
BRANCH  32  33
ATOM     33  C   UNL A   1      37.899  21.689  24.990  1.00  0.00     0.202 C 
BRANCH  33  34
ATOM     34  O   UNL A   1      38.787  21.063  25.915  1.00  0.00    -0.374 OA
BRANCH  34  35
ATOM     35  C   UNL A   1      39.239  19.745  25.605  1.00  0.00     0.202 C 
BRANCH  35  36
ATOM     36  C   UNL A   1      40.524  19.276  26.299  1.00  0.00     0.261 C 
BRANCH  36  37
ATOM     37  O   UNL A   1      41.604  19.068  25.373  1.00  0.00    -0.460 OA
BRANCH  37  38
ATOM     38  C   UNL A   1      42.815  19.485  25.817  1.00  0.00     0.338 C 
ATOM     39  O   UNL A   1      43.878  18.895  25.743  1.00  0.00    -0.246 OA
BRANCH  38  40
ATOM     40  C   UNL A   1      42.733  20.893  26.257  1.00  0.00     0.060 A 
ATOM     41  C   UNL A   1      42.684  21.872  25.257  1.00  0.00     0.016 A 
ATOM     42  C   UNL A   1      42.789  21.257  27.603  1.00  0.00     0.016 A 
ATOM     43  C   UNL A   1      42.748  23.221  25.595  1.00  0.00     0.010 A 
ATOM     44  C   UNL A   1      42.860  22.613  27.943  1.00  0.00     0.010 A 
ATOM     45  C   UNL A   1      42.879  23.600  26.937  1.00  0.00    -0.014 A 
BRANCH  45  46
ATOM     46  C   UNL A   1      43.191  25.014  27.264  1.00  0.00     0.031 A 
ATOM     47  C   UNL A   1      44.561  25.551  26.951  1.00  0.00     0.074 A 
ATOM     48  C   UNL A   1      42.254  25.824  27.786  1.00  0.00     0.049 A 
ATOM     49  N   UNL A   1      45.053  26.746  27.158  1.00  0.00    -0.248 NA
ATOM     50  C   UNL A   1      45.502  24.613  26.318  1.00  0.00     0.031 C 
ATOM     51  C   UNL A   1      40.879  25.436  28.093  1.00  0.00     0.029 A 
ATOM     52  N   UNL A   1      42.322  27.146  28.152  1.00  0.00    -0.354 N 
ATOM     53  C   UNL A   1      46.359  26.702  26.687  1.00  0.00     0.074 A 
ATOM     54  C   UNL A   1      46.595  25.356  26.212  1.00  0.00     0.031 C 
ATOM     55  C   UNL A   1      40.234  26.494  28.611  1.00  0.00     0.029 A 
ATOM     56  C   UNL A   1      41.157  27.624  28.699  1.00  0.00     0.049 A 
ATOM     57  H   UNL A   1      43.128  27.698  28.032  1.00  0.00     0.167 HD
ATOM     58  C   UNL A   1      47.277  27.698  26.648  1.00  0.00     0.037 A 
ATOM     59  C   UNL A   1      40.878  28.831  29.230  1.00  0.00     0.037 A 
ATOM     60  C   UNL A   1      47.043  29.038  27.114  1.00  0.00     0.049 A 
ATOM     61  C   UNL A   1      41.937  29.903  29.234  1.00  0.00     0.074 A 
ATOM     62  C   UNL A   1      47.902  30.123  27.094  1.00  0.00     0.029 A 
ATOM     63  N   UNL A   1      45.861  29.476  27.696  1.00  0.00    -0.354 N 
ATOM     64  N   UNL A   1      43.160  29.861  28.763  1.00  0.00    -0.248 NA
ATOM     65  C   UNL A   1      41.576  31.192  29.841  1.00  0.00     0.031 C 
ATOM     66  C   UNL A   1      47.259  31.203  27.709  1.00  0.00     0.029 A 
ATOM     67  C   UNL A   1      45.980  30.807  28.064  1.00  0.00     0.049 A 
ATOM     68  H   UNL A   1      45.058  28.923  27.827  1.00  0.00     0.167 HD
ATOM     69  C   UNL A   1      43.702  31.120  28.990  1.00  0.00     0.074 A 
ATOM     70  C   UNL A   1      42.671  31.908  29.631  1.00  0.00     0.031 C 
ATOM     71  C   UNL A   1      44.942  31.581  28.695  1.00  0.00     0.037 A 
BRANCH  58  72
ATOM     72  C   UNL A   1      48.635  27.365  26.103  1.00  0.00     0.064 A 
ATOM     73  C   UNL A   1      48.922  27.448  24.732  1.00  0.00     0.173 A 
ATOM     74  C   UNL A   1      49.675  26.993  26.969  1.00  0.00     0.173 A 
ATOM     75  F   UNL A   1      47.961  27.789  23.860  1.00  0.00    -0.203 F 
ATOM     76  C   UNL A   1      50.193  27.147  24.247  1.00  0.00     0.198 A 
ATOM     77  C   UNL A   1      50.950  26.720  26.483  1.00  0.00     0.198 A 
ATOM     78  F   UNL A   1      49.455  26.903  28.289  1.00  0.00    -0.203 F 
ATOM     79  F   UNL A   1      50.432  27.192  22.929  1.00  0.00    -0.200 F 
ATOM     80  C   UNL A   1      51.207  26.790  25.123  1.00  0.00     0.200 A 
ATOM     81  F   UNL A   1      51.932  26.388  27.333  1.00  0.00    -0.200 F 
ATOM     82  F   UNL A   1      52.430  26.508  24.655  1.00  0.00    -0.200 F 
ENDBRANCH  58  72
BRANCH  59  83
ATOM     83  C   UNL A   1      39.537  29.090  29.816  1.00  0.00     0.064 A 
ATOM     84  C   UNL A   1      39.252  28.763  31.149  1.00  0.00     0.173 A 
ATOM     85  C   UNL A   1      38.508  29.655  29.049  1.00  0.00     0.173 A 
ATOM     86  F   UNL A   1      40.195  28.195  31.916  1.00  0.00    -0.203 F 
ATOM     87  C   UNL A   1      37.984  28.975  31.686  1.00  0.00     0.198 A 
ATOM     88  C   UNL A   1      37.250  29.894  29.595  1.00  0.00     0.198 A 
ATOM     89  F   UNL A   1      38.729  29.984  27.767  1.00  0.00    -0.203 F 
ATOM     90  F   UNL A   1      37.724  28.611  32.949  1.00  0.00    -0.200 F 
ATOM     91  C   UNL A   1      36.985  29.546  30.910  1.00  0.00     0.200 A 
ATOM     92  F   UNL A   1      36.292  30.456  28.845  1.00  0.00    -0.200 F 
ATOM     93  F   UNL A   1      35.767  29.754  31.429  1.00  0.00    -0.200 F 
ENDBRANCH  59  83
BRANCH  71  94
ATOM     94  C   UNL A   1      45.245  33.015  29.028  1.00  0.00     0.064 A 
ATOM     95  C   UNL A   1      45.862  33.377  30.234  1.00  0.00     0.173 A 
ATOM     96  C   UNL A   1      44.952  34.034  28.109  1.00  0.00     0.173 A 
ATOM     97  F   UNL A   1      46.150  32.442  31.152  1.00  0.00    -0.203 F 
ATOM     98  C   UNL A   1      46.152  34.710  30.518  1.00  0.00     0.198 A 
ATOM     99  C   UNL A   1      45.270  35.361  28.383  1.00  0.00     0.198 A 
ATOM    100  F   UNL A   1      44.369  33.740  26.937  1.00  0.00    -0.203 F 
ATOM    101  F   UNL A   1      46.699  35.038  31.697  1.00  0.00    -0.200 F 
ATOM    102  C   UNL A   1      45.862  35.699  29.590  1.00  0.00     0.200 A 
ATOM    103  F   UNL A   1      45.002  36.313  27.478  1.00  0.00    -0.200 F 
ATOM    104  F   UNL A   1      46.149  36.979  29.862  1.00  0.00    -0.200 F 
ENDBRANCH  71  94
ENDBRANCH  45  46
ENDBRANCH  38  40
ENDBRANCH  37  38
ENDBRANCH  36  37
ENDBRANCH  35  36
ENDBRANCH  34  35
ENDBRANCH  33  34
ENDBRANCH  32  33
ENDBRANCH  31  32
ENDBRANCH  29  31
ENDBRANCH   1  29
TORSDOF 25
ENDMDL
MODEL 2
REMARK VINA RESULT:      -9.7      4.388      9.442
REMARK SMILES CCCCCCCCNC(=O)Oc1cccc(-c2ccc([C@@H](C)C(=O)OCCOCCOC(=O)c3ccc(-c4c5nc(c(-c6c(F)c(F)c(F)c(F)c6F)c6ccc([nH]6)c(-c6c(F)c(F)c(F)c(F)c6F)c6nc(c(-c7c(F)c(F)c(F)c(F)c7F)c7ccc4[nH]7)C=C6)C=C5)cc3)cc2F)c1
REMARK SMILES IDX 22 1 23 2 21 3 18 4 19 5 99 6 20 7 98 8 100 9 17 10 13 11
REMARK SMILES IDX 14 12 101 13 15 14 16 15 12 16 10 17 9 18 11 20 8 21 7 22
REMARK SMILES IDX 6 23 5 24 4 25 3 26 2 27 1 28 24 29 25 30 26 31 27 32 28 33
REMARK SMILES IDX 29 34 30 35 31 36 32 37 33 38 34 39 35 40 36 41 97 42 37 43
REMARK SMILES IDX 96 44 38 45 39 46 40 47 90 48 41 49 95 50 89 51 91 52 42 53
REMARK SMILES IDX 94 54 88 55 87 56 43 58 75 59 55 60 74 61 56 62 59 63 73 64
REMARK SMILES IDX 92 65 57 66 58 67 72 69 93 70 60 71 44 72 45 73 53 74 46 75
REMARK SMILES IDX 47 76 51 77 54 78 48 79 49 80 52 81 50 82 76 83 77 84 85 85
REMARK SMILES IDX 78 86 79 87 83 88 86 89 80 90 81 91 84 92 82 93 61 94 62 95
REMARK SMILES IDX 70 96 63 97 64 98 68 99 71 100 65 101 66 102 69 103 67 104
REMARK H PARENT 9 19 91 57 59 68
REMARK Flexibility Score: inf
ROOT
ATOM      1  C   UNL A   1      41.517  22.232  26.965  1.00  0.00     0.126 C 
ATOM      2  C   UNL A   1      41.629  21.652  28.373  1.00  0.00     0.025 C 
ENDROOT
BRANCH   1   3
ATOM      3  C   UNL A   1      40.071  22.543  26.593  1.00  0.00    -0.031 A 
ATOM      4  C   UNL A   1      37.419  23.075  25.672  1.00  0.00     0.018 A 
ATOM      5  C   UNL A   1      38.222  24.093  26.213  1.00  0.00     0.012 A 
ATOM      6  C   UNL A   1      37.962  21.785  25.639  1.00  0.00     0.131 A 
ATOM      7  C   UNL A   1      39.526  23.833  26.665  1.00  0.00     0.005 A 
ATOM      8  C   UNL A   1      39.257  21.516  26.088  1.00  0.00     0.044 A 
ATOM      9  F   UNL A   1      37.252  20.764  25.133  1.00  0.00    -0.206 F 
BRANCH   4  10
ATOM     10  C   UNL A   1      36.080  23.362  25.128  1.00  0.00    -0.012 A 
ATOM     11  C   UNL A   1      33.830  24.245  25.379  1.00  0.00     0.133 A 
ATOM     12  C   UNL A   1      33.485  23.817  24.100  1.00  0.00     0.047 A 
ATOM     13  C   UNL A   1      35.105  24.013  25.901  1.00  0.00     0.056 A 
ATOM     14  C   UNL A   1      34.440  23.172  23.319  1.00  0.00     0.004 A 
ATOM     15  C   UNL A   1      35.725  22.950  23.829  1.00  0.00     0.009 A 
BRANCH  11  16
ATOM     16  O   UNL A   1      32.807  24.799  26.164  1.00  0.00    -0.410 OA
BRANCH  16  17
ATOM     17  C   UNL A   1      31.765  23.969  26.542  1.00  0.00     0.412 C 
ATOM     18  N   UNL A   1      30.537  24.552  26.408  1.00  0.00    -0.321 N 
ATOM     19  H   UNL A   1      29.760  24.006  26.668  1.00  0.00     0.167 HD
ATOM     20  O   UNL A   1      31.875  22.823  26.973  1.00  0.00    -0.224 OA
BRANCH  18  21
ATOM     21  C   UNL A   1      30.256  25.890  25.923  1.00  0.00     0.119 C 
BRANCH  21  22
ATOM     22  C   UNL A   1      30.310  25.971  24.397  1.00  0.00     0.021 C 
BRANCH  22  23
ATOM     23  C   UNL A   1      29.497  27.118  23.782  1.00  0.00     0.002 C 
BRANCH  23  24
ATOM     24  C   UNL A   1      30.300  28.118  22.943  1.00  0.00     0.000 C 
BRANCH  24  25
ATOM     25  C   UNL A   1      29.590  29.444  22.656  1.00  0.00    -0.000 C 
BRANCH  25  26
ATOM     26  C   UNL A   1      28.069  29.425  22.854  1.00  0.00    -0.000 C 
BRANCH  26  27
ATOM     27  C   UNL A   1      27.464  30.718  23.408  1.00  0.00    -0.003 C 
ATOM     28  C   UNL A   1      28.457  31.868  23.482  1.00  0.00     0.004 C 
ENDBRANCH  26  27
ENDBRANCH  25  26
ENDBRANCH  24  25
ENDBRANCH  23  24
ENDBRANCH  22  23
ENDBRANCH  21  22
ENDBRANCH  18  21
ENDBRANCH  16  17
ENDBRANCH  11  16
ENDBRANCH   4  10
ENDBRANCH   1   3
BRANCH   1  29
ATOM     29  C   UNL A   1      42.335  21.380  26.007  1.00  0.00     0.313 C 
ATOM     30  O   UNL A   1      42.057  20.204  25.793  1.00  0.00    -0.252 OA
BRANCH  29  31
ATOM     31  O   UNL A   1      43.351  22.050  25.403  1.00  0.00    -0.463 OA
BRANCH  31  32
ATOM     32  C   UNL A   1      43.035  23.371  24.928  1.00  0.00     0.261 C 
BRANCH  32  33
ATOM     33  C   UNL A   1      44.237  24.310  25.059  1.00  0.00     0.202 C 
BRANCH  33  34
ATOM     34  O   UNL A   1      45.429  23.906  24.385  1.00  0.00    -0.374 OA
BRANCH  34  35
ATOM     35  C   UNL A   1      46.653  23.965  25.118  1.00  0.00     0.202 C 
BRANCH  35  36
ATOM     36  C   UNL A   1      47.499  25.232  24.944  1.00  0.00     0.261 C 
BRANCH  36  37
ATOM     37  O   UNL A   1      47.186  26.240  25.922  1.00  0.00    -0.460 OA
BRANCH  37  38
ATOM     38  C   UNL A   1      46.476  27.290  25.441  1.00  0.00     0.338 C 
ATOM     39  O   UNL A   1      46.511  27.759  24.318  1.00  0.00    -0.246 OA
BRANCH  38  40
ATOM     40  C   UNL A   1      45.463  27.708  26.430  1.00  0.00     0.060 A 
ATOM     41  C   UNL A   1      45.226  29.082  26.562  1.00  0.00     0.016 A 
ATOM     42  C   UNL A   1      44.822  26.795  27.270  1.00  0.00     0.016 A 
ATOM     43  C   UNL A   1      44.391  29.555  27.570  1.00  0.00     0.010 A 
ATOM     44  C   UNL A   1      43.987  27.272  28.288  1.00  0.00     0.010 A 
ATOM     45  C   UNL A   1      43.799  28.657  28.467  1.00  0.00    -0.014 A 
BRANCH  45  46
ATOM     46  C   UNL A   1      43.116  29.183  29.675  1.00  0.00     0.031 A 
ATOM     47  C   UNL A   1      41.676  29.605  29.575  1.00  0.00     0.074 A 
ATOM     48  C   UNL A   1      43.753  29.240  30.857  1.00  0.00     0.049 A 
ATOM     49  N   UNL A   1      40.887  30.099  30.496  1.00  0.00    -0.248 NA
ATOM     50  C   UNL A   1      41.037  29.445  28.259  1.00  0.00     0.031 C 
ATOM     51  C   UNL A   1      45.133  28.821  31.093  1.00  0.00     0.029 A 
ATOM     52  N   UNL A   1      43.318  29.678  32.084  1.00  0.00    -0.354 N 
ATOM     53  C   UNL A   1      39.666  30.315  29.870  1.00  0.00     0.074 A 
ATOM     54  C   UNL A   1      39.824  29.926  28.485  1.00  0.00     0.031 C 
ATOM     55  C   UNL A   1      45.436  29.031  32.385  1.00  0.00     0.029 A 
ATOM     56  C   UNL A   1      44.283  29.626  33.059  1.00  0.00     0.049 A 
ATOM     57  H   UNL A   1      42.401  29.997  32.248  1.00  0.00     0.167 HD
ATOM     58  C   UNL A   1      38.514  30.787  30.405  1.00  0.00     0.037 A 
ATOM     59  C   UNL A   1      44.244  30.032  34.343  1.00  0.00     0.037 A 
ATOM     60  C   UNL A   1      38.355  31.167  31.783  1.00  0.00     0.049 A 
ATOM     61  C   UNL A   1      42.970  30.616  34.898  1.00  0.00     0.074 A 
ATOM     62  C   UNL A   1      37.220  31.633  32.425  1.00  0.00     0.029 A 
ATOM     63  N   UNL A   1      39.366  31.134  32.733  1.00  0.00    -0.354 N 
ATOM     64  N   UNL A   1      41.812  30.791  34.308  1.00  0.00    -0.248 NA
ATOM     65  C   UNL A   1      42.996  31.055  36.301  1.00  0.00     0.031 C 
ATOM     66  C   UNL A   1      37.558  31.931  33.750  1.00  0.00     0.029 A 
ATOM     67  C   UNL A   1      38.888  31.599  33.948  1.00  0.00     0.049 A 
ATOM     68  H   UNL A   1      40.285  30.827  32.568  1.00  0.00     0.167 HD
ATOM     69  C   UNL A   1      40.969  31.331  35.270  1.00  0.00     0.074 A 
ATOM     70  C   UNL A   1      41.743  31.445  36.487  1.00  0.00     0.031 C 
ATOM     71  C   UNL A   1      39.669  31.700  35.155  1.00  0.00     0.037 A 
BRANCH  58  72
ATOM     72  C   UNL A   1      37.338  30.943  29.487  1.00  0.00     0.064 A 
ATOM     73  C   UNL A   1      36.496  29.866  29.174  1.00  0.00     0.173 A 
ATOM     74  C   UNL A   1      37.029  32.198  28.940  1.00  0.00     0.173 A 
ATOM     75  F   UNL A   1      36.754  28.643  29.662  1.00  0.00    -0.203 F 
ATOM     76  C   UNL A   1      35.402  30.034  28.328  1.00  0.00     0.198 A 
ATOM     77  C   UNL A   1      35.918  32.368  28.117  1.00  0.00     0.198 A 
ATOM     78  F   UNL A   1      37.799  33.262  29.211  1.00  0.00    -0.203 F 
ATOM     79  F   UNL A   1      34.636  28.981  28.009  1.00  0.00    -0.200 F 
ATOM     80  C   UNL A   1      35.110  31.286  27.807  1.00  0.00     0.200 A 
ATOM     81  F   UNL A   1      35.630  33.581  27.625  1.00  0.00    -0.200 F 
ATOM     82  F   UNL A   1      34.053  31.447  27.000  1.00  0.00    -0.200 F 
ENDBRANCH  58  72
BRANCH  59  83
ATOM     83  C   UNL A   1      45.456  29.916  35.194  1.00  0.00     0.064 A 
ATOM     84  C   UNL A   1      45.633  28.829  36.062  1.00  0.00     0.173 A 
ATOM     85  C   UNL A   1      46.456  30.900  35.169  1.00  0.00     0.173 A 
ATOM     86  F   UNL A   1      44.693  27.876  36.142  1.00  0.00    -0.203 F 
ATOM     87  C   UNL A   1      46.755  28.741  36.884  1.00  0.00     0.198 A 
ATOM     88  C   UNL A   1      47.591  30.795  35.969  1.00  0.00     0.198 A 
ATOM     89  F   UNL A   1      46.333  31.962  34.358  1.00  0.00    -0.203 F 
ATOM     90  F   UNL A   1      46.878  27.716  37.738  1.00  0.00    -0.200 F 
ATOM     91  C   UNL A   1      47.736  29.721  36.833  1.00  0.00     0.200 A 
ATOM     92  F   UNL A   1      48.541  31.739  35.908  1.00  0.00    -0.200 F 
ATOM     93  F   UNL A   1      48.816  29.632  37.620  1.00  0.00    -0.200 F 
ENDBRANCH  59  83
BRANCH  71  94
ATOM     94  C   UNL A   1      38.988  32.229  36.386  1.00  0.00     0.064 A 
ATOM     95  C   UNL A   1      39.141  33.561  36.797  1.00  0.00     0.173 A 
ATOM     96  C   UNL A   1      38.139  31.403  37.137  1.00  0.00     0.173 A 
ATOM     97  F   UNL A   1      39.954  34.387  36.122  1.00  0.00    -0.203 F 
ATOM     98  C   UNL A   1      38.488  34.039  37.931  1.00  0.00     0.198 A 
ATOM     99  C   UNL A   1      37.464  31.892  38.252  1.00  0.00     0.198 A 
ATOM    100  F   UNL A   1      37.951  30.123  36.781  1.00  0.00    -0.203 F 
ATOM    101  F   UNL A   1      38.685  35.302  38.333  1.00  0.00    -0.200 F 
ATOM    102  C   UNL A   1      37.645  33.207  38.652  1.00  0.00     0.200 A 
ATOM    103  F   UNL A   1      36.638  31.090  38.939  1.00  0.00    -0.200 F 
ATOM    104  F   UNL A   1      37.011  33.671  39.738  1.00  0.00    -0.200 F 
ENDBRANCH  71  94
ENDBRANCH  45  46
ENDBRANCH  38  40
ENDBRANCH  37  38
ENDBRANCH  36  37
ENDBRANCH  35  36
ENDBRANCH  34  35
ENDBRANCH  33  34
ENDBRANCH  32  33
ENDBRANCH  31  32
ENDBRANCH  29  31
ENDBRANCH   1  29
TORSDOF 25
ENDMDL
MODEL 3
REMARK VINA RESULT:      -9.5      4.403      7.703
REMARK SMILES CCCCCCCCNC(=O)Oc1cccc(-c2ccc([C@@H](C)C(=O)OCCOCCOC(=O)c3ccc(-c4c5nc(c(-c6c(F)c(F)c(F)c(F)c6F)c6ccc([nH]6)c(-c6c(F)c(F)c(F)c(F)c6F)c6nc(c(-c7c(F)c(F)c(F)c(F)c7F)c7ccc4[nH]7)C=C6)C=C5)cc3)cc2F)c1
REMARK SMILES IDX 22 1 23 2 21 3 18 4 19 5 99 6 20 7 98 8 100 9 17 10 13 11
REMARK SMILES IDX 14 12 101 13 15 14 16 15 12 16 10 17 9 18 11 20 8 21 7 22
REMARK SMILES IDX 6 23 5 24 4 25 3 26 2 27 1 28 24 29 25 30 26 31 27 32 28 33
REMARK SMILES IDX 29 34 30 35 31 36 32 37 33 38 34 39 35 40 36 41 97 42 37 43
REMARK SMILES IDX 96 44 38 45 39 46 40 47 90 48 41 49 95 50 89 51 91 52 42 53
REMARK SMILES IDX 94 54 88 55 87 56 43 58 75 59 55 60 74 61 56 62 59 63 73 64
REMARK SMILES IDX 92 65 57 66 58 67 72 69 93 70 60 71 44 72 45 73 53 74 46 75
REMARK SMILES IDX 47 76 51 77 54 78 48 79 49 80 52 81 50 82 76 83 77 84 85 85
REMARK SMILES IDX 78 86 79 87 83 88 86 89 80 90 81 91 84 92 82 93 61 94 62 95
REMARK SMILES IDX 70 96 63 97 64 98 68 99 71 100 65 101 66 102 69 103 67 104
REMARK H PARENT 9 19 91 57 59 68
REMARK Flexibility Score: inf
ROOT
ATOM      1  C   UNL A   1      40.877  21.938  26.691  1.00  0.00     0.126 C 
ATOM      2  C   UNL A   1      40.971  20.426  26.881  1.00  0.00     0.025 C 
ENDROOT
BRANCH   1   3
ATOM      3  C   UNL A   1      39.458  22.380  26.351  1.00  0.00    -0.031 A 
ATOM      4  C   UNL A   1      36.856  23.181  25.485  1.00  0.00     0.018 A 
ATOM      5  C   UNL A   1      37.715  24.078  26.141  1.00  0.00     0.012 A 
ATOM      6  C   UNL A   1      37.317  21.872  25.307  1.00  0.00     0.131 A 
ATOM      7  C   UNL A   1      38.995  23.686  26.567  1.00  0.00     0.005 A 
ATOM      8  C   UNL A   1      38.587  21.472  25.729  1.00  0.00     0.044 A 
ATOM      9  F   UNL A   1      36.550  20.962  24.685  1.00  0.00    -0.206 F 
BRANCH   4  10
ATOM     10  C   UNL A   1      35.544  23.614  24.971  1.00  0.00    -0.012 A 
ATOM     11  C   UNL A   1      33.252  24.334  25.337  1.00  0.00     0.133 A 
ATOM     12  C   UNL A   1      33.003  24.346  23.967  1.00  0.00     0.047 A 
ATOM     13  C   UNL A   1      34.499  23.960  25.843  1.00  0.00     0.056 A 
ATOM     14  C   UNL A   1      34.028  24.007  23.088  1.00  0.00     0.004 A 
ATOM     15  C   UNL A   1      35.286  23.647  23.587  1.00  0.00     0.009 A 
BRANCH  11  16
ATOM     16  O   UNL A   1      32.163  24.585  26.185  1.00  0.00    -0.410 OA
BRANCH  16  17
ATOM     17  C   UNL A   1      31.025  23.814  26.016  1.00  0.00     0.412 C 
ATOM     18  N   UNL A   1      29.926  24.546  25.666  1.00  0.00    -0.321 N 
ATOM     19  H   UNL A   1      29.087  24.046  25.537  1.00  0.00     0.167 HD
ATOM     20  O   UNL A   1      30.950  22.596  26.165  1.00  0.00    -0.224 OA
BRANCH  18  21
ATOM     21  C   UNL A   1      29.864  25.980  25.463  1.00  0.00     0.119 C 
BRANCH  21  22
ATOM     22  C   UNL A   1      30.152  26.369  24.013  1.00  0.00     0.021 C 
BRANCH  22  23
ATOM     23  C   UNL A   1      29.243  27.468  23.446  1.00  0.00     0.002 C 
BRANCH  23  24
ATOM     24  C   UNL A   1      29.803  28.892  23.530  1.00  0.00     0.000 C 
BRANCH  24  25
ATOM     25  C   UNL A   1      31.306  28.984  23.812  1.00  0.00    -0.000 C 
BRANCH  25  26
ATOM     26  C   UNL A   1      31.677  29.528  25.197  1.00  0.00    -0.000 C 
BRANCH  26  27
ATOM     27  C   UNL A   1      32.341  28.521  26.140  1.00  0.00    -0.003 C 
ATOM     28  C   UNL A   1      31.689  28.456  27.513  1.00  0.00     0.004 C 
ENDBRANCH  26  27
ENDBRANCH  25  26
ENDBRANCH  24  25
ENDBRANCH  23  24
ENDBRANCH  22  23
ENDBRANCH  21  22
ENDBRANCH  18  21
ENDBRANCH  16  17
ENDBRANCH  11  16
ENDBRANCH   4  10
ENDBRANCH   1   3
BRANCH   1  29
ATOM     29  C   UNL A   1      42.007  22.398  25.783  1.00  0.00     0.313 C 
ATOM     30  O   UNL A   1      42.234  23.588  25.588  1.00  0.00    -0.252 OA
BRANCH  29  31
ATOM     31  O   UNL A   1      42.741  21.381  25.258  1.00  0.00    -0.463 OA
BRANCH  31  32
ATOM     32  C   UNL A   1      43.837  20.917  26.067  1.00  0.00     0.261 C 
BRANCH  32  33
ATOM     33  C   UNL A   1      44.722  22.080  26.522  1.00  0.00     0.202 C 
BRANCH  33  34
ATOM     34  O   UNL A   1      46.008  22.169  25.910  1.00  0.00    -0.374 OA
BRANCH  34  35
ATOM     35  C   UNL A   1      46.473  23.466  25.539  1.00  0.00     0.202 C 
BRANCH  35  36
ATOM     36  C   UNL A   1      45.754  24.148  24.369  1.00  0.00     0.261 C 
BRANCH  36  37
ATOM     37  O   UNL A   1      44.967  25.276  24.790  1.00  0.00    -0.460 OA
BRANCH  37  38
ATOM     38  C   UNL A   1      45.681  26.404  25.030  1.00  0.00     0.338 C 
ATOM     39  O   UNL A   1      46.438  26.979  24.269  1.00  0.00    -0.246 OA
BRANCH  38  40
ATOM     40  C   UNL A   1      45.273  26.994  26.320  1.00  0.00     0.060 A 
ATOM     41  C   UNL A   1      44.531  26.182  27.188  1.00  0.00     0.016 A 
ATOM     42  C   UNL A   1      45.528  28.328  26.643  1.00  0.00     0.016 A 
ATOM     43  C   UNL A   1      43.992  26.714  28.356  1.00  0.00     0.010 A 
ATOM     44  C   UNL A   1      44.981  28.865  27.815  1.00  0.00     0.010 A 
ATOM     45  C   UNL A   1      44.178  28.070  28.656  1.00  0.00    -0.014 A 
BRANCH  45  46
ATOM     46  C   UNL A   1      43.401  28.679  29.766  1.00  0.00     0.031 A 
ATOM     47  C   UNL A   1      44.033  28.787  31.126  1.00  0.00     0.074 A 
ATOM     48  C   UNL A   1      42.169  29.174  29.554  1.00  0.00     0.049 A 
ATOM     49  N   UNL A   1      43.538  29.272  32.237  1.00  0.00    -0.248 NA
ATOM     50  C   UNL A   1      45.409  28.282  31.251  1.00  0.00     0.031 C 
ATOM     51  C   UNL A   1      41.467  29.168  28.273  1.00  0.00     0.029 A 
ATOM     52  N   UNL A   1      41.290  29.776  30.420  1.00  0.00    -0.354 N 
ATOM     53  C   UNL A   1      44.537  29.125  33.190  1.00  0.00     0.074 A 
ATOM     54  C   UNL A   1      45.655  28.478  32.538  1.00  0.00     0.031 C 
ATOM     55  C   UNL A   1      40.259  29.733  28.438  1.00  0.00     0.029 A 
ATOM     56  C   UNL A   1      40.092  30.111  29.840  1.00  0.00     0.049 A 
ATOM     57  H   UNL A   1      41.500  29.952  31.365  1.00  0.00     0.167 HD
ATOM     58  C   UNL A   1      44.526  29.502  34.492  1.00  0.00     0.037 A 
ATOM     59  C   UNL A   1      38.981  30.642  30.386  1.00  0.00     0.037 A 
ATOM     60  C   UNL A   1      43.417  30.151  35.140  1.00  0.00     0.049 A 
ATOM     61  C   UNL A   1      38.969  30.993  31.852  1.00  0.00     0.074 A 
ATOM     62  C   UNL A   1      43.319  30.594  36.447  1.00  0.00     0.029 A 
ATOM     63  N   UNL A   1      42.206  30.441  34.529  1.00  0.00    -0.354 N 
ATOM     64  N   UNL A   1      39.927  30.876  32.740  1.00  0.00    -0.248 NA
ATOM     65  C   UNL A   1      37.722  31.555  32.391  1.00  0.00     0.031 C 
ATOM     66  C   UNL A   1      42.032  31.105  36.642  1.00  0.00     0.029 A 
ATOM     67  C   UNL A   1      41.345  31.031  35.441  1.00  0.00     0.049 A 
ATOM     68  H   UNL A   1      41.990  30.255  33.587  1.00  0.00     0.167 HD
ATOM     69  C   UNL A   1      39.410  31.373  33.929  1.00  0.00     0.074 A 
ATOM     70  C   UNL A   1      38.057  31.804  33.648  1.00  0.00     0.031 C 
ATOM     71  C   UNL A   1      40.003  31.462  35.145  1.00  0.00     0.037 A 
BRANCH  58  72
ATOM     72  C   UNL A   1      45.746  29.198  35.311  1.00  0.00     0.064 A 
ATOM     73  C   UNL A   1      45.891  27.983  35.997  1.00  0.00     0.173 A 
ATOM     74  C   UNL A   1      46.800  30.122  35.381  1.00  0.00     0.173 A 
ATOM     75  F   UNL A   1      44.908  27.071  35.972  1.00  0.00    -0.203 F 
ATOM     76  C   UNL A   1      47.037  27.715  36.743  1.00  0.00     0.198 A 
ATOM     77  C   UNL A   1      47.955  29.838  36.105  1.00  0.00     0.198 A 
ATOM     78  F   UNL A   1      46.713  31.296  34.739  1.00  0.00    -0.203 F 
ATOM     79  F   UNL A   1      47.136  26.566  37.426  1.00  0.00    -0.200 F 
ATOM     80  C   UNL A   1      48.070  28.640  36.791  1.00  0.00     0.200 A 
ATOM     81  F   UNL A   1      48.958  30.728  36.138  1.00  0.00    -0.200 F 
ATOM     82  F   UNL A   1      49.174  28.377  37.502  1.00  0.00    -0.200 F 
ENDBRANCH  58  72
BRANCH  59  83
ATOM     83  C   UNL A   1      37.775  30.864  29.546  1.00  0.00     0.064 A 
ATOM     84  C   UNL A   1      37.488  32.126  29.007  1.00  0.00     0.173 A 
ATOM     85  C   UNL A   1      36.877  29.820  29.278  1.00  0.00     0.173 A 
ATOM     86  F   UNL A   1      38.302  33.162  29.257  1.00  0.00    -0.203 F 
ATOM     87  C   UNL A   1      36.338  32.338  28.248  1.00  0.00     0.198 A 
ATOM     88  C   UNL A   1      35.744  30.027  28.495  1.00  0.00     0.198 A 
ATOM     89  F   UNL A   1      37.105  28.594  29.773  1.00  0.00    -0.203 F 
ATOM     90  F   UNL A   1      36.062  33.564  27.784  1.00  0.00    -0.200 F 
ATOM     91  C   UNL A   1      35.471  31.287  27.988  1.00  0.00     0.200 A 
ATOM     92  F   UNL A   1      34.915  29.006  28.237  1.00  0.00    -0.200 F 
ATOM     93  F   UNL A   1      34.368  31.492  27.254  1.00  0.00    -0.200 F 
ENDBRANCH  59  83
BRANCH  71  94
ATOM     94  C   UNL A   1      39.207  32.083  36.259  1.00  0.00     0.064 A 
ATOM     95  C   UNL A   1      39.349  33.436  36.600  1.00  0.00     0.173 A 
ATOM     96  C   UNL A   1      38.262  31.324  36.965  1.00  0.00     0.173 A 
ATOM     97  F   UNL A   1      40.250  34.201  35.966  1.00  0.00    -0.203 F 
ATOM     98  C   UNL A   1      38.591  33.999  37.624  1.00  0.00     0.198 A 
ATOM     99  C   UNL A   1      37.484  31.897  37.966  1.00  0.00     0.198 A 
ATOM    100  F   UNL A   1      38.081  30.027  36.672  1.00  0.00    -0.203 F 
ATOM    101  F   UNL A   1      38.775  35.282  37.964  1.00  0.00    -0.200 F 
ATOM    102  C   UNL A   1      37.654  33.232  38.300  1.00  0.00     0.200 A 
ATOM    103  F   UNL A   1      36.569  31.157  38.609  1.00  0.00    -0.200 F 
ATOM    104  F   UNL A   1      36.919  33.778  39.279  1.00  0.00    -0.200 F 
ENDBRANCH  71  94
ENDBRANCH  45  46
ENDBRANCH  38  40
ENDBRANCH  37  38
ENDBRANCH  36  37
ENDBRANCH  35  36
ENDBRANCH  34  35
ENDBRANCH  33  34
ENDBRANCH  32  33
ENDBRANCH  31  32
ENDBRANCH  29  31
ENDBRANCH   1  29
TORSDOF 25
ENDMDL
