MODEL 1
REMARK VINA RESULT:     -11.3      0.000      0.000
REMARK SMILES Cc1ccccc1OCC(=O)N1C[C@@H](O)C[C@H]1C(=O)OCCOCCOC(=O)c1ccc(-c2c3nc(c(-c4c(F)c(F)c(F)c(F)c4F)c4ccc([nH]4)c(-c4c(F)c(F)c(F)c(F)c4F)c4nc(c(-c5c(F)c(F)c(F)c(F)c5F)c5ccc2[nH]5)C=C4)C=C3)cc1
REMARK SMILES IDX 22 1 21 2 20 3 18 4 19 5 17 6 12 7 13 8 14 9 16 10 10 11
REMARK SMILES IDX 11 12 9 13 8 14 7 15 1 16 2 17 3 18 4 19 6 20 5 21 15 22
REMARK SMILES IDX 23 24 24 25 25 26 26 27 27 28 28 29 29 30 30 31 91 32 31 33
REMARK SMILES IDX 90 34 32 35 33 36 34 37 84 38 35 39 89 40 83 41 85 42 36 43
REMARK SMILES IDX 88 44 82 45 81 46 37 48 69 49 49 50 68 51 50 52 53 53 67 54
REMARK SMILES IDX 86 55 51 56 52 57 66 59 87 60 54 61 38 62 39 63 47 64 40 65
REMARK SMILES IDX 41 66 45 67 48 68 42 69 43 70 46 71 44 72 70 73 71 74 79 75
REMARK SMILES IDX 72 76 73 77 77 78 80 79 74 80 75 81 78 82 76 83 55 84 56 85
REMARK SMILES IDX 64 86 57 87 58 88 62 89 65 90 59 91 60 92 63 93 61 94
REMARK H PARENT 15 23 85 47 53 58
REMARK Flexibility Score: inf
ROOT
ATOM      1  C   UNL A   1      32.083  28.978  24.573  1.00  0.00     0.202 C 
ENDROOT
BRANCH   1   2
ATOM      2  C   UNL A   1      31.503  27.657  24.965  1.00  0.00     0.261 C 
BRANCH   2   3
ATOM      3  O   UNL A   1      32.304  26.593  24.441  1.00  0.00    -0.462 OA
BRANCH   3   4
ATOM      4  C   UNL A   1      32.602  25.522  25.242  1.00  0.00     0.329 C 
ATOM      5  O   UNL A   1      33.452  25.505  26.120  1.00  0.00    -0.250 OA
BRANCH   4   6
ATOM      6  C   UNL A   1      31.873  24.282  24.720  1.00  0.00     0.198 C 
ATOM      7  N   UNL A   1      32.653  23.074  25.021  1.00  0.00    -0.323 N 
ATOM      8  C   UNL A   1      32.160  22.427  26.218  1.00  0.00     0.152 C 
ATOM      9  C   UNL A   1      30.688  22.834  26.292  1.00  0.00     0.136 C 
ATOM     10  C   UNL A   1      30.567  24.143  25.508  1.00  0.00     0.070 C 
BRANCH   7  11
ATOM     11  C   UNL A   1      33.793  22.792  24.304  1.00  0.00     0.261 C 
ATOM     12  O   UNL A   1      33.922  23.209  23.148  1.00  0.00    -0.271 OA
BRANCH  11  13
ATOM     13  C   UNL A   1      34.871  21.860  24.894  1.00  0.00     0.329 C 
BRANCH  13  14
ATOM     14  O   UNL A   1      36.127  21.709  24.282  1.00  0.00    -0.484 OA
BRANCH  14  15
ATOM     15  C   UNL A   1      37.307  21.508  24.928  1.00  0.00     0.122 A 
ATOM     16  C   UNL A   1      37.958  23.862  25.766  1.00  0.00     0.048 C 
ATOM     17  C   UNL A   1      38.122  22.375  25.668  1.00  0.00    -0.009 A 
ATOM     18  C   UNL A   1      39.278  21.845  26.295  1.00  0.00     0.007 A 
ATOM     19  C   UNL A   1      39.665  20.517  26.126  1.00  0.00     0.001 A 
ATOM     20  C   UNL A   1      37.738  20.182  24.740  1.00  0.00     0.047 A 
ATOM     21  C   UNL A   1      38.907  19.690  25.317  1.00  0.00     0.004 A 
ENDBRANCH  14  15
ENDBRANCH  13  14
ENDBRANCH  11  13
ENDBRANCH   7  11
BRANCH   9  22
ATOM     22  O   UNL A   1      30.232  22.998  27.626  1.00  0.00    -0.391 OA
ATOM     23  H   UNL A   1      30.939  23.387  28.164  1.00  0.00     0.211 HD
ENDBRANCH   9  22
ENDBRANCH   4   6
ENDBRANCH   3   4
ENDBRANCH   2   3
ENDBRANCH   1   2
BRANCH   1  24
ATOM     24  O   UNL A   1      31.537  29.903  25.502  1.00  0.00    -0.374 OA
BRANCH  24  25
ATOM     25  C   UNL A   1      32.070  29.882  26.809  1.00  0.00     0.202 C 
BRANCH  25  26
ATOM     26  C   UNL A   1      33.587  30.099  26.848  1.00  0.00     0.261 C 
BRANCH  26  27
ATOM     27  O   UNL A   1      33.970  30.885  27.998  1.00  0.00    -0.460 OA
BRANCH  27  28
ATOM     28  C   UNL A   1      35.262  31.318  28.007  1.00  0.00     0.338 C 
ATOM     29  O   UNL A   1      35.636  32.421  27.625  1.00  0.00    -0.246 OA
BRANCH  28  30
ATOM     30  C   UNL A   1      36.179  30.165  28.245  1.00  0.00     0.060 A 
ATOM     31  C   UNL A   1      36.267  29.579  29.522  1.00  0.00     0.016 A 
ATOM     32  C   UNL A   1      37.200  29.970  27.324  1.00  0.00     0.016 A 
ATOM     33  C   UNL A   1      37.461  28.963  29.931  1.00  0.00     0.010 A 
ATOM     34  C   UNL A   1      38.420  29.548  27.801  1.00  0.00     0.010 A 
ATOM     35  C   UNL A   1      38.574  29.043  29.103  1.00  0.00    -0.014 A 
BRANCH  35  36
ATOM     36  C   UNL A   1      39.954  28.652  29.416  1.00  0.00     0.031 A 
ATOM     37  C   UNL A   1      40.341  27.263  29.035  1.00  0.00     0.074 A 
ATOM     38  C   UNL A   1      40.919  29.551  29.753  1.00  0.00     0.049 A 
ATOM     39  N   UNL A   1      41.501  26.759  29.256  1.00  0.00    -0.248 NA
ATOM     40  C   UNL A   1      39.447  26.297  28.384  1.00  0.00     0.031 C 
ATOM     41  C   UNL A   1      42.371  29.414  29.570  1.00  0.00     0.029 A 
ATOM     42  N   UNL A   1      40.827  30.821  30.358  1.00  0.00    -0.354 N 
ATOM     43  C   UNL A   1      41.623  25.615  28.508  1.00  0.00     0.074 A 
ATOM     44  C   UNL A   1      40.291  25.308  28.073  1.00  0.00     0.031 C 
ATOM     45  C   UNL A   1      43.012  30.321  30.326  1.00  0.00     0.029 A 
ATOM     46  C   UNL A   1      42.001  30.995  31.116  1.00  0.00     0.049 A 
ATOM     47  H   UNL A   1      40.086  31.463  30.267  1.00  0.00     0.167 HD
ATOM     48  C   UNL A   1      42.884  25.154  28.278  1.00  0.00     0.037 A 
ATOM     49  C   UNL A   1      41.955  31.125  32.469  1.00  0.00     0.037 A 
ATOM     50  C   UNL A   1      43.829  25.837  29.174  1.00  0.00     0.049 A 
ATOM     51  C   UNL A   1      42.695  29.979  33.090  1.00  0.00     0.074 A 
ATOM     52  C   UNL A   1      44.815  26.791  28.995  1.00  0.00     0.029 A 
ATOM     53  N   UNL A   1      43.580  25.791  30.550  1.00  0.00    -0.354 N 
ATOM     54  N   UNL A   1      42.886  28.852  32.458  1.00  0.00    -0.248 NA
ATOM     55  C   UNL A   1      43.367  30.021  34.381  1.00  0.00     0.031 C 
ATOM     56  C   UNL A   1      45.085  27.380  30.267  1.00  0.00     0.029 A 
ATOM     57  C   UNL A   1      44.296  26.758  31.227  1.00  0.00     0.049 A 
ATOM     58  H   UNL A   1      42.971  25.149  30.981  1.00  0.00     0.167 HD
ATOM     59  C   UNL A   1      43.747  28.074  33.163  1.00  0.00     0.074 A 
ATOM     60  C   UNL A   1      43.991  28.828  34.382  1.00  0.00     0.031 C 
ATOM     61  C   UNL A   1      44.201  26.882  32.682  1.00  0.00     0.037 A 
BRANCH  48  62
ATOM     62  C   UNL A   1      43.300  24.202  27.173  1.00  0.00     0.064 A 
ATOM     63  C   UNL A   1      42.907  22.845  27.231  1.00  0.00     0.173 A 
ATOM     64  C   UNL A   1      44.155  24.511  26.091  1.00  0.00     0.173 A 
ATOM     65  F   UNL A   1      42.119  22.392  28.215  1.00  0.00    -0.203 F 
ATOM     66  C   UNL A   1      43.326  21.895  26.291  1.00  0.00     0.198 A 
ATOM     67  C   UNL A   1      44.534  23.571  25.126  1.00  0.00     0.198 A 
ATOM     68  F   UNL A   1      44.708  25.717  25.938  1.00  0.00    -0.203 F 
ATOM     69  F   UNL A   1      42.954  20.615  26.428  1.00  0.00    -0.200 F 
ATOM     70  C   UNL A   1      44.128  22.261  25.229  1.00  0.00     0.200 A 
ATOM     71  F   UNL A   1      45.321  23.949  24.106  1.00  0.00    -0.200 F 
ATOM     72  F   UNL A   1      44.521  21.355  24.324  1.00  0.00    -0.200 F 
ENDBRANCH  48  62
BRANCH  49  73
ATOM     73  C   UNL A   1      40.709  31.822  32.904  1.00  0.00     0.064 A 
ATOM     74  C   UNL A   1      40.589  33.174  32.503  1.00  0.00     0.173 A 
ATOM     75  C   UNL A   1      39.520  31.120  33.144  1.00  0.00     0.173 A 
ATOM     76  F   UNL A   1      41.693  33.894  32.246  1.00  0.00    -0.203 F 
ATOM     77  C   UNL A   1      39.352  33.730  32.178  1.00  0.00     0.198 A 
ATOM     78  C   UNL A   1      38.279  31.694  32.834  1.00  0.00     0.198 A 
ATOM     79  F   UNL A   1      39.556  29.835  33.520  1.00  0.00    -0.203 F 
ATOM     80  F   UNL A   1      39.293  34.951  31.624  1.00  0.00    -0.200 F 
ATOM     81  C   UNL A   1      38.202  32.972  32.299  1.00  0.00     0.200 A 
ATOM     82  F   UNL A   1      37.158  30.964  32.943  1.00  0.00    -0.200 F 
ATOM     83  F   UNL A   1      37.035  33.446  31.839  1.00  0.00    -0.200 F 
ENDBRANCH  49  73
BRANCH  61  84
ATOM     84  C   UNL A   1      44.667  25.753  33.563  1.00  0.00     0.064 A 
ATOM     85  C   UNL A   1      43.796  24.979  34.352  1.00  0.00     0.173 A 
ATOM     86  C   UNL A   1      46.001  25.286  33.497  1.00  0.00     0.173 A 
ATOM     87  F   UNL A   1      42.478  25.212  34.386  1.00  0.00    -0.203 F 
ATOM     88  C   UNL A   1      44.243  23.886  35.092  1.00  0.00     0.198 A 
ATOM     89  C   UNL A   1      46.423  24.144  34.172  1.00  0.00     0.198 A 
ATOM     90  F   UNL A   1      46.927  25.896  32.744  1.00  0.00    -0.203 F 
ATOM     91  F   UNL A   1      43.381  23.224  35.877  1.00  0.00    -0.200 F 
ATOM     92  C   UNL A   1      45.553  23.460  34.991  1.00  0.00     0.200 A 
ATOM     93  F   UNL A   1      47.676  23.700  34.001  1.00  0.00    -0.200 F 
ATOM     94  F   UNL A   1      45.964  22.377  35.662  1.00  0.00    -0.200 F 
ENDBRANCH  61  84
ENDBRANCH  35  36
ENDBRANCH  28  30
ENDBRANCH  27  28
ENDBRANCH  26  27
ENDBRANCH  25  26
ENDBRANCH  24  25
ENDBRANCH   1  24
TORSDOF 19
ENDMDL
MODEL 2
REMARK VINA RESULT:     -11.3      1.476      2.482
REMARK SMILES Cc1ccccc1OCC(=O)N1C[C@@H](O)C[C@H]1C(=O)OCCOCCOC(=O)c1ccc(-c2c3nc(c(-c4c(F)c(F)c(F)c(F)c4F)c4ccc([nH]4)c(-c4c(F)c(F)c(F)c(F)c4F)c4nc(c(-c5c(F)c(F)c(F)c(F)c5F)c5ccc2[nH]5)C=C4)C=C3)cc1
REMARK SMILES IDX 22 1 21 2 20 3 18 4 19 5 17 6 12 7 13 8 14 9 16 10 10 11
REMARK SMILES IDX 11 12 9 13 8 14 7 15 1 16 2 17 3 18 4 19 6 20 5 21 15 22
REMARK SMILES IDX 23 24 24 25 25 26 26 27 27 28 28 29 29 30 30 31 91 32 31 33
REMARK SMILES IDX 90 34 32 35 33 36 34 37 84 38 35 39 89 40 83 41 85 42 36 43
REMARK SMILES IDX 88 44 82 45 81 46 37 48 69 49 49 50 68 51 50 52 53 53 67 54
REMARK SMILES IDX 86 55 51 56 52 57 66 59 87 60 54 61 38 62 39 63 47 64 40 65
REMARK SMILES IDX 41 66 45 67 48 68 42 69 43 70 46 71 44 72 70 73 71 74 79 75
REMARK SMILES IDX 72 76 73 77 77 78 80 79 74 80 75 81 78 82 76 83 55 84 56 85
REMARK SMILES IDX 64 86 57 87 58 88 62 89 65 90 59 91 60 92 63 93 61 94
REMARK H PARENT 15 23 85 47 53 58
REMARK Flexibility Score: inf
ROOT
ATOM      1  C   UNL A   1      32.915  27.888  25.564  1.00  0.00     0.202 C 
ENDROOT
BRANCH   1   2
ATOM      2  C   UNL A   1      33.891  27.621  24.463  1.00  0.00     0.261 C 
BRANCH   2   3
ATOM      3  O   UNL A   1      33.196  27.403  23.232  1.00  0.00    -0.462 OA
BRANCH   3   4
ATOM      4  C   UNL A   1      33.072  26.126  22.751  1.00  0.00     0.329 C 
ATOM      5  O   UNL A   1      33.997  25.367  22.500  1.00  0.00    -0.250 OA
BRANCH   4   6
ATOM      6  C   UNL A   1      31.615  25.872  22.358  1.00  0.00     0.198 C 
ATOM      7  N   UNL A   1      30.897  25.229  23.467  1.00  0.00    -0.323 N 
ATOM      8  C   UNL A   1      30.152  26.204  24.233  1.00  0.00     0.152 C 
ATOM      9  C   UNL A   1      29.861  27.328  23.238  1.00  0.00     0.136 C 
ATOM     10  C   UNL A   1      30.943  27.233  22.159  1.00  0.00     0.070 C 
BRANCH   7  11
ATOM     11  C   UNL A   1      31.122  23.902  23.758  1.00  0.00     0.261 C 
ATOM     12  O   UNL A   1      31.233  23.074  22.848  1.00  0.00    -0.271 OA
BRANCH  11  13
ATOM     13  C   UNL A   1      31.128  23.419  25.223  1.00  0.00     0.329 C 
BRANCH  13  14
ATOM     14  O   UNL A   1      32.313  23.369  25.975  1.00  0.00    -0.484 OA
BRANCH  14  15
ATOM     15  C   UNL A   1      33.560  23.142  25.481  1.00  0.00     0.122 A 
ATOM     16  C   UNL A   1      33.431  20.728  24.573  1.00  0.00     0.048 C 
ATOM     17  C   UNL A   1      34.100  22.054  24.783  1.00  0.00    -0.009 A 
ATOM     18  C   UNL A   1      35.439  22.141  24.326  1.00  0.00     0.007 A 
ATOM     19  C   UNL A   1      36.249  23.236  24.622  1.00  0.00     0.001 A 
ATOM     20  C   UNL A   1      34.407  24.219  25.800  1.00  0.00     0.047 A 
ATOM     21  C   UNL A   1      35.738  24.266  25.392  1.00  0.00     0.004 A 
ENDBRANCH  14  15
ENDBRANCH  13  14
ENDBRANCH  11  13
ENDBRANCH   7  11
BRANCH   9  22
ATOM     22  O   UNL A   1      29.863  28.611  23.846  1.00  0.00    -0.391 OA
ATOM     23  H   UNL A   1      29.510  29.264  23.222  1.00  0.00     0.211 HD
ENDBRANCH   9  22
ENDBRANCH   4   6
ENDBRANCH   3   4
ENDBRANCH   2   3
ENDBRANCH   1   2
BRANCH   1  24
ATOM     24  O   UNL A   1      32.340  29.146  25.242  1.00  0.00    -0.374 OA
BRANCH  24  25
ATOM     25  C   UNL A   1      32.205  30.072  26.299  1.00  0.00     0.202 C 
BRANCH  25  26
ATOM     26  C   UNL A   1      33.360  30.015  27.306  1.00  0.00     0.261 C 
BRANCH  26  27
ATOM     27  O   UNL A   1      34.268  31.122  27.118  1.00  0.00    -0.460 OA
BRANCH  27  28
ATOM     28  C   UNL A   1      35.103  31.378  28.164  1.00  0.00     0.338 C 
ATOM     29  O   UNL A   1      35.241  32.471  28.702  1.00  0.00    -0.246 OA
BRANCH  28  30
ATOM     30  C   UNL A   1      36.044  30.236  28.351  1.00  0.00     0.060 A 
ATOM     31  C   UNL A   1      36.205  29.648  29.621  1.00  0.00     0.016 A 
ATOM     32  C   UNL A   1      37.017  30.053  27.378  1.00  0.00     0.016 A 
ATOM     33  C   UNL A   1      37.425  29.044  29.965  1.00  0.00     0.010 A 
ATOM     34  C   UNL A   1      38.265  29.643  27.789  1.00  0.00     0.010 A 
ATOM     35  C   UNL A   1      38.492  29.138  29.080  1.00  0.00    -0.014 A 
BRANCH  35  36
ATOM     36  C   UNL A   1      39.891  28.761  29.319  1.00  0.00     0.031 A 
ATOM     37  C   UNL A   1      40.243  27.342  29.026  1.00  0.00     0.074 A 
ATOM     38  C   UNL A   1      40.882  29.676  29.507  1.00  0.00     0.049 A 
ATOM     39  N   UNL A   1      41.415  26.847  29.201  1.00  0.00    -0.248 NA
ATOM     40  C   UNL A   1      39.300  26.334  28.527  1.00  0.00     0.031 C 
ATOM     41  C   UNL A   1      42.315  29.511  29.227  1.00  0.00     0.029 A 
ATOM     42  N   UNL A   1      40.840  30.992  30.010  1.00  0.00    -0.354 N 
ATOM     43  C   UNL A   1      41.478  25.644  28.543  1.00  0.00     0.074 A 
ATOM     44  C   UNL A   1      40.116  25.315  28.236  1.00  0.00     0.031 C 
ATOM     45  C   UNL A   1      43.015  30.471  29.855  1.00  0.00     0.029 A 
ATOM     46  C   UNL A   1      42.068  31.217  30.661  1.00  0.00     0.049 A 
ATOM     47  H   UNL A   1      40.095  31.632  29.922  1.00  0.00     0.167 HD
ATOM     48  C   UNL A   1      42.716  25.155  28.257  1.00  0.00     0.037 A 
ATOM     49  C   UNL A   1      42.125  31.458  31.997  1.00  0.00     0.037 A 
ATOM     50  C   UNL A   1      43.728  25.901  29.020  1.00  0.00     0.049 A 
ATOM     51  C   UNL A   1      42.906  30.360  32.654  1.00  0.00     0.074 A 
ATOM     52  C   UNL A   1      44.701  26.827  28.688  1.00  0.00     0.029 A 
ATOM     53  N   UNL A   1      43.584  25.970  30.409  1.00  0.00    -0.354 N 
ATOM     54  N   UNL A   1      43.046  29.184  32.105  1.00  0.00    -0.248 NA
ATOM     55  C   UNL A   1      43.675  30.503  33.883  1.00  0.00     0.031 C 
ATOM     56  C   UNL A   1      45.068  27.516  29.884  1.00  0.00     0.029 A 
ATOM     57  C   UNL A   1      44.353  26.982  30.949  1.00  0.00     0.049 A 
ATOM     58  H   UNL A   1      43.008  25.371  30.937  1.00  0.00     0.167 HD
ATOM     59  C   UNL A   1      43.956  28.459  32.805  1.00  0.00     0.074 A 
ATOM     60  C   UNL A   1      44.294  29.308  33.935  1.00  0.00     0.031 C 
ATOM     61  C   UNL A   1      44.368  27.227  32.391  1.00  0.00     0.037 A 
BRANCH  48  62
ATOM     62  C   UNL A   1      43.044  24.111  27.207  1.00  0.00     0.064 A 
ATOM     63  C   UNL A   1      42.705  22.757  27.432  1.00  0.00     0.173 A 
ATOM     64  C   UNL A   1      43.768  24.335  26.014  1.00  0.00     0.173 A 
ATOM     65  F   UNL A   1      42.042  22.382  28.534  1.00  0.00    -0.203 F 
ATOM     66  C   UNL A   1      43.054  21.731  26.544  1.00  0.00     0.198 A 
ATOM     67  C   UNL A   1      44.074  23.316  25.105  1.00  0.00     0.198 A 
ATOM     68  F   UNL A   1      44.262  25.533  25.690  1.00  0.00    -0.203 F 
ATOM     69  F   UNL A   1      42.742  20.461  26.839  1.00  0.00    -0.200 F 
ATOM     70  C   UNL A   1      43.726  22.012  25.373  1.00  0.00     0.200 A 
ATOM     71  F   UNL A   1      44.736  23.613  23.975  1.00  0.00    -0.200 F 
ATOM     72  F   UNL A   1      44.050  21.034  24.518  1.00  0.00    -0.200 F 
ENDBRANCH  48  62
BRANCH  49  73
ATOM     73  C   UNL A   1      40.918  32.201  32.466  1.00  0.00     0.064 A 
ATOM     74  C   UNL A   1      39.948  31.429  33.150  1.00  0.00     0.173 A 
ATOM     75  C   UNL A   1      40.967  33.570  32.764  1.00  0.00     0.173 A 
ATOM     76  F   UNL A   1      39.862  30.108  32.916  1.00  0.00    -0.203 F 
ATOM     77  C   UNL A   1      39.203  31.959  34.202  1.00  0.00     0.198 A 
ATOM     78  C   UNL A   1      40.200  34.100  33.810  1.00  0.00     0.198 A 
ATOM     79  F   UNL A   1      41.864  34.361  32.160  1.00  0.00    -0.203 F 
ATOM     80  F   UNL A   1      38.432  31.153  34.948  1.00  0.00    -0.200 F 
ATOM     81  C   UNL A   1      39.366  33.284  34.562  1.00  0.00     0.200 A 
ATOM     82  F   UNL A   1      40.354  35.383  34.170  1.00  0.00    -0.200 F 
ATOM     83  F   UNL A   1      38.774  33.756  35.670  1.00  0.00    -0.200 F 
ENDBRANCH  49  73
BRANCH  61  84
ATOM     84  C   UNL A   1      44.897  26.170  33.325  1.00  0.00     0.064 A 
ATOM     85  C   UNL A   1      44.082  25.456  34.223  1.00  0.00     0.173 A 
ATOM     86  C   UNL A   1      46.227  25.705  33.213  1.00  0.00     0.173 A 
ATOM     87  F   UNL A   1      42.766  25.685  34.319  1.00  0.00    -0.203 F 
ATOM     88  C   UNL A   1      44.582  24.423  35.014  1.00  0.00     0.198 A 
ATOM     89  C   UNL A   1      46.700  24.619  33.945  1.00  0.00     0.198 A 
ATOM     90  F   UNL A   1      47.101  26.258  32.360  1.00  0.00    -0.203 F 
ATOM     91  F   UNL A   1      43.775  23.821  35.899  1.00  0.00    -0.200 F 
ATOM     92  C   UNL A   1      45.886  23.996  34.866  1.00  0.00     0.200 A 
ATOM     93  F   UNL A   1      47.944  24.167  33.732  1.00  0.00    -0.200 F 
ATOM     94  F   UNL A   1      46.347  22.969  35.591  1.00  0.00    -0.200 F 
ENDBRANCH  61  84
ENDBRANCH  35  36
ENDBRANCH  28  30
ENDBRANCH  27  28
ENDBRANCH  26  27
ENDBRANCH  25  26
ENDBRANCH  24  25
ENDBRANCH   1  24
TORSDOF 19
ENDMDL
MODEL 3
REMARK VINA RESULT:     -11.2      1.788      3.100
REMARK SMILES Cc1ccccc1OCC(=O)N1C[C@@H](O)C[C@H]1C(=O)OCCOCCOC(=O)c1ccc(-c2c3nc(c(-c4c(F)c(F)c(F)c(F)c4F)c4ccc([nH]4)c(-c4c(F)c(F)c(F)c(F)c4F)c4nc(c(-c5c(F)c(F)c(F)c(F)c5F)c5ccc2[nH]5)C=C4)C=C3)cc1
REMARK SMILES IDX 22 1 21 2 20 3 18 4 19 5 17 6 12 7 13 8 14 9 16 10 10 11
REMARK SMILES IDX 11 12 9 13 8 14 7 15 1 16 2 17 3 18 4 19 6 20 5 21 15 22
REMARK SMILES IDX 23 24 24 25 25 26 26 27 27 28 28 29 29 30 30 31 91 32 31 33
REMARK SMILES IDX 90 34 32 35 33 36 34 37 84 38 35 39 89 40 83 41 85 42 36 43
REMARK SMILES IDX 88 44 82 45 81 46 37 48 69 49 49 50 68 51 50 52 53 53 67 54
REMARK SMILES IDX 86 55 51 56 52 57 66 59 87 60 54 61 38 62 39 63 47 64 40 65
REMARK SMILES IDX 41 66 45 67 48 68 42 69 43 70 46 71 44 72 70 73 71 74 79 75
REMARK SMILES IDX 72 76 73 77 77 78 80 79 74 80 75 81 78 82 76 83 55 84 56 85
REMARK SMILES IDX 64 86 57 87 58 88 62 89 65 90 59 91 60 92 63 93 61 94
REMARK H PARENT 15 23 85 47 53 58
REMARK Flexibility Score: inf
ROOT
ATOM      1  C   UNL A   1      32.113  26.926  26.003  1.00  0.00     0.202 C 
ENDROOT
BRANCH   1   2
ATOM      2  C   UNL A   1      32.974  26.567  24.834  1.00  0.00     0.261 C 
BRANCH   2   3
ATOM      3  O   UNL A   1      34.182  25.947  25.284  1.00  0.00    -0.462 OA
BRANCH   3   4
ATOM      4  C   UNL A   1      34.579  24.764  24.718  1.00  0.00     0.329 C 
ATOM      5  O   UNL A   1      34.507  24.484  23.531  1.00  0.00    -0.250 OA
BRANCH   4   6
ATOM      6  C   UNL A   1      34.912  23.760  25.825  1.00  0.00     0.198 C 
ATOM      7  N   UNL A   1      34.425  22.424  25.457  1.00  0.00    -0.323 N 
ATOM      8  C   UNL A   1      35.491  21.623  24.895  1.00  0.00     0.152 C 
ATOM      9  C   UNL A   1      36.765  22.199  25.513  1.00  0.00     0.136 C 
ATOM     10  C   UNL A   1      36.436  23.643  25.903  1.00  0.00     0.070 C 
BRANCH   7  11
ATOM     11  C   UNL A   1      33.078  22.141  25.509  1.00  0.00     0.261 C 
ATOM     12  O   UNL A   1      32.246  23.048  25.402  1.00  0.00    -0.271 OA
BRANCH  11  13
ATOM     13  C   UNL A   1      32.598  20.707  25.811  1.00  0.00     0.329 C 
BRANCH  13  14
ATOM     14  O   UNL A   1      32.143  19.855  24.790  1.00  0.00    -0.484 OA
BRANCH  14  15
ATOM     15  C   UNL A   1      32.620  18.609  24.524  1.00  0.00     0.122 A 
ATOM     16  C   UNL A   1      32.527  18.453  21.948  1.00  0.00     0.048 C 
ATOM     17  C   UNL A   1      32.896  17.957  23.315  1.00  0.00    -0.009 A 
ATOM     18  C   UNL A   1      33.466  16.660  23.361  1.00  0.00     0.007 A 
ATOM     19  C   UNL A   1      33.681  15.991  24.565  1.00  0.00     0.001 A 
ATOM     20  C   UNL A   1      32.810  17.900  25.724  1.00  0.00     0.047 A 
ATOM     21  C   UNL A   1      33.319  16.604  25.752  1.00  0.00     0.004 A 
ENDBRANCH  14  15
ENDBRANCH  13  14
ENDBRANCH  11  13
ENDBRANCH   7  11
BRANCH   9  22
ATOM     22  O   UNL A   1      37.873  22.154  24.626  1.00  0.00    -0.391 OA
ATOM     23  H   UNL A   1      38.268  21.269  24.647  1.00  0.00     0.211 HD
ENDBRANCH   9  22
ENDBRANCH   4   6
ENDBRANCH   3   4
ENDBRANCH   2   3
ENDBRANCH   1   2
BRANCH   1  24
ATOM     24  O   UNL A   1      32.883  27.859  26.746  1.00  0.00    -0.374 OA
BRANCH  24  25
ATOM     25  C   UNL A   1      32.386  29.180  26.815  1.00  0.00     0.202 C 
BRANCH  25  26
ATOM     26  C   UNL A   1      33.471  30.245  26.620  1.00  0.00     0.261 C 
BRANCH  26  27
ATOM     27  O   UNL A   1      33.845  30.843  27.880  1.00  0.00    -0.460 OA
BRANCH  27  28
ATOM     28  C   UNL A   1      35.132  31.283  27.961  1.00  0.00     0.338 C 
ATOM     29  O   UNL A   1      35.515  32.398  27.626  1.00  0.00    -0.246 OA
BRANCH  28  30
ATOM     30  C   UNL A   1      36.046  30.131  28.210  1.00  0.00     0.060 A 
ATOM     31  C   UNL A   1      36.185  29.602  29.508  1.00  0.00     0.016 A 
ATOM     32  C   UNL A   1      37.022  29.880  27.254  1.00  0.00     0.016 A 
ATOM     33  C   UNL A   1      37.388  28.988  29.890  1.00  0.00     0.010 A 
ATOM     34  C   UNL A   1      38.257  29.463  27.696  1.00  0.00     0.010 A 
ATOM     35  C   UNL A   1      38.464  29.016  29.011  1.00  0.00    -0.014 A 
BRANCH  35  36
ATOM     36  C   UNL A   1      39.852  28.621  29.280  1.00  0.00     0.031 A 
ATOM     37  C   UNL A   1      40.208  27.214  28.934  1.00  0.00     0.074 A 
ATOM     38  C   UNL A   1      40.840  29.520  29.541  1.00  0.00     0.049 A 
ATOM     39  N   UNL A   1      41.372  26.706  29.124  1.00  0.00    -0.248 NA
ATOM     40  C   UNL A   1      39.279  26.235  28.358  1.00  0.00     0.031 C 
ATOM     41  C   UNL A   1      42.281  29.360  29.303  1.00  0.00     0.029 A 
ATOM     42  N   UNL A   1      40.786  30.813  30.103  1.00  0.00    -0.354 N 
ATOM     43  C   UNL A   1      41.451  25.533  28.415  1.00  0.00     0.074 A 
ATOM     44  C   UNL A   1      40.099  25.227  28.048  1.00  0.00     0.031 C 
ATOM     45  C   UNL A   1      42.963  30.287  29.997  1.00  0.00     0.029 A 
ATOM     46  C   UNL A   1      41.993  31.001  30.804  1.00  0.00     0.049 A 
ATOM     47  H   UNL A   1      40.048  31.460  30.019  1.00  0.00     0.167 HD
ATOM     48  C   UNL A   1      42.696  25.051  28.149  1.00  0.00     0.037 A 
ATOM     49  C   UNL A   1      42.006  31.181  32.151  1.00  0.00     0.037 A 
ATOM     50  C   UNL A   1      43.685  25.755  28.978  1.00  0.00     0.049 A 
ATOM     51  C   UNL A   1      42.760  30.050  32.782  1.00  0.00     0.074 A 
ATOM     52  C   UNL A   1      44.672  26.690  28.722  1.00  0.00     0.029 A 
ATOM     53  N   UNL A   1      43.495  25.762  30.364  1.00  0.00    -0.354 N 
ATOM     54  N   UNL A   1      42.913  28.899  32.185  1.00  0.00    -0.248 NA
ATOM     55  C   UNL A   1      43.488  30.132  34.042  1.00  0.00     0.031 C 
ATOM     56  C   UNL A   1      45.002  27.322  29.960  1.00  0.00     0.029 A 
ATOM     57  C   UNL A   1      44.249  26.745  30.974  1.00  0.00     0.049 A 
ATOM     58  H   UNL A   1      42.899  25.143  30.844  1.00  0.00     0.167 HD
ATOM     59  C   UNL A   1      43.796  28.137  32.882  1.00  0.00     0.074 A 
ATOM     60  C   UNL A   1      44.099  28.932  34.060  1.00  0.00     0.031 C 
ATOM     61  C   UNL A   1      44.217  26.923  32.426  1.00  0.00     0.037 A 
BRANCH  48  62
ATOM     62  C   UNL A   1      43.055  24.053  27.064  1.00  0.00     0.064 A 
ATOM     63  C   UNL A   1      42.698  22.694  27.213  1.00  0.00     0.173 A 
ATOM     64  C   UNL A   1      43.825  24.326  25.910  1.00  0.00     0.173 A 
ATOM     65  F   UNL A   1      41.991  22.274  28.271  1.00  0.00    -0.203 F 
ATOM     66  C   UNL A   1      43.072  21.707  26.291  1.00  0.00     0.198 A 
ATOM     67  C   UNL A   1      44.157  23.348  24.966  1.00  0.00     0.198 A 
ATOM     68  F   UNL A   1      44.339  25.533  25.661  1.00  0.00    -0.203 F 
ATOM     69  F   UNL A   1      42.739  20.428  26.515  1.00  0.00    -0.200 F 
ATOM     70  C   UNL A   1      43.789  22.036  25.159  1.00  0.00     0.200 A 
ATOM     71  F   UNL A   1      44.862  23.690  23.876  1.00  0.00    -0.200 F 
ATOM     72  F   UNL A   1      44.137  21.096  24.272  1.00  0.00    -0.200 F 
ENDBRANCH  48  62
BRANCH  49  73
ATOM     73  C   UNL A   1      40.787  31.908  32.613  1.00  0.00     0.064 A 
ATOM     74  C   UNL A   1      39.811  31.118  33.266  1.00  0.00     0.173 A 
ATOM     75  C   UNL A   1      40.822  33.272  32.935  1.00  0.00     0.173 A 
ATOM     76  F   UNL A   1      39.736  29.802  33.008  1.00  0.00    -0.203 F 
ATOM     77  C   UNL A   1      39.045  31.626  34.315  1.00  0.00     0.198 A 
ATOM     78  C   UNL A   1      40.035  33.779  33.977  1.00  0.00     0.198 A 
ATOM     79  F   UNL A   1      41.725  34.079  32.360  1.00  0.00    -0.203 F 
ATOM     80  F   UNL A   1      38.266  30.803  35.033  1.00  0.00    -0.200 F 
ATOM     81  C   UNL A   1      39.194  32.946  34.700  1.00  0.00     0.200 A 
ATOM     82  F   UNL A   1      40.176  35.057  34.362  1.00  0.00    -0.200 F 
ATOM     83  F   UNL A   1      38.580  33.394  35.806  1.00  0.00    -0.200 F 
ENDBRANCH  49  73
BRANCH  61  84
ATOM     84  C   UNL A   1      44.709  25.822  33.328  1.00  0.00     0.064 A 
ATOM     85  C   UNL A   1      46.050  25.397  33.366  1.00  0.00     0.173 A 
ATOM     86  C   UNL A   1      43.872  25.278  34.329  1.00  0.00     0.173 A 
ATOM     87  F   UNL A   1      46.987  25.940  32.579  1.00  0.00    -0.203 F 
ATOM     88  C   UNL A   1      46.495  24.435  34.271  1.00  0.00     0.198 A 
ATOM     89  C   UNL A   1      44.342  24.380  35.284  1.00  0.00     0.198 A 
ATOM     90  F   UNL A   1      42.584  25.631  34.444  1.00  0.00    -0.203 F 
ATOM     91  F   UNL A   1      47.769  24.021  34.220  1.00  0.00    -0.200 F 
ATOM     92  C   UNL A   1      45.645  23.937  35.238  1.00  0.00     0.200 A 
ATOM     93  F   UNL A   1      43.524  23.967  36.263  1.00  0.00    -0.200 F 
ATOM     94  F   UNL A   1      46.091  23.052  36.139  1.00  0.00    -0.200 F 
ENDBRANCH  61  84
ENDBRANCH  35  36
ENDBRANCH  28  30
ENDBRANCH  27  28
ENDBRANCH  26  27
ENDBRANCH  25  26
ENDBRANCH  24  25
ENDBRANCH   1  24
TORSDOF 19
ENDMDL
