MODEL 1
REMARK VINA RESULT:     -12.3      0.000      0.000
REMARK SMILES C[C@@H](NC(=O)[C@H]1CC=CC[C@@H]1C(=O)OCCOCCOC(=O)c1ccc(-c2c3nc(c(-c4c(F)c(F)c(F)c(F)c4F)c4ccc([nH]4)c(-c4c(F)c(F)c(F)c(F)c4F)c4nc(c(-c5c(F)c(F)c(F)c(F)c5F)c5ccc2[nH]5)C=C4)C=C3)cc1)c1ccc(-n2ccnc2)cc1
REMARK SMILES IDX 16 1 15 2 14 3 12 4 13 5 11 6 6 7 7 8 8 9 10 10 9 11 4 12
REMARK SMILES IDX 3 13 5 15 2 16 1 17 86 18 87 19 96 20 88 21 95 22 89 23
REMARK SMILES IDX 90 24 91 25 94 26 92 27 93 28 17 29 18 30 19 31 20 32 21 33
REMARK SMILES IDX 22 34 23 35 24 36 85 37 25 38 84 39 26 40 27 41 28 42 78 43
REMARK SMILES IDX 29 44 83 45 77 46 79 47 30 48 82 49 76 50 75 51 31 53 63 54
REMARK SMILES IDX 43 55 62 56 44 57 47 58 61 59 80 60 45 61 46 62 60 64 81 65
REMARK SMILES IDX 48 66 32 67 33 68 41 69 34 70 35 71 39 72 42 73 36 74 37 75
REMARK SMILES IDX 40 76 38 77 64 78 65 79 73 80 66 81 67 82 71 83 74 84 68 85
REMARK SMILES IDX 69 86 72 87 70 88 49 89 50 90 58 91 51 92 52 93 56 94 59 95
REMARK SMILES IDX 53 96 54 97 57 98 55 99
REMARK H PARENT 3 14 79 52 47 63
REMARK Flexibility Score: inf
ROOT
ATOM      1  C   UNL A   1      34.344  21.009  26.234  1.00  0.00     0.202 C 
ENDROOT
BRANCH   1   2
ATOM      2  C   UNL A   1      33.823  21.836  27.413  1.00  0.00     0.261 C 
BRANCH   2   3
ATOM      3  O   UNL A   1      33.781  23.249  27.127  1.00  0.00    -0.463 OA
BRANCH   3   4
ATOM      4  C   UNL A   1      32.598  23.737  26.663  1.00  0.00     0.310 C 
ATOM      5  O   UNL A   1      31.518  23.594  27.227  1.00  0.00    -0.252 OA
BRANCH   4   6
ATOM      6  C   UNL A   1      32.734  24.525  25.367  1.00  0.00     0.115 C 
ATOM      7  C   UNL A   1      32.076  23.816  24.171  1.00  0.00     0.097 C 
ATOM      8  C   UNL A   1      33.001  22.792  23.479  1.00  0.00     0.041 C 
ATOM      9  C   UNL A   1      34.458  23.148  23.471  1.00  0.00    -0.030 C 
ATOM     10  C   UNL A   1      34.181  24.988  25.142  1.00  0.00     0.043 C 
ATOM     11  C   UNL A   1      34.981  24.137  24.203  1.00  0.00    -0.030 C 
BRANCH   7  12
ATOM     12  C   UNL A   1      31.601  24.825  23.128  1.00  0.00     0.224 C 
ATOM     13  N   UNL A   1      30.399  25.459  23.248  1.00  0.00    -0.349 N 
ATOM     14  H   UNL A   1      29.848  25.418  22.433  1.00  0.00     0.164 HD
ATOM     15  O   UNL A   1      32.209  24.991  22.068  1.00  0.00    -0.275 OA
BRANCH  13  16
ATOM     16  C   UNL A   1      29.760  26.192  24.355  1.00  0.00     0.109 C 
ATOM     17  C   UNL A   1      28.395  26.705  23.875  1.00  0.00     0.036 C 
BRANCH  16  18
ATOM     18  C   UNL A   1      30.617  27.229  25.054  1.00  0.00    -0.026 A 
ATOM     19  C   UNL A   1      30.840  27.135  26.437  1.00  0.00     0.008 A 
ATOM     20  C   UNL A   1      31.239  28.279  24.355  1.00  0.00     0.008 A 
ATOM     21  C   UNL A   1      31.754  27.981  27.075  1.00  0.00     0.027 A 
ATOM     22  C   UNL A   1      32.154  29.124  24.983  1.00  0.00     0.027 A 
ATOM     23  C   UNL A   1      32.447  28.946  26.334  1.00  0.00     0.046 A 
BRANCH  23  24
ATOM     24  N   UNL A   1      33.489  29.697  26.928  1.00  0.00    -0.306 N 
ATOM     25  C   UNL A   1      34.779  29.283  27.151  1.00  0.00     0.113 A 
ATOM     26  C   UNL A   1      33.446  31.010  27.342  1.00  0.00     0.204 A 
ATOM     27  C   UNL A   1      35.459  30.377  27.625  1.00  0.00     0.131 A 
ATOM     28  N   UNL A   1      34.622  31.450  27.734  1.00  0.00    -0.245 NA
ENDBRANCH  23  24
ENDBRANCH  16  18
ENDBRANCH  13  16
ENDBRANCH   7  12
ENDBRANCH   4   6
ENDBRANCH   3   4
ENDBRANCH   2   3
ENDBRANCH   1   2
BRANCH   1  29
ATOM     29  O   UNL A   1      35.748  21.084  25.993  1.00  0.00    -0.374 OA
BRANCH  29  30
ATOM     30  C   UNL A   1      36.276  20.204  25.001  1.00  0.00     0.202 C 
BRANCH  30  31
ATOM     31  C   UNL A   1      37.800  20.044  25.001  1.00  0.00     0.261 C 
BRANCH  31  32
ATOM     32  O   UNL A   1      38.477  21.264  25.359  1.00  0.00    -0.460 OA
BRANCH  32  33
ATOM     33  C   UNL A   1      39.556  21.091  26.158  1.00  0.00     0.338 C 
ATOM     34  O   UNL A   1      40.255  20.098  26.257  1.00  0.00    -0.246 OA
BRANCH  33  35
ATOM     35  C   UNL A   1      39.893  22.339  26.869  1.00  0.00     0.060 A 
ATOM     36  C   UNL A   1      39.232  23.505  26.462  1.00  0.00     0.016 A 
ATOM     37  C   UNL A   1      40.944  22.404  27.786  1.00  0.00     0.016 A 
ATOM     38  C   UNL A   1      39.674  24.749  26.906  1.00  0.00     0.010 A 
ATOM     39  C   UNL A   1      41.389  23.657  28.230  1.00  0.00     0.010 A 
ATOM     40  C   UNL A   1      40.790  24.836  27.750  1.00  0.00    -0.014 A 
BRANCH  40  41
ATOM     41  C   UNL A   1      41.408  26.165  28.000  1.00  0.00     0.031 A 
ATOM     42  C   UNL A   1      42.787  26.444  27.482  1.00  0.00     0.074 A 
ATOM     43  C   UNL A   1      40.729  27.139  28.631  1.00  0.00     0.049 A 
ATOM     44  N   UNL A   1      43.502  27.535  27.583  1.00  0.00    -0.248 NA
ATOM     45  C   UNL A   1      43.446  25.353  26.749  1.00  0.00     0.031 C 
ATOM     46  C   UNL A   1      39.372  26.995  29.131  1.00  0.00     0.029 A 
ATOM     47  N   UNL A   1      41.071  28.426  28.956  1.00  0.00    -0.354 N 
ATOM     48  C   UNL A   1      44.693  27.264  26.927  1.00  0.00     0.074 A 
ATOM     49  C   UNL A   1      44.620  25.895  26.460  1.00  0.00     0.031 C 
ATOM     50  C   UNL A   1      38.984  28.144  29.708  1.00  0.00     0.029 A 
ATOM     51  C   UNL A   1      40.086  29.101  29.636  1.00  0.00     0.049 A 
ATOM     52  H   UNL A   1      41.938  28.830  28.723  1.00  0.00     0.167 HD
ATOM     53  C   UNL A   1      45.747  28.089  26.723  1.00  0.00     0.037 A 
ATOM     54  C   UNL A   1      40.079  30.344  30.155  1.00  0.00     0.037 A 
ATOM     55  C   UNL A   1      45.817  29.450  27.184  1.00  0.00     0.049 A 
ATOM     56  C   UNL A   1      41.292  31.216  29.973  1.00  0.00     0.074 A 
ATOM     57  C   UNL A   1      46.840  30.366  27.016  1.00  0.00     0.029 A 
ATOM     58  N   UNL A   1      44.822  30.090  27.909  1.00  0.00    -0.354 N 
ATOM     59  N   UNL A   1      42.408  30.954  29.339  1.00  0.00    -0.248 NA
ATOM     60  C   UNL A   1      41.244  32.557  30.575  1.00  0.00     0.031 C 
ATOM     61  C   UNL A   1      46.482  31.548  27.674  1.00  0.00     0.029 A 
ATOM     62  C   UNL A   1      45.218  31.382  28.215  1.00  0.00     0.049 A 
ATOM     63  H   UNL A   1      43.962  29.686  28.167  1.00  0.00     0.167 HD
ATOM     64  C   UNL A   1      43.185  32.100  29.444  1.00  0.00     0.074 A 
ATOM     65  C   UNL A   1      42.407  33.065  30.194  1.00  0.00     0.031 C 
ATOM     66  C   UNL A   1      44.429  32.330  28.961  1.00  0.00     0.037 A 
BRANCH  53  67
ATOM     67  C   UNL A   1      46.923  27.525  25.985  1.00  0.00     0.064 A 
ATOM     68  C   UNL A   1      47.030  27.625  24.589  1.00  0.00     0.173 A 
ATOM     69  C   UNL A   1      47.963  26.897  26.683  1.00  0.00     0.173 A 
ATOM     70  F   UNL A   1      46.051  28.202  23.877  1.00  0.00    -0.203 F 
ATOM     71  C   UNL A   1      48.129  27.096  23.919  1.00  0.00     0.198 A 
ATOM     72  C   UNL A   1      49.072  26.390  26.012  1.00  0.00     0.198 A 
ATOM     73  F   UNL A   1      47.905  26.776  28.018  1.00  0.00    -0.203 F 
ATOM     74  F   UNL A   1      48.194  27.165  22.582  1.00  0.00    -0.200 F 
ATOM     75  C   UNL A   1      49.151  26.485  24.630  1.00  0.00     0.200 A 
ATOM     76  F   UNL A   1      50.062  25.807  26.702  1.00  0.00    -0.200 F 
ATOM     77  F   UNL A   1      50.211  25.980  23.984  1.00  0.00    -0.200 F 
ENDBRANCH  53  67
BRANCH  54  78
ATOM     78  C   UNL A   1      38.892  30.835  30.901  1.00  0.00     0.064 A 
ATOM     79  C   UNL A   1      38.737  30.579  32.270  1.00  0.00     0.173 A 
ATOM     80  C   UNL A   1      37.880  31.560  30.254  1.00  0.00     0.173 A 
ATOM     81  F   UNL A   1      39.664  29.869  32.927  1.00  0.00    -0.203 F 
ATOM     82  C   UNL A   1      37.607  31.016  32.960  1.00  0.00     0.198 A 
ATOM     83  C   UNL A   1      36.763  32.017  30.949  1.00  0.00     0.198 A 
ATOM     84  F   UNL A   1      37.981  31.831  28.944  1.00  0.00    -0.203 F 
ATOM     85  F   UNL A   1      37.463  30.722  34.259  1.00  0.00    -0.200 F 
ATOM     86  C   UNL A   1      36.624  31.739  32.301  1.00  0.00     0.200 A 
ATOM     87  F   UNL A   1      35.821  32.724  30.310  1.00  0.00    -0.200 F 
ATOM     88  F   UNL A   1      35.539  32.160  32.965  1.00  0.00    -0.200 F 
ENDBRANCH  54  78
BRANCH  66  89
ATOM     89  C   UNL A   1      45.019  33.687  29.207  1.00  0.00     0.064 A 
ATOM     90  C   UNL A   1      44.797  34.753  28.325  1.00  0.00     0.173 A 
ATOM     91  C   UNL A   1      45.785  33.930  30.357  1.00  0.00     0.173 A 
ATOM     92  F   UNL A   1      44.086  34.565  27.203  1.00  0.00    -0.203 F 
ATOM     93  C   UNL A   1      45.337  36.013  28.576  1.00  0.00     0.198 A 
ATOM     94  C   UNL A   1      46.301  35.197  30.618  1.00  0.00     0.198 A 
ATOM     95  F   UNL A   1      46.022  32.944  31.234  1.00  0.00    -0.203 F 
ATOM     96  F   UNL A   1      45.146  37.008  27.699  1.00  0.00    -0.200 F 
ATOM     97  C   UNL A   1      46.082  36.234  29.724  1.00  0.00     0.200 A 
ATOM     98  F   UNL A   1      47.013  35.412  31.733  1.00  0.00    -0.200 F 
ATOM     99  F   UNL A   1      46.596  37.448  29.966  1.00  0.00    -0.200 F 
ENDBRANCH  66  89
ENDBRANCH  40  41
ENDBRANCH  33  35
ENDBRANCH  32  33
ENDBRANCH  31  32
ENDBRANCH  30  31
ENDBRANCH  29  30
ENDBRANCH   1  29
TORSDOF 18
ENDMDL
MODEL 2
REMARK VINA RESULT:     -11.7      4.175      9.742
REMARK SMILES C[C@@H](NC(=O)[C@H]1CC=CC[C@@H]1C(=O)OCCOCCOC(=O)c1ccc(-c2c3nc(c(-c4c(F)c(F)c(F)c(F)c4F)c4ccc([nH]4)c(-c4c(F)c(F)c(F)c(F)c4F)c4nc(c(-c5c(F)c(F)c(F)c(F)c5F)c5ccc2[nH]5)C=C4)C=C3)cc1)c1ccc(-n2ccnc2)cc1
REMARK SMILES IDX 16 1 15 2 14 3 12 4 13 5 11 6 6 7 7 8 8 9 10 10 9 11 4 12
REMARK SMILES IDX 3 13 5 15 2 16 1 17 86 18 87 19 96 20 88 21 95 22 89 23
REMARK SMILES IDX 90 24 91 25 94 26 92 27 93 28 17 29 18 30 19 31 20 32 21 33
REMARK SMILES IDX 22 34 23 35 24 36 85 37 25 38 84 39 26 40 27 41 28 42 78 43
REMARK SMILES IDX 29 44 83 45 77 46 79 47 30 48 82 49 76 50 75 51 31 53 63 54
REMARK SMILES IDX 43 55 62 56 44 57 47 58 61 59 80 60 45 61 46 62 60 64 81 65
REMARK SMILES IDX 48 66 32 67 33 68 41 69 34 70 35 71 39 72 42 73 36 74 37 75
REMARK SMILES IDX 40 76 38 77 64 78 65 79 73 80 66 81 67 82 71 83 74 84 68 85
REMARK SMILES IDX 69 86 72 87 70 88 49 89 50 90 58 91 51 92 52 93 56 94 59 95
REMARK SMILES IDX 53 96 54 97 57 98 55 99
REMARK H PARENT 3 14 79 52 47 63
REMARK Flexibility Score: inf
ROOT
ATOM      1  C   UNL A   1      31.739  29.118  23.850  1.00  0.00     0.202 C 
ENDROOT
BRANCH   1   2
ATOM      2  C   UNL A   1      31.045  28.472  22.648  1.00  0.00     0.261 C 
BRANCH   2   3
ATOM      3  O   UNL A   1      31.166  27.034  22.641  1.00  0.00    -0.463 OA
BRANCH   3   4
ATOM      4  C   UNL A   1      32.427  26.533  22.763  1.00  0.00     0.310 C 
ATOM      5  O   UNL A   1      33.382  26.883  22.078  1.00  0.00    -0.252 OA
BRANCH   4   6
ATOM      6  C   UNL A   1      32.564  25.501  23.874  1.00  0.00     0.115 C 
ATOM      7  C   UNL A   1      31.211  25.128  24.503  1.00  0.00     0.097 C 
ATOM      8  C   UNL A   1      30.776  26.081  25.637  1.00  0.00     0.041 C 
ATOM      9  C   UNL A   1      31.894  26.644  26.463  1.00  0.00    -0.030 C 
ATOM     10  C   UNL A   1      33.666  25.890  24.868  1.00  0.00     0.043 C 
ATOM     11  C   UNL A   1      33.184  26.546  26.127  1.00  0.00    -0.030 C 
BRANCH   7  12
ATOM     12  C   UNL A   1      31.234  23.702  25.050  1.00  0.00     0.224 C 
ATOM     13  N   UNL A   1      31.491  22.635  24.240  1.00  0.00    -0.349 N 
ATOM     14  H   UNL A   1      30.835  21.906  24.326  1.00  0.00     0.164 HD
ATOM     15  O   UNL A   1      30.872  23.446  26.201  1.00  0.00    -0.275 OA
BRANCH  13  16
ATOM     16  C   UNL A   1      32.557  22.355  23.261  1.00  0.00     0.109 C 
ATOM     17  C   UNL A   1      32.124  21.161  22.399  1.00  0.00     0.036 C 
BRANCH  16  18
ATOM     18  C   UNL A   1      33.965  22.261  23.814  1.00  0.00    -0.026 A 
ATOM     19  C   UNL A   1      35.028  22.866  23.123  1.00  0.00     0.008 A 
ATOM     20  C   UNL A   1      34.250  21.614  25.028  1.00  0.00     0.008 A 
ATOM     21  C   UNL A   1      36.306  22.933  23.691  1.00  0.00     0.027 A 
ATOM     22  C   UNL A   1      35.520  21.679  25.602  1.00  0.00     0.027 A 
ATOM     23  C   UNL A   1      36.538  22.379  24.956  1.00  0.00     0.046 A 
BRANCH  23  24
ATOM     24  N   UNL A   1      37.775  22.578  25.613  1.00  0.00    -0.306 N 
ATOM     25  C   UNL A   1      38.170  23.699  26.300  1.00  0.00     0.113 A 
ATOM     26  C   UNL A   1      38.804  21.675  25.756  1.00  0.00     0.204 A 
ATOM     27  C   UNL A   1      39.381  23.395  26.871  1.00  0.00     0.131 A 
ATOM     28  N   UNL A   1      39.764  22.129  26.532  1.00  0.00    -0.245 NA
ENDBRANCH  23  24
ENDBRANCH  16  18
ENDBRANCH  13  16
ENDBRANCH   7  12
ENDBRANCH   4   6
ENDBRANCH   3   4
ENDBRANCH   2   3
ENDBRANCH   1   2
BRANCH   1  29
ATOM     29  O   UNL A   1      31.004  30.143  24.517  1.00  0.00    -0.374 OA
BRANCH  29  30
ATOM     30  C   UNL A   1      31.119  30.194  25.938  1.00  0.00     0.202 C 
BRANCH  30  31
ATOM     31  C   UNL A   1      31.810  31.440  26.502  1.00  0.00     0.261 C 
BRANCH  31  32
ATOM     32  O   UNL A   1      32.894  31.107  27.391  1.00  0.00    -0.460 OA
BRANCH  32  33
ATOM     33  C   UNL A   1      33.723  32.139  27.672  1.00  0.00     0.338 C 
ATOM     34  O   UNL A   1      33.432  33.319  27.774  1.00  0.00    -0.246 OA
BRANCH  33  35
ATOM     35  C   UNL A   1      35.087  31.658  27.968  1.00  0.00     0.060 A 
ATOM     36  C   UNL A   1      35.249  30.281  28.164  1.00  0.00     0.016 A 
ATOM     37  C   UNL A   1      36.141  32.539  28.216  1.00  0.00     0.016 A 
ATOM     38  C   UNL A   1      36.441  29.788  28.690  1.00  0.00     0.010 A 
ATOM     39  C   UNL A   1      37.339  32.040  28.747  1.00  0.00     0.010 A 
ATOM     40  C   UNL A   1      37.474  30.670  29.035  1.00  0.00    -0.014 A 
BRANCH  40  41
ATOM     41  C   UNL A   1      38.622  30.165  29.833  1.00  0.00     0.031 A 
ATOM     42  C   UNL A   1      38.787  30.616  31.254  1.00  0.00     0.074 A 
ATOM     43  C   UNL A   1      39.481  29.267  29.321  1.00  0.00     0.049 A 
ATOM     44  N   UNL A   1      39.710  30.291  32.122  1.00  0.00    -0.248 NA
ATOM     45  C   UNL A   1      37.776  31.553  31.766  1.00  0.00     0.031 C 
ATOM     46  C   UNL A   1      39.389  28.725  27.976  1.00  0.00     0.029 A 
ATOM     47  N   UNL A   1      40.584  28.652  29.855  1.00  0.00    -0.354 N 
ATOM     48  C   UNL A   1      39.392  30.981  33.281  1.00  0.00     0.074 A 
ATOM     49  C   UNL A   1      38.210  31.768  32.999  1.00  0.00     0.031 C 
ATOM     50  C   UNL A   1      40.394  27.856  27.775  1.00  0.00     0.029 A 
ATOM     51  C   UNL A   1      41.217  27.803  28.980  1.00  0.00     0.049 A 
ATOM     52  H   UNL A   1      40.892  28.802  30.778  1.00  0.00     0.167 HD
ATOM     53  C   UNL A   1      40.024  30.949  34.478  1.00  0.00     0.037 A 
ATOM     54  C   UNL A   1      42.341  27.075  29.129  1.00  0.00     0.037 A 
ATOM     55  C   UNL A   1      41.195  30.163  34.760  1.00  0.00     0.049 A 
ATOM     56  C   UNL A   1      43.062  27.111  30.450  1.00  0.00     0.074 A 
ATOM     57  C   UNL A   1      41.899  30.059  35.946  1.00  0.00     0.029 A 
ATOM     58  N   UNL A   1      41.839  29.348  33.840  1.00  0.00    -0.354 N 
ATOM     59  N   UNL A   1      42.745  27.757  31.545  1.00  0.00    -0.248 NA
ATOM     60  C   UNL A   1      44.295  26.318  30.556  1.00  0.00     0.031 C 
ATOM     61  C   UNL A   1      42.993  29.212  35.733  1.00  0.00     0.029 A 
ATOM     62  C   UNL A   1      42.945  28.756  34.426  1.00  0.00     0.049 A 
ATOM     63  H   UNL A   1      41.552  29.211  32.908  1.00  0.00     0.167 HD
ATOM     64  C   UNL A   1      43.721  27.431  32.477  1.00  0.00     0.074 A 
ATOM     65  C   UNL A   1      44.636  26.520  31.821  1.00  0.00     0.031 C 
ATOM     66  C   UNL A   1      43.845  27.849  33.759  1.00  0.00     0.037 A 
BRANCH  53  67
ATOM     67  C   UNL A   1      39.467  31.813  35.568  1.00  0.00     0.064 A 
ATOM     68  C   UNL A   1      38.507  31.329  36.471  1.00  0.00     0.173 A 
ATOM     69  C   UNL A   1      39.913  33.132  35.725  1.00  0.00     0.173 A 
ATOM     70  F   UNL A   1      38.035  30.079  36.349  1.00  0.00    -0.203 F 
ATOM     71  C   UNL A   1      38.000  32.146  37.477  1.00  0.00     0.198 A 
ATOM     72  C   UNL A   1      39.422  33.938  36.748  1.00  0.00     0.198 A 
ATOM     73  F   UNL A   1      40.829  33.640  34.886  1.00  0.00    -0.203 F 
ATOM     74  F   UNL A   1      37.052  31.678  38.304  1.00  0.00    -0.200 F 
ATOM     75  C   UNL A   1      38.461  33.445  37.620  1.00  0.00     0.200 A 
ATOM     76  F   UNL A   1      39.874  35.191  36.888  1.00  0.00    -0.200 F 
ATOM     77  F   UNL A   1      37.975  34.228  38.592  1.00  0.00    -0.200 F 
ENDBRANCH  53  67
BRANCH  54  78
ATOM     78  C   UNL A   1      42.857  26.259  28.001  1.00  0.00     0.064 A 
ATOM     79  C   UNL A   1      42.572  24.891  27.903  1.00  0.00     0.173 A 
ATOM     80  C   UNL A   1      43.661  26.831  27.003  1.00  0.00     0.173 A 
ATOM     81  F   UNL A   1      41.829  24.294  28.845  1.00  0.00    -0.203 F 
ATOM     82  C   UNL A   1      43.084  24.122  26.858  1.00  0.00     0.198 A 
ATOM     83  C   UNL A   1      44.152  26.067  25.946  1.00  0.00     0.198 A 
ATOM     84  F   UNL A   1      43.964  28.137  27.051  1.00  0.00    -0.203 F 
ATOM     85  F   UNL A   1      42.831  22.807  26.811  1.00  0.00    -0.200 F 
ATOM     86  C   UNL A   1      43.869  24.712  25.878  1.00  0.00     0.200 A 
ATOM     87  F   UNL A   1      44.901  26.644  24.997  1.00  0.00    -0.200 F 
ATOM     88  F   UNL A   1      44.358  23.973  24.874  1.00  0.00    -0.200 F 
ENDBRANCH  54  78
BRANCH  66  89
ATOM     89  C   UNL A   1      44.999  27.305  34.548  1.00  0.00     0.064 A 
ATOM     90  C   UNL A   1      44.875  26.145  35.324  1.00  0.00     0.173 A 
ATOM     91  C   UNL A   1      46.253  27.934  34.496  1.00  0.00     0.173 A 
ATOM     92  F   UNL A   1      43.692  25.519  35.419  1.00  0.00    -0.203 F 
ATOM     93  C   UNL A   1      45.961  25.642  36.037  1.00  0.00     0.198 A 
ATOM     94  C   UNL A   1      47.342  27.414  35.190  1.00  0.00     0.198 A 
ATOM     95  F   UNL A   1      46.424  29.044  33.764  1.00  0.00    -0.203 F 
ATOM     96  F   UNL A   1      45.810  24.555  36.806  1.00  0.00    -0.200 F 
ATOM     97  C   UNL A   1      47.194  26.273  35.964  1.00  0.00     0.200 A 
ATOM     98  F   UNL A   1      48.536  28.019  35.110  1.00  0.00    -0.200 F 
ATOM     99  F   UNL A   1      48.238  25.784  36.646  1.00  0.00    -0.200 F 
ENDBRANCH  66  89
ENDBRANCH  40  41
ENDBRANCH  33  35
ENDBRANCH  32  33
ENDBRANCH  31  32
ENDBRANCH  30  31
ENDBRANCH  29  30
ENDBRANCH   1  29
TORSDOF 18
ENDMDL
MODEL 3
REMARK VINA RESULT:     -11.6      4.694     10.426
REMARK SMILES C[C@@H](NC(=O)[C@H]1CC=CC[C@@H]1C(=O)OCCOCCOC(=O)c1ccc(-c2c3nc(c(-c4c(F)c(F)c(F)c(F)c4F)c4ccc([nH]4)c(-c4c(F)c(F)c(F)c(F)c4F)c4nc(c(-c5c(F)c(F)c(F)c(F)c5F)c5ccc2[nH]5)C=C4)C=C3)cc1)c1ccc(-n2ccnc2)cc1
REMARK SMILES IDX 16 1 15 2 14 3 12 4 13 5 11 6 6 7 7 8 8 9 10 10 9 11 4 12
REMARK SMILES IDX 3 13 5 15 2 16 1 17 86 18 87 19 96 20 88 21 95 22 89 23
REMARK SMILES IDX 90 24 91 25 94 26 92 27 93 28 17 29 18 30 19 31 20 32 21 33
REMARK SMILES IDX 22 34 23 35 24 36 85 37 25 38 84 39 26 40 27 41 28 42 78 43
REMARK SMILES IDX 29 44 83 45 77 46 79 47 30 48 82 49 76 50 75 51 31 53 63 54
REMARK SMILES IDX 43 55 62 56 44 57 47 58 61 59 80 60 45 61 46 62 60 64 81 65
REMARK SMILES IDX 48 66 32 67 33 68 41 69 34 70 35 71 39 72 42 73 36 74 37 75
REMARK SMILES IDX 40 76 38 77 64 78 65 79 73 80 66 81 67 82 71 83 74 84 68 85
REMARK SMILES IDX 69 86 72 87 70 88 49 89 50 90 58 91 51 92 52 93 56 94 59 95
REMARK SMILES IDX 53 96 54 97 57 98 55 99
REMARK H PARENT 3 14 79 52 47 63
REMARK Flexibility Score: inf
ROOT
ATOM      1  C   UNL A   1      31.907  30.593  26.452  1.00  0.00     0.202 C 
ENDROOT
BRANCH   1   2
ATOM      2  C   UNL A   1      31.732  29.520  25.374  1.00  0.00     0.261 C 
BRANCH   2   3
ATOM      3  O   UNL A   1      31.580  28.195  25.925  1.00  0.00    -0.463 OA
BRANCH   3   4
ATOM      4  C   UNL A   1      32.628  27.344  25.748  1.00  0.00     0.310 C 
ATOM      5  O   UNL A   1      33.660  27.366  26.410  1.00  0.00    -0.252 OA
BRANCH   4   6
ATOM      6  C   UNL A   1      32.392  26.312  24.654  1.00  0.00     0.115 C 
ATOM      7  C   UNL A   1      33.207  26.602  23.382  1.00  0.00     0.097 C 
ATOM      8  C   UNL A   1      32.508  27.580  22.413  1.00  0.00     0.041 C 
ATOM      9  C   UNL A   1      31.012  27.487  22.378  1.00  0.00    -0.030 C 
ATOM     10  C   UNL A   1      30.893  26.064  24.431  1.00  0.00     0.043 C 
ATOM     11  C   UNL A   1      30.293  26.798  23.270  1.00  0.00    -0.030 C 
BRANCH   7  12
ATOM     12  C   UNL A   1      33.523  25.313  22.627  1.00  0.00     0.224 C 
ATOM     13  N   UNL A   1      34.240  24.307  23.206  1.00  0.00    -0.349 N 
ATOM     14  H   UNL A   1      34.987  23.985  22.651  1.00  0.00     0.164 HD
ATOM     15  O   UNL A   1      33.278  25.194  21.424  1.00  0.00    -0.275 OA
BRANCH  13  16
ATOM     16  C   UNL A   1      34.120  23.608  24.497  1.00  0.00     0.109 C 
ATOM     17  C   UNL A   1      35.191  24.157  25.449  1.00  0.00     0.036 C 
BRANCH  16  18
ATOM     18  C   UNL A   1      34.042  22.095  24.434  1.00  0.00    -0.026 A 
ATOM     19  C   UNL A   1      35.136  21.322  24.857  1.00  0.00     0.008 A 
ATOM     20  C   UNL A   1      32.888  21.423  23.997  1.00  0.00     0.008 A 
ATOM     21  C   UNL A   1      35.031  19.930  24.962  1.00  0.00     0.027 A 
ATOM     22  C   UNL A   1      32.775  20.037  24.102  1.00  0.00     0.027 A 
ATOM     23  C   UNL A   1      33.829  19.293  24.628  1.00  0.00     0.046 A 
BRANCH  23  24
ATOM     24  N   UNL A   1      33.653  17.912  24.881  1.00  0.00    -0.306 N 
ATOM     25  C   UNL A   1      32.528  17.304  25.378  1.00  0.00     0.113 A 
ATOM     26  C   UNL A   1      34.540  16.892  24.620  1.00  0.00     0.204 A 
ATOM     27  C   UNL A   1      32.768  15.953  25.334  1.00  0.00     0.131 A 
ATOM     28  N   UNL A   1      34.022  15.706  24.853  1.00  0.00    -0.245 NA
ENDBRANCH  23  24
ENDBRANCH  16  18
ENDBRANCH  13  16
ENDBRANCH   7  12
ENDBRANCH   4   6
ENDBRANCH   3   4
ENDBRANCH   2   3
ENDBRANCH   1   2
BRANCH   1  29
ATOM     29  O   UNL A   1      31.015  31.704  26.376  1.00  0.00    -0.374 OA
BRANCH  29  30
ATOM     30  C   UNL A   1      31.597  33.002  26.488  1.00  0.00     0.202 C 
BRANCH  30  31
ATOM     31  C   UNL A   1      32.607  33.179  27.627  1.00  0.00     0.261 C 
BRANCH  31  32
ATOM     32  O   UNL A   1      32.795  34.563  27.979  1.00  0.00    -0.460 OA
BRANCH  32  33
ATOM     33  C   UNL A   1      33.452  34.758  29.147  1.00  0.00     0.338 C 
ATOM     34  O   UNL A   1      33.142  35.508  30.056  1.00  0.00    -0.246 OA
BRANCH  33  35
ATOM     35  C   UNL A   1      34.597  33.836  29.270  1.00  0.00     0.060 A 
ATOM     36  C   UNL A   1      34.382  32.640  29.966  1.00  0.00     0.016 A 
ATOM     37  C   UNL A   1      35.884  34.203  28.871  1.00  0.00     0.016 A 
ATOM     38  C   UNL A   1      35.464  31.846  30.338  1.00  0.00     0.010 A 
ATOM     39  C   UNL A   1      36.972  33.403  29.248  1.00  0.00     0.010 A 
ATOM     40  C   UNL A   1      36.771  32.250  30.029  1.00  0.00    -0.014 A 
BRANCH  40  41
ATOM     41  C   UNL A   1      37.917  31.540  30.655  1.00  0.00     0.031 A 
ATOM     42  C   UNL A   1      38.273  31.833  32.082  1.00  0.00     0.074 A 
ATOM     43  C   UNL A   1      38.602  30.598  29.983  1.00  0.00     0.049 A 
ATOM     44  N   UNL A   1      39.226  31.321  32.817  1.00  0.00    -0.248 NA
ATOM     45  C   UNL A   1      37.443  32.830  32.774  1.00  0.00     0.031 C 
ATOM     46  C   UNL A   1      38.312  30.200  28.615  1.00  0.00     0.029 A 
ATOM     47  N   UNL A   1      39.663  29.810  30.344  1.00  0.00    -0.354 N 
ATOM     48  C   UNL A   1      39.111  31.931  34.057  1.00  0.00     0.074 A 
ATOM     49  C   UNL A   1      38.017  32.876  33.967  1.00  0.00     0.031 C 
ATOM     50  C   UNL A   1      39.174  29.242  28.238  1.00  0.00     0.029 A 
ATOM     51  C   UNL A   1      40.096  28.978  29.340  1.00  0.00     0.049 A 
ATOM     52  H   UNL A   1      40.075  29.835  31.238  1.00  0.00     0.167 HD
ATOM     53  C   UNL A   1      39.846  31.712  35.173  1.00  0.00     0.037 A 
ATOM     54  C   UNL A   1      41.127  28.112  29.309  1.00  0.00     0.037 A 
ATOM     55  C   UNL A   1      40.930  30.771  35.262  1.00  0.00     0.049 A 
ATOM     56  C   UNL A   1      41.971  27.939  30.543  1.00  0.00     0.074 A 
ATOM     57  C   UNL A   1      41.726  30.473  36.354  1.00  0.00     0.029 A 
ATOM     58  N   UNL A   1      41.373  29.976  34.215  1.00  0.00    -0.354 N 
ATOM     59  N   UNL A   1      41.845  28.512  31.714  1.00  0.00    -0.248 NA
ATOM     60  C   UNL A   1      43.098  26.998  30.452  1.00  0.00     0.031 C 
ATOM     61  C   UNL A   1      42.677  29.527  35.957  1.00  0.00     0.029 A 
ATOM     62  C   UNL A   1      42.447  29.204  34.630  1.00  0.00     0.049 A 
ATOM     63  H   UNL A   1      40.983  29.961  33.312  1.00  0.00     0.167 HD
ATOM     64  C   UNL A   1      42.857  27.986  32.507  1.00  0.00     0.074 A 
ATOM     65  C   UNL A   1      43.582  27.039  31.685  1.00  0.00     0.031 C 
ATOM     66  C   UNL A   1      43.156  28.264  33.799  1.00  0.00     0.037 A 
BRANCH  53  67
ATOM     67  C   UNL A   1      39.511  32.530  36.383  1.00  0.00     0.064 A 
ATOM     68  C   UNL A   1      40.181  33.729  36.668  1.00  0.00     0.173 A 
ATOM     69  C   UNL A   1      38.493  32.120  37.255  1.00  0.00     0.173 A 
ATOM     70  F   UNL A   1      41.175  34.152  35.872  1.00  0.00    -0.203 F 
ATOM     71  C   UNL A   1      39.857  34.476  37.796  1.00  0.00     0.198 A 
ATOM     72  C   UNL A   1      38.155  32.882  38.369  1.00  0.00     0.198 A 
ATOM     73  F   UNL A   1      37.824  30.979  37.025  1.00  0.00    -0.203 F 
ATOM     74  F   UNL A   1      40.537  35.598  38.074  1.00  0.00    -0.200 F 
ATOM     75  C   UNL A   1      38.841  34.057  38.642  1.00  0.00     0.200 A 
ATOM     76  F   UNL A   1      37.168  32.478  39.181  1.00  0.00    -0.200 F 
ATOM     77  F   UNL A   1      38.528  34.779  39.726  1.00  0.00    -0.200 F 
ENDBRANCH  53  67
BRANCH  54  78
ATOM     78  C   UNL A   1      41.425  27.351  28.069  1.00  0.00     0.064 A 
ATOM     79  C   UNL A   1      40.867  26.086  27.840  1.00  0.00     0.173 A 
ATOM     80  C   UNL A   1      42.288  27.869  27.091  1.00  0.00     0.173 A 
ATOM     81  F   UNL A   1      40.056  25.538  28.756  1.00  0.00    -0.203 F 
ATOM     82  C   UNL A   1      41.173  25.361  26.689  1.00  0.00     0.198 A 
ATOM     83  C   UNL A   1      42.575  27.154  25.930  1.00  0.00     0.198 A 
ATOM     84  F   UNL A   1      42.850  29.075  27.262  1.00  0.00    -0.203 F 
ATOM     85  F   UNL A   1      40.659  24.136  26.515  1.00  0.00    -0.200 F 
ATOM     86  C   UNL A   1      42.022  25.898  25.733  1.00  0.00     0.200 A 
ATOM     87  F   UNL A   1      43.387  27.682  25.004  1.00  0.00    -0.200 F 
ATOM     88  F   UNL A   1      42.313  25.202  24.626  1.00  0.00    -0.200 F 
ENDBRANCH  54  78
BRANCH  66  89
ATOM     89  C   UNL A   1      44.302  27.516  34.413  1.00  0.00     0.064 A 
ATOM     90  C   UNL A   1      45.603  28.037  34.407  1.00  0.00     0.173 A 
ATOM     91  C   UNL A   1      44.086  26.282  35.045  1.00  0.00     0.173 A 
ATOM     92  F   UNL A   1      45.861  29.204  33.800  1.00  0.00    -0.203 F 
ATOM     93  C   UNL A   1      46.654  27.339  34.998  1.00  0.00     0.198 A 
ATOM     94  C   UNL A   1      45.135  25.600  35.656  1.00  0.00     0.198 A 
ATOM     95  F   UNL A   1      42.858  25.744  35.080  1.00  0.00    -0.203 F 
ATOM     96  F   UNL A   1      47.898  27.835  34.946  1.00  0.00    -0.200 F 
ATOM     97  C   UNL A   1      46.418  26.125  35.627  1.00  0.00     0.200 A 
ATOM     98  F   UNL A   1      44.903  24.432  36.272  1.00  0.00    -0.200 F 
ATOM     99  F   UNL A   1      47.429  25.458  36.199  1.00  0.00    -0.200 F 
ENDBRANCH  66  89
ENDBRANCH  40  41
ENDBRANCH  33  35
ENDBRANCH  32  33
ENDBRANCH  31  32
ENDBRANCH  30  31
ENDBRANCH  29  30
ENDBRANCH   1  29
TORSDOF 18
ENDMDL
