MODEL 1
REMARK VINA RESULT:     -12.8      0.000      0.000
REMARK SMILES O=C(OCCOCCOC(=O)c1ccc(-c2c3nc(c(-c4c(F)c(F)c(F)c(F)c4F)c4ccc([nH]4)c(-c4c(F)c(F)c(F)c(F)c4F)c4nc(c(-c5c(F)c(F)c(F)c(F)c5F)c5ccc2[nH]5)C=C4)C=C3)cc1)C1=Cc2cc(S(F)(F)(F)(F)F)cc(Br)c2O[C@@H]1C(F)(F)F
REMARK SMILES IDX 7 1 6 2 5 3 4 4 3 5 2 6 1 7 75 8 76 9 91 10 77 11 90 12
REMARK SMILES IDX 78 13 89 14 79 15 87 16 86 17 88 18 92 19 93 20 94 21 95 22
REMARK SMILES IDX 80 23 81 24 82 25 83 26 84 27 85 28 8 29 9 30 10 31 11 32
REMARK SMILES IDX 12 33 13 34 74 35 14 36 73 37 15 38 16 39 17 40 67 41 18 42
REMARK SMILES IDX 72 43 66 44 68 45 19 46 71 47 65 48 64 49 20 51 52 52 32 53
REMARK SMILES IDX 51 54 33 55 36 56 50 57 69 58 34 59 35 60 49 62 70 63 37 64
REMARK SMILES IDX 21 65 22 66 30 67 23 68 24 69 28 70 31 71 25 72 26 73 29 74
REMARK SMILES IDX 27 75 53 76 54 77 62 78 55 79 56 80 60 81 63 82 57 83 58 84
REMARK SMILES IDX 61 85 59 86 38 87 39 88 47 89 40 90 41 91 45 92 48 93 42 94
REMARK SMILES IDX 43 95 46 96 44 97
REMARK H PARENT 68 50 36 61
REMARK Flexibility Score: inf
ROOT
ATOM      1  C   UNL A   1      31.652  28.119  24.947  1.00  0.00     0.202 C 
ENDROOT
BRANCH   1   2
ATOM      2  O   UNL A   1      32.897  27.890  24.305  1.00  0.00    -0.374 OA
BRANCH   2   3
ATOM      3  C   UNL A   1      33.480  26.700  24.814  1.00  0.00     0.202 C 
BRANCH   3   4
ATOM      4  C   UNL A   1      33.896  25.804  23.659  1.00  0.00     0.261 C 
BRANCH   4   5
ATOM      5  O   UNL A   1      34.044  24.470  24.124  1.00  0.00    -0.460 OA
BRANCH   5   6
ATOM      6  C   UNL A   1      33.153  23.459  23.676  1.00  0.00     0.338 C 
ATOM      7  O   UNL A   1      33.358  22.878  22.564  1.00  0.00    -0.246 OA
BRANCH   6   8
ATOM      8  C   UNL A   1      31.954  23.071  24.526  1.00  0.00     0.087 C 
ATOM      9  C   UNL A   1      31.904  21.844  25.113  1.00  0.00     0.027 C 
ATOM     10  C   UNL A   1      30.811  24.053  24.719  1.00  0.00     0.316 C 
ATOM     11  C   UNL A   1      33.047  20.862  24.918  1.00  0.00     0.020 A 
ATOM     12  O   UNL A   1      34.676  22.567  25.217  1.00  0.00    -0.474 OA
ATOM     13  C   UNL A   1      32.673  19.575  24.565  1.00  0.00     0.036 A 
ATOM     14  C   UNL A   1      34.327  21.205  25.013  1.00  0.00     0.142 A 
ATOM     15  C   UNL A   1      33.731  18.637  24.613  1.00  0.00     0.109 A 
ATOM     16  C   UNL A   1      35.315  20.256  24.914  1.00  0.00     0.062 A 
ATOM     17  C   UNL A   1      35.013  18.955  24.626  1.00  0.00     0.044 A 
ATOM     18  Br  UNL A   1      37.185  20.776  25.189  1.00  0.00    -0.047 Br
BRANCH  10  19
ATOM     19  C   UNL A   1      30.653  24.360  26.200  1.00  0.00     0.430 C 
ATOM     20  F   UNL A   1      29.975  23.378  26.786  1.00  0.00    -0.167 F 
ATOM     21  F   UNL A   1      31.854  24.465  26.762  1.00  0.00    -0.167 F 
ATOM     22  F   UNL A   1      29.994  25.505  26.348  1.00  0.00    -0.167 F 
ENDBRANCH  10  19
BRANCH  15  23
ATOM     23  S   UNL A   1      33.297  16.881  24.660  1.00  0.00     0.310 S 
ATOM     24  F   UNL A   1      31.778  17.212  24.972  1.00  0.00    -0.094 F 
ATOM     25  F   UNL A   1      33.546  16.884  26.215  1.00  0.00    -0.094 F 
ATOM     26  F   UNL A   1      32.912  15.374  24.696  1.00  0.00    -0.094 F 
ATOM     27  F   UNL A   1      32.918  16.932  23.127  1.00  0.00    -0.094 F 
ATOM     28  F   UNL A   1      33.577  18.437  24.628  1.00  0.00    -0.094 F 
ENDBRANCH  15  23
ENDBRANCH   6   8
ENDBRANCH   5   6
ENDBRANCH   4   5
ENDBRANCH   3   4
ENDBRANCH   2   3
ENDBRANCH   1   2
BRANCH   1  29
ATOM     29  C   UNL A   1      31.555  29.579  25.360  1.00  0.00     0.261 C 
BRANCH  29  30
ATOM     30  O   UNL A   1      32.859  30.095  25.581  1.00  0.00    -0.460 OA
BRANCH  30  31
ATOM     31  C   UNL A   1      33.111  30.933  26.700  1.00  0.00     0.338 C 
ATOM     32  O   UNL A   1      32.268  31.825  27.027  1.00  0.00    -0.246 OA
BRANCH  31  33
ATOM     33  C   UNL A   1      34.388  30.762  27.506  1.00  0.00     0.060 A 
ATOM     34  C   UNL A   1      34.608  29.474  27.967  1.00  0.00     0.016 A 
ATOM     35  C   UNL A   1      35.286  31.722  27.692  1.00  0.00     0.016 A 
ATOM     36  C   UNL A   1      35.689  29.366  28.873  1.00  0.00     0.010 A 
ATOM     37  C   UNL A   1      36.389  31.505  28.480  1.00  0.00     0.010 A 
ATOM     38  C   UNL A   1      36.639  30.273  29.017  1.00  0.00    -0.014 A 
BRANCH  38  39
ATOM     39  C   UNL A   1      37.939  29.962  29.740  1.00  0.00     0.031 A 
ATOM     40  C   UNL A   1      38.899  29.116  29.182  1.00  0.00     0.074 A 
ATOM     41  C   UNL A   1      38.029  30.501  31.011  1.00  0.00     0.049 A 
ATOM     42  N   UNL A   1      40.047  28.714  29.730  1.00  0.00    -0.248 NA
ATOM     43  C   UNL A   1      38.789  28.515  27.845  1.00  0.00     0.031 C 
ATOM     44  C   UNL A   1      37.069  31.363  31.579  1.00  0.00     0.029 A 
ATOM     45  N   UNL A   1      39.029  30.315  31.940  1.00  0.00    -0.354 N 
ATOM     46  C   UNL A   1      40.710  27.923  28.883  1.00  0.00     0.074 A 
ATOM     47  C   UNL A   1      39.908  27.778  27.661  1.00  0.00     0.031 C 
ATOM     48  C   UNL A   1      37.479  31.680  32.836  1.00  0.00     0.029 A 
ATOM     49  C   UNL A   1      38.701  31.025  33.074  1.00  0.00     0.049 A 
ATOM     50  H   UNL A   1      39.838  29.768  31.815  1.00  0.00     0.167 HD
ATOM     51  C   UNL A   1      41.953  27.320  29.081  1.00  0.00     0.037 A 
ATOM     52  C   UNL A   1      39.414  31.107  34.260  1.00  0.00     0.037 A 
ATOM     53  C   UNL A   1      42.686  27.437  30.251  1.00  0.00     0.049 A 
ATOM     54  C   UNL A   1      40.630  30.455  34.480  1.00  0.00     0.074 A 
ATOM     55  C   UNL A   1      43.944  26.841  30.464  1.00  0.00     0.029 A 
ATOM     56  N   UNL A   1      42.347  28.127  31.393  1.00  0.00    -0.354 N 
ATOM     57  N   UNL A   1      41.311  29.698  33.620  1.00  0.00    -0.248 NA
ATOM     58  C   UNL A   1      41.378  30.509  35.743  1.00  0.00     0.031 C 
ATOM     59  C   UNL A   1      44.353  27.159  31.722  1.00  0.00     0.029 A 
ATOM     60  C   UNL A   1      43.358  27.959  32.314  1.00  0.00     0.049 A 
ATOM     61  H   UNL A   1      41.524  28.651  31.529  1.00  0.00     0.167 HD
ATOM     62  C   UNL A   1      42.439  29.262  34.183  1.00  0.00     0.074 A 
ATOM     63  C   UNL A   1      42.496  29.772  35.560  1.00  0.00     0.031 C 
ATOM     64  C   UNL A   1      43.427  28.463  33.603  1.00  0.00     0.037 A 
BRANCH  51  65
ATOM     65  C   UNL A   1      42.534  26.486  27.950  1.00  0.00     0.064 A 
ATOM     66  C   UNL A   1      42.228  25.142  27.814  1.00  0.00     0.173 A 
ATOM     67  C   UNL A   1      43.247  27.127  27.032  1.00  0.00     0.173 A 
ATOM     68  F   UNL A   1      41.319  24.526  28.564  1.00  0.00    -0.203 F 
ATOM     69  C   UNL A   1      42.972  24.485  26.806  1.00  0.00     0.198 A 
ATOM     70  C   UNL A   1      43.832  26.440  25.996  1.00  0.00     0.198 A 
ATOM     71  F   UNL A   1      43.395  28.447  27.114  1.00  0.00    -0.203 F 
ATOM     72  F   UNL A   1      43.019  23.156  26.839  1.00  0.00    -0.200 F 
ATOM     73  C   UNL A   1      43.622  25.099  25.834  1.00  0.00     0.200 A 
ATOM     74  F   UNL A   1      44.616  27.088  25.139  1.00  0.00    -0.200 F 
ATOM     75  F   UNL A   1      44.050  24.447  24.756  1.00  0.00    -0.200 F 
ENDBRANCH  51  65
BRANCH  52  76
ATOM     76  C   UNL A   1      38.840  31.953  35.385  1.00  0.00     0.064 A 
ATOM     77  C   UNL A   1      39.128  33.306  35.458  1.00  0.00     0.173 A 
ATOM     78  C   UNL A   1      38.169  31.338  36.351  1.00  0.00     0.173 A 
ATOM     79  F   UNL A   1      39.566  34.012  34.419  1.00  0.00    -0.203 F 
ATOM     80  C   UNL A   1      38.914  33.869  36.739  1.00  0.00     0.198 A 
ATOM     81  C   UNL A   1      37.876  31.991  37.523  1.00  0.00     0.198 A 
ATOM     82  F   UNL A   1      37.778  30.078  36.183  1.00  0.00    -0.203 F 
ATOM     83  F   UNL A   1      39.489  35.038  37.004  1.00  0.00    -0.200 F 
ATOM     84  C   UNL A   1      38.184  33.313  37.688  1.00  0.00     0.200 A 
ATOM     85  F   UNL A   1      37.283  31.328  38.512  1.00  0.00    -0.200 F 
ATOM     86  F   UNL A   1      37.771  34.002  38.748  1.00  0.00    -0.200 F 
ENDBRANCH  52  76
BRANCH  64  87
ATOM     87  C   UNL A   1      44.653  28.127  34.436  1.00  0.00     0.064 A 
ATOM     88  C   UNL A   1      44.567  26.956  35.172  1.00  0.00     0.173 A 
ATOM     89  C   UNL A   1      45.763  28.857  34.430  1.00  0.00     0.173 A 
ATOM     90  F   UNL A   1      43.587  26.071  35.013  1.00  0.00    -0.203 F 
ATOM     91  C   UNL A   1      45.615  26.788  36.107  1.00  0.00     0.198 A 
ATOM     92  C   UNL A   1      46.803  28.554  35.276  1.00  0.00     0.198 A 
ATOM     93  F   UNL A   1      45.867  29.890  33.600  1.00  0.00    -0.203 F 
ATOM     94  F   UNL A   1      45.435  25.907  37.087  1.00  0.00    -0.200 F 
ATOM     95  C   UNL A   1      46.761  27.444  36.074  1.00  0.00     0.200 A 
ATOM     96  F   UNL A   1      47.866  29.350  35.317  1.00  0.00    -0.200 F 
ATOM     97  F   UNL A   1      47.815  27.048  36.780  1.00  0.00    -0.200 F 
ENDBRANCH  64  87
ENDBRANCH  38  39
ENDBRANCH  31  33
ENDBRANCH  30  31
ENDBRANCH  29  30
ENDBRANCH   1  29
TORSDOF 16
ENDMDL
MODEL 2
REMARK VINA RESULT:     -12.7      2.450      3.689
REMARK SMILES O=C(OCCOCCOC(=O)c1ccc(-c2c3nc(c(-c4c(F)c(F)c(F)c(F)c4F)c4ccc([nH]4)c(-c4c(F)c(F)c(F)c(F)c4F)c4nc(c(-c5c(F)c(F)c(F)c(F)c5F)c5ccc2[nH]5)C=C4)C=C3)cc1)C1=Cc2cc(S(F)(F)(F)(F)F)cc(Br)c2O[C@@H]1C(F)(F)F
REMARK SMILES IDX 7 1 6 2 5 3 4 4 3 5 2 6 1 7 75 8 76 9 91 10 77 11 90 12
REMARK SMILES IDX 78 13 89 14 79 15 87 16 86 17 88 18 92 19 93 20 94 21 95 22
REMARK SMILES IDX 80 23 81 24 82 25 83 26 84 27 85 28 8 29 9 30 10 31 11 32
REMARK SMILES IDX 12 33 13 34 74 35 14 36 73 37 15 38 16 39 17 40 67 41 18 42
REMARK SMILES IDX 72 43 66 44 68 45 19 46 71 47 65 48 64 49 20 51 52 52 32 53
REMARK SMILES IDX 51 54 33 55 36 56 50 57 69 58 34 59 35 60 49 62 70 63 37 64
REMARK SMILES IDX 21 65 22 66 30 67 23 68 24 69 28 70 31 71 25 72 26 73 29 74
REMARK SMILES IDX 27 75 53 76 54 77 62 78 55 79 56 80 60 81 63 82 57 83 58 84
REMARK SMILES IDX 61 85 59 86 38 87 39 88 47 89 40 90 41 91 45 92 48 93 42 94
REMARK SMILES IDX 43 95 46 96 44 97
REMARK H PARENT 68 50 36 61
REMARK Flexibility Score: inf
ROOT
ATOM      1  C   UNL A   1      32.364  31.233  26.566  1.00  0.00     0.202 C 
ENDROOT
BRANCH   1   2
ATOM      2  O   UNL A   1      32.873  30.340  27.546  1.00  0.00    -0.374 OA
BRANCH   2   3
ATOM      3  C   UNL A   1      34.160  29.888  27.151  1.00  0.00     0.202 C 
BRANCH   3   4
ATOM      4  C   UNL A   1      34.016  28.672  26.250  1.00  0.00     0.261 C 
BRANCH   4   5
ATOM      5  O   UNL A   1      33.163  27.721  26.870  1.00  0.00    -0.460 OA
BRANCH   5   6
ATOM      6  C   UNL A   1      31.872  27.470  26.335  1.00  0.00     0.338 C 
ATOM      7  O   UNL A   1      30.898  27.224  27.114  1.00  0.00    -0.246 OA
BRANCH   6   8
ATOM      8  C   UNL A   1      31.654  27.494  24.831  1.00  0.00     0.087 C 
ATOM      9  C   UNL A   1      32.176  26.508  24.052  1.00  0.00     0.027 C 
ATOM     10  C   UNL A   1      30.853  28.619  24.198  1.00  0.00     0.316 C 
ATOM     11  C   UNL A   1      32.978  25.382  24.686  1.00  0.00     0.020 A 
ATOM     12  O   UNL A   1      31.428  25.173  26.476  1.00  0.00    -0.474 OA
ATOM     13  C   UNL A   1      34.188  25.097  24.076  1.00  0.00     0.036 A 
ATOM     14  C   UNL A   1      32.594  24.745  25.787  1.00  0.00     0.142 A 
ATOM     15  C   UNL A   1      34.800  23.909  24.543  1.00  0.00     0.109 A 
ATOM     16  C   UNL A   1      33.315  23.677  26.265  1.00  0.00     0.062 A 
ATOM     17  C   UNL A   1      34.490  23.303  25.675  1.00  0.00     0.044 A 
ATOM     18  Br  UNL A   1      32.649  22.679  27.814  1.00  0.00    -0.047 Br
BRANCH  10  19
ATOM     19  C   UNL A   1      29.645  28.038  23.479  1.00  0.00     0.430 C 
ATOM     20  F   UNL A   1      28.677  28.948  23.433  1.00  0.00    -0.167 F 
ATOM     21  F   UNL A   1      29.989  27.693  22.241  1.00  0.00    -0.167 F 
ATOM     22  F   UNL A   1      29.214  26.964  24.134  1.00  0.00    -0.167 F 
ENDBRANCH  10  19
BRANCH  15  23
ATOM     23  S   UNL A   1      36.096  23.170  23.519  1.00  0.00     0.310 S 
ATOM     24  F   UNL A   1      35.937  21.767  24.241  1.00  0.00    -0.094 F 
ATOM     25  F   UNL A   1      37.152  23.543  24.627  1.00  0.00    -0.094 F 
ATOM     26  F   UNL A   1      37.204  22.522  22.640  1.00  0.00    -0.094 F 
ATOM     27  F   UNL A   1      35.004  22.681  22.488  1.00  0.00    -0.094 F 
ATOM     28  F   UNL A   1      34.945  23.723  24.452  1.00  0.00    -0.094 F 
ENDBRANCH  15  23
ENDBRANCH   6   8
ENDBRANCH   5   6
ENDBRANCH   4   5
ENDBRANCH   3   4
ENDBRANCH   2   3
ENDBRANCH   1   2
BRANCH   1  29
ATOM     29  C   UNL A   1      31.746  32.440  27.253  1.00  0.00     0.261 C 
BRANCH  29  30
ATOM     30  O   UNL A   1      32.606  33.559  27.107  1.00  0.00    -0.460 OA
BRANCH  30  31
ATOM     31  C   UNL A   1      33.309  34.066  28.232  1.00  0.00     0.338 C 
ATOM     32  O   UNL A   1      32.960  35.170  28.755  1.00  0.00    -0.246 OA
BRANCH  31  33
ATOM     33  C   UNL A   1      34.479  33.288  28.812  1.00  0.00     0.060 A 
ATOM     34  C   UNL A   1      35.716  33.644  28.299  1.00  0.00     0.016 A 
ATOM     35  C   UNL A   1      34.370  32.402  29.794  1.00  0.00     0.016 A 
ATOM     36  C   UNL A   1      36.769  32.788  28.697  1.00  0.00     0.010 A 
ATOM     37  C   UNL A   1      35.468  31.698  30.227  1.00  0.00     0.010 A 
ATOM     38  C   UNL A   1      36.712  31.957  29.722  1.00  0.00    -0.014 A 
BRANCH  38  39
ATOM     39  C   UNL A   1      37.962  31.321  30.308  1.00  0.00     0.031 A 
ATOM     40  C   UNL A   1      38.688  30.358  29.605  1.00  0.00     0.074 A 
ATOM     41  C   UNL A   1      38.243  31.705  31.608  1.00  0.00     0.049 A 
ATOM     42  N   UNL A   1      39.760  29.682  30.022  1.00  0.00    -0.248 NA
ATOM     43  C   UNL A   1      38.371  29.924  28.237  1.00  0.00     0.031 C 
ATOM     44  C   UNL A   1      37.522  32.683  32.321  1.00  0.00     0.029 A 
ATOM     45  N   UNL A   1      39.239  31.232  32.433  1.00  0.00    -0.354 N 
ATOM     46  C   UNL A   1      40.189  28.860  29.061  1.00  0.00     0.074 A 
ATOM     47  C   UNL A   1      39.298  28.999  27.901  1.00  0.00     0.031 C 
ATOM     48  C   UNL A   1      38.067  32.787  33.562  1.00  0.00     0.029 A 
ATOM     49  C   UNL A   1      39.139  31.879  33.645  1.00  0.00     0.049 A 
ATOM     50  H   UNL A   1      39.907  30.548  32.197  1.00  0.00     0.167 HD
ATOM     51  C   UNL A   1      41.289  28.003  29.106  1.00  0.00     0.037 A 
ATOM     52  C   UNL A   1      39.928  31.700  34.770  1.00  0.00     0.037 A 
ATOM     53  C   UNL A   1      42.104  27.855  30.218  1.00  0.00     0.049 A 
ATOM     54  C   UNL A   1      40.993  30.799  34.836  1.00  0.00     0.074 A 
ATOM     55  C   UNL A   1      43.221  27.000  30.277  1.00  0.00     0.029 A 
ATOM     56  N   UNL A   1      41.989  28.485  31.437  1.00  0.00    -0.354 N 
ATOM     57  N   UNL A   1      41.445  30.007  33.863  1.00  0.00    -0.248 NA
ATOM     58  C   UNL A   1      41.814  30.577  36.033  1.00  0.00     0.031 C 
ATOM     59  C   UNL A   1      43.767  27.106  31.518  1.00  0.00     0.029 A 
ATOM     60  C   UNL A   1      42.999  28.028  32.255  1.00  0.00     0.049 A 
ATOM     61  H   UNL A   1      41.302  29.148  31.682  1.00  0.00     0.167 HD
ATOM     62  C   UNL A   1      42.492  29.301  34.293  1.00  0.00     0.074 A 
ATOM     63  C   UNL A   1      42.741  29.652  35.699  1.00  0.00     0.031 C 
ATOM     64  C   UNL A   1      43.253  28.380  33.571  1.00  0.00     0.037 A 
BRANCH  51  65
ATOM     65  C   UNL A   1      41.612  27.184  27.867  1.00  0.00     0.064 A 
ATOM     66  C   UNL A   1      42.485  27.652  26.899  1.00  0.00     0.173 A 
ATOM     67  C   UNL A   1      41.117  25.953  27.810  1.00  0.00     0.173 A 
ATOM     68  F   UNL A   1      43.196  28.767  27.043  1.00  0.00    -0.203 F 
ATOM     69  C   UNL A   1      42.552  26.838  25.744  1.00  0.00     0.198 A 
ATOM     70  C   UNL A   1      41.335  25.162  26.709  1.00  0.00     0.198 A 
ATOM     71  F   UNL A   1      40.403  25.482  28.829  1.00  0.00    -0.203 F 
ATOM     72  F   UNL A   1      43.065  27.372  24.640  1.00  0.00    -0.200 F 
ATOM     73  C   UNL A   1      42.140  25.584  25.687  1.00  0.00     0.200 A 
ATOM     74  F   UNL A   1      40.756  23.967  26.634  1.00  0.00    -0.200 F 
ATOM     75  F   UNL A   1      42.490  24.777  24.690  1.00  0.00    -0.200 F 
ENDBRANCH  51  65
BRANCH  52  76
ATOM     76  C   UNL A   1      39.615  32.530  36.004  1.00  0.00     0.064 A 
ATOM     77  C   UNL A   1      38.574  32.168  36.845  1.00  0.00     0.173 A 
ATOM     78  C   UNL A   1      40.278  33.667  36.180  1.00  0.00     0.173 A 
ATOM     79  F   UNL A   1      38.053  30.945  36.869  1.00  0.00    -0.203 F 
ATOM     80  C   UNL A   1      38.115  33.220  37.673  1.00  0.00     0.198 A 
ATOM     81  C   UNL A   1      39.852  34.590  37.103  1.00  0.00     0.198 A 
ATOM     82  F   UNL A   1      41.365  33.914  35.455  1.00  0.00    -0.203 F 
ATOM     83  F   UNL A   1      36.917  33.086  38.236  1.00  0.00    -0.200 F 
ATOM     84  C   UNL A   1      38.792  34.324  37.926  1.00  0.00     0.200 A 
ATOM     85  F   UNL A   1      40.478  35.759  37.198  1.00  0.00    -0.200 F 
ATOM     86  F   UNL A   1      38.463  35.135  38.928  1.00  0.00    -0.200 F 
ENDBRANCH  52  76
BRANCH  64  87
ATOM     87  C   UNL A   1      44.433  27.724  34.270  1.00  0.00     0.064 A 
ATOM     88  C   UNL A   1      45.633  28.410  34.176  1.00  0.00     0.173 A 
ATOM     89  C   UNL A   1      44.333  26.604  34.976  1.00  0.00     0.173 A 
ATOM     90  F   UNL A   1      45.725  29.649  33.701  1.00  0.00    -0.203 F 
ATOM     91  C   UNL A   1      46.752  27.673  34.630  1.00  0.00     0.198 A 
ATOM     92  C   UNL A   1      45.453  26.010  35.506  1.00  0.00     0.198 A 
ATOM     93  F   UNL A   1      43.139  26.053  35.171  1.00  0.00    -0.203 F 
ATOM     94  F   UNL A   1      47.959  28.086  34.256  1.00  0.00    -0.200 F 
ATOM     95  C   UNL A   1      46.681  26.602  35.401  1.00  0.00     0.200 A 
ATOM     96  F   UNL A   1      45.341  24.843  36.133  1.00  0.00    -0.200 F 
ATOM     97  F   UNL A   1      47.746  26.126  36.037  1.00  0.00    -0.200 F 
ENDBRANCH  64  87
ENDBRANCH  38  39
ENDBRANCH  31  33
ENDBRANCH  30  31
ENDBRANCH  29  30
ENDBRANCH   1  29
TORSDOF 16
ENDMDL
MODEL 3
REMARK VINA RESULT:     -12.7      2.722      3.901
REMARK SMILES O=C(OCCOCCOC(=O)c1ccc(-c2c3nc(c(-c4c(F)c(F)c(F)c(F)c4F)c4ccc([nH]4)c(-c4c(F)c(F)c(F)c(F)c4F)c4nc(c(-c5c(F)c(F)c(F)c(F)c5F)c5ccc2[nH]5)C=C4)C=C3)cc1)C1=Cc2cc(S(F)(F)(F)(F)F)cc(Br)c2O[C@@H]1C(F)(F)F
REMARK SMILES IDX 7 1 6 2 5 3 4 4 3 5 2 6 1 7 75 8 76 9 91 10 77 11 90 12
REMARK SMILES IDX 78 13 89 14 79 15 87 16 86 17 88 18 92 19 93 20 94 21 95 22
REMARK SMILES IDX 80 23 81 24 82 25 83 26 84 27 85 28 8 29 9 30 10 31 11 32
REMARK SMILES IDX 12 33 13 34 74 35 14 36 73 37 15 38 16 39 17 40 67 41 18 42
REMARK SMILES IDX 72 43 66 44 68 45 19 46 71 47 65 48 64 49 20 51 52 52 32 53
REMARK SMILES IDX 51 54 33 55 36 56 50 57 69 58 34 59 35 60 49 62 70 63 37 64
REMARK SMILES IDX 21 65 22 66 30 67 23 68 24 69 28 70 31 71 25 72 26 73 29 74
REMARK SMILES IDX 27 75 53 76 54 77 62 78 55 79 56 80 60 81 63 82 57 83 58 84
REMARK SMILES IDX 61 85 59 86 38 87 39 88 47 89 40 90 41 91 45 92 48 93 42 94
REMARK SMILES IDX 43 95 46 96 44 97
REMARK H PARENT 68 50 36 61
REMARK Flexibility Score: inf
ROOT
ATOM      1  C   UNL A   1      31.443  32.071  26.746  1.00  0.00     0.202 C 
ENDROOT
BRANCH   1   2
ATOM      2  O   UNL A   1      31.925  30.831  26.248  1.00  0.00    -0.374 OA
BRANCH   2   3
ATOM      3  C   UNL A   1      32.657  30.165  27.265  1.00  0.00     0.202 C 
BRANCH   3   4
ATOM      4  C   UNL A   1      33.546  29.103  26.638  1.00  0.00     0.261 C 
BRANCH   4   5
ATOM      5  O   UNL A   1      32.998  27.817  26.891  1.00  0.00    -0.460 OA
BRANCH   5   6
ATOM      6  C   UNL A   1      31.737  27.462  26.343  1.00  0.00     0.338 C 
ATOM      7  O   UNL A   1      30.779  27.137  27.113  1.00  0.00    -0.246 OA
BRANCH   6   8
ATOM      8  C   UNL A   1      31.532  27.470  24.837  1.00  0.00     0.087 C 
ATOM      9  C   UNL A   1      32.095  26.498  24.069  1.00  0.00     0.027 C 
ATOM     10  C   UNL A   1      30.700  28.565  24.190  1.00  0.00     0.316 C 
ATOM     11  C   UNL A   1      32.928  25.404  24.716  1.00  0.00     0.020 A 
ATOM     12  O   UNL A   1      31.369  25.153  26.493  1.00  0.00    -0.474 OA
ATOM     13  C   UNL A   1      34.152  25.156  24.119  1.00  0.00     0.036 A 
ATOM     14  C   UNL A   1      32.555  24.760  25.817  1.00  0.00     0.142 A 
ATOM     15  C   UNL A   1      34.799  23.992  24.598  1.00  0.00     0.109 A 
ATOM     16  C   UNL A   1      33.307  23.720  26.308  1.00  0.00     0.062 A 
ATOM     17  C   UNL A   1      34.498  23.381  25.731  1.00  0.00     0.044 A 
ATOM     18  Br  UNL A   1      32.660  22.708  27.857  1.00  0.00    -0.047 Br
BRANCH  10  19
ATOM     19  C   UNL A   1      29.519  27.940  23.464  1.00  0.00     0.430 C 
ATOM     20  F   UNL A   1      28.539  28.832  23.363  1.00  0.00    -0.167 F 
ATOM     21  F   UNL A   1      29.899  27.559  22.246  1.00  0.00    -0.167 F 
ATOM     22  F   UNL A   1      29.090  26.882  24.144  1.00  0.00    -0.167 F 
ENDBRANCH  10  19
BRANCH  15  23
ATOM     23  S   UNL A   1      36.128  23.291  23.591  1.00  0.00     0.310 S 
ATOM     24  F   UNL A   1      36.046  21.904  24.356  1.00  0.00    -0.094 F 
ATOM     25  F   UNL A   1      37.167  23.753  24.681  1.00  0.00    -0.094 F 
ATOM     26  F   UNL A   1      37.266  22.676  22.727  1.00  0.00    -0.094 F 
ATOM     27  F   UNL A   1      35.060  22.713  22.580  1.00  0.00    -0.094 F 
ATOM     28  F   UNL A   1      34.954  23.811  24.513  1.00  0.00    -0.094 F 
ENDBRANCH  15  23
ENDBRANCH   6   8
ENDBRANCH   5   6
ENDBRANCH   4   5
ENDBRANCH   3   4
ENDBRANCH   2   3
ENDBRANCH   1   2
BRANCH   1  29
ATOM     29  C   UNL A   1      32.605  32.880  27.301  1.00  0.00     0.261 C 
BRANCH  29  30
ATOM     30  O   UNL A   1      32.146  34.170  27.676  1.00  0.00    -0.460 OA
BRANCH  30  31
ATOM     31  C   UNL A   1      32.901  34.955  28.586  1.00  0.00     0.338 C 
ATOM     32  O   UNL A   1      32.502  36.119  28.905  1.00  0.00    -0.246 OA
BRANCH  31  33
ATOM     33  C   UNL A   1      34.187  34.404  29.182  1.00  0.00     0.060 A 
ATOM     34  C   UNL A   1      34.010  33.646  30.328  1.00  0.00     0.016 A 
ATOM     35  C   UNL A   1      35.384  34.539  28.624  1.00  0.00     0.016 A 
ATOM     36  C   UNL A   1      35.217  33.302  30.979  1.00  0.00     0.010 A 
ATOM     37  C   UNL A   1      36.507  34.058  29.252  1.00  0.00     0.010 A 
ATOM     38  C   UNL A   1      36.412  33.352  30.418  1.00  0.00    -0.014 A 
BRANCH  38  39
ATOM     39  C   UNL A   1      37.616  32.659  31.036  1.00  0.00     0.031 A 
ATOM     40  C   UNL A   1      38.192  31.533  30.444  1.00  0.00     0.074 A 
ATOM     41  C   UNL A   1      38.009  33.177  32.257  1.00  0.00     0.049 A 
ATOM     42  N   UNL A   1      39.205  30.799  30.907  1.00  0.00    -0.248 NA
ATOM     43  C   UNL A   1      37.753  30.961  29.163  1.00  0.00     0.031 C 
ATOM     44  C   UNL A   1      37.439  34.318  32.857  1.00  0.00     0.029 A 
ATOM     45  N   UNL A   1      38.991  32.705  33.099  1.00  0.00    -0.354 N 
ATOM     46  C   UNL A   1      39.487  29.812  30.053  1.00  0.00     0.074 A 
ATOM     47  C   UNL A   1      38.554  29.898  28.922  1.00  0.00     0.031 C 
ATOM     48  C   UNL A   1      38.061  34.523  34.048  1.00  0.00     0.029 A 
ATOM     49  C   UNL A   1      39.030  33.515  34.213  1.00  0.00     0.049 A 
ATOM     50  H   UNL A   1      39.566  31.924  32.934  1.00  0.00     0.167 HD
ATOM     51  C   UNL A   1      40.488  28.847  30.172  1.00  0.00     0.037 A 
ATOM     52  C   UNL A   1      39.856  33.398  35.320  1.00  0.00     0.037 A 
ATOM     53  C   UNL A   1      41.341  28.755  31.260  1.00  0.00     0.049 A 
ATOM     54  C   UNL A   1      40.818  32.395  35.467  1.00  0.00     0.074 A 
ATOM     55  C   UNL A   1      42.360  27.792  31.392  1.00  0.00     0.029 A 
ATOM     56  N   UNL A   1      41.364  29.550  32.384  1.00  0.00    -0.354 N 
ATOM     57  N   UNL A   1      41.126  31.434  34.595  1.00  0.00    -0.248 NA
ATOM     58  C   UNL A   1      41.675  32.241  36.649  1.00  0.00     0.031 C 
ATOM     59  C   UNL A   1      42.982  27.997  32.584  1.00  0.00     0.029 A 
ATOM     60  C   UNL A   1      42.362  29.092  33.216  1.00  0.00     0.049 A 
ATOM     61  H   UNL A   1      40.769  30.315  32.562  1.00  0.00     0.167 HD
ATOM     62  C   UNL A   1      42.111  30.675  35.077  1.00  0.00     0.074 A 
ATOM     63  C   UNL A   1      42.475  31.179  36.409  1.00  0.00     0.031 C 
ATOM     64  C   UNL A   1      42.726  29.584  34.459  1.00  0.00     0.037 A 
BRANCH  51  65
ATOM     65  C   UNL A   1      40.649  27.838  29.046  1.00  0.00     0.064 A 
ATOM     66  C   UNL A   1      39.906  26.670  29.013  1.00  0.00     0.173 A 
ATOM     67  C   UNL A   1      41.439  28.180  28.037  1.00  0.00     0.173 A 
ATOM     68  F   UNL A   1      38.922  26.411  29.869  1.00  0.00    -0.203 F 
ATOM     69  C   UNL A   1      40.289  25.776  27.985  1.00  0.00     0.198 A 
ATOM     70  C   UNL A   1      41.662  27.311  26.997  1.00  0.00     0.198 A 
ATOM     71  F   UNL A   1      42.021  29.377  28.031  1.00  0.00    -0.203 F 
ATOM     72  F   UNL A   1      39.899  24.509  28.090  1.00  0.00    -0.200 F 
ATOM     73  C   UNL A   1      41.008  26.112  26.929  1.00  0.00     0.200 A 
ATOM     74  F   UNL A   1      42.528  27.638  26.042  1.00  0.00    -0.200 F 
ATOM     75  F   UNL A   1      41.089  25.328  25.858  1.00  0.00    -0.200 F 
ENDBRANCH  51  65
BRANCH  52  76
ATOM     76  C   UNL A   1      39.704  34.415  36.438  1.00  0.00     0.064 A 
ATOM     77  C   UNL A   1      40.434  35.593  36.415  1.00  0.00     0.173 A 
ATOM     78  C   UNL A   1      38.958  34.088  37.487  1.00  0.00     0.173 A 
ATOM     79  F   UNL A   1      40.985  36.083  35.308  1.00  0.00    -0.203 F 
ATOM     80  C   UNL A   1      40.540  36.226  37.676  1.00  0.00     0.198 A 
ATOM     81  C   UNL A   1      39.010  34.831  38.641  1.00  0.00     0.198 A 
ATOM     82  F   UNL A   1      38.154  33.031  37.419  1.00  0.00    -0.203 F 
ATOM     83  F   UNL A   1      41.495  37.139  37.832  1.00  0.00    -0.200 F 
ATOM     84  C   UNL A   1      39.757  35.974  38.709  1.00  0.00     0.200 A 
ATOM     85  F   UNL A   1      38.323  34.432  39.708  1.00  0.00    -0.200 F 
ATOM     86  F   UNL A   1      39.698  36.788  39.759  1.00  0.00    -0.200 F 
ENDBRANCH  52  76
BRANCH  64  87
ATOM     87  C   UNL A   1      43.863  28.895  35.194  1.00  0.00     0.064 A 
ATOM     88  C   UNL A   1      45.131  29.376  34.910  1.00  0.00     0.173 A 
ATOM     89  C   UNL A   1      43.677  27.937  36.095  1.00  0.00     0.173 A 
ATOM     90  F   UNL A   1      45.344  30.491  34.216  1.00  0.00    -0.203 F 
ATOM     91  C   UNL A   1      46.178  28.575  35.422  1.00  0.00     0.198 A 
ATOM     92  C   UNL A   1      44.750  27.287  36.656  1.00  0.00     0.198 A 
ATOM     93  F   UNL A   1      42.442  27.602  36.454  1.00  0.00    -0.203 F 
ATOM     94  F   UNL A   1      47.394  28.742  34.910  1.00  0.00    -0.200 F 
ATOM     95  C   UNL A   1      46.032  27.671  36.375  1.00  0.00     0.200 A 
ATOM     96  F   UNL A   1      44.539  26.271  37.487  1.00  0.00    -0.200 F 
ATOM     97  F   UNL A   1      47.075  27.163  37.023  1.00  0.00    -0.200 F 
ENDBRANCH  64  87
ENDBRANCH  38  39
ENDBRANCH  31  33
ENDBRANCH  30  31
ENDBRANCH  29  30
ENDBRANCH   1  29
TORSDOF 16
ENDMDL
