MODEL 1
REMARK VINA RESULT:     -10.7      0.000      0.000
REMARK SMILES C[C@]([NH2+]Cc1noc(C2CC2)n1)(C(=O)OCCOCCOC(=O)c1ccc(-c2c3nc(c(-c4c(F)c(F)c(F)c(F)c4F)c4ccc([nH]4)c(-c4c(F)c(F)c(F)c(F)c4F)c4nc(c(-c5c(F)c(F)c(F)c(F)c5F)c5ccc2[nH]5)C=C4)C=C3)cc1)C(F)(F)F
REMARK SMILES IDX 17 1 16 2 15 3 13 4 14 5 2 6 1 7 87 8 88 9 89 10 90 11 3 12
REMARK SMILES IDX 4 15 5 16 6 17 12 18 7 19 8 20 9 21 10 22 11 23 18 24 19 25
REMARK SMILES IDX 20 26 21 27 22 28 23 29 24 30 25 31 86 32 26 33 85 34 27 35
REMARK SMILES IDX 28 36 29 37 79 38 30 39 84 40 78 41 80 42 31 43 83 44 77 45
REMARK SMILES IDX 76 46 32 48 64 49 44 50 63 51 45 52 48 53 62 54 81 55 46 56
REMARK SMILES IDX 47 57 61 59 82 60 49 61 33 62 34 63 42 64 35 65 36 66 40 67
REMARK SMILES IDX 43 68 37 69 38 70 41 71 39 72 65 73 66 74 74 75 67 76 68 77
REMARK SMILES IDX 72 78 75 79 69 80 70 81 73 82 71 83 50 84 51 85 59 86 52 87
REMARK SMILES IDX 53 88 57 89 60 90 54 91 55 92 58 93 56 94
REMARK H PARENT 3 13 3 14 80 47 48 58
REMARK Flexibility Score: inf
ROOT
ATOM      1  C   UNL A   1      33.975  28.663  22.996  1.00  0.00     0.202 C 
ENDROOT
BRANCH   1   2
ATOM      2  C   UNL A   1      33.662  27.278  22.425  1.00  0.00     0.261 C 
BRANCH   2   3
ATOM      3  O   UNL A   1      33.548  26.283  23.457  1.00  0.00    -0.458 OA
BRANCH   3   4
ATOM      4  C   UNL A   1      32.784  25.197  23.132  1.00  0.00     0.377 C 
ATOM      5  O   UNL A   1      32.906  24.589  22.075  1.00  0.00    -0.244 OA
BRANCH   4   6
ATOM      6  C   UNL A   1      31.709  24.867  24.183  1.00  0.00     0.287 C 
ATOM      7  C   UNL A   1      30.686  23.941  23.498  1.00  0.00     0.103 C 
BRANCH   6   8
ATOM      8  C   UNL A   1      32.509  24.079  25.259  1.00  0.00     0.455 C 
ATOM      9  F   UNL A   1      33.160  24.909  26.108  1.00  0.00    -0.164 F 
ATOM     10  F   UNL A   1      31.666  23.331  26.023  1.00  0.00    -0.164 F 
ATOM     11  F   UNL A   1      33.403  23.207  24.750  1.00  0.00    -0.164 F 
ENDBRANCH   6   8
BRANCH   6  12
ATOM     12  N   UNL A   1      31.003  26.125  24.671  1.00  0.00    -0.318 N 
ATOM     13  H   UNL A   1      31.651  26.910  24.598  1.00  0.00     0.347 HD
ATOM     14  H   UNL A   1      30.714  25.959  25.635  1.00  0.00     0.347 HD
BRANCH  12  15
ATOM     15  C   UNL A   1      29.792  26.441  23.892  1.00  0.00     0.344 C 
BRANCH  15  16
ATOM     16  C   UNL A   1      29.867  27.796  23.258  1.00  0.00     0.226 A 
ATOM     17  N   UNL A   1      30.294  27.970  22.000  1.00  0.00    -0.056 NA
ATOM     18  N   UNL A   1      29.388  28.932  23.867  1.00  0.00    -0.190 NA
ATOM     19  O   UNL A   1      30.044  29.323  21.764  1.00  0.00    -0.339 OA
ATOM     20  C   UNL A   1      29.501  29.832  22.914  1.00  0.00     0.229 A 
BRANCH  20  21
ATOM     21  C   UNL A   1      29.065  31.286  23.040  1.00  0.00     0.079 C 
ATOM     22  C   UNL A   1      28.025  31.830  22.080  1.00  0.00     0.014 C 
ATOM     23  C   UNL A   1      27.653  31.583  23.501  1.00  0.00     0.014 C 
ENDBRANCH  20  21
ENDBRANCH  15  16
ENDBRANCH  12  15
ENDBRANCH   6  12
ENDBRANCH   4   6
ENDBRANCH   3   4
ENDBRANCH   2   3
ENDBRANCH   1   2
BRANCH   1  24
ATOM     24  O   UNL A   1      32.930  29.326  23.702  1.00  0.00    -0.374 OA
BRANCH  24  25
ATOM     25  C   UNL A   1      32.966  29.300  25.130  1.00  0.00     0.202 C 
BRANCH  25  26
ATOM     26  C   UNL A   1      32.258  30.439  25.875  1.00  0.00     0.261 C 
BRANCH  26  27
ATOM     27  O   UNL A   1      32.672  30.558  27.249  1.00  0.00    -0.460 OA
BRANCH  27  28
ATOM     28  C   UNL A   1      33.476  31.615  27.510  1.00  0.00     0.338 C 
ATOM     29  O   UNL A   1      33.156  32.794  27.582  1.00  0.00    -0.246 OA
BRANCH  28  30
ATOM     30  C   UNL A   1      34.826  31.153  27.878  1.00  0.00     0.060 A 
ATOM     31  C   UNL A   1      34.980  29.796  28.193  1.00  0.00     0.016 A 
ATOM     32  C   UNL A   1      35.898  32.038  28.003  1.00  0.00     0.016 A 
ATOM     33  C   UNL A   1      36.194  29.329  28.691  1.00  0.00     0.010 A 
ATOM     34  C   UNL A   1      37.113  31.570  28.515  1.00  0.00     0.010 A 
ATOM     35  C   UNL A   1      37.253  30.223  28.898  1.00  0.00    -0.014 A 
BRANCH  35  36
ATOM     36  C   UNL A   1      38.438  29.777  29.670  1.00  0.00     0.031 A 
ATOM     37  C   UNL A   1      38.643  30.314  31.060  1.00  0.00     0.074 A 
ATOM     38  C   UNL A   1      39.297  28.878  29.161  1.00  0.00     0.049 A 
ATOM     39  N   UNL A   1      39.606  30.072  31.913  1.00  0.00    -0.248 NA
ATOM     40  C   UNL A   1      37.621  31.251  31.555  1.00  0.00     0.031 C 
ATOM     41  C   UNL A   1      39.183  28.255  27.844  1.00  0.00     0.029 A 
ATOM     42  N   UNL A   1      40.439  28.337  29.695  1.00  0.00    -0.354 N 
ATOM     43  C   UNL A   1      39.309  30.827  33.040  1.00  0.00     0.074 A 
ATOM     44  C   UNL A   1      38.092  31.558  32.753  1.00  0.00     0.031 C 
ATOM     45  C   UNL A   1      40.220  27.418  27.669  1.00  0.00     0.029 A 
ATOM     46  C   UNL A   1      41.083  27.468  28.849  1.00  0.00     0.049 A 
ATOM     47  H   UNL A   1      40.766  28.551  30.599  1.00  0.00     0.167 HD
ATOM     48  C   UNL A   1      39.982  30.896  34.212  1.00  0.00     0.037 A 
ATOM     49  C   UNL A   1      42.244  26.805  29.006  1.00  0.00     0.037 A 
ATOM     50  C   UNL A   1      41.191  30.168  34.498  1.00  0.00     0.049 A 
ATOM     51  C   UNL A   1      43.013  26.952  30.293  1.00  0.00     0.074 A 
ATOM     52  C   UNL A   1      41.938  30.156  35.663  1.00  0.00     0.029 A 
ATOM     53  N   UNL A   1      41.835  29.329  33.600  1.00  0.00    -0.354 N 
ATOM     54  N   UNL A   1      42.712  27.647  31.364  1.00  0.00    -0.248 NA
ATOM     55  C   UNL A   1      44.285  26.220  30.391  1.00  0.00     0.031 C 
ATOM     56  C   UNL A   1      43.058  29.345  35.454  1.00  0.00     0.029 A 
ATOM     57  C   UNL A   1      42.985  28.814  34.176  1.00  0.00     0.049 A 
ATOM     58  H   UNL A   1      41.521  29.129  32.689  1.00  0.00     0.167 HD
ATOM     59  C   UNL A   1      43.739  27.415  32.271  1.00  0.00     0.074 A 
ATOM     60  C   UNL A   1      44.667  26.508  31.629  1.00  0.00     0.031 C 
ATOM     61  C   UNL A   1      43.896  27.908  33.525  1.00  0.00     0.037 A 
BRANCH  48  62
ATOM     62  C   UNL A   1      39.437  31.815  35.266  1.00  0.00     0.064 A 
ATOM     63  C   UNL A   1      38.558  31.358  36.259  1.00  0.00     0.173 A 
ATOM     64  C   UNL A   1      39.814  33.166  35.291  1.00  0.00     0.173 A 
ATOM     65  F   UNL A   1      38.156  30.079  36.268  1.00  0.00    -0.203 F 
ATOM     66  C   UNL A   1      38.052  32.229  37.221  1.00  0.00     0.198 A 
ATOM     67  C   UNL A   1      39.326  34.026  36.271  1.00  0.00     0.198 A 
ATOM     68  F   UNL A   1      40.655  33.651  34.365  1.00  0.00    -0.203 F 
ATOM     69  F   UNL A   1      37.174  31.782  38.131  1.00  0.00    -0.200 F 
ATOM     70  C   UNL A   1      38.441  33.560  37.230  1.00  0.00     0.200 A 
ATOM     71  F   UNL A   1      39.711  35.311  36.283  1.00  0.00    -0.200 F 
ATOM     72  F   UNL A   1      37.953  34.395  38.157  1.00  0.00    -0.200 F 
ENDBRANCH  48  62
BRANCH  49  73
ATOM     73  C   UNL A   1      42.752  25.938  27.913  1.00  0.00     0.064 A 
ATOM     74  C   UNL A   1      42.358  24.597  27.810  1.00  0.00     0.173 A 
ATOM     75  C   UNL A   1      43.646  26.432  26.952  1.00  0.00     0.173 A 
ATOM     76  F   UNL A   1      41.525  24.072  28.722  1.00  0.00    -0.203 F 
ATOM     77  C   UNL A   1      42.848  23.779  26.794  1.00  0.00     0.198 A 
ATOM     78  C   UNL A   1      44.115  25.621  25.921  1.00  0.00     0.198 A 
ATOM     79  F   UNL A   1      44.055  27.708  27.008  1.00  0.00    -0.203 F 
ATOM     80  F   UNL A   1      42.485  22.491  26.741  1.00  0.00    -0.200 F 
ATOM     81  C   UNL A   1      43.720  24.293  25.847  1.00  0.00     0.200 A 
ATOM     82  F   UNL A   1      44.951  26.124  25.002  1.00  0.00    -0.200 F 
ATOM     83  F   UNL A   1      44.186  23.508  24.865  1.00  0.00    -0.200 F 
ENDBRANCH  49  73
BRANCH  61  84
ATOM     84  C   UNL A   1      45.099  27.453  34.299  1.00  0.00     0.064 A 
ATOM     85  C   UNL A   1      46.301  28.176  34.281  1.00  0.00     0.173 A 
ATOM     86  C   UNL A   1      45.032  26.305  35.102  1.00  0.00     0.173 A 
ATOM     87  F   UNL A   1      46.419  29.272  33.517  1.00  0.00    -0.203 F 
ATOM     88  C   UNL A   1      47.400  27.752  35.025  1.00  0.00     0.198 A 
ATOM     89  C   UNL A   1      46.125  25.900  35.865  1.00  0.00     0.198 A 
ATOM     90  F   UNL A   1      43.904  25.582  35.158  1.00  0.00    -0.203 F 
ATOM     91  F   UNL A   1      48.552  28.434  34.961  1.00  0.00    -0.200 F 
ATOM     92  C   UNL A   1      47.309  26.620  35.821  1.00  0.00     0.200 A 
ATOM     93  F   UNL A   1      46.031  24.813  36.643  1.00  0.00    -0.200 F 
ATOM     94  F   UNL A   1      48.365  26.219  36.541  1.00  0.00    -0.200 F 
ENDBRANCH  61  84
ENDBRANCH  35  36
ENDBRANCH  28  30
ENDBRANCH  27  28
ENDBRANCH  26  27
ENDBRANCH  25  26
ENDBRANCH  24  25
ENDBRANCH   1  24
TORSDOF 19
ENDMDL
MODEL 2
REMARK VINA RESULT:     -10.7      1.320      2.038
REMARK SMILES C[C@]([NH2+]Cc1noc(C2CC2)n1)(C(=O)OCCOCCOC(=O)c1ccc(-c2c3nc(c(-c4c(F)c(F)c(F)c(F)c4F)c4ccc([nH]4)c(-c4c(F)c(F)c(F)c(F)c4F)c4nc(c(-c5c(F)c(F)c(F)c(F)c5F)c5ccc2[nH]5)C=C4)C=C3)cc1)C(F)(F)F
REMARK SMILES IDX 17 1 16 2 15 3 13 4 14 5 2 6 1 7 87 8 88 9 89 10 90 11 3 12
REMARK SMILES IDX 4 15 5 16 6 17 12 18 7 19 8 20 9 21 10 22 11 23 18 24 19 25
REMARK SMILES IDX 20 26 21 27 22 28 23 29 24 30 25 31 86 32 26 33 85 34 27 35
REMARK SMILES IDX 28 36 29 37 79 38 30 39 84 40 78 41 80 42 31 43 83 44 77 45
REMARK SMILES IDX 76 46 32 48 64 49 44 50 63 51 45 52 48 53 62 54 81 55 46 56
REMARK SMILES IDX 47 57 61 59 82 60 49 61 33 62 34 63 42 64 35 65 36 66 40 67
REMARK SMILES IDX 43 68 37 69 38 70 41 71 39 72 65 73 66 74 74 75 67 76 68 77
REMARK SMILES IDX 72 78 75 79 69 80 70 81 73 82 71 83 50 84 51 85 59 86 52 87
REMARK SMILES IDX 53 88 57 89 60 90 54 91 55 92 58 93 56 94
REMARK H PARENT 3 13 3 14 80 47 48 58
REMARK Flexibility Score: inf
ROOT
ATOM      1  C   UNL A   1      32.974  29.342  27.133  1.00  0.00     0.202 C 
ENDROOT
BRANCH   1   2
ATOM      2  C   UNL A   1      31.802  28.360  27.195  1.00  0.00     0.261 C 
BRANCH   2   3
ATOM      3  O   UNL A   1      32.217  27.008  26.930  1.00  0.00    -0.458 OA
BRANCH   3   4
ATOM      4  C   UNL A   1      31.455  26.338  26.015  1.00  0.00     0.377 C 
ATOM      5  O   UNL A   1      30.230  26.337  26.041  1.00  0.00    -0.244 OA
BRANCH   4   6
ATOM      6  C   UNL A   1      32.284  25.524  25.005  1.00  0.00     0.287 C 
ATOM      7  C   UNL A   1      33.767  25.811  25.311  1.00  0.00     0.103 C 
BRANCH   6   8
ATOM      8  C   UNL A   1      31.934  24.055  25.376  1.00  0.00     0.455 C 
ATOM      9  F   UNL A   1      30.707  23.702  24.924  1.00  0.00    -0.164 F 
ATOM     10  F   UNL A   1      32.819  23.197  24.797  1.00  0.00    -0.164 F 
ATOM     11  F   UNL A   1      31.992  23.793  26.697  1.00  0.00    -0.164 F 
ENDBRANCH   6   8
BRANCH   6  12
ATOM     12  N   UNL A   1      31.975  25.938  23.572  1.00  0.00    -0.318 N 
ATOM     13  H   UNL A   1      30.966  25.888  23.430  1.00  0.00     0.347 HD
ATOM     14  H   UNL A   1      32.479  25.301  22.955  1.00  0.00     0.347 HD
BRANCH  12  15
ATOM     15  C   UNL A   1      32.427  27.307  23.261  1.00  0.00     0.344 C 
BRANCH  15  16
ATOM     16  C   UNL A   1      31.281  28.223  22.960  1.00  0.00     0.226 A 
ATOM     17  N   UNL A   1      30.384  27.949  22.003  1.00  0.00    -0.056 NA
ATOM     18  N   UNL A   1      30.995  29.333  23.718  1.00  0.00    -0.190 NA
ATOM     19  O   UNL A   1      29.422  28.946  22.175  1.00  0.00    -0.339 OA
ATOM     20  C   UNL A   1      29.846  29.731  23.214  1.00  0.00     0.229 A 
BRANCH  20  21
ATOM     21  C   UNL A   1      29.042  30.921  23.724  1.00  0.00     0.079 C 
ATOM     22  C   UNL A   1      28.765  32.079  22.784  1.00  0.00     0.014 C 
ATOM     23  C   UNL A   1      27.657  31.155  23.157  1.00  0.00     0.014 C 
ENDBRANCH  20  21
ENDBRANCH  15  16
ENDBRANCH  12  15
ENDBRANCH   6  12
ENDBRANCH   4   6
ENDBRANCH   3   4
ENDBRANCH   2   3
ENDBRANCH   1   2
BRANCH   1  24
ATOM     24  O   UNL A   1      32.810  30.499  26.318  1.00  0.00    -0.374 OA
BRANCH  24  25
ATOM     25  C   UNL A   1      31.740  31.392  26.632  1.00  0.00     0.202 C 
BRANCH  25  26
ATOM     26  C   UNL A   1      32.099  32.865  26.873  1.00  0.00     0.261 C 
BRANCH  26  27
ATOM     27  O   UNL A   1      32.735  33.090  28.145  1.00  0.00    -0.460 OA
BRANCH  27  28
ATOM     28  C   UNL A   1      33.849  33.856  28.093  1.00  0.00     0.338 C 
ATOM     29  O   UNL A   1      33.914  35.070  27.951  1.00  0.00    -0.246 OA
BRANCH  28  30
ATOM     30  C   UNL A   1      35.041  33.048  28.407  1.00  0.00     0.060 A 
ATOM     31  C   UNL A   1      34.831  31.760  28.918  1.00  0.00     0.016 A 
ATOM     32  C   UNL A   1      36.332  33.566  28.295  1.00  0.00     0.016 A 
ATOM     33  C   UNL A   1      35.910  31.005  29.372  1.00  0.00     0.010 A 
ATOM     34  C   UNL A   1      37.414  32.811  28.763  1.00  0.00     0.010 A 
ATOM     35  C   UNL A   1      37.202  31.546  29.339  1.00  0.00    -0.014 A 
BRANCH  35  36
ATOM     36  C   UNL A   1      38.296  30.854  30.063  1.00  0.00     0.031 A 
ATOM     37  C   UNL A   1      38.528  31.180  31.512  1.00  0.00     0.074 A 
ATOM     38  C   UNL A   1      39.045  29.919  29.453  1.00  0.00     0.049 A 
ATOM     39  N   UNL A   1      39.427  30.708  32.339  1.00  0.00    -0.248 NA
ATOM     40  C   UNL A   1      37.624  32.175  32.110  1.00  0.00     0.031 C 
ATOM     41  C   UNL A   1      38.889  29.485  28.067  1.00  0.00     0.029 A 
ATOM     42  N   UNL A   1      40.091  29.169  29.928  1.00  0.00    -0.354 N 
ATOM     43  C   UNL A   1      39.198  31.349  33.549  1.00  0.00     0.074 A 
ATOM     44  C   UNL A   1      38.096  32.265  33.344  1.00  0.00     0.031 C 
ATOM     45  C   UNL A   1      39.814  28.547  27.799  1.00  0.00     0.029 A 
ATOM     46  C   UNL A   1      40.641  28.335  28.986  1.00  0.00     0.049 A 
ATOM     47  H   UNL A   1      40.417  29.223  30.856  1.00  0.00     0.167 HD
ATOM     48  C   UNL A   1      39.841  31.181  34.729  1.00  0.00     0.037 A 
ATOM     49  C   UNL A   1      41.701  27.508  29.072  1.00  0.00     0.037 A 
ATOM     50  C   UNL A   1      40.935  30.270  34.934  1.00  0.00     0.049 A 
ATOM     51  C   UNL A   1      42.445  27.391  30.376  1.00  0.00     0.074 A 
ATOM     52  C   UNL A   1      41.641  30.013  36.097  1.00  0.00     0.029 A 
ATOM     53  N   UNL A   1      41.490  29.471  33.945  1.00  0.00    -0.354 N 
ATOM     54  N   UNL A   1      42.206  27.980  31.523  1.00  0.00    -0.248 NA
ATOM     55  C   UNL A   1      43.607  26.490  30.396  1.00  0.00     0.031 C 
ATOM     56  C   UNL A   1      42.652  29.093  35.800  1.00  0.00     0.029 A 
ATOM     57  C   UNL A   1      42.547  28.741  34.465  1.00  0.00     0.049 A 
ATOM     58  H   UNL A   1      41.180  29.430  33.012  1.00  0.00     0.167 HD
ATOM     59  C   UNL A   1      43.167  27.503  32.406  1.00  0.00     0.074 A 
ATOM     60  C   UNL A   1      43.988  26.568  31.665  1.00  0.00     0.031 C 
ATOM     61  C   UNL A   1      43.351  27.810  33.714  1.00  0.00     0.037 A 
BRANCH  48  62
ATOM     62  C   UNL A   1      39.390  32.026  35.885  1.00  0.00     0.064 A 
ATOM     63  C   UNL A   1      38.387  31.594  36.765  1.00  0.00     0.173 A 
ATOM     64  C   UNL A   1      39.981  33.275  36.122  1.00  0.00     0.173 A 
ATOM     65  F   UNL A   1      37.780  30.414  36.572  1.00  0.00    -0.203 F 
ATOM     66  C   UNL A   1      37.972  32.398  37.825  1.00  0.00     0.198 A 
ATOM     67  C   UNL A   1      39.582  34.063  37.198  1.00  0.00     0.198 A 
ATOM     68  F   UNL A   1      40.947  33.732  35.311  1.00  0.00    -0.203 F 
ATOM     69  F   UNL A   1      36.978  31.987  38.625  1.00  0.00    -0.200 F 
ATOM     70  C   UNL A   1      38.573  33.628  38.044  1.00  0.00     0.200 A 
ATOM     71  F   UNL A   1      40.171  35.249  37.413  1.00  0.00    -0.200 F 
ATOM     72  F   UNL A   1      38.172  34.398  39.064  1.00  0.00    -0.200 F 
ENDBRANCH  48  62
BRANCH  49  73
ATOM     73  C   UNL A   1      42.123  26.725  27.884  1.00  0.00     0.064 A 
ATOM     74  C   UNL A   1      41.596  25.451  27.631  1.00  0.00     0.173 A 
ATOM     75  C   UNL A   1      43.066  27.233  26.978  1.00  0.00     0.173 A 
ATOM     76  F   UNL A   1      40.711  24.913  28.483  1.00  0.00    -0.203 F 
ATOM     77  C   UNL A   1      42.005  24.709  26.525  1.00  0.00     0.198 A 
ATOM     78  C   UNL A   1      43.456  26.501  25.858  1.00  0.00     0.198 A 
ATOM     79  F   UNL A   1      43.603  28.446  27.176  1.00  0.00    -0.203 F 
ATOM     80  F   UNL A   1      41.513  23.479  26.328  1.00  0.00    -0.200 F 
ATOM     81  C   UNL A   1      42.929  25.238  25.636  1.00  0.00     0.200 A 
ATOM     82  F   UNL A   1      44.342  27.019  24.996  1.00  0.00    -0.200 F 
ATOM     83  F   UNL A   1      43.317  24.526  24.568  1.00  0.00    -0.200 F 
ENDBRANCH  49  73
BRANCH  61  84
ATOM     84  C   UNL A   1      44.461  27.107  34.438  1.00  0.00     0.064 A 
ATOM     85  C   UNL A   1      44.279  25.839  35.010  1.00  0.00     0.173 A 
ATOM     86  C   UNL A   1      45.735  27.690  34.522  1.00  0.00     0.173 A 
ATOM     87  F   UNL A   1      43.075  25.247  34.970  1.00  0.00    -0.203 F 
ATOM     88  C   UNL A   1      45.327  25.190  35.657  1.00  0.00     0.198 A 
ATOM     89  C   UNL A   1      46.787  27.025  35.147  1.00  0.00     0.198 A 
ATOM     90  F   UNL A   1      45.964  28.898  33.985  1.00  0.00    -0.203 F 
ATOM     91  F   UNL A   1      45.119  23.997  36.234  1.00  0.00    -0.200 F 
ATOM     92  C   UNL A   1      46.581  25.779  35.719  1.00  0.00     0.200 A 
ATOM     93  F   UNL A   1      48.002  27.590  35.194  1.00  0.00    -0.200 F 
ATOM     94  F   UNL A   1      47.590  25.149  36.336  1.00  0.00    -0.200 F 
ENDBRANCH  61  84
ENDBRANCH  35  36
ENDBRANCH  28  30
ENDBRANCH  27  28
ENDBRANCH  26  27
ENDBRANCH  25  26
ENDBRANCH  24  25
ENDBRANCH   1  24
TORSDOF 19
ENDMDL
MODEL 3
REMARK VINA RESULT:     -10.7      0.450      7.274
REMARK SMILES C[C@]([NH2+]Cc1noc(C2CC2)n1)(C(=O)OCCOCCOC(=O)c1ccc(-c2c3nc(c(-c4c(F)c(F)c(F)c(F)c4F)c4ccc([nH]4)c(-c4c(F)c(F)c(F)c(F)c4F)c4nc(c(-c5c(F)c(F)c(F)c(F)c5F)c5ccc2[nH]5)C=C4)C=C3)cc1)C(F)(F)F
REMARK SMILES IDX 17 1 16 2 15 3 13 4 14 5 2 6 1 7 87 8 88 9 89 10 90 11 3 12
REMARK SMILES IDX 4 15 5 16 6 17 12 18 7 19 8 20 9 21 10 22 11 23 18 24 19 25
REMARK SMILES IDX 20 26 21 27 22 28 23 29 24 30 25 31 86 32 26 33 85 34 27 35
REMARK SMILES IDX 28 36 29 37 79 38 30 39 84 40 78 41 80 42 31 43 83 44 77 45
REMARK SMILES IDX 76 46 32 48 64 49 44 50 63 51 45 52 48 53 62 54 81 55 46 56
REMARK SMILES IDX 47 57 61 59 82 60 49 61 33 62 34 63 42 64 35 65 36 66 40 67
REMARK SMILES IDX 43 68 37 69 38 70 41 71 39 72 65 73 66 74 74 75 67 76 68 77
REMARK SMILES IDX 72 78 75 79 69 80 70 81 73 82 71 83 50 84 51 85 59 86 52 87
REMARK SMILES IDX 53 88 57 89 60 90 54 91 55 92 58 93 56 94
REMARK H PARENT 3 13 3 14 80 47 48 58
REMARK Flexibility Score: inf
ROOT
ATOM      1  C   UNL A   1      33.965  28.622  22.967  1.00  0.00     0.202 C 
ENDROOT
BRANCH   1   2
ATOM      2  C   UNL A   1      33.659  27.216  22.444  1.00  0.00     0.261 C 
BRANCH   2   3
ATOM      3  O   UNL A   1      33.583  26.250  23.507  1.00  0.00    -0.458 OA
BRANCH   3   4
ATOM      4  C   UNL A   1      32.942  25.087  23.188  1.00  0.00     0.377 C 
ATOM      5  O   UNL A   1      33.185  24.450  22.170  1.00  0.00    -0.244 OA
BRANCH   4   6
ATOM      6  C   UNL A   1      31.835  24.703  24.186  1.00  0.00     0.287 C 
ATOM      7  C   UNL A   1      30.886  23.738  23.449  1.00  0.00     0.103 C 
BRANCH   6   8
ATOM      8  C   UNL A   1      32.618  23.943  25.294  1.00  0.00     0.455 C 
ATOM      9  F   UNL A   1      33.472  24.760  25.955  1.00  0.00    -0.164 F 
ATOM     10  F   UNL A   1      31.758  23.449  26.227  1.00  0.00    -0.164 F 
ATOM     11  F   UNL A   1      33.312  22.878  24.844  1.00  0.00    -0.164 F 
ENDBRANCH   6   8
BRANCH   6  12
ATOM     12  N   UNL A   1      31.053  25.926  24.646  1.00  0.00    -0.318 N 
ATOM     13  H   UNL A   1      31.673  26.735  24.627  1.00  0.00     0.347 HD
ATOM     14  H   UNL A   1      30.709  25.732  25.587  1.00  0.00     0.347 HD
BRANCH  12  15
ATOM     15  C   UNL A   1      29.882  26.211  23.797  1.00  0.00     0.344 C 
BRANCH  15  16
ATOM     16  C   UNL A   1      29.911  27.604  23.247  1.00  0.00     0.226 A 
ATOM     17  N   UNL A   1      30.271  27.862  21.982  1.00  0.00    -0.056 NA
ATOM     18  N   UNL A   1      29.453  28.693  23.950  1.00  0.00    -0.190 NA
ATOM     19  O   UNL A   1      29.995  29.224  21.846  1.00  0.00    -0.339 OA
ATOM     20  C   UNL A   1      29.507  29.652  23.051  1.00  0.00     0.229 A 
BRANCH  20  21
ATOM     21  C   UNL A   1      29.064  31.090  23.291  1.00  0.00     0.079 C 
ATOM     22  C   UNL A   1      28.231  31.791  22.234  1.00  0.00     0.014 C 
ATOM     23  C   UNL A   1      27.592  31.368  23.512  1.00  0.00     0.014 C 
ENDBRANCH  20  21
ENDBRANCH  15  16
ENDBRANCH  12  15
ENDBRANCH   6  12
ENDBRANCH   4   6
ENDBRANCH   3   4
ENDBRANCH   2   3
ENDBRANCH   1   2
BRANCH   1  24
ATOM     24  O   UNL A   1      32.917  29.304  23.649  1.00  0.00    -0.374 OA
BRANCH  24  25
ATOM     25  C   UNL A   1      32.946  29.316  25.078  1.00  0.00     0.202 C 
BRANCH  25  26
ATOM     26  C   UNL A   1      32.123  30.397  25.791  1.00  0.00     0.261 C 
BRANCH  26  27
ATOM     27  O   UNL A   1      32.527  30.603  27.158  1.00  0.00    -0.460 OA
BRANCH  27  28
ATOM     28  C   UNL A   1      33.278  31.709  27.366  1.00  0.00     0.338 C 
ATOM     29  O   UNL A   1      32.912  32.876  27.329  1.00  0.00    -0.246 OA
BRANCH  28  30
ATOM     30  C   UNL A   1      34.625  31.333  27.830  1.00  0.00     0.060 A 
ATOM     31  C   UNL A   1      34.843  29.987  28.156  1.00  0.00     0.016 A 
ATOM     32  C   UNL A   1      35.626  32.284  28.032  1.00  0.00     0.016 A 
ATOM     33  C   UNL A   1      36.046  29.597  28.740  1.00  0.00     0.010 A 
ATOM     34  C   UNL A   1      36.829  31.892  28.629  1.00  0.00     0.010 A 
ATOM     35  C   UNL A   1      37.028  30.556  29.021  1.00  0.00    -0.014 A 
BRANCH  35  36
ATOM     36  C   UNL A   1      38.181  30.184  29.876  1.00  0.00     0.031 A 
ATOM     37  C   UNL A   1      39.216  29.241  29.328  1.00  0.00     0.074 A 
ATOM     38  C   UNL A   1      38.328  30.708  31.104  1.00  0.00     0.049 A 
ATOM     39  N   UNL A   1      40.299  28.771  29.895  1.00  0.00    -0.248 NA
ATOM     40  C   UNL A   1      39.000  28.762  27.953  1.00  0.00     0.031 C 
ATOM     41  C   UNL A   1      37.417  31.664  31.729  1.00  0.00     0.029 A 
ATOM     42  N   UNL A   1      39.304  30.503  32.047  1.00  0.00    -0.354 N 
ATOM     43  C   UNL A   1      40.889  27.942  28.950  1.00  0.00     0.074 A 
ATOM     44  C   UNL A   1      40.031  27.948  27.784  1.00  0.00     0.031 C 
ATOM     45  C   UNL A   1      37.873  31.959  32.959  1.00  0.00     0.029 A 
ATOM     46  C   UNL A   1      39.092  31.193  33.215  1.00  0.00     0.049 A 
ATOM     47  H   UNL A   1      40.082  29.917  31.901  1.00  0.00     0.167 HD
ATOM     48  C   UNL A   1      42.048  27.248  29.041  1.00  0.00     0.037 A 
ATOM     49  C   UNL A   1      39.796  31.192  34.364  1.00  0.00     0.037 A 
ATOM     50  C   UNL A   1      42.901  27.243  30.200  1.00  0.00     0.049 A 
ATOM     51  C   UNL A   1      41.044  30.355  34.467  1.00  0.00     0.074 A 
ATOM     52  C   UNL A   1      44.106  26.586  30.384  1.00  0.00     0.029 A 
ATOM     53  N   UNL A   1      42.633  27.923  31.379  1.00  0.00    -0.354 N 
ATOM     54  N   UNL A   1      41.610  29.595  33.561  1.00  0.00    -0.248 NA
ATOM     55  C   UNL A   1      41.752  30.379  35.755  1.00  0.00     0.031 C 
ATOM     56  C   UNL A   1      44.542  26.832  31.689  1.00  0.00     0.029 A 
ATOM     57  C   UNL A   1      43.635  27.680  32.304  1.00  0.00     0.049 A 
ATOM     58  H   UNL A   1      41.846  28.493  31.535  1.00  0.00     0.167 HD
ATOM     59  C   UNL A   1      42.751  29.073  34.156  1.00  0.00     0.074 A 
ATOM     60  C   UNL A   1      42.803  29.611  35.500  1.00  0.00     0.031 C 
ATOM     61  C   UNL A   1      43.674  28.227  33.636  1.00  0.00     0.037 A 
BRANCH  48  62
ATOM     62  C   UNL A   1      42.443  26.411  27.860  1.00  0.00     0.064 A 
ATOM     63  C   UNL A   1      41.938  25.116  27.673  1.00  0.00     0.173 A 
ATOM     64  C   UNL A   1      43.326  26.919  26.896  1.00  0.00     0.173 A 
ATOM     65  F   UNL A   1      41.103  24.580  28.576  1.00  0.00    -0.203 F 
ATOM     66  C   UNL A   1      42.327  24.348  26.578  1.00  0.00     0.198 A 
ATOM     67  C   UNL A   1      43.691  26.158  25.788  1.00  0.00     0.198 A 
ATOM     68  F   UNL A   1      43.834  28.153  27.027  1.00  0.00    -0.203 F 
ATOM     69  F   UNL A   1      41.871  23.094  26.445  1.00  0.00    -0.200 F 
ATOM     70  C   UNL A   1      43.197  24.871  25.634  1.00  0.00     0.200 A 
ATOM     71  F   UNL A   1      44.526  26.669  24.872  1.00  0.00    -0.200 F 
ATOM     72  F   UNL A   1      43.569  24.131  24.581  1.00  0.00    -0.200 F 
ENDBRANCH  48  62
BRANCH  49  73
ATOM     73  C   UNL A   1      39.335  32.012  35.512  1.00  0.00     0.064 A 
ATOM     74  C   UNL A   1      38.488  31.475  36.492  1.00  0.00     0.173 A 
ATOM     75  C   UNL A   1      39.728  33.351  35.652  1.00  0.00     0.173 A 
ATOM     76  F   UNL A   1      38.064  30.206  36.387  1.00  0.00    -0.203 F 
ATOM     77  C   UNL A   1      38.043  32.249  37.561  1.00  0.00     0.198 A 
ATOM     78  C   UNL A   1      39.303  34.117  36.735  1.00  0.00     0.198 A 
ATOM     79  F   UNL A   1      40.535  33.912  34.740  1.00  0.00    -0.203 F 
ATOM     80  F   UNL A   1      37.204  31.722  38.463  1.00  0.00    -0.200 F 
ATOM     81  C   UNL A   1      38.456  33.567  37.685  1.00  0.00     0.200 A 
ATOM     82  F   UNL A   1      39.712  35.388  36.856  1.00  0.00    -0.200 F 
ATOM     83  F   UNL A   1      38.032  34.310  38.718  1.00  0.00    -0.200 F 
ENDBRANCH  49  73
BRANCH  61  84
ATOM     84  C   UNL A   1      44.837  27.854  34.509  1.00  0.00     0.064 A 
ATOM     85  C   UNL A   1      44.811  26.709  35.319  1.00  0.00     0.173 A 
ATOM     86  C   UNL A   1      46.008  28.627  34.499  1.00  0.00     0.173 A 
ATOM     87  F   UNL A   1      43.709  25.946  35.374  1.00  0.00    -0.203 F 
ATOM     88  C   UNL A   1      45.909  26.364  36.104  1.00  0.00     0.198 A 
ATOM     89  C   UNL A   1      47.113  28.264  35.265  1.00  0.00     0.198 A 
ATOM     90  F   UNL A   1      46.086  29.728  33.736  1.00  0.00    -0.203 F 
ATOM     91  F   UNL A   1      45.847  25.290  36.903  1.00  0.00    -0.200 F 
ATOM     92  C   UNL A   1      47.060  27.137  36.070  1.00  0.00     0.200 A 
ATOM     93  F   UNL A   1      48.229  29.004  35.222  1.00  0.00    -0.200 F 
ATOM     94  F   UNL A   1      48.117  26.799  36.822  1.00  0.00    -0.200 F 
ENDBRANCH  61  84
ENDBRANCH  35  36
ENDBRANCH  28  30
ENDBRANCH  27  28
ENDBRANCH  26  27
ENDBRANCH  25  26
ENDBRANCH  24  25
ENDBRANCH   1  24
TORSDOF 19
ENDMDL
