MODEL 1
REMARK VINA RESULT:     -11.4      0.000      0.000
REMARK SMILES CCn1nc(C(C)C)cc1C(=O)N1CCCC[C@@H]1C(=O)OCCOCCOC(=O)c1ccc(-c2c3nc(c(-c4c(F)c(F)c(F)c(F)c4F)c4ccc([nH]4)c(-c4c(F)c(F)c(F)c(F)c4F)c4nc(c(-c5c(F)c(F)c(F)c(F)c5F)c5ccc2[nH]5)C=C4)C=C3)cc1
REMARK SMILES IDX 23 1 22 2 21 3 19 4 20 5 18 6 13 7 14 8 15 9 17 10 16 11
REMARK SMILES IDX 11 12 12 13 10 14 3 15 4 16 5 17 9 18 2 19 1 20 6 21 7 22
REMARK SMILES IDX 8 23 24 24 25 25 26 26 27 27 28 28 29 29 30 30 31 31 92 32
REMARK SMILES IDX 32 33 91 34 33 35 34 36 35 37 85 38 36 39 90 40 84 41 86 42
REMARK SMILES IDX 37 43 89 44 83 45 82 46 38 48 70 49 50 50 69 51 51 52 54 53
REMARK SMILES IDX 68 54 87 55 52 56 53 57 67 59 88 60 55 61 39 62 40 63 48 64
REMARK SMILES IDX 41 65 42 66 46 67 49 68 43 69 44 70 47 71 45 72 71 73 72 74
REMARK SMILES IDX 80 75 73 76 74 77 78 78 81 79 75 80 76 81 79 82 77 83 56 84
REMARK SMILES IDX 57 85 65 86 58 87 59 88 63 89 66 90 60 91 61 92 64 93 62 94
REMARK H PARENT 86 47 54 58
REMARK Flexibility Score: inf
ROOT
ATOM      1  C   UNL A   1      38.697  20.049  25.318  1.00  0.00     0.202 C 
ENDROOT
BRANCH   1   2
ATOM      2  C   UNL A   1      38.317  21.521  25.463  1.00  0.00     0.261 C 
BRANCH   2   3
ATOM      3  O   UNL A   1      36.954  21.720  25.851  1.00  0.00    -0.462 OA
BRANCH   3   4
ATOM      4  C   UNL A   1      36.197  22.372  24.926  1.00  0.00     0.328 C 
ATOM      5  O   UNL A   1      36.475  23.454  24.420  1.00  0.00    -0.250 OA
BRANCH   4   6
ATOM      6  C   UNL A   1      34.924  21.599  24.595  1.00  0.00     0.195 C 
ATOM      7  N   UNL A   1      33.652  22.181  25.063  1.00  0.00    -0.323 N 
ATOM      8  C   UNL A   1      32.461  21.459  24.634  1.00  0.00     0.121 C 
ATOM      9  C   UNL A   1      32.535  19.967  24.961  1.00  0.00     0.022 C 
ATOM     10  C   UNL A   1      35.036  20.100  24.927  1.00  0.00     0.037 C 
ATOM     11  C   UNL A   1      33.813  19.345  24.403  1.00  0.00     0.005 C 
BRANCH   7  12
ATOM     12  C   UNL A   1      33.576  22.903  26.264  1.00  0.00     0.272 C 
ATOM     13  O   UNL A   1      33.780  22.332  27.330  1.00  0.00    -0.267 OA
BRANCH  12  14
ATOM     14  C   UNL A   1      33.147  24.287  26.130  1.00  0.00     0.126 A 
ATOM     15  N   UNL A   1      31.890  24.852  26.224  1.00  0.00    -0.260 N 
ATOM     16  N   UNL A   1      31.940  26.209  26.339  1.00  0.00    -0.177 NA
ATOM     17  C   UNL A   1      33.213  26.530  26.115  1.00  0.00     0.066 A 
ATOM     18  C   UNL A   1      33.964  25.376  25.834  1.00  0.00     0.059 A 
BRANCH  15  19
ATOM     19  C   UNL A   1      30.541  24.320  26.189  1.00  0.00     0.142 C 
ATOM     20  C   UNL A   1      30.172  23.048  26.917  1.00  0.00     0.029 C 
ENDBRANCH  15  19
BRANCH  17  21
ATOM     21  C   UNL A   1      33.722  27.943  26.211  1.00  0.00     0.034 C 
ATOM     22  C   UNL A   1      33.824  28.595  24.833  1.00  0.00     0.014 C 
ATOM     23  C   UNL A   1      32.901  28.821  27.160  1.00  0.00     0.014 C 
ENDBRANCH  17  21
ENDBRANCH  12  14
ENDBRANCH   7  12
ENDBRANCH   4   6
ENDBRANCH   3   4
ENDBRANCH   2   3
ENDBRANCH   1   2
BRANCH   1  24
ATOM     24  O   UNL A   1      39.996  19.611  25.712  1.00  0.00    -0.374 OA
BRANCH  24  25
ATOM     25  C   UNL A   1      40.735  20.257  26.743  1.00  0.00     0.202 C 
BRANCH  25  26
ATOM     26  C   UNL A   1      42.253  20.235  26.685  1.00  0.00     0.261 C 
BRANCH  26  27
ATOM     27  O   UNL A   1      42.676  20.531  25.366  1.00  0.00    -0.460 OA
BRANCH  27  28
ATOM     28  C   UNL A   1      43.991  20.323  25.157  1.00  0.00     0.338 C 
ATOM     29  O   UNL A   1      44.603  19.266  25.286  1.00  0.00    -0.246 OA
BRANCH  28  30
ATOM     30  C   UNL A   1      44.627  21.612  24.845  1.00  0.00     0.060 A 
ATOM     31  C   UNL A   1      45.618  21.920  25.772  1.00  0.00     0.016 A 
ATOM     32  C   UNL A   1      43.823  22.593  24.245  1.00  0.00     0.016 A 
ATOM     33  C   UNL A   1      45.448  23.083  26.468  1.00  0.00     0.010 A 
ATOM     34  C   UNL A   1      43.653  23.759  24.938  1.00  0.00     0.010 A 
ATOM     35  C   UNL A   1      44.383  23.920  26.112  1.00  0.00    -0.014 A 
BRANCH  35  36
ATOM     36  C   UNL A   1      44.154  25.073  26.942  1.00  0.00     0.031 A 
ATOM     37  C   UNL A   1      45.240  26.056  26.776  1.00  0.00     0.074 A 
ATOM     38  C   UNL A   1      43.065  25.214  27.714  1.00  0.00     0.049 A 
ATOM     39  N   UNL A   1      46.141  26.370  27.643  1.00  0.00    -0.248 NA
ATOM     40  C   UNL A   1      45.504  26.550  25.415  1.00  0.00     0.031 C 
ATOM     41  C   UNL A   1      41.858  24.389  27.782  1.00  0.00     0.029 A 
ATOM     42  N   UNL A   1      42.789  26.235  28.566  1.00  0.00    -0.354 N 
ATOM     43  C   UNL A   1      46.985  27.256  26.987  1.00  0.00     0.074 A 
ATOM     44  C   UNL A   1      46.679  27.154  25.587  1.00  0.00     0.031 C 
ATOM     45  C   UNL A   1      40.894  25.070  28.445  1.00  0.00     0.029 A 
ATOM     46  C   UNL A   1      41.454  26.313  28.943  1.00  0.00     0.049 A 
ATOM     47  H   UNL A   1      43.475  26.864  28.889  1.00  0.00     0.167 HD
ATOM     48  C   UNL A   1      47.673  28.197  27.681  1.00  0.00     0.037 A 
ATOM     49  C   UNL A   1      40.886  27.415  29.499  1.00  0.00     0.037 A 
ATOM     50  C   UNL A   1      47.771  27.839  29.074  1.00  0.00     0.049 A 
ATOM     51  C   UNL A   1      41.998  28.212  30.101  1.00  0.00     0.074 A 
ATOM     52  C   UNL A   1      48.344  26.777  29.751  1.00  0.00     0.029 A 
ATOM     53  N   UNL A   1      46.875  28.403  29.952  1.00  0.00    -0.354 N 
ATOM     54  N   UNL A   1      42.697  27.797  31.126  1.00  0.00    -0.248 NA
ATOM     55  C   UNL A   1      42.664  29.193  29.251  1.00  0.00     0.031 C 
ATOM     56  C   UNL A   1      47.425  26.465  30.795  1.00  0.00     0.029 A 
ATOM     57  C   UNL A   1      46.390  27.397  30.750  1.00  0.00     0.049 A 
ATOM     58  H   UNL A   1      46.627  29.355  29.998  1.00  0.00     0.167 HD
ATOM     59  C   UNL A   1      44.011  28.124  30.816  1.00  0.00     0.074 A 
ATOM     60  C   UNL A   1      43.923  29.029  29.672  1.00  0.00     0.031 C 
ATOM     61  C   UNL A   1      45.058  27.399  31.311  1.00  0.00     0.037 A 
BRANCH  48  62
ATOM     62  C   UNL A   1      47.899  29.596  27.173  1.00  0.00     0.064 A 
ATOM     63  C   UNL A   1      49.206  30.116  27.185  1.00  0.00     0.173 A 
ATOM     64  C   UNL A   1      46.870  30.540  26.954  1.00  0.00     0.173 A 
ATOM     65  F   UNL A   1      50.259  29.312  27.395  1.00  0.00    -0.203 F 
ATOM     66  C   UNL A   1      49.452  31.486  27.077  1.00  0.00     0.198 A 
ATOM     67  C   UNL A   1      47.124  31.898  26.790  1.00  0.00     0.198 A 
ATOM     68  F   UNL A   1      45.572  30.222  27.002  1.00  0.00    -0.203 F 
ATOM     69  F   UNL A   1      50.700  31.948  27.228  1.00  0.00    -0.200 F 
ATOM     70  C   UNL A   1      48.411  32.376  26.888  1.00  0.00     0.200 A 
ATOM     71  F   UNL A   1      46.096  32.742  26.624  1.00  0.00    -0.200 F 
ATOM     72  F   UNL A   1      48.638  33.695  26.850  1.00  0.00    -0.200 F 
ENDBRANCH  48  62
BRANCH  49  73
ATOM     73  C   UNL A   1      39.557  27.995  29.175  1.00  0.00     0.064 A 
ATOM     74  C   UNL A   1      38.573  28.157  30.166  1.00  0.00     0.173 A 
ATOM     75  C   UNL A   1      39.312  28.647  27.949  1.00  0.00     0.173 A 
ATOM     76  F   UNL A   1      38.743  27.612  31.379  1.00  0.00    -0.203 F 
ATOM     77  C   UNL A   1      37.431  28.939  29.949  1.00  0.00     0.198 A 
ATOM     78  C   UNL A   1      38.170  29.420  27.731  1.00  0.00     0.198 A 
ATOM     79  F   UNL A   1      40.217  28.632  26.961  1.00  0.00    -0.203 F 
ATOM     80  F   UNL A   1      36.545  29.119  30.938  1.00  0.00    -0.200 F 
ATOM     81  C   UNL A   1      37.236  29.578  28.736  1.00  0.00     0.200 A 
ATOM     82  F   UNL A   1      38.016  30.059  26.563  1.00  0.00    -0.200 F 
ATOM     83  F   UNL A   1      36.175  30.375  28.547  1.00  0.00    -0.200 F 
ENDBRANCH  49  73
BRANCH  61  84
ATOM     84  C   UNL A   1      44.767  26.357  32.356  1.00  0.00     0.064 A 
ATOM     85  C   UNL A   1      44.427  25.024  32.061  1.00  0.00     0.173 A 
ATOM     86  C   UNL A   1      45.009  26.673  33.698  1.00  0.00     0.173 A 
ATOM     87  F   UNL A   1      44.289  24.614  30.794  1.00  0.00    -0.203 F 
ATOM     88  C   UNL A   1      44.293  24.068  33.067  1.00  0.00     0.198 A 
ATOM     89  C   UNL A   1      44.912  25.709  34.698  1.00  0.00     0.198 A 
ATOM     90  F   UNL A   1      45.398  27.912  34.036  1.00  0.00    -0.203 F 
ATOM     91  F   UNL A   1      43.959  22.806  32.758  1.00  0.00    -0.200 F 
ATOM     92  C   UNL A   1      44.544  24.411  34.386  1.00  0.00     0.200 A 
ATOM     93  F   UNL A   1      45.211  26.033  35.965  1.00  0.00    -0.200 F 
ATOM     94  F   UNL A   1      44.460  23.484  35.350  1.00  0.00    -0.200 F 
ENDBRANCH  61  84
ENDBRANCH  35  36
ENDBRANCH  28  30
ENDBRANCH  27  28
ENDBRANCH  26  27
ENDBRANCH  25  26
ENDBRANCH  24  25
ENDBRANCH   1  24
TORSDOF 18
ENDMDL
MODEL 2
REMARK VINA RESULT:     -11.2      2.899      4.846
REMARK SMILES CCn1nc(C(C)C)cc1C(=O)N1CCCC[C@@H]1C(=O)OCCOCCOC(=O)c1ccc(-c2c3nc(c(-c4c(F)c(F)c(F)c(F)c4F)c4ccc([nH]4)c(-c4c(F)c(F)c(F)c(F)c4F)c4nc(c(-c5c(F)c(F)c(F)c(F)c5F)c5ccc2[nH]5)C=C4)C=C3)cc1
REMARK SMILES IDX 23 1 22 2 21 3 19 4 20 5 18 6 13 7 14 8 15 9 17 10 16 11
REMARK SMILES IDX 11 12 12 13 10 14 3 15 4 16 5 17 9 18 2 19 1 20 6 21 7 22
REMARK SMILES IDX 8 23 24 24 25 25 26 26 27 27 28 28 29 29 30 30 31 31 92 32
REMARK SMILES IDX 32 33 91 34 33 35 34 36 35 37 85 38 36 39 90 40 84 41 86 42
REMARK SMILES IDX 37 43 89 44 83 45 82 46 38 48 70 49 50 50 69 51 51 52 54 53
REMARK SMILES IDX 68 54 87 55 52 56 53 57 67 59 88 60 55 61 39 62 40 63 48 64
REMARK SMILES IDX 41 65 42 66 46 67 49 68 43 69 44 70 47 71 45 72 71 73 72 74
REMARK SMILES IDX 80 75 73 76 74 77 78 78 81 79 75 80 76 81 79 82 77 83 56 84
REMARK SMILES IDX 57 85 65 86 58 87 59 88 63 89 66 90 60 91 61 92 64 93 62 94
REMARK H PARENT 86 47 54 58
REMARK Flexibility Score: inf
ROOT
ATOM      1  C   UNL A   1      36.984  22.973  23.925  1.00  0.00     0.202 C 
ENDROOT
BRANCH   1   2
ATOM      2  C   UNL A   1      35.543  23.248  23.498  1.00  0.00     0.261 C 
BRANCH   2   3
ATOM      3  O   UNL A   1      35.074  24.544  23.885  1.00  0.00    -0.462 OA
BRANCH   3   4
ATOM      4  C   UNL A   1      33.870  24.887  23.350  1.00  0.00     0.328 C 
ATOM      5  O   UNL A   1      33.606  24.901  22.152  1.00  0.00    -0.250 OA
BRANCH   4   6
ATOM      6  C   UNL A   1      32.867  25.283  24.429  1.00  0.00     0.195 C 
ATOM      7  N   UNL A   1      32.030  24.204  24.987  1.00  0.00    -0.323 N 
ATOM      8  C   UNL A   1      31.163  24.616  26.084  1.00  0.00     0.121 C 
ATOM      9  C   UNL A   1      30.317  25.840  25.730  1.00  0.00     0.022 C 
ATOM     10  C   UNL A   1      32.040  26.523  24.045  1.00  0.00     0.037 C 
ATOM     11  C   UNL A   1      31.194  26.987  25.231  1.00  0.00     0.005 C 
BRANCH   7  12
ATOM     12  C   UNL A   1      31.610  23.122  24.198  1.00  0.00     0.272 C 
ATOM     13  O   UNL A   1      30.633  23.246  23.468  1.00  0.00    -0.267 OA
BRANCH  12  14
ATOM     14  C   UNL A   1      32.341  21.881  24.407  1.00  0.00     0.126 A 
ATOM     15  N   UNL A   1      33.159  21.484  25.447  1.00  0.00    -0.260 N 
ATOM     16  N   UNL A   1      33.412  20.144  25.423  1.00  0.00    -0.177 NA
ATOM     17  C   UNL A   1      32.926  19.720  24.258  1.00  0.00     0.066 A 
ATOM     18  C   UNL A   1      32.387  20.797  23.534  1.00  0.00     0.059 A 
BRANCH  15  19
ATOM     19  C   UNL A   1      33.829  22.183  26.526  1.00  0.00     0.142 C 
ATOM     20  C   UNL A   1      33.248  22.233  27.920  1.00  0.00     0.029 C 
ENDBRANCH  15  19
BRANCH  17  21
ATOM     21  C   UNL A   1      32.940  18.271  23.853  1.00  0.00     0.034 C 
ATOM     22  C   UNL A   1      32.535  18.095  22.391  1.00  0.00     0.014 C 
ATOM     23  C   UNL A   1      34.278  17.577  24.126  1.00  0.00     0.014 C 
ENDBRANCH  17  21
ENDBRANCH  12  14
ENDBRANCH   7  12
ENDBRANCH   4   6
ENDBRANCH   3   4
ENDBRANCH   2   3
ENDBRANCH   1   2
BRANCH   1  24
ATOM     24  O   UNL A   1      37.260  22.571  25.265  1.00  0.00    -0.374 OA
BRANCH  24  25
ATOM     25  C   UNL A   1      37.974  21.375  25.567  1.00  0.00     0.202 C 
BRANCH  25  26
ATOM     26  C   UNL A   1      39.382  21.480  26.126  1.00  0.00     0.261 C 
BRANCH  26  27
ATOM     27  O   UNL A   1      39.623  22.812  26.542  1.00  0.00    -0.460 OA
BRANCH  27  28
ATOM     28  C   UNL A   1      40.713  22.949  27.323  1.00  0.00     0.338 C 
ATOM     29  O   UNL A   1      41.010  22.275  28.305  1.00  0.00    -0.246 OA
BRANCH  28  30
ATOM     30  C   UNL A   1      41.466  24.131  26.875  1.00  0.00     0.060 A 
ATOM     31  C   UNL A   1      42.483  24.447  27.771  1.00  0.00     0.016 A 
ATOM     32  C   UNL A   1      40.755  25.110  26.164  1.00  0.00     0.016 A 
ATOM     33  C   UNL A   1      42.423  25.691  28.332  1.00  0.00     0.010 A 
ATOM     34  C   UNL A   1      40.696  26.357  26.722  1.00  0.00     0.010 A 
ATOM     35  C   UNL A   1      41.440  26.578  27.877  1.00  0.00    -0.014 A 
BRANCH  35  36
ATOM     36  C   UNL A   1      41.321  27.833  28.573  1.00  0.00     0.031 A 
ATOM     37  C   UNL A   1      42.448  28.721  28.238  1.00  0.00     0.074 A 
ATOM     38  C   UNL A   1      40.286  28.129  29.374  1.00  0.00     0.049 A 
ATOM     39  N   UNL A   1      43.412  29.078  29.017  1.00  0.00    -0.248 NA
ATOM     40  C   UNL A   1      42.665  29.035  26.817  1.00  0.00     0.031 C 
ATOM     41  C   UNL A   1      39.040  27.394  29.597  1.00  0.00     0.029 A 
ATOM     42  N   UNL A   1      40.114  29.258  30.109  1.00  0.00    -0.354 N 
ATOM     43  C   UNL A   1      44.266  29.828  28.220  1.00  0.00     0.074 A 
ATOM     44  C   UNL A   1      43.879  29.581  26.858  1.00  0.00     0.031 C 
ATOM     45  C   UNL A   1      38.153  28.206  30.220  1.00  0.00     0.029 A 
ATOM     46  C   UNL A   1      38.807  29.462  30.537  1.00  0.00     0.049 A 
ATOM     47  H   UNL A   1      40.850  29.878  30.321  1.00  0.00     0.167 HD
ATOM     48  C   UNL A   1      45.043  30.799  28.762  1.00  0.00     0.037 A 
ATOM     49  C   UNL A   1      38.332  30.654  30.983  1.00  0.00     0.037 A 
ATOM     50  C   UNL A   1      45.197  30.602  30.182  1.00  0.00     0.049 A 
ATOM     51  C   UNL A   1      39.518  31.446  31.432  1.00  0.00     0.074 A 
ATOM     52  C   UNL A   1      45.747  29.593  30.953  1.00  0.00     0.029 A 
ATOM     53  N   UNL A   1      44.383  31.318  31.027  1.00  0.00    -0.354 N 
ATOM     54  N   UNL A   1      40.248  31.112  32.465  1.00  0.00    -0.248 NA
ATOM     55  C   UNL A   1      40.190  32.278  30.439  1.00  0.00     0.031 C 
ATOM     56  C   UNL A   1      44.871  29.463  32.069  1.00  0.00     0.029 A 
ATOM     57  C   UNL A   1      43.887  30.445  31.963  1.00  0.00     0.049 A 
ATOM     58  H   UNL A   1      44.191  32.283  30.971  1.00  0.00     0.167 HD
ATOM     59  C   UNL A   1      41.559  31.319  32.055  1.00  0.00     0.074 A 
ATOM     60  C   UNL A   1      41.459  32.087  30.816  1.00  0.00     0.031 C 
ATOM     61  C   UNL A   1      42.590  30.593  32.582  1.00  0.00     0.037 A 
BRANCH  48  62
ATOM     62  C   UNL A   1      45.317  32.112  28.080  1.00  0.00     0.064 A 
ATOM     63  C   UNL A   1      44.236  32.969  27.803  1.00  0.00     0.173 A 
ATOM     64  C   UNL A   1      46.531  32.434  27.429  1.00  0.00     0.173 A 
ATOM     65  F   UNL A   1      43.034  32.752  28.357  1.00  0.00    -0.203 F 
ATOM     66  C   UNL A   1      44.342  34.009  26.878  1.00  0.00     0.198 A 
ATOM     67  C   UNL A   1      46.646  33.508  26.551  1.00  0.00     0.198 A 
ATOM     68  F   UNL A   1      47.625  31.671  27.517  1.00  0.00    -0.203 F 
ATOM     69  F   UNL A   1      43.251  34.714  26.548  1.00  0.00    -0.200 F 
ATOM     70  C   UNL A   1      45.544  34.273  26.247  1.00  0.00     0.200 A 
ATOM     71  F   UNL A   1      47.818  33.732  25.940  1.00  0.00    -0.200 F 
ATOM     72  F   UNL A   1      45.630  35.227  25.313  1.00  0.00    -0.200 F 
ENDBRANCH  48  62
BRANCH  49  73
ATOM     73  C   UNL A   1      37.021  31.272  30.656  1.00  0.00     0.064 A 
ATOM     74  C   UNL A   1      36.102  31.604  31.666  1.00  0.00     0.173 A 
ATOM     75  C   UNL A   1      36.749  31.795  29.375  1.00  0.00     0.173 A 
ATOM     76  F   UNL A   1      36.306  31.191  32.925  1.00  0.00    -0.203 F 
ATOM     77  C   UNL A   1      34.994  32.424  31.413  1.00  0.00     0.198 A 
ATOM     78  C   UNL A   1      35.641  32.606  29.123  1.00  0.00     0.198 A 
ATOM     79  F   UNL A   1      37.598  31.614  28.355  1.00  0.00    -0.203 F 
ATOM     80  F   UNL A   1      34.172  32.768  32.415  1.00  0.00    -0.200 F 
ATOM     81  C   UNL A   1      34.771  32.932  30.144  1.00  0.00     0.200 A 
ATOM     82  F   UNL A   1      35.459  33.117  27.896  1.00  0.00    -0.200 F 
ATOM     83  F   UNL A   1      33.746  33.765  29.913  1.00  0.00    -0.200 F 
ENDBRANCH  49  73
BRANCH  61  84
ATOM     84  C   UNL A   1      42.300  29.701  33.758  1.00  0.00     0.064 A 
ATOM     85  C   UNL A   1      41.807  28.388  33.643  1.00  0.00     0.173 A 
ATOM     86  C   UNL A   1      42.696  30.126  35.032  1.00  0.00     0.173 A 
ATOM     87  F   UNL A   1      41.512  27.867  32.445  1.00  0.00    -0.203 F 
ATOM     88  C   UNL A   1      41.676  27.561  34.757  1.00  0.00     0.198 A 
ATOM     89  C   UNL A   1      42.601  29.285  36.137  1.00  0.00     0.198 A 
ATOM     90  F   UNL A   1      43.233  31.345  35.195  1.00  0.00    -0.203 F 
ATOM     91  F   UNL A   1      41.196  26.316  34.619  1.00  0.00    -0.200 F 
ATOM     92  C   UNL A   1      42.082  28.008  36.003  1.00  0.00     0.200 A 
ATOM     93  F   UNL A   1      43.048  29.704  37.331  1.00  0.00    -0.200 F 
ATOM     94  F   UNL A   1      42.000  27.199  37.068  1.00  0.00    -0.200 F 
ENDBRANCH  61  84
ENDBRANCH  35  36
ENDBRANCH  28  30
ENDBRANCH  27  28
ENDBRANCH  26  27
ENDBRANCH  25  26
ENDBRANCH  24  25
ENDBRANCH   1  24
TORSDOF 18
ENDMDL
MODEL 3
REMARK VINA RESULT:     -10.9      4.612      9.009
REMARK SMILES CCn1nc(C(C)C)cc1C(=O)N1CCCC[C@@H]1C(=O)OCCOCCOC(=O)c1ccc(-c2c3nc(c(-c4c(F)c(F)c(F)c(F)c4F)c4ccc([nH]4)c(-c4c(F)c(F)c(F)c(F)c4F)c4nc(c(-c5c(F)c(F)c(F)c(F)c5F)c5ccc2[nH]5)C=C4)C=C3)cc1
REMARK SMILES IDX 23 1 22 2 21 3 19 4 20 5 18 6 13 7 14 8 15 9 17 10 16 11
REMARK SMILES IDX 11 12 12 13 10 14 3 15 4 16 5 17 9 18 2 19 1 20 6 21 7 22
REMARK SMILES IDX 8 23 24 24 25 25 26 26 27 27 28 28 29 29 30 30 31 31 92 32
REMARK SMILES IDX 32 33 91 34 33 35 34 36 35 37 85 38 36 39 90 40 84 41 86 42
REMARK SMILES IDX 37 43 89 44 83 45 82 46 38 48 70 49 50 50 69 51 51 52 54 53
REMARK SMILES IDX 68 54 87 55 52 56 53 57 67 59 88 60 55 61 39 62 40 63 48 64
REMARK SMILES IDX 41 65 42 66 46 67 49 68 43 69 44 70 47 71 45 72 71 73 72 74
REMARK SMILES IDX 80 75 73 76 74 77 78 78 81 79 75 80 76 81 79 82 77 83 56 84
REMARK SMILES IDX 57 85 65 86 58 87 59 88 63 89 66 90 60 91 61 92 64 93 62 94
REMARK H PARENT 86 47 54 58
REMARK Flexibility Score: inf
ROOT
ATOM      1  C   UNL A   1      31.746  28.286  27.626  1.00  0.00     0.202 C 
ENDROOT
BRANCH   1   2
ATOM      2  C   UNL A   1      31.310  27.052  26.840  1.00  0.00     0.261 C 
BRANCH   2   3
ATOM      3  O   UNL A   1      32.384  26.150  26.558  1.00  0.00    -0.462 OA
BRANCH   3   4
ATOM      4  C   UNL A   1      31.993  24.864  26.339  1.00  0.00     0.328 C 
ATOM      5  O   UNL A   1      31.153  24.258  26.996  1.00  0.00    -0.250 OA
BRANCH   4   6
ATOM      6  C   UNL A   1      32.749  24.237  25.172  1.00  0.00     0.195 C 
ATOM      7  N   UNL A   1      32.371  24.684  23.818  1.00  0.00    -0.323 N 
ATOM      8  C   UNL A   1      33.191  24.132  22.747  1.00  0.00     0.121 C 
ATOM      9  C   UNL A   1      33.288  22.607  22.814  1.00  0.00     0.022 C 
ATOM     10  C   UNL A   1      32.837  22.704  25.276  1.00  0.00     0.037 C 
ATOM     11  C   UNL A   1      33.761  22.148  24.191  1.00  0.00     0.005 C 
BRANCH   7  12
ATOM     12  C   UNL A   1      31.049  25.039  23.508  1.00  0.00     0.272 C 
ATOM     13  O   UNL A   1      30.230  24.163  23.249  1.00  0.00    -0.267 OA
BRANCH  12  14
ATOM     14  C   UNL A   1      30.794  26.469  23.419  1.00  0.00     0.126 A 
ATOM     15  N   UNL A   1      31.668  27.531  23.291  1.00  0.00    -0.260 N 
ATOM     16  N   UNL A   1      31.032  28.684  22.938  1.00  0.00    -0.177 NA
ATOM     17  C   UNL A   1      29.733  28.409  23.040  1.00  0.00     0.066 A 
ATOM     18  C   UNL A   1      29.548  27.087  23.480  1.00  0.00     0.059 A 
BRANCH  15  19
ATOM     19  C   UNL A   1      33.096  27.691  23.485  1.00  0.00     0.142 C 
ATOM     20  C   UNL A   1      33.940  28.503  22.529  1.00  0.00     0.029 C 
ENDBRANCH  15  19
BRANCH  17  21
ATOM     21  C   UNL A   1      28.663  29.402  22.674  1.00  0.00     0.034 C 
ATOM     22  C   UNL A   1      27.274  28.893  23.055  1.00  0.00     0.014 C 
ATOM     23  C   UNL A   1      28.902  30.796  23.259  1.00  0.00     0.014 C 
ENDBRANCH  17  21
ENDBRANCH  12  14
ENDBRANCH   7  12
ENDBRANCH   4   6
ENDBRANCH   3   4
ENDBRANCH   2   3
ENDBRANCH   1   2
BRANCH   1  24
ATOM     24  O   UNL A   1      31.773  29.561  26.987  1.00  0.00    -0.374 OA
BRANCH  24  25
ATOM     25  C   UNL A   1      32.990  30.192  26.601  1.00  0.00     0.202 C 
BRANCH  25  26
ATOM     26  C   UNL A   1      33.825  30.890  27.661  1.00  0.00     0.261 C 
BRANCH  26  27
ATOM     27  O   UNL A   1      34.022  32.242  27.287  1.00  0.00    -0.460 OA
BRANCH  27  28
ATOM     28  C   UNL A   1      33.356  33.122  28.060  1.00  0.00     0.338 C 
ATOM     29  O   UNL A   1      32.216  33.544  27.889  1.00  0.00    -0.246 OA
BRANCH  28  30
ATOM     30  C   UNL A   1      34.264  33.601  29.115  1.00  0.00     0.060 A 
ATOM     31  C   UNL A   1      35.264  34.410  28.587  1.00  0.00     0.016 A 
ATOM     32  C   UNL A   1      34.480  32.747  30.207  1.00  0.00     0.016 A 
ATOM     33  C   UNL A   1      36.547  33.986  28.789  1.00  0.00     0.010 A 
ATOM     34  C   UNL A   1      35.764  32.323  30.413  1.00  0.00     0.010 A 
ATOM     35  C   UNL A   1      36.756  32.866  29.603  1.00  0.00    -0.014 A 
BRANCH  35  36
ATOM     36  C   UNL A   1      38.104  32.369  29.695  1.00  0.00     0.031 A 
ATOM     37  C   UNL A   1      38.200  31.016  29.120  1.00  0.00     0.074 A 
ATOM     38  C   UNL A   1      39.115  33.091  30.204  1.00  0.00     0.049 A 
ATOM     39  N   UNL A   1      38.400  29.914  29.759  1.00  0.00    -0.248 NA
ATOM     40  C   UNL A   1      37.772  30.842  27.723  1.00  0.00     0.031 C 
ATOM     41  C   UNL A   1      39.146  34.498  30.605  1.00  0.00     0.029 A 
ATOM     42  N   UNL A   1      40.402  32.691  30.381  1.00  0.00    -0.354 N 
ATOM     43  C   UNL A   1      38.310  28.915  28.799  1.00  0.00     0.074 A 
ATOM     44  C   UNL A   1      37.712  29.514  27.638  1.00  0.00     0.031 C 
ATOM     45  C   UNL A   1      40.435  34.888  30.749  1.00  0.00     0.029 A 
ATOM     46  C   UNL A   1      41.299  33.737  30.567  1.00  0.00     0.049 A 
ATOM     47  H   UNL A   1      40.674  31.745  30.377  1.00  0.00     0.167 HD
ATOM     48  C   UNL A   1      38.986  27.748  28.951  1.00  0.00     0.037 A 
ATOM     49  C   UNL A   1      42.645  33.614  30.429  1.00  0.00     0.037 A 
ATOM     50  C   UNL A   1      39.350  27.540  30.330  1.00  0.00     0.049 A 
ATOM     51  C   UNL A   1      42.963  32.165  30.607  1.00  0.00     0.074 A 
ATOM     52  C   UNL A   1      38.624  27.386  31.497  1.00  0.00     0.029 A 
ATOM     53  N   UNL A   1      40.622  27.881  30.722  1.00  0.00    -0.354 N 
ATOM     54  N   UNL A   1      42.812  31.537  31.744  1.00  0.00    -0.248 NA
ATOM     55  C   UNL A   1      42.935  31.317  29.420  1.00  0.00     0.031 C 
ATOM     56  C   UNL A   1      39.354  28.110  32.484  1.00  0.00     0.029 A 
ATOM     57  C   UNL A   1      40.518  28.594  31.890  1.00  0.00     0.049 A 
ATOM     58  H   UNL A   1      41.457  27.653  30.250  1.00  0.00     0.167 HD
ATOM     59  C   UNL A   1      42.251  30.313  31.403  1.00  0.00     0.074 A 
ATOM     60  C   UNL A   1      42.398  30.213  29.952  1.00  0.00     0.031 C 
ATOM     61  C   UNL A   1      41.447  29.633  32.273  1.00  0.00     0.037 A 
BRANCH  48  62
ATOM     62  C   UNL A   1      39.642  27.022  27.808  1.00  0.00     0.064 A 
ATOM     63  C   UNL A   1      39.566  25.618  27.766  1.00  0.00     0.173 A 
ATOM     64  C   UNL A   1      40.579  27.606  26.925  1.00  0.00     0.173 A 
ATOM     65  F   UNL A   1      38.718  24.956  28.569  1.00  0.00    -0.203 F 
ATOM     66  C   UNL A   1      40.424  24.859  26.969  1.00  0.00     0.198 A 
ATOM     67  C   UNL A   1      41.394  26.848  26.090  1.00  0.00     0.198 A 
ATOM     68  F   UNL A   1      40.836  28.919  26.905  1.00  0.00    -0.203 F 
ATOM     69  F   UNL A   1      40.405  23.522  27.062  1.00  0.00    -0.200 F 
ATOM     70  C   UNL A   1      41.342  25.474  26.138  1.00  0.00     0.200 A 
ATOM     71  F   UNL A   1      42.287  27.467  25.305  1.00  0.00    -0.200 F 
ATOM     72  F   UNL A   1      42.210  24.747  25.423  1.00  0.00    -0.200 F 
ENDBRANCH  48  62
BRANCH  49  73
ATOM     73  C   UNL A   1      43.564  34.570  29.759  1.00  0.00     0.064 A 
ATOM     74  C   UNL A   1      44.887  34.738  30.202  1.00  0.00     0.173 A 
ATOM     75  C   UNL A   1      43.254  35.143  28.508  1.00  0.00     0.173 A 
ATOM     76  F   UNL A   1      45.285  34.187  31.358  1.00  0.00    -0.203 F 
ATOM     77  C   UNL A   1      45.841  35.418  29.433  1.00  0.00     0.198 A 
ATOM     78  C   UNL A   1      44.203  35.826  27.746  1.00  0.00     0.198 A 
ATOM     79  F   UNL A   1      42.048  34.976  27.947  1.00  0.00    -0.203 F 
ATOM     80  F   UNL A   1      47.108  35.506  29.862  1.00  0.00    -0.200 F 
ATOM     81  C   UNL A   1      45.500  35.951  28.202  1.00  0.00     0.200 A 
ATOM     82  F   UNL A   1      43.864  36.306  26.541  1.00  0.00    -0.200 F 
ATOM     83  F   UNL A   1      46.426  36.549  27.437  1.00  0.00    -0.200 F 
ENDBRANCH  49  73
BRANCH  61  84
ATOM     84  C   UNL A   1      41.340  30.143  33.684  1.00  0.00     0.064 A 
ATOM     85  C   UNL A   1      42.251  29.821  34.706  1.00  0.00     0.173 A 
ATOM     86  C   UNL A   1      40.384  31.127  33.967  1.00  0.00     0.173 A 
ATOM     87  F   UNL A   1      43.263  28.973  34.482  1.00  0.00    -0.203 F 
ATOM     88  C   UNL A   1      42.179  30.421  35.962  1.00  0.00     0.198 A 
ATOM     89  C   UNL A   1      40.337  31.755  35.209  1.00  0.00     0.198 A 
ATOM     90  F   UNL A   1      39.527  31.524  33.013  1.00  0.00    -0.203 F 
ATOM     91  F   UNL A   1      43.056  30.088  36.920  1.00  0.00    -0.200 F 
ATOM     92  C   UNL A   1      41.225  31.395  36.209  1.00  0.00     0.200 A 
ATOM     93  F   UNL A   1      39.449  32.736  35.424  1.00  0.00    -0.200 F 
ATOM     94  F   UNL A   1      41.183  32.008  37.401  1.00  0.00    -0.200 F 
ENDBRANCH  61  84
ENDBRANCH  35  36
ENDBRANCH  28  30
ENDBRANCH  27  28
ENDBRANCH  26  27
ENDBRANCH  25  26
ENDBRANCH  24  25
ENDBRANCH   1  24
TORSDOF 18
ENDMDL
