MODEL 1
REMARK VINA RESULT:     -10.2      0.000      0.000
REMARK SMILES CC[C@@H]1CCC[C@](CCCCCO)(C(=O)OCCOCCOC(=O)c2ccc(-c3c4nc(c(-c5c(F)c(F)c(F)c(F)c5F)c5ccc([nH]5)c(-c5c(F)c(F)c(F)c(F)c5F)c5nc(c(-c6c(F)c(F)c(F)c(F)c6F)c6ccc3[nH]6)C=C5)C=C4)cc2)C1
REMARK SMILES IDX 17 1 16 2 14 3 15 4 7 5 3 6 4 7 88 8 5 9 6 10 2 11 1 12 8 13
REMARK SMILES IDX 9 14 10 15 11 16 12 17 13 18 18 20 19 21 20 22 21 23 22 24
REMARK SMILES IDX 23 25 24 26 25 27 26 28 87 29 27 30 86 31 28 32 29 33 30 34
REMARK SMILES IDX 80 35 31 36 85 37 79 38 81 39 32 40 84 41 78 42 77 43 33 45
REMARK SMILES IDX 65 46 45 47 64 48 46 49 49 50 63 51 82 52 47 53 48 54 62 56
REMARK SMILES IDX 83 57 50 58 34 59 35 60 43 61 36 62 37 63 41 64 44 65 38 66
REMARK SMILES IDX 39 67 42 68 40 69 66 70 67 71 75 72 68 73 69 74 73 75 76 76
REMARK SMILES IDX 70 77 71 78 74 79 72 80 51 81 52 82 60 83 53 84 54 85 58 86
REMARK SMILES IDX 61 87 55 88 56 89 59 90 57 91
REMARK H PARENT 13 19 81 44 49 55
REMARK Flexibility Score: inf
ROOT
ATOM      1  C   UNL A   1      33.774  23.086  26.238  1.00  0.00     0.261 C 
ENDROOT
BRANCH   1   2
ATOM      2  O   UNL A   1      33.884  24.492  25.922  1.00  0.00    -0.463 OA
BRANCH   2   3
ATOM      3  C   UNL A   1      32.801  25.067  25.334  1.00  0.00     0.312 C 
ATOM      4  O   UNL A   1      31.858  24.433  24.871  1.00  0.00    -0.252 OA
BRANCH   3   5
ATOM      5  C   UNL A   1      32.831  26.621  25.355  1.00  0.00     0.068 C 
ATOM      6  C   UNL A   1      33.969  28.673  26.432  1.00  0.00    -0.010 C 
ATOM      7  C   UNL A   1      32.659  29.059  27.137  1.00  0.00     0.003 C 
ATOM      8  C   UNL A   1      34.031  27.158  26.186  1.00  0.00     0.022 C 
ATOM      9  C   UNL A   1      31.400  28.498  26.486  1.00  0.00     0.001 C 
ATOM     10  C   UNL A   1      31.522  27.039  26.073  1.00  0.00     0.019 C 
BRANCH   6  11
ATOM     11  C   UNL A   1      35.159  29.223  27.244  1.00  0.00     0.000 C 
ATOM     12  C   UNL A   1      34.974  30.649  27.743  1.00  0.00     0.004 C 
ENDBRANCH   6  11
BRANCH   5  13
ATOM     13  C   UNL A   1      32.966  27.023  23.843  1.00  0.00     0.019 C 
BRANCH  13  14
ATOM     14  C   UNL A   1      32.008  28.041  23.204  1.00  0.00     0.001 C 
BRANCH  14  15
ATOM     15  C   UNL A   1      30.739  27.497  22.538  1.00  0.00     0.002 C 
BRANCH  15  16
ATOM     16  C   UNL A   1      29.459  28.312  22.757  1.00  0.00     0.028 C 
BRANCH  16  17
ATOM     17  C   UNL A   1      29.630  29.810  22.549  1.00  0.00     0.156 C 
BRANCH  17  18
ATOM     18  O   UNL A   1      30.136  30.079  21.249  1.00  0.00    -0.396 OA
ATOM     19  H   UNL A   1      30.263  31.035  21.142  1.00  0.00     0.210 HD
ENDBRANCH  17  18
ENDBRANCH  16  17
ENDBRANCH  15  16
ENDBRANCH  14  15
ENDBRANCH  13  14
ENDBRANCH   5  13
ENDBRANCH   3   5
ENDBRANCH   2   3
ENDBRANCH   1   2
BRANCH   1  20
ATOM     20  C   UNL A   1      35.148  22.432  26.442  1.00  0.00     0.202 C 
BRANCH  20  21
ATOM     21  O   UNL A   1      35.461  21.350  25.559  1.00  0.00    -0.374 OA
BRANCH  21  22
ATOM     22  C   UNL A   1      36.501  21.611  24.619  1.00  0.00     0.202 C 
BRANCH  22  23
ATOM     23  C   UNL A   1      37.807  20.858  24.861  1.00  0.00     0.261 C 
BRANCH  23  24
ATOM     24  O   UNL A   1      38.347  21.231  26.141  1.00  0.00    -0.460 OA
BRANCH  24  25
ATOM     25  C   UNL A   1      39.677  21.453  26.124  1.00  0.00     0.338 C 
ATOM     26  O   UNL A   1      40.513  20.893  25.425  1.00  0.00    -0.246 OA
BRANCH  25  27
ATOM     27  C   UNL A   1      40.016  22.609  26.970  1.00  0.00     0.060 A 
ATOM     28  C   UNL A   1      39.268  23.773  26.758  1.00  0.00     0.016 A 
ATOM     29  C   UNL A   1      41.081  22.601  27.878  1.00  0.00     0.016 A 
ATOM     30  C   UNL A   1      39.652  24.962  27.360  1.00  0.00     0.010 A 
ATOM     31  C   UNL A   1      41.466  23.801  28.486  1.00  0.00     0.010 A 
ATOM     32  C   UNL A   1      40.794  24.995  28.169  1.00  0.00    -0.014 A 
BRANCH  32  33
ATOM     33  C   UNL A   1      41.392  26.320  28.457  1.00  0.00     0.031 A 
ATOM     34  C   UNL A   1      42.769  26.617  27.927  1.00  0.00     0.074 A 
ATOM     35  C   UNL A   1      40.674  27.281  29.061  1.00  0.00     0.049 A 
ATOM     36  N   UNL A   1      43.442  27.739  27.937  1.00  0.00    -0.248 NA
ATOM     37  C   UNL A   1      43.481  25.496  27.294  1.00  0.00     0.031 C 
ATOM     38  C   UNL A   1      39.321  27.119  29.586  1.00  0.00     0.029 A 
ATOM     39  N   UNL A   1      40.984  28.593  29.315  1.00  0.00    -0.354 N 
ATOM     40  C   UNL A   1      44.648  27.460  27.306  1.00  0.00     0.074 A 
ATOM     41  C   UNL A   1      44.637  26.052  26.972  1.00  0.00     0.031 C 
ATOM     42  C   UNL A   1      38.913  28.291  30.101  1.00  0.00     0.029 A 
ATOM     43  C   UNL A   1      39.980  29.279  29.948  1.00  0.00     0.049 A 
ATOM     44  H   UNL A   1      41.845  29.002  29.068  1.00  0.00     0.167 HD
ATOM     45  C   UNL A   1      45.666  28.303  27.011  1.00  0.00     0.037 A 
ATOM     46  C   UNL A   1      39.931  30.562  30.354  1.00  0.00     0.037 A 
ATOM     47  C   UNL A   1      45.677  29.702  27.350  1.00  0.00     0.049 A 
ATOM     48  C   UNL A   1      41.088  31.476  30.049  1.00  0.00     0.074 A 
ATOM     49  C   UNL A   1      46.660  30.644  27.108  1.00  0.00     0.029 A 
ATOM     50  N   UNL A   1      44.650  30.356  28.017  1.00  0.00    -0.354 N 
ATOM     51  N   UNL A   1      42.214  31.211  29.431  1.00  0.00    -0.248 NA
ATOM     52  C   UNL A   1      40.955  32.875  30.479  1.00  0.00     0.031 C 
ATOM     53  C   UNL A   1      46.246  31.859  27.666  1.00  0.00     0.029 A 
ATOM     54  C   UNL A   1      44.981  31.687  28.207  1.00  0.00     0.049 A 
ATOM     55  H   UNL A   1      43.809  29.936  28.310  1.00  0.00     0.167 HD
ATOM     56  C   UNL A   1      42.912  32.411  29.374  1.00  0.00     0.074 A 
ATOM     57  C   UNL A   1      42.074  33.408  30.008  1.00  0.00     0.031 C 
ATOM     58  C   UNL A   1      44.134  32.665  28.842  1.00  0.00     0.037 A 
BRANCH  45  59
ATOM     59  C   UNL A   1      46.857  27.716  26.311  1.00  0.00     0.064 A 
ATOM     60  C   UNL A   1      46.942  27.670  24.910  1.00  0.00     0.173 A 
ATOM     61  C   UNL A   1      47.922  27.178  27.050  1.00  0.00     0.173 A 
ATOM     62  F   UNL A   1      45.943  28.153  24.157  1.00  0.00    -0.203 F 
ATOM     63  C   UNL A   1      48.029  27.071  24.277  1.00  0.00     0.198 A 
ATOM     64  C   UNL A   1      49.021  26.608  26.412  1.00  0.00     0.198 A 
ATOM     65  F   UNL A   1      47.892  27.197  28.390  1.00  0.00    -0.203 F 
ATOM     66  F   UNL A   1      48.056  26.979  22.940  1.00  0.00    -0.200 F 
ATOM     67  C   UNL A   1      49.069  26.545  25.028  1.00  0.00     0.200 A 
ATOM     68  F   UNL A   1      50.029  26.108  27.139  1.00  0.00    -0.200 F 
ATOM     69  F   UNL A   1      50.110  25.963  24.418  1.00  0.00    -0.200 F 
ENDBRANCH  45  59
BRANCH  46  70
ATOM     70  C   UNL A   1      38.732  31.052  31.079  1.00  0.00     0.064 A 
ATOM     71  C   UNL A   1      38.620  30.936  32.471  1.00  0.00     0.173 A 
ATOM     72  C   UNL A   1      37.676  31.665  30.388  1.00  0.00     0.173 A 
ATOM     73  F   UNL A   1      39.595  30.339  33.172  1.00  0.00    -0.203 F 
ATOM     74  C   UNL A   1      37.494  31.406  33.143  1.00  0.00     0.198 A 
ATOM     75  C   UNL A   1      36.563  32.158  31.065  1.00  0.00     0.198 A 
ATOM     76  F   UNL A   1      37.736  31.802  29.055  1.00  0.00    -0.203 F 
ATOM     77  F   UNL A   1      37.397  31.253  34.471  1.00  0.00    -0.200 F 
ATOM     78  C   UNL A   1      36.470  32.024  32.441  1.00  0.00     0.200 A 
ATOM     79  F   UNL A   1      35.583  32.767  30.382  1.00  0.00    -0.200 F 
ATOM     80  F   UNL A   1      35.394  32.487  33.089  1.00  0.00    -0.200 F 
ENDBRANCH  46  70
BRANCH  58  81
ATOM     81  C   UNL A   1      44.622  34.085  28.895  1.00  0.00     0.064 A 
ATOM     82  C   UNL A   1      45.413  34.557  29.952  1.00  0.00     0.173 A 
ATOM     83  C   UNL A   1      44.310  34.980  27.858  1.00  0.00     0.173 A 
ATOM     84  F   UNL A   1      45.729  33.745  30.973  1.00  0.00    -0.203 F 
ATOM     85  C   UNL A   1      45.844  35.881  29.989  1.00  0.00     0.198 A 
ATOM     86  C   UNL A   1      44.768  36.294  27.883  1.00  0.00     0.198 A 
ATOM     87  F   UNL A   1      43.565  34.577  26.818  1.00  0.00    -0.203 F 
ATOM     88  F   UNL A   1      46.550  36.324  31.038  1.00  0.00    -0.200 F 
ATOM     89  C   UNL A   1      45.525  36.746  28.953  1.00  0.00     0.200 A 
ATOM     90  F   UNL A   1      44.472  37.124  26.875  1.00  0.00    -0.200 F 
ATOM     91  F   UNL A   1      45.940  38.020  28.992  1.00  0.00    -0.200 F 
ENDBRANCH  58  81
ENDBRANCH  32  33
ENDBRANCH  25  27
ENDBRANCH  24  25
ENDBRANCH  23  24
ENDBRANCH  22  23
ENDBRANCH  21  22
ENDBRANCH  20  21
ENDBRANCH   1  20
TORSDOF 21
ENDMDL
MODEL 2
REMARK VINA RESULT:     -10.1      0.883      2.201
REMARK SMILES CC[C@@H]1CCC[C@](CCCCCO)(C(=O)OCCOCCOC(=O)c2ccc(-c3c4nc(c(-c5c(F)c(F)c(F)c(F)c5F)c5ccc([nH]5)c(-c5c(F)c(F)c(F)c(F)c5F)c5nc(c(-c6c(F)c(F)c(F)c(F)c6F)c6ccc3[nH]6)C=C5)C=C4)cc2)C1
REMARK SMILES IDX 17 1 16 2 14 3 15 4 7 5 3 6 4 7 88 8 5 9 6 10 2 11 1 12 8 13
REMARK SMILES IDX 9 14 10 15 11 16 12 17 13 18 18 20 19 21 20 22 21 23 22 24
REMARK SMILES IDX 23 25 24 26 25 27 26 28 87 29 27 30 86 31 28 32 29 33 30 34
REMARK SMILES IDX 80 35 31 36 85 37 79 38 81 39 32 40 84 41 78 42 77 43 33 45
REMARK SMILES IDX 65 46 45 47 64 48 46 49 49 50 63 51 82 52 47 53 48 54 62 56
REMARK SMILES IDX 83 57 50 58 34 59 35 60 43 61 36 62 37 63 41 64 44 65 38 66
REMARK SMILES IDX 39 67 42 68 40 69 66 70 67 71 75 72 68 73 69 74 73 75 76 76
REMARK SMILES IDX 70 77 71 78 74 79 72 80 51 81 52 82 60 83 53 84 54 85 58 86
REMARK SMILES IDX 61 87 55 88 56 89 59 90 57 91
REMARK H PARENT 13 19 81 44 49 55
REMARK Flexibility Score: inf
ROOT
ATOM      1  C   UNL A   1      33.284  22.533  26.068  1.00  0.00     0.261 C 
ENDROOT
BRANCH   1   2
ATOM      2  O   UNL A   1      33.446  23.959  26.233  1.00  0.00    -0.463 OA
BRANCH   2   3
ATOM      3  C   UNL A   1      32.312  24.678  26.448  1.00  0.00     0.312 C 
ATOM      4  O   UNL A   1      31.420  24.332  27.217  1.00  0.00    -0.252 OA
BRANCH   3   5
ATOM      5  C   UNL A   1      32.269  26.024  25.673  1.00  0.00     0.068 C 
ATOM      6  C   UNL A   1      32.943  27.187  23.469  1.00  0.00    -0.010 C 
ATOM      7  C   UNL A   1      33.948  28.077  24.218  1.00  0.00     0.003 C 
ATOM      8  C   UNL A   1      32.744  25.852  24.202  1.00  0.00     0.022 C 
ATOM      9  C   UNL A   1      33.663  28.239  25.706  1.00  0.00     0.001 C 
ATOM     10  C   UNL A   1      33.284  26.941  26.403  1.00  0.00     0.019 C 
BRANCH   6  11
ATOM     11  C   UNL A   1      33.402  27.033  22.005  1.00  0.00     0.000 C 
ATOM     12  C   UNL A   1      32.903  25.770  21.319  1.00  0.00     0.004 C 
ENDBRANCH   6  11
BRANCH   5  13
ATOM     13  C   UNL A   1      30.760  26.454  25.733  1.00  0.00     0.019 C 
BRANCH  13  14
ATOM     14  C   UNL A   1      29.944  26.668  24.449  1.00  0.00     0.001 C 
BRANCH  14  15
ATOM     15  C   UNL A   1      29.748  28.110  23.966  1.00  0.00     0.002 C 
BRANCH  15  16
ATOM     16  C   UNL A   1      28.858  28.294  22.732  1.00  0.00     0.028 C 
BRANCH  16  17
ATOM     17  C   UNL A   1      27.709  29.273  22.931  1.00  0.00     0.156 C 
BRANCH  17  18
ATOM     18  O   UNL A   1      26.487  28.576  23.127  1.00  0.00    -0.396 OA
ATOM     19  H   UNL A   1      26.545  28.040  23.933  1.00  0.00     0.210 HD
ENDBRANCH  17  18
ENDBRANCH  16  17
ENDBRANCH  15  16
ENDBRANCH  14  15
ENDBRANCH  13  14
ENDBRANCH   5  13
ENDBRANCH   3   5
ENDBRANCH   2   3
ENDBRANCH   1   2
BRANCH   1  20
ATOM     20  C   UNL A   1      34.550  21.759  26.463  1.00  0.00     0.202 C 
BRANCH  20  21
ATOM     21  O   UNL A   1      35.197  21.041  25.409  1.00  0.00    -0.374 OA
BRANCH  21  22
ATOM     22  C   UNL A   1      36.142  21.792  24.649  1.00  0.00     0.202 C 
BRANCH  22  23
ATOM     23  C   UNL A   1      37.570  21.251  24.660  1.00  0.00     0.261 C 
BRANCH  23  24
ATOM     24  O   UNL A   1      38.104  21.328  25.992  1.00  0.00    -0.460 OA
BRANCH  24  25
ATOM     25  C   UNL A   1      39.446  21.452  26.032  1.00  0.00     0.338 C 
ATOM     26  O   UNL A   1      40.269  20.826  25.374  1.00  0.00    -0.246 OA
BRANCH  25  27
ATOM     27  C   UNL A   1      39.833  22.588  26.884  1.00  0.00     0.060 A 
ATOM     28  C   UNL A   1      39.107  23.771  26.705  1.00  0.00     0.016 A 
ATOM     29  C   UNL A   1      40.919  22.544  27.765  1.00  0.00     0.016 A 
ATOM     30  C   UNL A   1      39.533  24.944  27.313  1.00  0.00     0.010 A 
ATOM     31  C   UNL A   1      41.347  23.726  28.379  1.00  0.00     0.010 A 
ATOM     32  C   UNL A   1      40.695  24.940  28.094  1.00  0.00    -0.014 A 
BRANCH  32  33
ATOM     33  C   UNL A   1      41.330  26.247  28.384  1.00  0.00     0.031 A 
ATOM     34  C   UNL A   1      42.713  26.507  27.851  1.00  0.00     0.074 A 
ATOM     35  C   UNL A   1      40.641  27.226  28.992  1.00  0.00     0.049 A 
ATOM     36  N   UNL A   1      43.418  27.610  27.863  1.00  0.00    -0.248 NA
ATOM     37  C   UNL A   1      43.393  25.368  27.214  1.00  0.00     0.031 C 
ATOM     38  C   UNL A   1      39.285  27.100  29.520  1.00  0.00     0.029 A 
ATOM     39  N   UNL A   1      40.988  28.527  29.250  1.00  0.00    -0.354 N 
ATOM     40  C   UNL A   1      44.614  27.299  27.229  1.00  0.00     0.074 A 
ATOM     41  C   UNL A   1      44.563  25.893  26.891  1.00  0.00     0.031 C 
ATOM     42  C   UNL A   1      38.910  28.282  30.039  1.00  0.00     0.029 A 
ATOM     43  C   UNL A   1      40.005  29.240  29.886  1.00  0.00     0.049 A 
ATOM     44  H   UNL A   1      41.859  28.913  29.001  1.00  0.00     0.167 HD
ATOM     45  C   UNL A   1      45.654  28.114  26.934  1.00  0.00     0.037 A 
ATOM     46  C   UNL A   1      39.992  30.523  30.296  1.00  0.00     0.037 A 
ATOM     47  C   UNL A   1      45.705  29.511  27.277  1.00  0.00     0.049 A 
ATOM     48  C   UNL A   1      41.174  31.405  29.990  1.00  0.00     0.074 A 
ATOM     49  C   UNL A   1      46.713  30.426  27.034  1.00  0.00     0.029 A 
ATOM     50  N   UNL A   1      44.698  30.191  27.947  1.00  0.00    -0.354 N 
ATOM     51  N   UNL A   1      42.290  31.111  29.369  1.00  0.00    -0.248 NA
ATOM     52  C   UNL A   1      41.081  32.805  30.425  1.00  0.00     0.031 C 
ATOM     53  C   UNL A   1      46.335  31.650  27.597  1.00  0.00     0.029 A 
ATOM     54  C   UNL A   1      45.067  31.513  28.140  1.00  0.00     0.049 A 
ATOM     55  H   UNL A   1      43.847  29.795  28.241  1.00  0.00     0.167 HD
ATOM     56  C   UNL A   1      43.022  32.290  29.314  1.00  0.00     0.074 A 
ATOM     57  C   UNL A   1      42.213  33.309  29.952  1.00  0.00     0.031 C 
ATOM     58  C   UNL A   1      44.249  32.512  28.780  1.00  0.00     0.037 A 
BRANCH  45  59
ATOM     59  C   UNL A   1      46.827  27.496  26.229  1.00  0.00     0.064 A 
ATOM     60  C   UNL A   1      47.843  26.828  26.932  1.00  0.00     0.173 A 
ATOM     61  C   UNL A   1      46.946  27.585  24.834  1.00  0.00     0.173 A 
ATOM     62  F   UNL A   1      47.788  26.731  28.269  1.00  0.00    -0.203 F 
ATOM     63  C   UNL A   1      48.953  26.309  26.268  1.00  0.00     0.198 A 
ATOM     64  C   UNL A   1      48.041  27.037  24.171  1.00  0.00     0.198 A 
ATOM     65  F   UNL A   1      46.003  28.210  24.115  1.00  0.00    -0.203 F 
ATOM     66  F   UNL A   1      49.942  25.735  26.967  1.00  0.00    -0.200 F 
ATOM     67  C   UNL A   1      49.048  26.410  24.889  1.00  0.00     0.200 A 
ATOM     68  F   UNL A   1      48.128  27.128  22.837  1.00  0.00    -0.200 F 
ATOM     69  F   UNL A   1      50.119  25.917  24.252  1.00  0.00    -0.200 F 
ENDBRANCH  45  59
BRANCH  46  70
ATOM     70  C   UNL A   1      38.809  31.043  31.025  1.00  0.00     0.064 A 
ATOM     71  C   UNL A   1      38.708  30.949  32.420  1.00  0.00     0.173 A 
ATOM     72  C   UNL A   1      37.757  31.666  30.335  1.00  0.00     0.173 A 
ATOM     73  F   UNL A   1      39.679  30.344  33.120  1.00  0.00    -0.203 F 
ATOM     74  C   UNL A   1      37.597  31.448  33.095  1.00  0.00     0.198 A 
ATOM     75  C   UNL A   1      36.660  32.188  31.015  1.00  0.00     0.198 A 
ATOM     76  F   UNL A   1      37.807  31.784  29.001  1.00  0.00    -0.203 F 
ATOM     77  F   UNL A   1      37.510  31.316  34.426  1.00  0.00    -0.200 F 
ATOM     78  C   UNL A   1      36.578  32.074  32.394  1.00  0.00     0.200 A 
ATOM     79  F   UNL A   1      35.684  32.805  30.333  1.00  0.00    -0.200 F 
ATOM     80  F   UNL A   1      35.516  32.565  33.046  1.00  0.00    -0.200 F 
ENDBRANCH  46  70
BRANCH  58  81
ATOM     81  C   UNL A   1      44.776  33.917  28.835  1.00  0.00     0.064 A 
ATOM     82  C   UNL A   1      44.445  34.870  27.861  1.00  0.00     0.173 A 
ATOM     83  C   UNL A   1      45.608  34.322  29.892  1.00  0.00     0.173 A 
ATOM     84  F   UNL A   1      43.663  34.531  26.824  1.00  0.00    -0.203 F 
ATOM     85  C   UNL A   1      44.956  36.165  27.922  1.00  0.00     0.198 A 
ATOM     86  C   UNL A   1      46.091  35.625  29.967  1.00  0.00     0.198 A 
ATOM     87  F   UNL A   1      45.947  33.453  30.856  1.00  0.00    -0.203 F 
ATOM     88  F   UNL A   1      44.672  37.040  26.948  1.00  0.00    -0.200 F 
ATOM     89  C   UNL A   1      45.773  36.542  28.976  1.00  0.00     0.200 A 
ATOM     90  F   UNL A   1      46.869  35.991  30.994  1.00  0.00    -0.200 F 
ATOM     91  F   UNL A   1      46.264  37.787  29.032  1.00  0.00    -0.200 F 
ENDBRANCH  58  81
ENDBRANCH  32  33
ENDBRANCH  25  27
ENDBRANCH  24  25
ENDBRANCH  23  24
ENDBRANCH  22  23
ENDBRANCH  21  22
ENDBRANCH  20  21
ENDBRANCH   1  20
TORSDOF 21
ENDMDL
MODEL 3
REMARK VINA RESULT:     -10.1      4.326      9.965
REMARK SMILES CC[C@@H]1CCC[C@](CCCCCO)(C(=O)OCCOCCOC(=O)c2ccc(-c3c4nc(c(-c5c(F)c(F)c(F)c(F)c5F)c5ccc([nH]5)c(-c5c(F)c(F)c(F)c(F)c5F)c5nc(c(-c6c(F)c(F)c(F)c(F)c6F)c6ccc3[nH]6)C=C5)C=C4)cc2)C1
REMARK SMILES IDX 17 1 16 2 14 3 15 4 7 5 3 6 4 7 88 8 5 9 6 10 2 11 1 12 8 13
REMARK SMILES IDX 9 14 10 15 11 16 12 17 13 18 18 20 19 21 20 22 21 23 22 24
REMARK SMILES IDX 23 25 24 26 25 27 26 28 87 29 27 30 86 31 28 32 29 33 30 34
REMARK SMILES IDX 80 35 31 36 85 37 79 38 81 39 32 40 84 41 78 42 77 43 33 45
REMARK SMILES IDX 65 46 45 47 64 48 46 49 49 50 63 51 82 52 47 53 48 54 62 56
REMARK SMILES IDX 83 57 50 58 34 59 35 60 43 61 36 62 37 63 41 64 44 65 38 66
REMARK SMILES IDX 39 67 42 68 40 69 66 70 67 71 75 72 68 73 69 74 73 75 76 76
REMARK SMILES IDX 70 77 71 78 74 79 72 80 51 81 52 82 60 83 53 84 54 85 58 86
REMARK SMILES IDX 61 87 55 88 56 89 59 90 57 91
REMARK H PARENT 13 19 81 44 49 55
REMARK Flexibility Score: inf
ROOT
ATOM      1  C   UNL A   1      31.794  28.307  27.070  1.00  0.00     0.261 C 
ENDROOT
BRANCH   1   2
ATOM      2  O   UNL A   1      32.075  26.918  26.786  1.00  0.00    -0.463 OA
BRANCH   2   3
ATOM      3  C   UNL A   1      31.114  26.230  26.115  1.00  0.00     0.312 C 
ATOM      4  O   UNL A   1      30.010  25.969  26.582  1.00  0.00    -0.252 OA
BRANCH   3   5
ATOM      5  C   UNL A   1      31.516  25.851  24.662  1.00  0.00     0.068 C 
ATOM      6  C   UNL A   1      32.034  23.872  23.087  1.00  0.00    -0.010 C 
ATOM      7  C   UNL A   1      33.505  24.309  22.984  1.00  0.00     0.003 C 
ATOM      8  C   UNL A   1      31.425  24.316  24.425  1.00  0.00     0.022 C 
ATOM      9  C   UNL A   1      33.753  25.778  23.305  1.00  0.00     0.001 C 
ATOM     10  C   UNL A   1      33.002  26.272  24.533  1.00  0.00     0.019 C 
BRANCH   6  11
ATOM     11  C   UNL A   1      31.942  22.354  22.832  1.00  0.00     0.000 C 
ATOM     12  C   UNL A   1      32.557  21.494  23.926  1.00  0.00     0.004 C 
ENDBRANCH   6  11
BRANCH   5  13
ATOM     13  C   UNL A   1      30.483  26.623  23.764  1.00  0.00     0.019 C 
BRANCH  13  14
ATOM     14  C   UNL A   1      30.250  28.131  23.941  1.00  0.00     0.001 C 
BRANCH  14  15
ATOM     15  C   UNL A   1      30.026  28.966  22.675  1.00  0.00     0.002 C 
BRANCH  15  16
ATOM     16  C   UNL A   1      29.176  30.231  22.842  1.00  0.00     0.028 C 
BRANCH  16  17
ATOM     17  C   UNL A   1      27.762  29.970  23.343  1.00  0.00     0.156 C 
BRANCH  17  18
ATOM     18  O   UNL A   1      26.986  29.332  22.339  1.00  0.00    -0.396 OA
ATOM     19  H   UNL A   1      26.208  28.919  22.745  1.00  0.00     0.210 HD
ENDBRANCH  17  18
ENDBRANCH  16  17
ENDBRANCH  15  16
ENDBRANCH  14  15
ENDBRANCH  13  14
ENDBRANCH   5  13
ENDBRANCH   3   5
ENDBRANCH   2   3
ENDBRANCH   1   2
BRANCH   1  20
ATOM     20  C   UNL A   1      32.973  29.220  26.705  1.00  0.00     0.202 C 
BRANCH  20  21
ATOM     21  O   UNL A   1      32.630  30.462  26.082  1.00  0.00    -0.374 OA
BRANCH  21  22
ATOM     22  C   UNL A   1      31.506  31.136  26.644  1.00  0.00     0.202 C 
BRANCH  22  23
ATOM     23  C   UNL A   1      31.791  32.524  27.213  1.00  0.00     0.261 C 
BRANCH  23  24
ATOM     24  O   UNL A   1      33.182  32.840  27.034  1.00  0.00    -0.460 OA
BRANCH  24  25
ATOM     25  C   UNL A   1      33.790  33.268  28.160  1.00  0.00     0.338 C 
ATOM     26  O   UNL A   1      33.303  33.954  29.051  1.00  0.00    -0.246 OA
BRANCH  25  27
ATOM     27  C   UNL A   1      35.126  32.663  28.285  1.00  0.00     0.060 A 
ATOM     28  C   UNL A   1      35.162  31.288  28.542  1.00  0.00     0.016 A 
ATOM     29  C   UNL A   1      36.307  33.413  28.244  1.00  0.00     0.016 A 
ATOM     30  C   UNL A   1      36.362  30.677  28.877  1.00  0.00     0.010 A 
ATOM     31  C   UNL A   1      37.518  32.795  28.579  1.00  0.00     0.010 A 
ATOM     32  C   UNL A   1      37.531  31.442  28.966  1.00  0.00    -0.014 A 
BRANCH  32  33
ATOM     33  C   UNL A   1      38.678  30.858  29.699  1.00  0.00     0.031 A 
ATOM     34  C   UNL A   1      38.853  31.206  31.153  1.00  0.00     0.074 A 
ATOM     35  C   UNL A   1      39.466  29.937  29.122  1.00  0.00     0.049 A 
ATOM     36  N   UNL A   1      39.695  30.723  32.031  1.00  0.00    -0.248 NA
ATOM     37  C   UNL A   1      37.951  32.236  31.692  1.00  0.00     0.031 C 
ATOM     38  C   UNL A   1      39.370  29.497  27.732  1.00  0.00     0.029 A 
ATOM     39  N   UNL A   1      40.493  29.193  29.644  1.00  0.00    -0.354 N 
ATOM     40  C   UNL A   1      39.418  31.383  33.221  1.00  0.00     0.074 A 
ATOM     41  C   UNL A   1      38.366  32.336  32.943  1.00  0.00     0.031 C 
ATOM     42  C   UNL A   1      40.301  28.554  27.510  1.00  0.00     0.029 A 
ATOM     43  C   UNL A   1      41.062  28.334  28.740  1.00  0.00     0.049 A 
ATOM     44  H   UNL A   1      40.792  29.269  30.579  1.00  0.00     0.167 HD
ATOM     45  C   UNL A   1      39.972  31.197  34.443  1.00  0.00     0.037 A 
ATOM     46  C   UNL A   1      42.081  27.467  28.892  1.00  0.00     0.037 A 
ATOM     47  C   UNL A   1      41.023  30.252  34.715  1.00  0.00     0.049 A 
ATOM     48  C   UNL A   1      42.710  27.300  30.251  1.00  0.00     0.074 A 
ATOM     49  C   UNL A   1      41.663  29.990  35.912  1.00  0.00     0.029 A 
ATOM     50  N   UNL A   1      41.593  29.416  33.764  1.00  0.00    -0.354 N 
ATOM     51  N   UNL A   1      42.426  27.909  31.376  1.00  0.00    -0.248 NA
ATOM     52  C   UNL A   1      43.787  26.308  30.361  1.00  0.00     0.031 C 
ATOM     53  C   UNL A   1      42.650  29.026  35.677  1.00  0.00     0.029 A 
ATOM     54  C   UNL A   1      42.588  28.647  34.345  1.00  0.00     0.049 A 
ATOM     55  H   UNL A   1      41.329  29.375  32.817  1.00  0.00     0.167 HD
ATOM     56  C   UNL A   1      43.267  27.358  32.334  1.00  0.00     0.074 A 
ATOM     57  C   UNL A   1      44.062  26.353  31.658  1.00  0.00     0.031 C 
ATOM     58  C   UNL A   1      43.370  27.653  33.654  1.00  0.00     0.037 A 
BRANCH  45  59
ATOM     59  C   UNL A   1      39.463  32.060  35.561  1.00  0.00     0.064 A 
ATOM     60  C   UNL A   1      39.931  33.369  35.756  1.00  0.00     0.173 A 
ATOM     61  C   UNL A   1      38.507  31.566  36.461  1.00  0.00     0.173 A 
ATOM     62  F   UNL A   1      40.860  33.883  34.936  1.00  0.00    -0.203 F 
ATOM     63  C   UNL A   1      39.490  34.137  36.832  1.00  0.00     0.198 A 
ATOM     64  C   UNL A   1      38.045  32.348  37.517  1.00  0.00     0.198 A 
ATOM     65  F   UNL A   1      38.026  30.322  36.320  1.00  0.00    -0.203 F 
ATOM     66  F   UNL A   1      40.000  35.359  37.035  1.00  0.00    -0.200 F 
ATOM     67  C   UNL A   1      38.544  33.626  37.708  1.00  0.00     0.200 A 
ATOM     68  F   UNL A   1      37.125  31.857  38.358  1.00  0.00    -0.200 F 
ATOM     69  F   UNL A   1      38.126  34.363  38.747  1.00  0.00    -0.200 F 
ENDBRANCH  45  59
BRANCH  46  70
ATOM     70  C   UNL A   1      42.551  26.683  27.723  1.00  0.00     0.064 A 
ATOM     71  C   UNL A   1      43.514  27.191  26.840  1.00  0.00     0.173 A 
ATOM     72  C   UNL A   1      42.055  25.394  27.477  1.00  0.00     0.173 A 
ATOM     73  F   UNL A   1      44.002  28.427  27.023  1.00  0.00    -0.203 F 
ATOM     74  C   UNL A   1      43.955  26.444  25.751  1.00  0.00     0.198 A 
ATOM     75  C   UNL A   1      42.517  24.638  26.402  1.00  0.00     0.198 A 
ATOM     76  F   UNL A   1      41.135  24.861  28.294  1.00  0.00    -0.203 F 
ATOM     77  F   UNL A   1      44.852  26.966  24.902  1.00  0.00    -0.200 F 
ATOM     78  C   UNL A   1      43.463  25.165  25.537  1.00  0.00     0.200 A 
ATOM     79  F   UNL A   1      42.048  23.397  26.209  1.00  0.00    -0.200 F 
ATOM     80  F   UNL A   1      43.897  24.443  24.496  1.00  0.00    -0.200 F 
ENDBRANCH  46  70
BRANCH  58  81
ATOM     81  C   UNL A   1      44.356  26.856  34.459  1.00  0.00     0.064 A 
ATOM     82  C   UNL A   1      44.007  25.636  35.058  1.00  0.00     0.173 A 
ATOM     83  C   UNL A   1      45.676  27.309  34.615  1.00  0.00     0.173 A 
ATOM     84  F   UNL A   1      42.756  25.164  34.948  1.00  0.00    -0.203 F 
ATOM     85  C   UNL A   1      44.932  24.918  35.813  1.00  0.00     0.198 A 
ATOM     86  C   UNL A   1      46.606  26.574  35.344  1.00  0.00     0.198 A 
ATOM     87  F   UNL A   1      46.065  28.465  34.056  1.00  0.00    -0.203 F 
ATOM     88  F   UNL A   1      44.560  23.784  36.422  1.00  0.00    -0.200 F 
ATOM     89  C   UNL A   1      46.230  25.385  35.951  1.00  0.00     0.200 A 
ATOM     90  F   UNL A   1      47.863  27.019  35.465  1.00  0.00    -0.200 F 
ATOM     91  F   UNL A   1      47.118  24.693  36.679  1.00  0.00    -0.200 F 
ENDBRANCH  58  81
ENDBRANCH  32  33
ENDBRANCH  25  27
ENDBRANCH  24  25
ENDBRANCH  23  24
ENDBRANCH  22  23
ENDBRANCH  21  22
ENDBRANCH  20  21
ENDBRANCH   1  20
TORSDOF 21
ENDMDL
