MODEL 1
REMARK VINA RESULT:     -13.1      0.000      0.000
REMARK SMILES Cc1ccc(S(=O)(=O)n2cc(C(=O)C(=O)NCC(=O)N[C@@H](Cc3c[nH]c4ccccc34)C(=O)OCCOCCOC(=O)c3ccc(-c4c5nc(c(-c6c(F)c(F)c(F)c(F)c6F)c6ccc([nH]6)c(-c6c(F)c(F)c(F)c(F)c6F)c6nc(c(-c7c(F)c(F)c(F)c(F)c7F)c7ccc4[nH]7)C=C6)C=C5)cc3)c3ccccc32)cc1
REMARK SMILES IDX 35 1 34 2 32 3 33 4 21 5 20 6 18 7 19 8 17 10 16 11 14 12
REMARK SMILES IDX 15 13 12 15 13 16 11 17 9 18 10 19 111 20 106 21 110 22
REMARK SMILES IDX 107 23 109 24 108 25 6 26 7 27 8 28 5 29 1 30 2 31 3 32
REMARK SMILES IDX 113 33 4 34 112 35 22 36 23 37 24 38 31 39 25 40 26 41 30 42
REMARK SMILES IDX 27 44 29 45 28 46 36 47 37 48 38 49 39 50 40 51 41 52 42 53
REMARK SMILES IDX 43 54 44 55 105 56 45 57 104 58 46 59 47 60 48 61 98 62
REMARK SMILES IDX 49 63 103 64 97 65 99 66 50 67 102 68 96 69 95 70 51 72
REMARK SMILES IDX 83 73 63 74 82 75 64 76 67 77 81 78 100 79 65 80 66 81 80 83
REMARK SMILES IDX 101 84 68 85 52 86 53 87 61 88 54 89 55 90 59 91 62 92 56 93
REMARK SMILES IDX 57 94 60 95 58 96 84 97 85 98 93 99 86 100 87 101 91 102
REMARK SMILES IDX 94 103 88 104 89 105 92 106 90 107 69 108 70 109 78 110
REMARK SMILES IDX 71 111 72 112 76 113 79 114 73 115 74 116 77 117 75 118
REMARK H PARENT 20 9 16 14 25 43 99 71 67 82
REMARK Flexibility Score: inf
ROOT
ATOM      1  C   UNL A   1      34.422  31.213  27.262  1.00  0.00     0.261 C 
ENDROOT
BRANCH   1   2
ATOM      2  O   UNL A   1      33.313  30.430  26.850  1.00  0.00    -0.462 OA
BRANCH   2   3
ATOM      3  C   UNL A   1      33.465  29.096  26.666  1.00  0.00     0.329 C 
ATOM      4  O   UNL A   1      34.399  28.405  27.059  1.00  0.00    -0.250 OA
BRANCH   3   5
ATOM      5  C   UNL A   1      32.302  28.577  25.837  1.00  0.00     0.196 C 
BRANCH   5   6
ATOM      6  N   UNL A   1      31.603  27.532  26.597  1.00  0.00    -0.341 N 
ATOM      7  C   UNL A   1      30.919  26.447  26.141  1.00  0.00     0.240 C 
ATOM      8  O   UNL A   1      30.877  25.462  26.885  1.00  0.00    -0.273 OA
ATOM      9  H   UNL A   1      31.634  27.630  27.576  1.00  0.00     0.164 HD
BRANCH   7  10
ATOM     10  C   UNL A   1      30.353  26.377  24.711  1.00  0.00     0.216 C 
BRANCH  10  11
ATOM     11  N   UNL A   1      29.978  25.043  24.244  1.00  0.00    -0.340 N 
ATOM     12  C   UNL A   1      30.708  24.155  23.463  1.00  0.00     0.292 C 
ATOM     13  O   UNL A   1      30.171  23.158  22.994  1.00  0.00    -0.265 OA
ATOM     14  H   UNL A   1      29.086  24.731  24.522  1.00  0.00     0.164 HD
BRANCH  12  15
ATOM     15  C   UNL A   1      32.190  24.432  23.190  1.00  0.00     0.252 C 
ATOM     16  O   UNL A   1      32.419  25.135  22.203  1.00  0.00    -0.283 OA
BRANCH  15  17
ATOM     17  C   UNL A   1      33.285  23.826  23.968  1.00  0.00     0.054 A 
ATOM     18  N   UNL A   1      35.166  23.358  25.156  1.00  0.00    -0.240 N 
ATOM     19  C   UNL A   1      34.411  24.391  24.585  1.00  0.00     0.117 A 
ATOM     20  C   UNL A   1      34.345  22.210  25.155  1.00  0.00     0.065 A 
ATOM     21  C   UNL A   1      33.433  22.411  24.123  1.00  0.00     0.012 A 
ATOM     22  C   UNL A   1      34.577  20.928  25.691  1.00  0.00     0.028 A 
ATOM     23  C   UNL A   1      32.877  21.280  23.488  1.00  0.00     0.011 A 
ATOM     24  C   UNL A   1      34.109  19.828  24.974  1.00  0.00     0.002 A 
ATOM     25  C   UNL A   1      33.297  20.001  23.864  1.00  0.00     0.001 A 
BRANCH  18  26
ATOM     26  S   UNL A   1      36.794  22.905  24.662  1.00  0.00     0.268 S 
ATOM     27  O   UNL A   1      37.565  24.104  24.951  1.00  0.00    -0.201 OA
ATOM     28  O   UNL A   1      36.578  22.456  23.291  1.00  0.00    -0.201 OA
BRANCH  26  29
ATOM     29  C   UNL A   1      37.793  21.580  25.230  1.00  0.00     0.088 A 
ATOM     30  C   UNL A   1      41.246  19.264  26.414  1.00  0.00     0.044 C 
ATOM     31  C   UNL A   1      39.991  20.018  26.070  1.00  0.00    -0.051 A 
ATOM     32  C   UNL A   1      39.951  21.364  26.396  1.00  0.00     0.005 A 
ATOM     33  C   UNL A   1      38.911  19.457  25.349  1.00  0.00     0.005 A 
ATOM     34  C   UNL A   1      38.862  22.116  25.999  1.00  0.00     0.022 A 
ATOM     35  C   UNL A   1      37.803  20.235  24.913  1.00  0.00     0.022 A 
ENDBRANCH  26  29
ENDBRANCH  18  26
ENDBRANCH  15  17
ENDBRANCH  12  15
ENDBRANCH  10  11
ENDBRANCH   7  10
ENDBRANCH   5   6
BRANCH   5  36
ATOM     36  C   UNL A   1      31.379  29.701  25.373  1.00  0.00     0.074 C 
BRANCH  36  37
ATOM     37  C   UNL A   1      31.003  29.804  23.916  1.00  0.00    -0.020 A 
ATOM     38  C   UNL A   1      31.621  29.308  22.784  1.00  0.00     0.087 A 
ATOM     39  C   UNL A   1      29.827  30.485  23.445  1.00  0.00     0.003 A 
ATOM     40  N   UNL A   1      30.858  29.608  21.691  1.00  0.00    -0.361 N 
ATOM     41  C   UNL A   1      29.731  30.280  22.071  1.00  0.00     0.046 A 
ATOM     42  C   UNL A   1      28.821  31.245  24.074  1.00  0.00     0.010 A 
ATOM     43  H   UNL A   1      31.086  29.373  20.762  1.00  0.00     0.166 HD
ATOM     44  C   UNL A   1      28.656  30.723  21.299  1.00  0.00     0.026 A 
ATOM     45  C   UNL A   1      27.761  31.745  23.308  1.00  0.00     0.001 A 
ATOM     46  C   UNL A   1      27.671  31.468  21.946  1.00  0.00     0.002 A 
ENDBRANCH  36  37
ENDBRANCH   5  36
ENDBRANCH   3   5
ENDBRANCH   2   3
ENDBRANCH   1   2
BRANCH   1  47
ATOM     47  C   UNL A   1      34.035  31.995  28.467  1.00  0.00     0.202 C 
BRANCH  47  48
ATOM     48  O   UNL A   1      33.422  33.179  27.990  1.00  0.00    -0.374 OA
BRANCH  48  49
ATOM     49  C   UNL A   1      33.587  34.287  28.864  1.00  0.00     0.202 C 
BRANCH  49  50
ATOM     50  C   UNL A   1      34.640  34.070  29.969  1.00  0.00     0.261 C 
BRANCH  50  51
ATOM     51  O   UNL A   1      33.980  33.621  31.171  1.00  0.00    -0.460 OA
BRANCH  51  52
ATOM     52  C   UNL A   1      34.134  34.396  32.279  1.00  0.00     0.338 C 
ATOM     53  O   UNL A   1      33.436  35.348  32.585  1.00  0.00    -0.246 OA
BRANCH  52  54
ATOM     54  C   UNL A   1      35.473  34.125  32.883  1.00  0.00     0.060 A 
ATOM     55  C   UNL A   1      36.592  34.866  32.461  1.00  0.00     0.016 A 
ATOM     56  C   UNL A   1      35.657  32.935  33.581  1.00  0.00     0.016 A 
ATOM     57  C   UNL A   1      37.878  34.319  32.563  1.00  0.00     0.010 A 
ATOM     58  C   UNL A   1      36.910  32.363  33.590  1.00  0.00     0.010 A 
ATOM     59  C   UNL A   1      38.015  33.015  33.016  1.00  0.00    -0.014 A 
BRANCH  59  60
ATOM     60  C   UNL A   1      39.227  32.191  32.939  1.00  0.00     0.031 A 
ATOM     61  C   UNL A   1      39.126  30.980  32.098  1.00  0.00     0.074 A 
ATOM     62  C   UNL A   1      40.434  32.631  33.383  1.00  0.00     0.049 A 
ATOM     63  N   UNL A   1      40.084  30.152  31.908  1.00  0.00    -0.248 NA
ATOM     64  C   UNL A   1      37.903  30.585  31.405  1.00  0.00     0.031 C 
ATOM     65  C   UNL A   1      41.776  32.160  33.021  1.00  0.00     0.029 A 
ATOM     66  N   UNL A   1      40.731  33.626  34.335  1.00  0.00    -0.354 N 
ATOM     67  C   UNL A   1      39.722  29.280  30.911  1.00  0.00     0.074 A 
ATOM     68  C   UNL A   1      38.326  29.539  30.692  1.00  0.00     0.031 C 
ATOM     69  C   UNL A   1      42.661  32.568  33.952  1.00  0.00     0.029 A 
ATOM     70  C   UNL A   1      41.892  33.215  35.005  1.00  0.00     0.049 A 
ATOM     71  H   UNL A   1      40.221  34.452  34.499  1.00  0.00     0.167 HD
ATOM     72  C   UNL A   1      40.713  28.522  30.363  1.00  0.00     0.037 A 
ATOM     73  C   UNL A   1      41.848  32.896  36.325  1.00  0.00     0.037 A 
ATOM     74  C   UNL A   1      41.916  28.612  31.215  1.00  0.00     0.049 A 
ATOM     75  C   UNL A   1      42.229  31.456  36.429  1.00  0.00     0.074 A 
ATOM     76  C   UNL A   1      43.128  29.275  31.113  1.00  0.00     0.029 A 
ATOM     77  N   UNL A   1      41.792  28.251  32.564  1.00  0.00    -0.354 N 
ATOM     78  N   UNL A   1      41.930  30.575  35.505  1.00  0.00    -0.248 NA
ATOM     79  C   UNL A   1      43.177  30.966  37.420  1.00  0.00     0.031 C 
ATOM     80  C   UNL A   1      43.674  29.394  32.431  1.00  0.00     0.029 A 
ATOM     81  C   UNL A   1      42.809  28.786  33.333  1.00  0.00     0.049 A 
ATOM     82  H   UNL A   1      41.068  27.686  32.920  1.00  0.00     0.167 HD
ATOM     83  C   UNL A   1      42.752  29.500  35.666  1.00  0.00     0.074 A 
ATOM     84  C   UNL A   1      43.467  29.757  36.909  1.00  0.00     0.031 C 
ATOM     85  C   UNL A   1      42.897  28.491  34.762  1.00  0.00     0.037 A 
BRANCH  72  86
ATOM     86  C   UNL A   1      40.646  27.781  29.036  1.00  0.00     0.064 A 
ATOM     87  C   UNL A   1      39.789  26.667  28.887  1.00  0.00     0.173 A 
ATOM     88  C   UNL A   1      41.401  28.074  27.879  1.00  0.00     0.173 A 
ATOM     89  F   UNL A   1      39.069  26.199  29.916  1.00  0.00    -0.203 F 
ATOM     90  C   UNL A   1      39.650  25.972  27.677  1.00  0.00     0.198 A 
ATOM     91  C   UNL A   1      41.265  27.381  26.672  1.00  0.00     0.198 A 
ATOM     92  F   UNL A   1      42.316  29.039  27.839  1.00  0.00    -0.203 F 
ATOM     93  F   UNL A   1      38.810  24.930  27.603  1.00  0.00    -0.200 F 
ATOM     94  C   UNL A   1      40.370  26.346  26.562  1.00  0.00     0.200 A 
ATOM     95  F   UNL A   1      42.006  27.741  25.612  1.00  0.00    -0.200 F 
ATOM     96  F   UNL A   1      40.205  25.718  25.391  1.00  0.00    -0.200 F 
ENDBRANCH  72  86
BRANCH  73  97
ATOM     97  C   UNL A   1      40.855  33.723  37.081  1.00  0.00     0.064 A 
ATOM     98  C   UNL A   1      39.679  33.050  37.467  1.00  0.00     0.173 A 
ATOM     99  C   UNL A   1      41.214  34.828  37.858  1.00  0.00     0.173 A 
ATOM    100  F   UNL A   1      39.185  32.085  36.681  1.00  0.00    -0.203 F 
ATOM    101  C   UNL A   1      39.062  33.278  38.698  1.00  0.00     0.198 A 
ATOM    102  C   UNL A   1      40.537  35.115  39.057  1.00  0.00     0.198 A 
ATOM    103  F   UNL A   1      42.293  35.556  37.541  1.00  0.00    -0.203 F 
ATOM    104  F   UNL A   1      38.085  32.459  39.117  1.00  0.00    -0.200 F 
ATOM    105  C   UNL A   1      39.521  34.289  39.515  1.00  0.00     0.200 A 
ATOM    106  F   UNL A   1      40.934  36.143  39.821  1.00  0.00    -0.200 F 
ATOM    107  F   UNL A   1      39.013  34.446  40.746  1.00  0.00    -0.200 F 
ENDBRANCH  73  97
BRANCH  85 108
ATOM    108  C   UNL A   1      43.149  27.081  35.219  1.00  0.00     0.064 A 
ATOM    109  C   UNL A   1      42.145  26.093  35.223  1.00  0.00     0.173 A 
ATOM    110  C   UNL A   1      44.465  26.622  35.442  1.00  0.00     0.173 A 
ATOM    111  F   UNL A   1      40.873  26.376  34.908  1.00  0.00    -0.203 F 
ATOM    112  C   UNL A   1      42.428  24.758  35.485  1.00  0.00     0.198 A 
ATOM    113  C   UNL A   1      44.752  25.274  35.625  1.00  0.00     0.198 A 
ATOM    114  F   UNL A   1      45.515  27.456  35.437  1.00  0.00    -0.203 F 
ATOM    115  F   UNL A   1      41.428  23.867  35.520  1.00  0.00    -0.200 F 
ATOM    116  C   UNL A   1      43.732  24.344  35.665  1.00  0.00     0.200 A 
ATOM    117  F   UNL A   1      46.028  24.877  35.728  1.00  0.00    -0.200 F 
ATOM    118  F   UNL A   1      44.008  23.048  35.852  1.00  0.00    -0.200 F 
ENDBRANCH  85 108
ENDBRANCH  59  60
ENDBRANCH  52  54
ENDBRANCH  51  52
ENDBRANCH  50  51
ENDBRANCH  49  50
ENDBRANCH  48  49
ENDBRANCH  47  48
ENDBRANCH   1  47
TORSDOF 23
ENDMDL
MODEL 2
REMARK VINA RESULT:     -13.0      4.528      9.705
REMARK SMILES Cc1ccc(S(=O)(=O)n2cc(C(=O)C(=O)NCC(=O)N[C@@H](Cc3c[nH]c4ccccc34)C(=O)OCCOCCOC(=O)c3ccc(-c4c5nc(c(-c6c(F)c(F)c(F)c(F)c6F)c6ccc([nH]6)c(-c6c(F)c(F)c(F)c(F)c6F)c6nc(c(-c7c(F)c(F)c(F)c(F)c7F)c7ccc4[nH]7)C=C6)C=C5)cc3)c3ccccc32)cc1
REMARK SMILES IDX 35 1 34 2 32 3 33 4 21 5 20 6 18 7 19 8 17 10 16 11 14 12
REMARK SMILES IDX 15 13 12 15 13 16 11 17 9 18 10 19 111 20 106 21 110 22
REMARK SMILES IDX 107 23 109 24 108 25 6 26 7 27 8 28 5 29 1 30 2 31 3 32
REMARK SMILES IDX 113 33 4 34 112 35 22 36 23 37 24 38 31 39 25 40 26 41 30 42
REMARK SMILES IDX 27 44 29 45 28 46 36 47 37 48 38 49 39 50 40 51 41 52 42 53
REMARK SMILES IDX 43 54 44 55 105 56 45 57 104 58 46 59 47 60 48 61 98 62
REMARK SMILES IDX 49 63 103 64 97 65 99 66 50 67 102 68 96 69 95 70 51 72
REMARK SMILES IDX 83 73 63 74 82 75 64 76 67 77 81 78 100 79 65 80 66 81 80 83
REMARK SMILES IDX 101 84 68 85 52 86 53 87 61 88 54 89 55 90 59 91 62 92 56 93
REMARK SMILES IDX 57 94 60 95 58 96 84 97 85 98 93 99 86 100 87 101 91 102
REMARK SMILES IDX 94 103 88 104 89 105 92 106 90 107 69 108 70 109 78 110
REMARK SMILES IDX 71 111 72 112 76 113 79 114 73 115 74 116 77 117 75 118
REMARK H PARENT 20 9 16 14 25 43 99 71 67 82
REMARK Flexibility Score: inf
ROOT
ATOM      1  C   UNL A   1      37.896  29.015  28.790  1.00  0.00     0.261 C 
ENDROOT
BRANCH   1   2
ATOM      2  O   UNL A   1      36.587  29.560  28.727  1.00  0.00    -0.462 OA
BRANCH   2   3
ATOM      3  C   UNL A   1      36.417  30.856  28.372  1.00  0.00     0.329 C 
ATOM      4  O   UNL A   1      37.289  31.716  28.299  1.00  0.00    -0.250 OA
BRANCH   3   5
ATOM      5  C   UNL A   1      34.941  31.107  28.117  1.00  0.00     0.196 C 
BRANCH   5   6
ATOM      6  N   UNL A   1      34.230  29.822  28.123  1.00  0.00    -0.341 N 
ATOM      7  C   UNL A   1      33.491  29.240  27.138  1.00  0.00     0.240 C 
ATOM      8  O   UNL A   1      33.438  28.006  27.137  1.00  0.00    -0.273 OA
ATOM      9  H   UNL A   1      34.297  29.306  28.960  1.00  0.00     0.164 HD
BRANCH   7  10
ATOM     10  C   UNL A   1      32.875  30.056  25.987  1.00  0.00     0.216 C 
BRANCH  10  11
ATOM     11  N   UNL A   1      33.360  29.726  24.648  1.00  0.00    -0.340 N 
ATOM     12  C   UNL A   1      32.806  28.867  23.706  1.00  0.00     0.292 C 
ATOM     13  O   UNL A   1      33.443  28.549  22.708  1.00  0.00    -0.265 OA
ATOM     14  H   UNL A   1      34.194  30.175  24.376  1.00  0.00     0.164 HD
BRANCH  12  15
ATOM     15  C   UNL A   1      31.393  28.318  23.925  1.00  0.00     0.252 C 
ATOM     16  O   UNL A   1      30.484  29.143  23.808  1.00  0.00    -0.283 OA
BRANCH  15  17
ATOM     17  C   UNL A   1      31.118  26.934  24.352  1.00  0.00     0.054 A 
ATOM     18  N   UNL A   1      30.506  25.023  25.421  1.00  0.00    -0.240 N 
ATOM     19  C   UNL A   1      30.436  26.422  25.465  1.00  0.00     0.117 A 
ATOM     20  C   UNL A   1      30.958  24.682  24.128  1.00  0.00     0.065 A 
ATOM     21  C   UNL A   1      31.666  25.794  23.681  1.00  0.00     0.012 A 
ATOM     22  C   UNL A   1      31.119  23.418  23.528  1.00  0.00     0.028 A 
ATOM     23  C   UNL A   1      32.693  25.599  22.734  1.00  0.00     0.011 A 
ATOM     24  C   UNL A   1      32.213  23.233  22.684  1.00  0.00     0.002 A 
ATOM     25  C   UNL A   1      33.013  24.304  22.318  1.00  0.00     0.001 A 
BRANCH  18  26
ATOM     26  S   UNL A   1      31.331  24.016  26.607  1.00  0.00     0.268 S 
ATOM     27  O   UNL A   1      30.276  23.128  27.069  1.00  0.00    -0.201 OA
ATOM     28  O   UNL A   1      31.922  25.015  27.491  1.00  0.00    -0.201 OA
BRANCH  26  29
ATOM     29  C   UNL A   1      32.730  22.978  26.394  1.00  0.00     0.088 A 
ATOM     30  C   UNL A   1      36.557  21.479  25.054  1.00  0.00     0.044 C 
ATOM     31  C   UNL A   1      35.240  21.952  25.607  1.00  0.00    -0.051 A 
ATOM     32  C   UNL A   1      35.114  23.306  25.871  1.00  0.00     0.005 A 
ATOM     33  C   UNL A   1      34.112  21.115  25.769  1.00  0.00     0.005 A 
ATOM     34  C   UNL A   1      33.887  23.796  26.276  1.00  0.00     0.022 A 
ATOM     35  C   UNL A   1      32.840  21.621  26.156  1.00  0.00     0.022 A 
ENDBRANCH  26  29
ENDBRANCH  18  26
ENDBRANCH  15  17
ENDBRANCH  12  15
ENDBRANCH  10  11
ENDBRANCH   7  10
ENDBRANCH   5   6
BRANCH   5  36
ATOM     36  C   UNL A   1      34.352  32.124  29.091  1.00  0.00     0.074 C 
BRANCH  36  37
ATOM     37  C   UNL A   1      34.333  33.587  28.723  1.00  0.00    -0.020 A 
ATOM     38  C   UNL A   1      34.662  34.227  27.545  1.00  0.00     0.087 A 
ATOM     39  C   UNL A   1      33.917  34.628  29.624  1.00  0.00     0.003 A 
ATOM     40  N   UNL A   1      34.416  35.565  27.679  1.00  0.00    -0.361 N 
ATOM     41  C   UNL A   1      33.911  35.829  28.921  1.00  0.00     0.046 A 
ATOM     42  C   UNL A   1      33.525  34.649  30.977  1.00  0.00     0.010 A 
ATOM     43  H   UNL A   1      34.578  36.242  26.982  1.00  0.00     0.166 HD
ATOM     44  C   UNL A   1      33.468  37.037  29.463  1.00  0.00     0.026 A 
ATOM     45  C   UNL A   1      33.128  35.860  31.556  1.00  0.00     0.001 A 
ATOM     46  C   UNL A   1      33.080  37.030  30.802  1.00  0.00     0.002 A 
ENDBRANCH  36  37
ENDBRANCH   5  36
ENDBRANCH   3   5
ENDBRANCH   2   3
ENDBRANCH   1   2
BRANCH   1  47
ATOM     47  C   UNL A   1      38.084  28.373  30.119  1.00  0.00     0.202 C 
BRANCH  47  48
ATOM     48  O   UNL A   1      39.046  27.350  29.932  1.00  0.00    -0.374 OA
BRANCH  48  49
ATOM     49  C   UNL A   1      39.300  27.062  28.564  1.00  0.00     0.202 C 
BRANCH  49  50
ATOM     50  C   UNL A   1      39.720  25.603  28.293  1.00  0.00     0.261 C 
BRANCH  50  51
ATOM     51  O   UNL A   1      41.144  25.474  28.495  1.00  0.00    -0.460 OA
BRANCH  51  52
ATOM     52  C   UNL A   1      41.944  25.832  27.454  1.00  0.00     0.338 C 
ATOM     53  O   UNL A   1      42.093  25.202  26.421  1.00  0.00    -0.246 OA
BRANCH  52  54
ATOM     54  C   UNL A   1      42.864  26.922  27.897  1.00  0.00     0.060 A 
ATOM     55  C   UNL A   1      43.307  26.963  29.231  1.00  0.00     0.016 A 
ATOM     56  C   UNL A   1      42.986  28.053  27.095  1.00  0.00     0.016 A 
ATOM     57  C   UNL A   1      43.683  28.182  29.812  1.00  0.00     0.010 A 
ATOM     58  C   UNL A   1      43.264  29.261  27.696  1.00  0.00     0.010 A 
ATOM     59  C   UNL A   1      43.541  29.346  29.071  1.00  0.00    -0.014 A 
BRANCH  59  60
ATOM     60  C   UNL A   1      43.624  30.719  29.585  1.00  0.00     0.031 A 
ATOM     61  C   UNL A   1      42.347  31.313  30.035  1.00  0.00     0.074 A 
ATOM     62  C   UNL A   1      44.810  31.314  29.878  1.00  0.00     0.049 A 
ATOM     63  N   UNL A   1      42.232  32.492  30.520  1.00  0.00    -0.248 NA
ATOM     64  C   UNL A   1      41.066  30.616  29.953  1.00  0.00     0.031 C 
ATOM     65  C   UNL A   1      45.073  32.456  30.762  1.00  0.00     0.029 A 
ATOM     66  N   UNL A   1      46.101  31.029  29.392  1.00  0.00    -0.354 N 
ATOM     67  C   UNL A   1      40.967  32.634  31.035  1.00  0.00     0.074 A 
ATOM     68  C   UNL A   1      40.256  31.471  30.581  1.00  0.00     0.031 C 
ATOM     69  C   UNL A   1      46.284  32.974  30.478  1.00  0.00     0.029 A 
ATOM     70  C   UNL A   1      46.786  32.251  29.319  1.00  0.00     0.049 A 
ATOM     71  H   UNL A   1      46.454  30.143  29.150  1.00  0.00     0.167 HD
ATOM     72  C   UNL A   1      40.750  33.703  31.853  1.00  0.00     0.037 A 
ATOM     73  C   UNL A   1      47.161  32.757  28.114  1.00  0.00     0.037 A 
ATOM     74  C   UNL A   1      41.886  34.639  31.734  1.00  0.00     0.049 A 
ATOM     75  C   UNL A   1      46.441  34.056  27.955  1.00  0.00     0.074 A 
ATOM     76  C   UNL A   1      42.972  34.952  32.535  1.00  0.00     0.029 A 
ATOM     77  N   UNL A   1      42.201  35.129  30.459  1.00  0.00    -0.354 N 
ATOM     78  N   UNL A   1      45.240  34.264  28.437  1.00  0.00    -0.248 NA
ATOM     79  C   UNL A   1      47.103  35.267  27.489  1.00  0.00     0.031 C 
ATOM     80  C   UNL A   1      43.976  35.540  31.702  1.00  0.00     0.029 A 
ATOM     81  C   UNL A   1      43.497  35.608  30.399  1.00  0.00     0.049 A 
ATOM     82  H   UNL A   1      41.575  35.132  29.698  1.00  0.00     0.167 HD
ATOM     83  C   UNL A   1      45.044  35.611  28.512  1.00  0.00     0.074 A 
ATOM     84  C   UNL A   1      46.202  36.196  27.849  1.00  0.00     0.031 C 
ATOM     85  C   UNL A   1      44.013  36.210  29.172  1.00  0.00     0.037 A 
BRANCH  72  86
ATOM     86  C   UNL A   1      39.586  33.872  32.817  1.00  0.00     0.064 A 
ATOM     87  C   UNL A   1      38.372  34.443  32.373  1.00  0.00     0.173 A 
ATOM     88  C   UNL A   1      39.584  33.531  34.189  1.00  0.00     0.173 A 
ATOM     89  F   UNL A   1      38.236  34.904  31.122  1.00  0.00    -0.203 F 
ATOM     90  C   UNL A   1      37.250  34.584  33.202  1.00  0.00     0.198 A 
ATOM     91  C   UNL A   1      38.466  33.673  35.017  1.00  0.00     0.198 A 
ATOM     92  F   UNL A   1      40.654  33.049  34.814  1.00  0.00    -0.203 F 
ATOM     93  F   UNL A   1      36.125  35.124  32.712  1.00  0.00    -0.200 F 
ATOM     94  C   UNL A   1      37.290  34.174  34.518  1.00  0.00     0.200 A 
ATOM     95  F   UNL A   1      38.543  33.302  36.305  1.00  0.00    -0.200 F 
ATOM     96  F   UNL A   1      36.207  34.259  35.301  1.00  0.00    -0.200 F 
ENDBRANCH  72  86
BRANCH  73  97
ATOM     97  C   UNL A   1      47.521  31.688  27.131  1.00  0.00     0.064 A 
ATOM     98  C   UNL A   1      48.790  31.103  27.312  1.00  0.00     0.173 A 
ATOM     99  C   UNL A   1      46.570  30.902  26.473  1.00  0.00     0.173 A 
ATOM    100  F   UNL A   1      49.796  31.848  27.787  1.00  0.00    -0.203 F 
ATOM    101  C   UNL A   1      49.014  29.739  27.116  1.00  0.00     0.198 A 
ATOM    102  C   UNL A   1      46.825  29.548  26.192  1.00  0.00     0.198 A 
ATOM    103  F   UNL A   1      45.349  31.391  26.216  1.00  0.00    -0.203 F 
ATOM    104  F   UNL A   1      50.170  29.188  27.518  1.00  0.00    -0.200 F 
ATOM    105  C   UNL A   1      48.011  28.950  26.593  1.00  0.00     0.200 A 
ATOM    106  F   UNL A   1      45.878  28.793  25.617  1.00  0.00    -0.200 F 
ATOM    107  F   UNL A   1      48.174  27.623  26.504  1.00  0.00    -0.200 F 
ENDBRANCH  73  97
BRANCH  85 108
ATOM    108  C   UNL A   1      43.407  37.485  28.654  1.00  0.00     0.064 A 
ATOM    109  C   UNL A   1      42.545  37.517  27.540  1.00  0.00     0.173 A 
ATOM    110  C   UNL A   1      43.487  38.677  29.406  1.00  0.00     0.173 A 
ATOM    111  F   UNL A   1      42.288  36.421  26.812  1.00  0.00    -0.203 F 
ATOM    112  C   UNL A   1      41.860  38.669  27.174  1.00  0.00     0.198 A 
ATOM    113  C   UNL A   1      42.737  39.801  29.080  1.00  0.00     0.198 A 
ATOM    114  F   UNL A   1      44.250  38.770  30.504  1.00  0.00    -0.203 F 
ATOM    115  F   UNL A   1      41.088  38.656  26.079  1.00  0.00    -0.200 F 
ATOM    116  C   UNL A   1      41.938  39.804  27.954  1.00  0.00     0.200 A 
ATOM    117  F   UNL A   1      42.768  40.873  29.885  1.00  0.00    -0.200 F 
ATOM    118  F   UNL A   1      41.225  40.891  27.636  1.00  0.00    -0.200 F 
ENDBRANCH  85 108
ENDBRANCH  59  60
ENDBRANCH  52  54
ENDBRANCH  51  52
ENDBRANCH  50  51
ENDBRANCH  49  50
ENDBRANCH  48  49
ENDBRANCH  47  48
ENDBRANCH   1  47
TORSDOF 23
ENDMDL
MODEL 3
REMARK VINA RESULT:     -12.7      5.431      8.708
REMARK SMILES Cc1ccc(S(=O)(=O)n2cc(C(=O)C(=O)NCC(=O)N[C@@H](Cc3c[nH]c4ccccc34)C(=O)OCCOCCOC(=O)c3ccc(-c4c5nc(c(-c6c(F)c(F)c(F)c(F)c6F)c6ccc([nH]6)c(-c6c(F)c(F)c(F)c(F)c6F)c6nc(c(-c7c(F)c(F)c(F)c(F)c7F)c7ccc4[nH]7)C=C6)C=C5)cc3)c3ccccc32)cc1
REMARK SMILES IDX 35 1 34 2 32 3 33 4 21 5 20 6 18 7 19 8 17 10 16 11 14 12
REMARK SMILES IDX 15 13 12 15 13 16 11 17 9 18 10 19 111 20 106 21 110 22
REMARK SMILES IDX 107 23 109 24 108 25 6 26 7 27 8 28 5 29 1 30 2 31 3 32
REMARK SMILES IDX 113 33 4 34 112 35 22 36 23 37 24 38 31 39 25 40 26 41 30 42
REMARK SMILES IDX 27 44 29 45 28 46 36 47 37 48 38 49 39 50 40 51 41 52 42 53
REMARK SMILES IDX 43 54 44 55 105 56 45 57 104 58 46 59 47 60 48 61 98 62
REMARK SMILES IDX 49 63 103 64 97 65 99 66 50 67 102 68 96 69 95 70 51 72
REMARK SMILES IDX 83 73 63 74 82 75 64 76 67 77 81 78 100 79 65 80 66 81 80 83
REMARK SMILES IDX 101 84 68 85 52 86 53 87 61 88 54 89 55 90 59 91 62 92 56 93
REMARK SMILES IDX 57 94 60 95 58 96 84 97 85 98 93 99 86 100 87 101 91 102
REMARK SMILES IDX 94 103 88 104 89 105 92 106 90 107 69 108 70 109 78 110
REMARK SMILES IDX 71 111 72 112 76 113 79 114 73 115 74 116 77 117 75 118
REMARK H PARENT 20 9 16 14 25 43 99 71 67 82
REMARK Flexibility Score: inf
ROOT
ATOM      1  C   UNL A   1      39.049  30.753  31.363  1.00  0.00     0.261 C 
ENDROOT
BRANCH   1   2
ATOM      2  O   UNL A   1      39.299  29.886  30.268  1.00  0.00    -0.462 OA
BRANCH   2   3
ATOM      3  C   UNL A   1      38.367  28.968  29.912  1.00  0.00     0.329 C 
ATOM      4  O   UNL A   1      37.733  28.239  30.667  1.00  0.00    -0.250 OA
BRANCH   3   5
ATOM      5  C   UNL A   1      38.256  28.942  28.397  1.00  0.00     0.196 C 
BRANCH   5   6
ATOM      6  N   UNL A   1      37.580  30.166  27.947  1.00  0.00    -0.341 N 
ATOM      7  C   UNL A   1      36.249  30.403  27.777  1.00  0.00     0.240 C 
ATOM      8  O   UNL A   1      35.870  31.571  27.913  1.00  0.00    -0.273 OA
ATOM      9  H   UNL A   1      38.173  30.923  27.738  1.00  0.00     0.164 HD
BRANCH   7  10
ATOM     10  C   UNL A   1      35.233  29.264  27.579  1.00  0.00     0.216 C 
BRANCH  10  11
ATOM     11  N   UNL A   1      33.842  29.598  27.881  1.00  0.00    -0.340 N 
ATOM     12  C   UNL A   1      32.728  29.526  27.054  1.00  0.00     0.292 C 
ATOM     13  O   UNL A   1      31.666  30.032  27.400  1.00  0.00    -0.265 OA
ATOM     14  H   UNL A   1      33.671  29.916  28.797  1.00  0.00     0.164 HD
BRANCH  12  15
ATOM     15  C   UNL A   1      32.836  28.814  25.702  1.00  0.00     0.252 C 
ATOM     16  O   UNL A   1      33.404  29.454  24.814  1.00  0.00    -0.283 OA
BRANCH  15  17
ATOM     17  C   UNL A   1      32.220  27.504  25.425  1.00  0.00     0.054 A 
ATOM     18  N   UNL A   1      31.117  25.516  25.478  1.00  0.00    -0.240 N 
ATOM     19  C   UNL A   1      31.377  26.690  26.196  1.00  0.00     0.117 A 
ATOM     20  C   UNL A   1      31.545  25.751  24.153  1.00  0.00     0.065 A 
ATOM     21  C   UNL A   1      32.519  26.740  24.252  1.00  0.00     0.012 A 
ATOM     22  C   UNL A   1      31.436  24.938  23.008  1.00  0.00     0.028 A 
ATOM     23  C   UNL A   1      33.521  26.797  23.260  1.00  0.00     0.011 A 
ATOM     24  C   UNL A   1      32.499  24.937  22.107  1.00  0.00     0.002 A 
ATOM     25  C   UNL A   1      33.548  25.832  22.250  1.00  0.00     0.001 A 
BRANCH  18  26
ATOM     26  S   UNL A   1      31.616  23.901  25.969  1.00  0.00     0.268 S 
ATOM     27  O   UNL A   1      30.594  23.052  25.379  1.00  0.00    -0.201 OA
ATOM     28  O   UNL A   1      31.733  24.049  27.416  1.00  0.00    -0.201 OA
BRANCH  26  29
ATOM     29  C   UNL A   1      33.128  23.067  25.657  1.00  0.00     0.088 A 
ATOM     30  C   UNL A   1      37.185  22.269  24.398  1.00  0.00     0.044 C 
ATOM     31  C   UNL A   1      35.786  22.479  24.909  1.00  0.00    -0.051 A 
ATOM     32  C   UNL A   1      35.498  23.707  25.480  1.00  0.00     0.005 A 
ATOM     33  C   UNL A   1      34.742  21.539  24.744  1.00  0.00     0.005 A 
ATOM     34  C   UNL A   1      34.199  23.979  25.862  1.00  0.00     0.022 A 
ATOM     35  C   UNL A   1      33.397  21.827  25.109  1.00  0.00     0.022 A 
ENDBRANCH  26  29
ENDBRANCH  18  26
ENDBRANCH  15  17
ENDBRANCH  12  15
ENDBRANCH  10  11
ENDBRANCH   7  10
ENDBRANCH   5   6
BRANCH   5  36
ATOM     36  C   UNL A   1      39.607  28.719  27.723  1.00  0.00     0.074 C 
BRANCH  36  37
ATOM     37  C   UNL A   1      40.470  27.556  28.146  1.00  0.00    -0.020 A 
ATOM     38  C   UNL A   1      41.576  27.504  28.972  1.00  0.00     0.087 A 
ATOM     39  C   UNL A   1      40.239  26.201  27.724  1.00  0.00     0.003 A 
ATOM     40  N   UNL A   1      41.973  26.203  29.104  1.00  0.00    -0.361 N 
ATOM     41  C   UNL A   1      41.143  25.381  28.395  1.00  0.00     0.046 A 
ATOM     42  C   UNL A   1      39.323  25.596  26.842  1.00  0.00     0.010 A 
ATOM     43  H   UNL A   1      42.746  25.900  29.634  1.00  0.00     0.166 HD
ATOM     44  C   UNL A   1      41.141  23.989  28.295  1.00  0.00     0.026 A 
ATOM     45  C   UNL A   1      39.340  24.205  26.686  1.00  0.00     0.001 A 
ATOM     46  C   UNL A   1      40.221  23.415  27.419  1.00  0.00     0.002 A 
ENDBRANCH  36  37
ENDBRANCH   5  36
ENDBRANCH   3   5
ENDBRANCH   2   3
ENDBRANCH   1   2
BRANCH   1  47
ATOM     47  C   UNL A   1      39.888  30.326  32.514  1.00  0.00     0.202 C 
BRANCH  47  48
ATOM     48  O   UNL A   1      38.989  29.949  33.541  1.00  0.00    -0.374 OA
BRANCH  48  49
ATOM     49  C   UNL A   1      39.129  30.726  34.722  1.00  0.00     0.202 C 
BRANCH  49  50
ATOM     50  C   UNL A   1      38.015  31.773  34.925  1.00  0.00     0.261 C 
BRANCH  50  51
ATOM     51  O   UNL A   1      38.285  32.920  34.091  1.00  0.00    -0.460 OA
BRANCH  51  52
ATOM     52  C   UNL A   1      39.320  33.720  34.467  1.00  0.00     0.338 C 
ATOM     53  O   UNL A   1      39.586  34.050  35.611  1.00  0.00    -0.246 OA
BRANCH  52  54
ATOM     54  C   UNL A   1      39.875  34.403  33.261  1.00  0.00     0.060 A 
ATOM     55  C   UNL A   1      39.185  34.327  32.037  1.00  0.00     0.016 A 
ATOM     56  C   UNL A   1      41.209  34.797  33.276  1.00  0.00     0.016 A 
ATOM     57  C   UNL A   1      39.881  34.452  30.827  1.00  0.00     0.010 A 
ATOM     58  C   UNL A   1      41.904  34.822  32.087  1.00  0.00     0.010 A 
ATOM     59  C   UNL A   1      41.262  34.577  30.861  1.00  0.00    -0.014 A 
BRANCH  59  60
ATOM     60  C   UNL A   1      42.175  34.452  29.718  1.00  0.00     0.031 A 
ATOM     61  C   UNL A   1      42.746  33.106  29.499  1.00  0.00     0.074 A 
ATOM     62  C   UNL A   1      42.288  35.419  28.770  1.00  0.00     0.049 A 
ATOM     63  N   UNL A   1      43.550  32.811  28.548  1.00  0.00    -0.248 NA
ATOM     64  C   UNL A   1      42.467  31.966  30.368  1.00  0.00     0.031 C 
ATOM     65  C   UNL A   1      42.790  35.306  27.395  1.00  0.00     0.029 A 
ATOM     66  N   UNL A   1      41.995  36.794  28.852  1.00  0.00    -0.354 N 
ATOM     67  C   UNL A   1      43.703  31.447  28.508  1.00  0.00     0.074 A 
ATOM     68  C   UNL A   1      43.077  30.976  29.712  1.00  0.00     0.031 C 
ATOM     69  C   UNL A   1      43.105  36.531  26.930  1.00  0.00     0.029 A 
ATOM     70  C   UNL A   1      42.925  37.457  28.038  1.00  0.00     0.049 A 
ATOM     71  H   UNL A   1      41.276  37.210  29.379  1.00  0.00     0.167 HD
ATOM     72  C   UNL A   1      44.277  30.921  27.389  1.00  0.00     0.037 A 
ATOM     73  C   UNL A   1      43.845  38.294  28.587  1.00  0.00     0.037 A 
ATOM     74  C   UNL A   1      44.887  32.013  26.603  1.00  0.00     0.049 A 
ATOM     75  C   UNL A   1      45.187  37.709  28.286  1.00  0.00     0.074 A 
ATOM     76  C   UNL A   1      44.541  32.679  25.439  1.00  0.00     0.029 A 
ATOM     77  N   UNL A   1      45.840  32.823  27.236  1.00  0.00    -0.354 N 
ATOM     78  N   UNL A   1      45.397  36.417  28.216  1.00  0.00    -0.248 NA
ATOM     79  C   UNL A   1      46.298  38.511  27.793  1.00  0.00     0.031 C 
ATOM     80  C   UNL A   1      45.220  33.940  25.438  1.00  0.00     0.029 A 
ATOM     81  C   UNL A   1      45.996  34.034  26.587  1.00  0.00     0.049 A 
ATOM     82  H   UNL A   1      46.336  32.562  28.046  1.00  0.00     0.167 HD
ATOM     83  C   UNL A   1      46.555  36.216  27.526  1.00  0.00     0.074 A 
ATOM     84  C   UNL A   1      47.117  37.547  27.340  1.00  0.00     0.031 C 
ATOM     85  C   UNL A   1      46.979  35.009  27.055  1.00  0.00     0.037 A 
BRANCH  72  86
ATOM     86  C   UNL A   1      44.218  29.466  26.950  1.00  0.00     0.064 A 
ATOM     87  C   UNL A   1      45.263  28.578  27.289  1.00  0.00     0.173 A 
ATOM     88  C   UNL A   1      43.197  28.870  26.175  1.00  0.00     0.173 A 
ATOM     89  F   UNL A   1      46.352  29.003  27.944  1.00  0.00    -0.203 F 
ATOM     90  C   UNL A   1      45.245  27.218  26.952  1.00  0.00     0.198 A 
ATOM     91  C   UNL A   1      43.178  27.514  25.836  1.00  0.00     0.198 A 
ATOM     92  F   UNL A   1      42.163  29.555  25.695  1.00  0.00    -0.203 F 
ATOM     93  F   UNL A   1      46.266  26.429  27.316  1.00  0.00    -0.200 F 
ATOM     94  C   UNL A   1      44.188  26.680  26.247  1.00  0.00     0.200 A 
ATOM     95  F   UNL A   1      42.156  27.024  25.117  1.00  0.00    -0.200 F 
ATOM     96  F   UNL A   1      44.140  25.372  25.965  1.00  0.00    -0.200 F 
ENDBRANCH  72  86
BRANCH  73  97
ATOM     97  C   UNL A   1      43.318  39.017  29.787  1.00  0.00     0.064 A 
ATOM     98  C   UNL A   1      43.909  38.658  31.015  1.00  0.00     0.173 A 
ATOM     99  C   UNL A   1      42.759  40.297  29.724  1.00  0.00     0.173 A 
ATOM    100  F   UNL A   1      44.320  37.398  31.204  1.00  0.00    -0.203 F 
ATOM    101  C   UNL A   1      44.180  39.597  32.012  1.00  0.00     0.198 A 
ATOM    102  C   UNL A   1      42.955  41.219  30.767  1.00  0.00     0.198 A 
ATOM    103  F   UNL A   1      42.137  40.709  28.612  1.00  0.00    -0.203 F 
ATOM    104  F   UNL A   1      44.944  39.255  33.061  1.00  0.00    -0.200 F 
ATOM    105  C   UNL A   1      43.737  40.895  31.866  1.00  0.00     0.200 A 
ATOM    106  F   UNL A   1      42.464  42.463  30.663  1.00  0.00    -0.200 F 
ATOM    107  F   UNL A   1      44.087  41.832  32.759  1.00  0.00    -0.200 F 
ENDBRANCH  73  97
BRANCH  85 108
ATOM    108  C   UNL A   1      48.443  34.675  27.008  1.00  0.00     0.064 A 
ATOM    109  C   UNL A   1      49.140  34.159  28.119  1.00  0.00     0.173 A 
ATOM    110  C   UNL A   1      49.134  34.640  25.777  1.00  0.00     0.173 A 
ATOM    111  F   UNL A   1      48.558  34.025  29.319  1.00  0.00    -0.203 F 
ATOM    112  C   UNL A   1      50.447  33.697  28.017  1.00  0.00     0.198 A 
ATOM    113  C   UNL A   1      50.411  34.103  25.667  1.00  0.00     0.198 A 
ATOM    114  F   UNL A   1      48.574  35.075  24.640  1.00  0.00    -0.203 F 
ATOM    115  F   UNL A   1      51.078  33.259  29.114  1.00  0.00    -0.200 F 
ATOM    116  C   UNL A   1      51.075  33.648  26.789  1.00  0.00     0.200 A 
ATOM    117  F   UNL A   1      50.983  33.997  24.459  1.00  0.00    -0.200 F 
ATOM    118  F   UNL A   1      52.309  33.141  26.684  1.00  0.00    -0.200 F 
ENDBRANCH  85 108
ENDBRANCH  59  60
ENDBRANCH  52  54
ENDBRANCH  51  52
ENDBRANCH  50  51
ENDBRANCH  49  50
ENDBRANCH  48  49
ENDBRANCH  47  48
ENDBRANCH   1  47
TORSDOF 23
ENDMDL
