MODEL 1
REMARK VINA RESULT:     -11.6      0.000      0.000
REMARK SMILES C[C@H]1[C@H]([NH+]2CCC(CC(=O)OCCOCCOC(=O)c3ccc(-c4c5nc(c(-c6c(F)c(F)c(F)c(F)c6F)c6ccc([nH]6)c(-c6c(F)c(F)c(F)c(F)c6F)c6nc(c(-c7c(F)c(F)c(F)c(F)c7F)c7ccc4[nH]7)C=C6)C=C5)cc3)CC2)CCC[C@@H]1C
REMARK SMILES IDX 14 1 13 2 12 3 11 4 9 5 10 6 8 7 7 8 4 9 5 10 84 11 6 13
REMARK SMILES IDX 83 14 3 15 1 16 2 17 88 18 85 19 87 20 89 21 86 22 15 23
REMARK SMILES IDX 16 24 17 25 18 26 19 27 20 28 21 29 82 30 22 31 81 32 23 33
REMARK SMILES IDX 24 34 25 35 75 36 26 37 80 38 74 39 76 40 27 41 79 42 73 43
REMARK SMILES IDX 72 44 28 46 60 47 40 48 59 49 41 50 44 51 58 52 77 53 42 54
REMARK SMILES IDX 43 55 57 57 78 58 45 59 29 60 30 61 38 62 31 63 32 64 36 65
REMARK SMILES IDX 39 66 33 67 34 68 37 69 35 70 61 71 62 72 70 73 63 74 64 75
REMARK SMILES IDX 68 76 71 77 65 78 66 79 69 80 67 81 46 82 47 83 55 84 48 85
REMARK SMILES IDX 49 86 53 87 56 88 50 89 51 90 54 91 52 92
REMARK H PARENT 4 12 76 45 44 56
REMARK Flexibility Score: inf
ROOT
ATOM      1  O   UNL A   1      31.770  28.404  24.233  1.00  0.00    -0.374 OA
ENDROOT
BRANCH   1   2
ATOM      2  C   UNL A   1      31.976  28.245  22.830  1.00  0.00     0.202 C 
BRANCH   2   3
ATOM      3  C   UNL A   1      32.573  26.911  22.374  1.00  0.00     0.261 C 
BRANCH   3   4
ATOM      4  O   UNL A   1      32.254  25.858  23.298  1.00  0.00    -0.463 OA
BRANCH   4   5
ATOM      5  C   UNL A   1      32.554  24.588  22.927  1.00  0.00     0.306 C 
ATOM      6  O   UNL A   1      33.571  24.256  22.333  1.00  0.00    -0.252 OA
BRANCH   5   7
ATOM      7  C   UNL A   1      31.435  23.615  23.258  1.00  0.00     0.126 C 
BRANCH   7   8
ATOM      8  C   UNL A   1      31.568  22.664  24.482  1.00  0.00     0.011 C 
ATOM      9  N   UNL A   1      33.905  21.552  25.952  1.00  0.00    -0.332 N 
ATOM     10  C   UNL A   1      33.033  22.541  26.591  1.00  0.00     0.262 C 
ATOM     11  C   UNL A   1      33.083  20.635  25.186  1.00  0.00     0.262 C 
ATOM     12  H   UNL A   1      34.356  21.043  26.713  1.00  0.00     0.348 HD
ATOM     13  C   UNL A   1      32.311  23.435  25.595  1.00  0.00     0.066 C 
ATOM     14  C   UNL A   1      32.250  21.338  24.122  1.00  0.00     0.066 C 
BRANCH   9  15
ATOM     15  C   UNL A   1      35.216  21.969  25.372  1.00  0.00     0.187 C 
ATOM     16  C   UNL A   1      35.413  24.578  25.370  1.00  0.00     0.014 C 
ATOM     17  C   UNL A   1      35.982  23.243  25.931  1.00  0.00     0.047 C 
ATOM     18  C   UNL A   1      37.519  23.301  25.633  1.00  0.00    -0.006 C 
ATOM     19  C   UNL A   1      36.117  20.720  25.235  1.00  0.00     0.065 C 
ATOM     20  C   UNL A   1      38.215  21.947  25.586  1.00  0.00     0.004 C 
ATOM     21  C   UNL A   1      38.249  24.222  26.633  1.00  0.00     0.008 C 
ATOM     22  C   UNL A   1      37.476  21.021  24.642  1.00  0.00     0.006 C 
ENDBRANCH   9  15
ENDBRANCH   7   8
ENDBRANCH   5   7
ENDBRANCH   4   5
ENDBRANCH   3   4
ENDBRANCH   2   3
ENDBRANCH   1   2
BRANCH   1  23
ATOM     23  C   UNL A   1      32.566  29.377  24.904  1.00  0.00     0.202 C 
BRANCH  23  24
ATOM     24  C   UNL A   1      31.818  30.392  25.785  1.00  0.00     0.261 C 
BRANCH  24  25
ATOM     25  O   UNL A   1      32.384  30.507  27.104  1.00  0.00    -0.460 OA
BRANCH  25  26
ATOM     26  C   UNL A   1      33.125  31.618  27.312  1.00  0.00     0.338 C 
ATOM     27  O   UNL A   1      32.733  32.778  27.299  1.00  0.00    -0.246 OA
BRANCH  26  28
ATOM     28  C   UNL A   1      34.489  31.257  27.751  1.00  0.00     0.060 A 
ATOM     29  C   UNL A   1      34.718  29.912  28.073  1.00  0.00     0.016 A 
ATOM     30  C   UNL A   1      35.502  32.203  27.922  1.00  0.00     0.016 A 
ATOM     31  C   UNL A   1      35.927  29.523  28.645  1.00  0.00     0.010 A 
ATOM     32  C   UNL A   1      36.719  31.810  28.497  1.00  0.00     0.010 A 
ATOM     33  C   UNL A   1      36.917  30.478  28.908  1.00  0.00    -0.014 A 
BRANCH  33  34
ATOM     34  C   UNL A   1      38.068  30.109  29.774  1.00  0.00     0.031 A 
ATOM     35  C   UNL A   1      39.104  29.155  29.241  1.00  0.00     0.074 A 
ATOM     36  C   UNL A   1      38.229  30.657  30.992  1.00  0.00     0.049 A 
ATOM     37  N   UNL A   1      40.180  28.679  29.819  1.00  0.00    -0.248 NA
ATOM     38  C   UNL A   1      38.900  28.672  27.866  1.00  0.00     0.031 C 
ATOM     39  C   UNL A   1      37.334  31.637  31.602  1.00  0.00     0.029 A 
ATOM     40  N   UNL A   1      39.212  30.466  31.932  1.00  0.00    -0.354 N 
ATOM     41  C   UNL A   1      40.772  27.840  28.884  1.00  0.00     0.074 A 
ATOM     42  C   UNL A   1      39.918  27.838  27.716  1.00  0.00     0.031 C 
ATOM     43  C   UNL A   1      37.808  31.961  32.817  1.00  0.00     0.029 A 
ATOM     44  C   UNL A   1      39.017  31.184  33.086  1.00  0.00     0.049 A 
ATOM     45  H   UNL A   1      39.984  29.870  31.792  1.00  0.00     0.167 HD
ATOM     46  C   UNL A   1      41.929  27.142  28.983  1.00  0.00     0.037 A 
ATOM     47  C   UNL A   1      39.723  31.195  34.235  1.00  0.00     0.037 A 
ATOM     48  C   UNL A   1      42.781  27.143  30.144  1.00  0.00     0.049 A 
ATOM     49  C   UNL A   1      40.957  30.337  34.357  1.00  0.00     0.074 A 
ATOM     50  C   UNL A   1      43.977  26.476  30.340  1.00  0.00     0.029 A 
ATOM     51  N   UNL A   1      42.519  27.843  31.315  1.00  0.00    -0.354 N 
ATOM     52  N   UNL A   1      41.517  29.557  33.465  1.00  0.00    -0.248 NA
ATOM     53  C   UNL A   1      41.657  30.365  35.649  1.00  0.00     0.031 C 
ATOM     54  C   UNL A   1      44.408  26.721  31.647  1.00  0.00     0.029 A 
ATOM     55  C   UNL A   1      43.518  27.598  32.245  1.00  0.00     0.049 A 
ATOM     56  H   UNL A   1      41.740  28.426  31.461  1.00  0.00     0.167 HD
ATOM     57  C   UNL A   1      42.653  29.032  34.072  1.00  0.00     0.074 A 
ATOM     58  C   UNL A   1      42.706  29.591  35.407  1.00  0.00     0.031 C 
ATOM     59  C   UNL A   1      43.569  28.170  33.567  1.00  0.00     0.037 A 
BRANCH  46  60
ATOM     60  C   UNL A   1      42.328  26.290  27.811  1.00  0.00     0.064 A 
ATOM     61  C   UNL A   1      43.250  26.735  26.850  1.00  0.00     0.173 A 
ATOM     62  C   UNL A   1      41.798  25.000  27.659  1.00  0.00     0.173 A 
ATOM     63  F   UNL A   1      43.777  27.965  26.939  1.00  0.00    -0.203 F 
ATOM     64  C   UNL A   1      43.597  25.935  25.764  1.00  0.00     0.198 A 
ATOM     65  C   UNL A   1      42.175  24.189  26.592  1.00  0.00     0.198 A 
ATOM     66  F   UNL A   1      40.919  24.520  28.552  1.00  0.00    -0.203 F 
ATOM     67  F   UNL A   1      44.435  26.404  24.829  1.00  0.00    -0.200 F 
ATOM     68  C   UNL A   1      43.066  24.661  25.640  1.00  0.00     0.200 A 
ATOM     69  F   UNL A   1      41.672  22.951  26.483  1.00  0.00    -0.200 F 
ATOM     70  F   UNL A   1      43.405  23.889  24.598  1.00  0.00    -0.200 F 
ENDBRANCH  46  60
BRANCH  47  71
ATOM     71  C   UNL A   1      39.278  32.045  35.372  1.00  0.00     0.064 A 
ATOM     72  C   UNL A   1      39.674  33.387  35.471  1.00  0.00     0.173 A 
ATOM     73  C   UNL A   1      38.469  31.527  36.394  1.00  0.00     0.173 A 
ATOM     74  F   UNL A   1      40.471  33.921  34.534  1.00  0.00    -0.203 F 
ATOM     75  C   UNL A   1      39.294  34.171  36.558  1.00  0.00     0.198 A 
ATOM     76  C   UNL A   1      38.062  32.322  37.463  1.00  0.00     0.198 A 
ATOM     77  F   UNL A   1      38.065  30.249  36.350  1.00  0.00    -0.203 F 
ATOM     78  F   UNL A   1      39.729  35.434  36.655  1.00  0.00    -0.200 F 
ATOM     79  C   UNL A   1      38.483  33.641  37.550  1.00  0.00     0.200 A 
ATOM     80  F   UNL A   1      37.267  31.809  38.412  1.00  0.00    -0.200 F 
ATOM     81  F   UNL A   1      38.113  34.396  38.593  1.00  0.00    -0.200 F 
ENDBRANCH  47  71
BRANCH  59  82
ATOM     82  C   UNL A   1      44.742  27.812  34.438  1.00  0.00     0.064 A 
ATOM     83  C   UNL A   1      44.731  26.687  35.276  1.00  0.00     0.173 A 
ATOM     84  C   UNL A   1      45.914  28.586  34.396  1.00  0.00     0.173 A 
ATOM     85  F   UNL A   1      43.633  25.922  35.364  1.00  0.00    -0.203 F 
ATOM     86  C   UNL A   1      45.837  26.367  36.060  1.00  0.00     0.198 A 
ATOM     87  C   UNL A   1      47.031  28.242  35.156  1.00  0.00     0.198 A 
ATOM     88  F   UNL A   1      45.984  29.667  33.606  1.00  0.00    -0.203 F 
ATOM     89  F   UNL A   1      45.784  25.318  36.893  1.00  0.00    -0.200 F 
ATOM     90  C   UNL A   1      46.987  27.138  35.993  1.00  0.00     0.200 A 
ATOM     91  F   UNL A   1      48.146  28.978  35.075  1.00  0.00    -0.200 F 
ATOM     92  F   UNL A   1      48.054  26.822  36.741  1.00  0.00    -0.200 F 
ENDBRANCH  59  82
ENDBRANCH  33  34
ENDBRANCH  26  28
ENDBRANCH  25  26
ENDBRANCH  24  25
ENDBRANCH  23  24
ENDBRANCH   1  23
TORSDOF 16
ENDMDL
MODEL 2
REMARK VINA RESULT:     -11.4      0.300      1.969
REMARK SMILES C[C@H]1[C@H]([NH+]2CCC(CC(=O)OCCOCCOC(=O)c3ccc(-c4c5nc(c(-c6c(F)c(F)c(F)c(F)c6F)c6ccc([nH]6)c(-c6c(F)c(F)c(F)c(F)c6F)c6nc(c(-c7c(F)c(F)c(F)c(F)c7F)c7ccc4[nH]7)C=C6)C=C5)cc3)CC2)CCC[C@@H]1C
REMARK SMILES IDX 14 1 13 2 12 3 11 4 9 5 10 6 8 7 7 8 4 9 5 10 84 11 6 13
REMARK SMILES IDX 83 14 3 15 1 16 2 17 88 18 85 19 87 20 89 21 86 22 15 23
REMARK SMILES IDX 16 24 17 25 18 26 19 27 20 28 21 29 82 30 22 31 81 32 23 33
REMARK SMILES IDX 24 34 25 35 75 36 26 37 80 38 74 39 76 40 27 41 79 42 73 43
REMARK SMILES IDX 72 44 28 46 60 47 40 48 59 49 41 50 44 51 58 52 77 53 42 54
REMARK SMILES IDX 43 55 57 57 78 58 45 59 29 60 30 61 38 62 31 63 32 64 36 65
REMARK SMILES IDX 39 66 33 67 34 68 37 69 35 70 61 71 62 72 70 73 63 74 64 75
REMARK SMILES IDX 68 76 71 77 65 78 66 79 69 80 67 81 46 82 47 83 55 84 48 85
REMARK SMILES IDX 49 86 53 87 56 88 50 89 51 90 54 91 52 92
REMARK H PARENT 4 12 76 45 44 56
REMARK Flexibility Score: inf
ROOT
ATOM      1  O   UNL A   1      31.745  28.551  24.285  1.00  0.00    -0.374 OA
ENDROOT
BRANCH   1   2
ATOM      2  C   UNL A   1      31.919  28.276  22.896  1.00  0.00     0.202 C 
BRANCH   2   3
ATOM      3  C   UNL A   1      32.822  27.092  22.541  1.00  0.00     0.261 C 
BRANCH   3   4
ATOM      4  O   UNL A   1      32.636  26.005  23.462  1.00  0.00    -0.463 OA
BRANCH   4   5
ATOM      5  C   UNL A   1      32.735  24.745  22.970  1.00  0.00     0.306 C 
ATOM      6  O   UNL A   1      33.651  24.340  22.267  1.00  0.00    -0.252 OA
BRANCH   5   7
ATOM      7  C   UNL A   1      31.524  23.896  23.319  1.00  0.00     0.126 C 
BRANCH   7   8
ATOM      8  C   UNL A   1      31.617  22.841  24.460  1.00  0.00     0.011 C 
ATOM      9  N   UNL A   1      33.906  21.537  25.845  1.00  0.00    -0.332 N 
ATOM     10  C   UNL A   1      33.057  22.494  26.561  1.00  0.00     0.262 C 
ATOM     11  C   UNL A   1      33.064  20.714  24.998  1.00  0.00     0.262 C 
ATOM     12  H   UNL A   1      34.334  20.952  26.563  1.00  0.00     0.348 HD
ATOM     13  C   UNL A   1      32.372  23.492  25.639  1.00  0.00     0.066 C 
ATOM     14  C   UNL A   1      32.262  21.530  23.992  1.00  0.00     0.066 C 
BRANCH   9  15
ATOM     15  C   UNL A   1      35.234  21.961  25.312  1.00  0.00     0.187 C 
ATOM     16  C   UNL A   1      35.452  24.567  25.403  1.00  0.00     0.014 C 
ATOM     17  C   UNL A   1      35.996  23.208  25.932  1.00  0.00     0.047 C 
ATOM     18  C   UNL A   1      37.541  23.263  25.674  1.00  0.00    -0.006 C 
ATOM     19  C   UNL A   1      36.127  20.709  25.155  1.00  0.00     0.065 C 
ATOM     20  C   UNL A   1      38.226  21.904  25.598  1.00  0.00     0.004 C 
ATOM     21  C   UNL A   1      38.254  24.142  26.722  1.00  0.00     0.008 C 
ATOM     22  C   UNL A   1      37.503  21.017  24.605  1.00  0.00     0.006 C 
ENDBRANCH   9  15
ENDBRANCH   7   8
ENDBRANCH   5   7
ENDBRANCH   4   5
ENDBRANCH   3   4
ENDBRANCH   2   3
ENDBRANCH   1   2
BRANCH   1  23
ATOM     23  C   UNL A   1      32.594  29.537  24.867  1.00  0.00     0.202 C 
BRANCH  23  24
ATOM     24  C   UNL A   1      31.955  30.466  25.913  1.00  0.00     0.261 C 
BRANCH  24  25
ATOM     25  O   UNL A   1      32.662  30.460  27.168  1.00  0.00    -0.460 OA
BRANCH  25  26
ATOM     26  C   UNL A   1      33.401  31.564  27.413  1.00  0.00     0.338 C 
ATOM     27  O   UNL A   1      33.007  32.724  27.438  1.00  0.00    -0.246 OA
BRANCH  26  28
ATOM     28  C   UNL A   1      34.765  31.191  27.840  1.00  0.00     0.060 A 
ATOM     29  C   UNL A   1      34.988  29.843  28.149  1.00  0.00     0.016 A 
ATOM     30  C   UNL A   1      35.785  32.130  28.013  1.00  0.00     0.016 A 
ATOM     31  C   UNL A   1      36.199  29.441  28.710  1.00  0.00     0.010 A 
ATOM     32  C   UNL A   1      37.003  31.725  28.577  1.00  0.00     0.010 A 
ATOM     33  C   UNL A   1      37.196  30.389  28.975  1.00  0.00    -0.014 A 
BRANCH  33  34
ATOM     34  C   UNL A   1      38.350  30.005  29.831  1.00  0.00     0.031 A 
ATOM     35  C   UNL A   1      39.366  29.033  29.291  1.00  0.00     0.074 A 
ATOM     36  C   UNL A   1      38.533  30.555  31.044  1.00  0.00     0.049 A 
ATOM     37  N   UNL A   1      40.440  28.543  29.860  1.00  0.00    -0.248 NA
ATOM     38  C   UNL A   1      39.140  28.547  27.920  1.00  0.00     0.031 C 
ATOM     39  C   UNL A   1      37.659  31.552  31.660  1.00  0.00     0.029 A 
ATOM     40  N   UNL A   1      39.522  30.353  31.975  1.00  0.00    -0.354 N 
ATOM     41  C   UNL A   1      41.009  27.690  28.922  1.00  0.00     0.074 A 
ATOM     42  C   UNL A   1      40.143  27.697  27.763  1.00  0.00     0.031 C 
ATOM     43  C   UNL A   1      38.150  31.874  32.869  1.00  0.00     0.029 A 
ATOM     44  C   UNL A   1      39.351  31.079  33.128  1.00  0.00     0.049 A 
ATOM     45  H   UNL A   1      40.283  29.745  31.830  1.00  0.00     0.167 HD
ATOM     46  C   UNL A   1      42.157  26.975  29.012  1.00  0.00     0.037 A 
ATOM     47  C   UNL A   1      40.068  31.084  34.269  1.00  0.00     0.037 A 
ATOM     48  C   UNL A   1      43.020  26.968  30.165  1.00  0.00     0.049 A 
ATOM     49  C   UNL A   1      41.290  30.207  34.382  1.00  0.00     0.074 A 
ATOM     50  C   UNL A   1      44.208  26.283  30.350  1.00  0.00     0.029 A 
ATOM     51  N   UNL A   1      42.781  27.677  31.334  1.00  0.00    -0.354 N 
ATOM     52  N   UNL A   1      41.829  29.415  33.487  1.00  0.00    -0.248 NA
ATOM     53  C   UNL A   1      42.004  30.229  35.667  1.00  0.00     0.031 C 
ATOM     54  C   UNL A   1      44.656  26.527  31.652  1.00  0.00     0.029 A 
ATOM     55  C   UNL A   1      43.786  27.420  32.255  1.00  0.00     0.049 A 
ATOM     56  H   UNL A   1      42.014  28.272  31.487  1.00  0.00     0.167 HD
ATOM     57  C   UNL A   1      42.963  28.875  34.085  1.00  0.00     0.074 A 
ATOM     58  C   UNL A   1      43.038  29.438  35.417  1.00  0.00     0.031 C 
ATOM     59  C   UNL A   1      43.860  27.996  33.574  1.00  0.00     0.037 A 
BRANCH  46  60
ATOM     60  C   UNL A   1      42.530  26.112  27.839  1.00  0.00     0.064 A 
ATOM     61  C   UNL A   1      41.960  24.845  27.640  1.00  0.00     0.173 A 
ATOM     62  C   UNL A   1      43.454  26.570  26.888  1.00  0.00     0.173 A 
ATOM     63  F   UNL A   1      41.080  24.353  28.525  1.00  0.00    -0.203 F 
ATOM     64  C   UNL A   1      42.328  24.056  26.553  1.00  0.00     0.198 A 
ATOM     65  C   UNL A   1      43.793  25.794  25.783  1.00  0.00     0.198 A 
ATOM     66  F   UNL A   1      44.024  27.777  27.025  1.00  0.00    -0.203 F 
ATOM     67  F   UNL A   1      41.813  22.826  26.414  1.00  0.00    -0.200 F 
ATOM     68  C   UNL A   1      43.238  24.533  25.622  1.00  0.00     0.200 A 
ATOM     69  F   UNL A   1      44.661  26.265  24.876  1.00  0.00    -0.200 F 
ATOM     70  F   UNL A   1      43.587  23.776  24.573  1.00  0.00    -0.200 F 
ENDBRANCH  46  60
BRANCH  47  71
ATOM     71  C   UNL A   1      39.648  31.945  35.408  1.00  0.00     0.064 A 
ATOM     72  C   UNL A   1      38.693  31.504  36.334  1.00  0.00     0.173 A 
ATOM     73  C   UNL A   1      40.175  33.234  35.578  1.00  0.00     0.173 A 
ATOM     74  F   UNL A   1      38.139  30.290  36.199  1.00  0.00    -0.203 F 
ATOM     75  C   UNL A   1      38.267  32.326  37.376  1.00  0.00     0.198 A 
ATOM     76  C   UNL A   1      39.773  34.042  36.639  1.00  0.00     0.198 A 
ATOM     77  F   UNL A   1      41.090  33.706  34.718  1.00  0.00    -0.203 F 
ATOM     78  F   UNL A   1      37.315  31.900  38.216  1.00  0.00    -0.200 F 
ATOM     79  C   UNL A   1      38.812  33.591  37.531  1.00  0.00     0.200 A 
ATOM     80  F   UNL A   1      40.312  35.259  36.793  1.00  0.00    -0.200 F 
ATOM     81  F   UNL A   1      38.406  34.380  38.535  1.00  0.00    -0.200 F 
ENDBRANCH  47  71
BRANCH  59  82
ATOM     82  C   UNL A   1      45.036  27.624  34.434  1.00  0.00     0.064 A 
ATOM     83  C   UNL A   1      46.239  28.345  34.402  1.00  0.00     0.173 A 
ATOM     84  C   UNL A   1      44.940  26.554  35.339  1.00  0.00     0.173 A 
ATOM     85  F   UNL A   1      46.391  29.367  33.547  1.00  0.00    -0.203 F 
ATOM     86  C   UNL A   1      47.309  27.991  35.220  1.00  0.00     0.198 A 
ATOM     87  C   UNL A   1      46.000  26.225  36.181  1.00  0.00     0.198 A 
ATOM     88  F   UNL A   1      43.810  25.835  35.419  1.00  0.00    -0.203 F 
ATOM     89  F   UNL A   1      48.467  28.661  35.134  1.00  0.00    -0.200 F 
ATOM     90  C   UNL A   1      47.186  26.938  36.114  1.00  0.00     0.200 A 
ATOM     91  F   UNL A   1      45.871  25.219  37.057  1.00  0.00    -0.200 F 
ATOM     92  F   UNL A   1      48.214  26.606  36.908  1.00  0.00    -0.200 F 
ENDBRANCH  59  82
ENDBRANCH  33  34
ENDBRANCH  26  28
ENDBRANCH  25  26
ENDBRANCH  24  25
ENDBRANCH  23  24
ENDBRANCH   1  23
TORSDOF 16
ENDMDL
MODEL 3
REMARK VINA RESULT:     -11.3      0.867      7.371
REMARK SMILES C[C@H]1[C@H]([NH+]2CCC(CC(=O)OCCOCCOC(=O)c3ccc(-c4c5nc(c(-c6c(F)c(F)c(F)c(F)c6F)c6ccc([nH]6)c(-c6c(F)c(F)c(F)c(F)c6F)c6nc(c(-c7c(F)c(F)c(F)c(F)c7F)c7ccc4[nH]7)C=C6)C=C5)cc3)CC2)CCC[C@@H]1C
REMARK SMILES IDX 14 1 13 2 12 3 11 4 9 5 10 6 8 7 7 8 4 9 5 10 84 11 6 13
REMARK SMILES IDX 83 14 3 15 1 16 2 17 88 18 85 19 87 20 89 21 86 22 15 23
REMARK SMILES IDX 16 24 17 25 18 26 19 27 20 28 21 29 82 30 22 31 81 32 23 33
REMARK SMILES IDX 24 34 25 35 75 36 26 37 80 38 74 39 76 40 27 41 79 42 73 43
REMARK SMILES IDX 72 44 28 46 60 47 40 48 59 49 41 50 44 51 58 52 77 53 42 54
REMARK SMILES IDX 43 55 57 57 78 58 45 59 29 60 30 61 38 62 31 63 32 64 36 65
REMARK SMILES IDX 39 66 33 67 34 68 37 69 35 70 61 71 62 72 70 73 63 74 64 75
REMARK SMILES IDX 68 76 71 77 65 78 66 79 69 80 67 81 46 82 47 83 55 84 48 85
REMARK SMILES IDX 49 86 53 87 56 88 50 89 51 90 54 91 52 92
REMARK H PARENT 4 12 76 45 44 56
REMARK Flexibility Score: inf
ROOT
ATOM      1  O   UNL A   1      32.332  28.752  23.947  1.00  0.00    -0.374 OA
ENDROOT
BRANCH   1   2
ATOM      2  C   UNL A   1      31.237  28.097  23.310  1.00  0.00     0.202 C 
BRANCH   2   3
ATOM      3  C   UNL A   1      31.098  26.594  23.565  1.00  0.00     0.261 C 
BRANCH   3   4
ATOM      4  O   UNL A   1      30.047  26.324  24.508  1.00  0.00    -0.463 OA
BRANCH   4   5
ATOM      5  C   UNL A   1      30.273  25.364  25.439  1.00  0.00     0.306 C 
ATOM      6  O   UNL A   1      29.767  25.339  26.553  1.00  0.00    -0.252 OA
BRANCH   5   7
ATOM      7  C   UNL A   1      31.305  24.349  24.976  1.00  0.00     0.126 C 
BRANCH   7   8
ATOM      8  C   UNL A   1      31.537  23.047  25.795  1.00  0.00     0.011 C 
ATOM      9  N   UNL A   1      33.930  21.346  26.283  1.00  0.00    -0.332 N 
ATOM     10  C   UNL A   1      33.353  22.138  27.372  1.00  0.00     0.262 C 
ATOM     11  C   UNL A   1      32.850  20.791  25.491  1.00  0.00     0.262 C 
ATOM     12  H   UNL A   1      34.443  20.586  26.731  1.00  0.00     0.348 HD
ATOM     13  C   UNL A   1      32.587  23.359  26.883  1.00  0.00     0.066 C 
ATOM     14  C   UNL A   1      31.935  21.860  24.908  1.00  0.00     0.066 C 
BRANCH   9  15
ATOM     15  C   UNL A   1      35.148  21.827  25.566  1.00  0.00     0.187 C 
ATOM     16  C   UNL A   1      35.219  24.442  25.562  1.00  0.00     0.014 C 
ATOM     17  C   UNL A   1      35.909  23.135  26.048  1.00  0.00     0.047 C 
ATOM     18  C   UNL A   1      37.400  23.268  25.584  1.00  0.00    -0.006 C 
ATOM     19  C   UNL A   1      36.087  20.623  25.322  1.00  0.00     0.065 C 
ATOM     20  C   UNL A   1      38.150  21.948  25.451  1.00  0.00     0.004 C 
ATOM     21  C   UNL A   1      38.190  24.220  26.505  1.00  0.00     0.008 C 
ATOM     22  C   UNL A   1      37.358  20.991  24.586  1.00  0.00     0.006 C 
ENDBRANCH   9  15
ENDBRANCH   7   8
ENDBRANCH   5   7
ENDBRANCH   4   5
ENDBRANCH   3   4
ENDBRANCH   2   3
ENDBRANCH   1   2
BRANCH   1  23
ATOM     23  C   UNL A   1      32.267  28.908  25.363  1.00  0.00     0.202 C 
BRANCH  23  24
ATOM     24  C   UNL A   1      32.059  30.338  25.890  1.00  0.00     0.261 C 
BRANCH  24  25
ATOM     25  O   UNL A   1      32.534  30.508  27.239  1.00  0.00    -0.460 OA
BRANCH  25  26
ATOM     26  C   UNL A   1      33.305  31.598  27.440  1.00  0.00     0.338 C 
ATOM     27  O   UNL A   1      32.931  32.763  27.509  1.00  0.00    -0.246 OA
BRANCH  26  28
ATOM     28  C   UNL A   1      34.693  31.201  27.757  1.00  0.00     0.060 A 
ATOM     29  C   UNL A   1      34.944  29.830  27.901  1.00  0.00     0.016 A 
ATOM     30  C   UNL A   1      35.710  32.131  27.986  1.00  0.00     0.016 A 
ATOM     31  C   UNL A   1      36.185  29.387  28.355  1.00  0.00     0.010 A 
ATOM     32  C   UNL A   1      36.958  31.684  28.443  1.00  0.00     0.010 A 
ATOM     33  C   UNL A   1      37.184  30.314  28.678  1.00  0.00    -0.014 A 
BRANCH  33  34
ATOM     34  C   UNL A   1      38.382  29.855  29.429  1.00  0.00     0.031 A 
ATOM     35  C   UNL A   1      38.628  30.398  30.812  1.00  0.00     0.074 A 
ATOM     36  C   UNL A   1      39.209  28.923  28.922  1.00  0.00     0.049 A 
ATOM     37  N   UNL A   1      39.610  30.155  31.644  1.00  0.00    -0.248 NA
ATOM     38  C   UNL A   1      37.626  31.345  31.328  1.00  0.00     0.031 C 
ATOM     39  C   UNL A   1      39.054  28.273  27.623  1.00  0.00     0.029 A 
ATOM     40  N   UNL A   1      40.347  28.360  29.447  1.00  0.00    -0.354 N 
ATOM     41  C   UNL A   1      39.348  30.922  32.773  1.00  0.00     0.074 A 
ATOM     42  C   UNL A   1      38.138  31.668  32.506  1.00  0.00     0.031 C 
ATOM     43  C   UNL A   1      40.060  27.399  27.450  1.00  0.00     0.029 A 
ATOM     44  C   UNL A   1      40.952  27.456  28.608  1.00  0.00     0.049 A 
ATOM     45  H   UNL A   1      40.696  28.584  30.340  1.00  0.00     0.167 HD
ATOM     46  C   UNL A   1      40.045  30.990  33.933  1.00  0.00     0.037 A 
ATOM     47  C   UNL A   1      42.103  26.771  28.752  1.00  0.00     0.037 A 
ATOM     48  C   UNL A   1      41.249  30.247  34.200  1.00  0.00     0.049 A 
ATOM     49  C   UNL A   1      42.913  26.934  30.014  1.00  0.00     0.074 A 
ATOM     50  C   UNL A   1      42.025  30.241  35.347  1.00  0.00     0.029 A 
ATOM     51  N   UNL A   1      41.859  29.382  33.302  1.00  0.00    -0.354 N 
ATOM     52  N   UNL A   1      42.652  27.650  31.081  1.00  0.00    -0.248 NA
ATOM     53  C   UNL A   1      44.179  26.190  30.089  1.00  0.00     0.031 C 
ATOM     54  C   UNL A   1      43.135  29.421  35.121  1.00  0.00     0.029 A 
ATOM     55  C   UNL A   1      43.017  28.861  33.861  1.00  0.00     0.049 A 
ATOM     56  H   UNL A   1      41.520  29.170  32.404  1.00  0.00     0.167 HD
ATOM     57  C   UNL A   1      43.698  27.414  31.967  1.00  0.00     0.074 A 
ATOM     58  C   UNL A   1      44.592  26.480  31.315  1.00  0.00     0.031 C 
ATOM     59  C   UNL A   1      43.894  27.921  33.208  1.00  0.00     0.037 A 
BRANCH  46  60
ATOM     60  C   UNL A   1      39.538  31.926  34.993  1.00  0.00     0.064 A 
ATOM     61  C   UNL A   1      39.866  33.291  34.996  1.00  0.00     0.173 A 
ATOM     62  C   UNL A   1      38.690  31.456  36.008  1.00  0.00     0.173 A 
ATOM     63  F   UNL A   1      40.683  33.791  34.057  1.00  0.00    -0.203 F 
ATOM     64  C   UNL A   1      39.395  34.140  35.995  1.00  0.00     0.198 A 
ATOM     65  C   UNL A   1      38.192  32.315  36.984  1.00  0.00     0.198 A 
ATOM     66  F   UNL A   1      38.337  30.162  36.049  1.00  0.00    -0.203 F 
ATOM     67  F   UNL A   1      39.769  35.427  36.010  1.00  0.00    -0.200 F 
ATOM     68  C   UNL A   1      38.553  33.654  36.983  1.00  0.00     0.200 A 
ATOM     69  F   UNL A   1      37.365  31.845  37.929  1.00  0.00    -0.200 F 
ATOM     70  F   UNL A   1      38.095  34.472  37.940  1.00  0.00    -0.200 F 
ENDBRANCH  46  60
BRANCH  47  71
ATOM     71  C   UNL A   1      42.571  25.867  27.666  1.00  0.00     0.064 A 
ATOM     72  C   UNL A   1      43.525  26.293  26.731  1.00  0.00     0.173 A 
ATOM     73  C   UNL A   1      42.056  24.570  27.527  1.00  0.00     0.173 A 
ATOM     74  F   UNL A   1      44.027  27.534  26.804  1.00  0.00    -0.203 F 
ATOM     75  C   UNL A   1      43.931  25.463  25.688  1.00  0.00     0.198 A 
ATOM     76  C   UNL A   1      42.487  23.729  26.504  1.00  0.00     0.198 A 
ATOM     77  F   UNL A   1      41.138  24.114  28.393  1.00  0.00    -0.203 F 
ATOM     78  F   UNL A   1      44.805  25.913  24.778  1.00  0.00    -0.200 F 
ATOM     79  C   UNL A   1      43.417  24.180  25.579  1.00  0.00     0.200 A 
ATOM     80  F   UNL A   1      41.998  22.486  26.410  1.00  0.00    -0.200 F 
ATOM     81  F   UNL A   1      43.811  23.380  24.579  1.00  0.00    -0.200 F 
ENDBRANCH  47  71
BRANCH  59  82
ATOM     82  C   UNL A   1      45.097  27.441  33.974  1.00  0.00     0.064 A 
ATOM     83  C   UNL A   1      46.323  28.122  33.937  1.00  0.00     0.173 A 
ATOM     84  C   UNL A   1      45.005  26.304  34.794  1.00  0.00     0.173 A 
ATOM     85  F   UNL A   1      46.470  29.206  33.160  1.00  0.00    -0.203 F 
ATOM     86  C   UNL A   1      47.417  27.667  34.669  1.00  0.00     0.198 A 
ATOM     87  C   UNL A   1      46.092  25.873  35.551  1.00  0.00     0.198 A 
ATOM     88  F   UNL A   1      43.854  25.619  34.874  1.00  0.00    -0.203 F 
ATOM     89  F   UNL A   1      48.593  28.304  34.577  1.00  0.00    -0.200 F 
ATOM     90  C   UNL A   1      47.299  26.550  35.481  1.00  0.00     0.200 A 
ATOM     91  F   UNL A   1      45.968  24.804  36.349  1.00  0.00    -0.200 F 
ATOM     92  F   UNL A   1      48.351  26.120  36.192  1.00  0.00    -0.200 F 
ENDBRANCH  59  82
ENDBRANCH  33  34
ENDBRANCH  26  28
ENDBRANCH  25  26
ENDBRANCH  24  25
ENDBRANCH  23  24
ENDBRANCH   1  23
TORSDOF 16
ENDMDL
