MODEL 1
REMARK VINA RESULT:     -11.6      0.000      0.000
REMARK SMILES Cc1ccc(OCCC[N@H+]2CCCC[C@@H]2C(=O)OCCOCCOC(=O)c2ccc(-c3c4nc(c(-c5c(F)c(F)c(F)c(F)c5F)c5ccc([nH]5)c(-c5c(F)c(F)c(F)c(F)c5F)c5nc(c(-c6c(F)c(F)c(F)c(F)c6F)c6ccc3[nH]6)C=C5)C=C4)cc2)cc1C
REMARK SMILES IDX 19 1 18 2 16 3 17 4 15 5 10 6 11 7 12 9 14 10 13 11 9 12
REMARK SMILES IDX 8 13 7 14 6 15 5 16 1 17 2 18 3 19 91 20 4 21 90 22 92 23
REMARK SMILES IDX 20 24 21 25 22 26 23 27 24 28 25 29 26 30 27 31 28 32 89 33
REMARK SMILES IDX 29 34 88 35 30 36 31 37 32 38 82 39 33 40 87 41 81 42 83 43
REMARK SMILES IDX 34 44 86 45 80 46 79 47 35 49 67 50 47 51 66 52 48 53 51 54
REMARK SMILES IDX 65 55 84 56 49 57 50 58 64 60 85 61 52 62 36 63 37 64 45 65
REMARK SMILES IDX 38 66 39 67 43 68 46 69 40 70 41 71 44 72 42 73 68 74 69 75
REMARK SMILES IDX 77 76 70 77 71 78 75 79 78 80 72 81 73 82 76 83 74 84 53 85
REMARK SMILES IDX 54 86 62 87 55 88 56 89 60 90 63 91 57 92 58 93 61 94 59 95
REMARK H PARENT 10 8 83 48 51 59
REMARK Flexibility Score: inf
ROOT
ATOM      1  C   UNL A   1      32.810  27.281  26.116  1.00  0.00     0.261 C 
ENDROOT
BRANCH   1   2
ATOM      2  O   UNL A   1      33.151  25.896  26.133  1.00  0.00    -0.459 OA
BRANCH   2   3
ATOM      3  C   UNL A   1      32.168  25.043  25.731  1.00  0.00     0.364 C 
ATOM      4  O   UNL A   1      30.969  25.226  25.882  1.00  0.00    -0.245 OA
BRANCH   3   5
ATOM      5  C   UNL A   1      32.700  23.817  25.004  1.00  0.00     0.295 C 
ATOM      6  N   UNL A   1      32.715  23.982  23.510  1.00  0.00    -0.323 N 
ATOM      7  C   UNL A   1      33.228  22.717  22.919  1.00  0.00     0.262 C 
ATOM      8  H   UNL A   1      31.770  24.197  23.192  1.00  0.00     0.348 HD
ATOM      9  C   UNL A   1      32.444  21.473  23.348  1.00  0.00     0.062 C 
ATOM     10  C   UNL A   1      31.884  22.605  25.476  1.00  0.00     0.078 C 
ATOM     11  C   UNL A   1      32.411  21.326  24.862  1.00  0.00     0.013 C 
BRANCH   6  12
ATOM     12  C   UNL A   1      33.618  25.095  23.094  1.00  0.00     0.266 C 
BRANCH  12  13
ATOM     13  C   UNL A   1      33.219  25.854  21.806  1.00  0.00     0.103 C 
BRANCH  13  14
ATOM     14  C   UNL A   1      31.767  26.335  21.698  1.00  0.00     0.235 C 
BRANCH  14  15
ATOM     15  O   UNL A   1      31.191  26.786  22.952  1.00  0.00    -0.493 OA
BRANCH  15  16
ATOM     16  C   UNL A   1      30.259  27.779  22.808  1.00  0.00     0.119 A 
ATOM     17  C   UNL A   1      27.657  31.183  23.079  1.00  0.00     0.044 C 
ATOM     18  C   UNL A   1      28.454  29.926  22.853  1.00  0.00    -0.048 A 
ATOM     19  C   UNL A   1      29.729  30.065  22.287  1.00  0.00     0.007 A 
ATOM     20  C   UNL A   1      28.006  28.639  23.209  1.00  0.00    -0.045 A 
ATOM     21  C   UNL A   1      30.616  28.992  22.246  1.00  0.00     0.047 A 
ATOM     22  C   UNL A   1      28.928  27.566  23.181  1.00  0.00     0.050 A 
ATOM     23  C   UNL A   1      26.574  28.380  23.590  1.00  0.00     0.045 C 
ENDBRANCH  15  16
ENDBRANCH  14  15
ENDBRANCH  13  14
ENDBRANCH  12  13
ENDBRANCH   6  12
ENDBRANCH   3   5
ENDBRANCH   2   3
ENDBRANCH   1   2
BRANCH   1  24
ATOM     24  C   UNL A   1      33.518  28.233  25.150  1.00  0.00     0.202 C 
BRANCH  24  25
ATOM     25  O   UNL A   1      33.033  29.540  24.905  1.00  0.00    -0.374 OA
BRANCH  25  26
ATOM     26  C   UNL A   1      31.774  29.902  25.461  1.00  0.00     0.202 C 
BRANCH  26  27
ATOM     27  C   UNL A   1      31.775  30.988  26.538  1.00  0.00     0.261 C 
BRANCH  27  28
ATOM     28  O   UNL A   1      32.900  30.842  27.417  1.00  0.00    -0.460 OA
BRANCH  28  29
ATOM     29  C   UNL A   1      33.623  31.972  27.620  1.00  0.00     0.338 C 
ATOM     30  O   UNL A   1      33.218  33.115  27.688  1.00  0.00    -0.246 OA
BRANCH  29  31
ATOM     31  C   UNL A   1      34.997  31.575  27.997  1.00  0.00     0.060 A 
ATOM     32  C   UNL A   1      35.245  30.215  28.254  1.00  0.00     0.016 A 
ATOM     33  C   UNL A   1      36.023  32.517  28.083  1.00  0.00     0.016 A 
ATOM     34  C   UNL A   1      36.506  29.802  28.668  1.00  0.00     0.010 A 
ATOM     35  C   UNL A   1      37.279  32.109  28.516  1.00  0.00     0.010 A 
ATOM     36  C   UNL A   1      37.503  30.763  28.860  1.00  0.00    -0.014 A 
BRANCH  36  37
ATOM     37  C   UNL A   1      38.680  30.453  29.696  1.00  0.00     0.031 A 
ATOM     38  C   UNL A   1      39.655  29.451  29.145  1.00  0.00     0.074 A 
ATOM     39  C   UNL A   1      38.832  30.987  30.916  1.00  0.00     0.049 A 
ATOM     40  N   UNL A   1      40.634  28.826  29.740  1.00  0.00    -0.248 NA
ATOM     41  C   UNL A   1      39.479  29.086  27.727  1.00  0.00     0.031 C 
ATOM     42  C   UNL A   1      37.966  32.003  31.509  1.00  0.00     0.029 A 
ATOM     43  N   UNL A   1      39.756  30.713  31.891  1.00  0.00    -0.354 N 
ATOM     44  C   UNL A   1      41.167  27.975  28.781  1.00  0.00     0.074 A 
ATOM     45  C   UNL A   1      40.396  28.146  27.571  1.00  0.00     0.031 C 
ATOM     46  C   UNL A   1      38.377  32.241  32.767  1.00  0.00     0.029 A 
ATOM     47  C   UNL A   1      39.499  31.357  33.076  1.00  0.00     0.049 A 
ATOM     48  H   UNL A   1      40.526  30.116  31.754  1.00  0.00     0.167 HD
ATOM     49  C   UNL A   1      42.209  27.123  28.909  1.00  0.00     0.037 A 
ATOM     50  C   UNL A   1      40.084  31.202  34.280  1.00  0.00     0.037 A 
ATOM     51  C   UNL A   1      42.959  26.972  30.124  1.00  0.00     0.049 A 
ATOM     52  C   UNL A   1      41.204  30.200  34.416  1.00  0.00     0.074 A 
ATOM     53  C   UNL A   1      44.048  26.160  30.374  1.00  0.00     0.029 A 
ATOM     54  N   UNL A   1      42.683  27.656  31.302  1.00  0.00    -0.354 N 
ATOM     55  N   UNL A   1      41.721  29.405  33.507  1.00  0.00    -0.248 NA
ATOM     56  C   UNL A   1      41.822  30.069  35.742  1.00  0.00     0.031 C 
ATOM     57  C   UNL A   1      44.395  26.307  31.719  1.00  0.00     0.029 A 
ATOM     58  C   UNL A   1      43.568  27.263  32.289  1.00  0.00     0.049 A 
ATOM     59  H   UNL A   1      41.965  28.320  31.417  1.00  0.00     0.167 HD
ATOM     60  C   UNL A   1      42.745  28.711  34.140  1.00  0.00     0.074 A 
ATOM     61  C   UNL A   1      42.779  29.181  35.510  1.00  0.00     0.031 C 
ATOM     62  C   UNL A   1      43.587  27.775  33.637  1.00  0.00     0.037 A 
BRANCH  49  63
ATOM     63  C   UNL A   1      42.567  26.272  27.726  1.00  0.00     0.064 A 
ATOM     64  C   UNL A   1      41.919  25.055  27.463  1.00  0.00     0.173 A 
ATOM     65  C   UNL A   1      43.561  26.691  26.828  1.00  0.00     0.173 A 
ATOM     66  F   UNL A   1      40.976  24.597  28.301  1.00  0.00    -0.203 F 
ATOM     67  C   UNL A   1      42.268  24.280  26.359  1.00  0.00     0.198 A 
ATOM     68  C   UNL A   1      43.885  25.930  25.709  1.00  0.00     0.198 A 
ATOM     69  F   UNL A   1      44.216  27.844  27.034  1.00  0.00    -0.203 F 
ATOM     70  F   UNL A   1      41.670  23.099  26.157  1.00  0.00    -0.200 F 
ATOM     71  C   UNL A   1      43.243  24.722  25.479  1.00  0.00     0.200 A 
ATOM     72  F   UNL A   1      44.820  26.365  24.853  1.00  0.00    -0.200 F 
ATOM     73  F   UNL A   1      43.572  23.981  24.412  1.00  0.00    -0.200 F 
ENDBRANCH  49  63
BRANCH  50  74
ATOM     74  C   UNL A   1      39.609  31.988  35.448  1.00  0.00     0.064 A 
ATOM     75  C   UNL A   1      38.629  31.478  36.310  1.00  0.00     0.173 A 
ATOM     76  C   UNL A   1      40.111  33.270  35.722  1.00  0.00     0.173 A 
ATOM     77  F   UNL A   1      38.100  30.267  36.080  1.00  0.00    -0.203 F 
ATOM     78  C   UNL A   1      38.154  32.226  37.387  1.00  0.00     0.198 A 
ATOM     79  C   UNL A   1      39.658  34.004  36.818  1.00  0.00     0.198 A 
ATOM     80  F   UNL A   1      41.050  33.808  34.931  1.00  0.00    -0.203 F 
ATOM     81  F   UNL A   1      37.179  31.731  38.164  1.00  0.00    -0.200 F 
ATOM     82  C   UNL A   1      38.674  33.485  37.644  1.00  0.00     0.200 A 
ATOM     83  F   UNL A   1      40.173  35.214  37.070  1.00  0.00    -0.200 F 
ATOM     84  F   UNL A   1      38.218  34.202  38.681  1.00  0.00    -0.200 F 
ENDBRANCH  50  74
BRANCH  62  85
ATOM     85  C   UNL A   1      44.656  27.241  34.546  1.00  0.00     0.064 A 
ATOM     86  C   UNL A   1      45.887  27.891  34.701  1.00  0.00     0.173 A 
ATOM     87  C   UNL A   1      44.400  26.111  35.338  1.00  0.00     0.173 A 
ATOM     88  F   UNL A   1      46.182  28.967  33.957  1.00  0.00    -0.203 F 
ATOM     89  C   UNL A   1      46.831  27.420  35.609  1.00  0.00     0.198 A 
ATOM     90  C   UNL A   1      45.332  25.664  36.267  1.00  0.00     0.198 A 
ATOM     91  F   UNL A   1      43.230  25.462  35.233  1.00  0.00    -0.203 F 
ATOM     92  F   UNL A   1      48.017  28.034  35.719  1.00  0.00    -0.200 F 
ATOM     93  C   UNL A   1      46.548  26.314  36.399  1.00  0.00     0.200 A 
ATOM     94  F   UNL A   1      45.047  24.609  37.043  1.00  0.00    -0.200 F 
ATOM     95  F   UNL A   1      47.450  25.876  37.288  1.00  0.00    -0.200 F 
ENDBRANCH  62  85
ENDBRANCH  36  37
ENDBRANCH  29  31
ENDBRANCH  28  29
ENDBRANCH  27  28
ENDBRANCH  26  27
ENDBRANCH  25  26
ENDBRANCH  24  25
ENDBRANCH   1  24
TORSDOF 19
ENDMDL
MODEL 2
REMARK VINA RESULT:     -11.2      4.482      8.827
REMARK SMILES Cc1ccc(OCCC[N@H+]2CCCC[C@@H]2C(=O)OCCOCCOC(=O)c2ccc(-c3c4nc(c(-c5c(F)c(F)c(F)c(F)c5F)c5ccc([nH]5)c(-c5c(F)c(F)c(F)c(F)c5F)c5nc(c(-c6c(F)c(F)c(F)c(F)c6F)c6ccc3[nH]6)C=C5)C=C4)cc2)cc1C
REMARK SMILES IDX 19 1 18 2 16 3 17 4 15 5 10 6 11 7 12 9 14 10 13 11 9 12
REMARK SMILES IDX 8 13 7 14 6 15 5 16 1 17 2 18 3 19 91 20 4 21 90 22 92 23
REMARK SMILES IDX 20 24 21 25 22 26 23 27 24 28 25 29 26 30 27 31 28 32 89 33
REMARK SMILES IDX 29 34 88 35 30 36 31 37 32 38 82 39 33 40 87 41 81 42 83 43
REMARK SMILES IDX 34 44 86 45 80 46 79 47 35 49 67 50 47 51 66 52 48 53 51 54
REMARK SMILES IDX 65 55 84 56 49 57 50 58 64 60 85 61 52 62 36 63 37 64 45 65
REMARK SMILES IDX 38 66 39 67 43 68 46 69 40 70 41 71 44 72 42 73 68 74 69 75
REMARK SMILES IDX 77 76 70 77 71 78 75 79 78 80 72 81 73 82 76 83 74 84 53 85
REMARK SMILES IDX 54 86 62 87 55 88 56 89 60 90 63 91 57 92 58 93 61 94 59 95
REMARK H PARENT 10 8 83 48 51 59
REMARK Flexibility Score: inf
ROOT
ATOM      1  C   UNL A   1      33.732  30.865  27.082  1.00  0.00     0.261 C 
ENDROOT
BRANCH   1   2
ATOM      2  O   UNL A   1      32.732  29.869  26.873  1.00  0.00    -0.459 OA
BRANCH   2   3
ATOM      3  C   UNL A   1      33.177  28.685  26.369  1.00  0.00     0.364 C 
ATOM      4  O   UNL A   1      33.804  27.842  26.995  1.00  0.00    -0.245 OA
BRANCH   3   5
ATOM      5  C   UNL A   1      32.770  28.460  24.921  1.00  0.00     0.295 C 
ATOM      6  N   UNL A   1      32.025  27.171  24.714  1.00  0.00    -0.323 N 
ATOM      7  C   UNL A   1      31.709  27.057  23.265  1.00  0.00     0.262 C 
ATOM      8  H   UNL A   1      32.605  26.398  25.039  1.00  0.00     0.348 HD
ATOM      9  C   UNL A   1      32.936  27.159  22.354  1.00  0.00     0.062 C 
ATOM     10  C   UNL A   1      34.035  28.579  24.058  1.00  0.00     0.078 C 
ATOM     11  C   UNL A   1      33.700  28.454  22.587  1.00  0.00     0.013 C 
BRANCH   6  12
ATOM     12  C   UNL A   1      30.743  27.154  25.478  1.00  0.00     0.266 C 
BRANCH  12  13
ATOM     13  C   UNL A   1      29.838  25.917  25.268  1.00  0.00     0.103 C 
BRANCH  13  14
ATOM     14  C   UNL A   1      30.104  24.696  26.158  1.00  0.00     0.235 C 
BRANCH  14  15
ATOM     15  O   UNL A   1      31.378  24.729  26.852  1.00  0.00    -0.493 OA
BRANCH  15  16
ATOM     16  C   UNL A   1      32.336  23.929  26.287  1.00  0.00     0.119 A 
ATOM     17  C   UNL A   1      35.390  21.082  25.286  1.00  0.00     0.044 C 
ATOM     18  C   UNL A   1      34.360  22.163  25.476  1.00  0.00    -0.048 A 
ATOM     19  C   UNL A   1      33.012  21.781  25.446  1.00  0.00     0.007 A 
ATOM     20  C   UNL A   1      34.677  23.515  25.715  1.00  0.00    -0.045 A 
ATOM     21  C   UNL A   1      32.007  22.666  25.829  1.00  0.00     0.047 A 
ATOM     22  C   UNL A   1      33.646  24.394  26.124  1.00  0.00     0.050 A 
ATOM     23  C   UNL A   1      36.072  24.044  25.522  1.00  0.00     0.045 C 
ENDBRANCH  15  16
ENDBRANCH  14  15
ENDBRANCH  13  14
ENDBRANCH  12  13
ENDBRANCH   6  12
ENDBRANCH   3   5
ENDBRANCH   2   3
ENDBRANCH   1   2
BRANCH   1  24
ATOM     24  C   UNL A   1      33.387  32.148  27.843  1.00  0.00     0.202 C 
BRANCH  24  25
ATOM     25  O   UNL A   1      34.303  33.224  27.937  1.00  0.00    -0.374 OA
BRANCH  25  26
ATOM     26  C   UNL A   1      33.974  34.311  28.794  1.00  0.00     0.202 C 
BRANCH  26  27
ATOM     27  C   UNL A   1      34.282  34.141  30.283  1.00  0.00     0.261 C 
BRANCH  27  28
ATOM     28  O   UNL A   1      35.524  33.448  30.477  1.00  0.00    -0.460 OA
BRANCH  28  29
ATOM     29  C   UNL A   1      35.455  32.352  31.274  1.00  0.00     0.338 C 
ATOM     30  O   UNL A   1      34.596  32.074  32.086  1.00  0.00    -0.246 OA
BRANCH  29  31
ATOM     31  C   UNL A   1      36.491  31.395  30.828  1.00  0.00     0.060 A 
ATOM     32  C   UNL A   1      37.243  30.731  31.812  1.00  0.00     0.016 A 
ATOM     33  C   UNL A   1      36.708  31.146  29.473  1.00  0.00     0.016 A 
ATOM     34  C   UNL A   1      38.267  29.866  31.442  1.00  0.00     0.010 A 
ATOM     35  C   UNL A   1      37.744  30.297  29.101  1.00  0.00     0.010 A 
ATOM     36  C   UNL A   1      38.556  29.702  30.085  1.00  0.00    -0.014 A 
BRANCH  36  37
ATOM     37  C   UNL A   1      39.867  29.170  29.665  1.00  0.00     0.031 A 
ATOM     38  C   UNL A   1      41.001  30.152  29.583  1.00  0.00     0.074 A 
ATOM     39  C   UNL A   1      40.019  27.887  29.305  1.00  0.00     0.049 A 
ATOM     40  N   UNL A   1      42.179  30.023  29.037  1.00  0.00    -0.248 NA
ATOM     41  C   UNL A   1      40.756  31.477  30.183  1.00  0.00     0.031 C 
ATOM     42  C   UNL A   1      38.991  26.854  29.401  1.00  0.00     0.029 A 
ATOM     43  N   UNL A   1      41.096  27.248  28.749  1.00  0.00    -0.354 N 
ATOM     44  C   UNL A   1      42.799  31.256  29.199  1.00  0.00     0.074 A 
ATOM     45  C   UNL A   1      41.867  32.126  29.876  1.00  0.00     0.031 C 
ATOM     46  C   UNL A   1      39.475  25.712  28.881  1.00  0.00     0.029 A 
ATOM     47  C   UNL A   1      40.824  25.955  28.374  1.00  0.00     0.049 A 
ATOM     48  H   UNL A   1      41.976  27.672  28.632  1.00  0.00     0.167 HD
ATOM     49  C   UNL A   1      44.041  31.621  28.808  1.00  0.00     0.037 A 
ATOM     50  C   UNL A   1      41.575  25.094  27.659  1.00  0.00     0.037 A 
ATOM     51  C   UNL A   1      44.949  30.735  28.136  1.00  0.00     0.049 A 
ATOM     52  C   UNL A   1      42.932  25.545  27.178  1.00  0.00     0.074 A 
ATOM     53  C   UNL A   1      46.239  30.979  27.709  1.00  0.00     0.029 A 
ATOM     54  N   UNL A   1      44.647  29.424  27.788  1.00  0.00    -0.354 N 
ATOM     55  N   UNL A   1      43.528  26.704  27.343  1.00  0.00    -0.248 NA
ATOM     56  C   UNL A   1      43.723  24.573  26.411  1.00  0.00     0.031 C 
ATOM     57  C   UNL A   1      46.698  29.836  27.050  1.00  0.00     0.029 A 
ATOM     58  C   UNL A   1      45.720  28.855  27.128  1.00  0.00     0.049 A 
ATOM     59  H   UNL A   1      43.795  28.968  27.982  1.00  0.00     0.167 HD
ATOM     60  C   UNL A   1      44.772  26.587  26.737  1.00  0.00     0.074 A 
ATOM     61  C   UNL A   1      44.847  25.242  26.201  1.00  0.00     0.031 C 
ATOM     62  C   UNL A   1      45.768  27.502  26.633  1.00  0.00     0.037 A 
BRANCH  49  63
ATOM     63  C   UNL A   1      44.466  33.038  29.064  1.00  0.00     0.064 A 
ATOM     64  C   UNL A   1      45.138  33.412  30.237  1.00  0.00     0.173 A 
ATOM     65  C   UNL A   1      44.214  34.034  28.108  1.00  0.00     0.173 A 
ATOM     66  F   UNL A   1      45.385  32.502  31.193  1.00  0.00    -0.203 F 
ATOM     67  C   UNL A   1      45.523  34.733  30.454  1.00  0.00     0.198 A 
ATOM     68  C   UNL A   1      44.629  35.347  28.314  1.00  0.00     0.198 A 
ATOM     69  F   UNL A   1      43.570  33.733  26.970  1.00  0.00    -0.203 F 
ATOM     70  F   UNL A   1      46.119  35.075  31.604  1.00  0.00    -0.200 F 
ATOM     71  C   UNL A   1      45.276  35.697  29.488  1.00  0.00     0.200 A 
ATOM     72  F   UNL A   1      44.399  36.275  27.373  1.00  0.00    -0.200 F 
ATOM     73  F   UNL A   1      45.655  36.965  29.693  1.00  0.00    -0.200 F 
ENDBRANCH  49  63
BRANCH  50  74
ATOM     74  C   UNL A   1      41.053  23.741  27.333  1.00  0.00     0.064 A 
ATOM     75  C   UNL A   1      41.610  22.594  27.913  1.00  0.00     0.173 A 
ATOM     76  C   UNL A   1      39.997  23.563  26.426  1.00  0.00     0.173 A 
ATOM     77  F   UNL A   1      42.637  22.708  28.769  1.00  0.00    -0.203 F 
ATOM     78  C   UNL A   1      41.147  21.320  27.583  1.00  0.00     0.198 A 
ATOM     79  C   UNL A   1      39.513  22.291  26.121  1.00  0.00     0.198 A 
ATOM     80  F   UNL A   1      39.425  24.625  25.841  1.00  0.00    -0.203 F 
ATOM     81  F   UNL A   1      41.735  20.239  28.115  1.00  0.00    -0.200 F 
ATOM     82  C   UNL A   1      40.096  21.171  26.693  1.00  0.00     0.200 A 
ATOM     83  F   UNL A   1      38.488  22.152  25.271  1.00  0.00    -0.200 F 
ATOM     84  F   UNL A   1      39.650  19.946  26.378  1.00  0.00    -0.200 F 
ENDBRANCH  50  74
BRANCH  62  85
ATOM     85  C   UNL A   1      47.045  27.069  25.976  1.00  0.00     0.064 A 
ATOM     86  C   UNL A   1      47.301  27.318  24.622  1.00  0.00     0.173 A 
ATOM     87  C   UNL A   1      48.060  26.476  26.743  1.00  0.00     0.173 A 
ATOM     88  F   UNL A   1      46.358  27.872  23.846  1.00  0.00    -0.203 F 
ATOM     89  C   UNL A   1      48.526  26.976  24.054  1.00  0.00     0.198 A 
ATOM     90  C   UNL A   1      49.293  26.166  26.180  1.00  0.00     0.198 A 
ATOM     91  F   UNL A   1      47.865  26.228  28.047  1.00  0.00    -0.203 F 
ATOM     92  F   UNL A   1      48.740  27.190  22.749  1.00  0.00    -0.200 F 
ATOM     93  C   UNL A   1      49.524  26.412  24.836  1.00  0.00     0.200 A 
ATOM     94  F   UNL A   1      50.262  25.641  26.943  1.00  0.00    -0.200 F 
ATOM     95  F   UNL A   1      50.710  26.104  24.292  1.00  0.00    -0.200 F 
ENDBRANCH  62  85
ENDBRANCH  36  37
ENDBRANCH  29  31
ENDBRANCH  28  29
ENDBRANCH  27  28
ENDBRANCH  26  27
ENDBRANCH  25  26
ENDBRANCH  24  25
ENDBRANCH   1  24
TORSDOF 19
ENDMDL
MODEL 3
REMARK VINA RESULT:     -11.0      1.358      7.904
REMARK SMILES Cc1ccc(OCCC[N@H+]2CCCC[C@@H]2C(=O)OCCOCCOC(=O)c2ccc(-c3c4nc(c(-c5c(F)c(F)c(F)c(F)c5F)c5ccc([nH]5)c(-c5c(F)c(F)c(F)c(F)c5F)c5nc(c(-c6c(F)c(F)c(F)c(F)c6F)c6ccc3[nH]6)C=C5)C=C4)cc2)cc1C
REMARK SMILES IDX 19 1 18 2 16 3 17 4 15 5 10 6 11 7 12 9 14 10 13 11 9 12
REMARK SMILES IDX 8 13 7 14 6 15 5 16 1 17 2 18 3 19 91 20 4 21 90 22 92 23
REMARK SMILES IDX 20 24 21 25 22 26 23 27 24 28 25 29 26 30 27 31 28 32 89 33
REMARK SMILES IDX 29 34 88 35 30 36 31 37 32 38 82 39 33 40 87 41 81 42 83 43
REMARK SMILES IDX 34 44 86 45 80 46 79 47 35 49 67 50 47 51 66 52 48 53 51 54
REMARK SMILES IDX 65 55 84 56 49 57 50 58 64 60 85 61 52 62 36 63 37 64 45 65
REMARK SMILES IDX 38 66 39 67 43 68 46 69 40 70 41 71 44 72 42 73 68 74 69 75
REMARK SMILES IDX 77 76 70 77 71 78 75 79 78 80 72 81 73 82 76 83 74 84 53 85
REMARK SMILES IDX 54 86 62 87 55 88 56 89 60 90 63 91 57 92 58 93 61 94 59 95
REMARK H PARENT 10 8 83 48 51 59
REMARK Flexibility Score: inf
ROOT
ATOM      1  C   UNL A   1      33.048  29.177  25.732  1.00  0.00     0.261 C 
ENDROOT
BRANCH   1   2
ATOM      2  O   UNL A   1      32.591  28.000  25.069  1.00  0.00    -0.459 OA
BRANCH   2   3
ATOM      3  C   UNL A   1      31.810  28.207  23.973  1.00  0.00     0.364 C 
ATOM      4  O   UNL A   1      31.284  29.269  23.671  1.00  0.00    -0.245 OA
BRANCH   3   5
ATOM      5  C   UNL A   1      31.681  26.976  23.089  1.00  0.00     0.295 C 
ATOM      6  N   UNL A   1      31.377  25.725  23.865  1.00  0.00    -0.323 N 
ATOM      7  C   UNL A   1      31.301  24.598  22.899  1.00  0.00     0.262 C 
ATOM      8  H   UNL A   1      32.108  25.582  24.562  1.00  0.00     0.348 HD
ATOM      9  C   UNL A   1      32.555  24.441  22.033  1.00  0.00     0.062 C 
ATOM     10  C   UNL A   1      32.959  26.873  22.243  1.00  0.00     0.078 C 
ATOM     11  C   UNL A   1      32.872  25.718  21.269  1.00  0.00     0.013 C 
BRANCH   6  12
ATOM     12  C   UNL A   1      30.067  25.828  24.572  1.00  0.00     0.266 C 
BRANCH  12  13
ATOM     13  C   UNL A   1      30.058  25.410  26.062  1.00  0.00     0.103 C 
BRANCH  13  14
ATOM     14  C   UNL A   1      31.406  25.037  26.692  1.00  0.00     0.235 C 
BRANCH  14  15
ATOM     15  O   UNL A   1      31.399  23.781  27.419  1.00  0.00    -0.493 OA
BRANCH  15  16
ATOM     16  C   UNL A   1      32.230  22.831  26.889  1.00  0.00     0.119 A 
ATOM     17  C   UNL A   1      35.300  20.512  24.981  1.00  0.00     0.044 C 
ATOM     18  C   UNL A   1      34.123  21.169  25.652  1.00  0.00    -0.048 A 
ATOM     19  C   UNL A   1      34.293  21.598  26.976  1.00  0.00     0.007 A 
ATOM     20  C   UNL A   1      32.889  21.404  25.015  1.00  0.00    -0.045 A 
ATOM     21  C   UNL A   1      33.342  22.405  27.595  1.00  0.00     0.047 A 
ATOM     22  C   UNL A   1      31.944  22.244  25.651  1.00  0.00     0.050 A 
ATOM     23  C   UNL A   1      32.547  20.765  23.697  1.00  0.00     0.045 C 
ENDBRANCH  15  16
ENDBRANCH  14  15
ENDBRANCH  13  14
ENDBRANCH  12  13
ENDBRANCH   6  12
ENDBRANCH   3   5
ENDBRANCH   2   3
ENDBRANCH   1   2
BRANCH   1  24
ATOM     24  C   UNL A   1      32.157  29.869  26.766  1.00  0.00     0.202 C 
BRANCH  24  25
ATOM     25  O   UNL A   1      32.496  31.130  27.313  1.00  0.00    -0.374 OA
BRANCH  25  26
ATOM     26  C   UNL A   1      31.813  32.279  26.823  1.00  0.00     0.202 C 
BRANCH  26  27
ATOM     27  C   UNL A   1      32.253  33.637  27.371  1.00  0.00     0.261 C 
BRANCH  27  28
ATOM     28  O   UNL A   1      33.337  33.492  28.301  1.00  0.00    -0.460 OA
BRANCH  28  29
ATOM     29  C   UNL A   1      34.487  34.118  27.948  1.00  0.00     0.338 C 
ATOM     30  O   UNL A   1      34.631  35.274  27.605  1.00  0.00    -0.246 OA
BRANCH  29  31
ATOM     31  C   UNL A   1      35.617  33.223  28.280  1.00  0.00     0.060 A 
ATOM     32  C   UNL A   1      35.409  31.836  28.187  1.00  0.00     0.016 A 
ATOM     33  C   UNL A   1      36.857  33.737  28.659  1.00  0.00     0.016 A 
ATOM     34  C   UNL A   1      36.423  30.954  28.544  1.00  0.00     0.010 A 
ATOM     35  C   UNL A   1      37.864  32.857  29.036  1.00  0.00     0.010 A 
ATOM     36  C   UNL A   1      37.628  31.469  29.030  1.00  0.00    -0.014 A 
BRANCH  36  37
ATOM     37  C   UNL A   1      38.537  30.613  29.817  1.00  0.00     0.031 A 
ATOM     38  C   UNL A   1      38.665  30.927  31.280  1.00  0.00     0.074 A 
ATOM     39  C   UNL A   1      39.266  29.648  29.237  1.00  0.00     0.049 A 
ATOM     40  N   UNL A   1      39.541  30.504  32.151  1.00  0.00    -0.248 NA
ATOM     41  C   UNL A   1      37.678  31.876  31.829  1.00  0.00     0.031 C 
ATOM     42  C   UNL A   1      39.168  29.239  27.838  1.00  0.00     0.029 A 
ATOM     43  N   UNL A   1      40.262  28.862  29.755  1.00  0.00    -0.354 N 
ATOM     44  C   UNL A   1      39.229  31.158  33.336  1.00  0.00     0.074 A 
ATOM     45  C   UNL A   1      38.099  32.018  33.075  1.00  0.00     0.031 C 
ATOM     46  C   UNL A   1      40.101  28.301  27.595  1.00  0.00     0.029 A 
ATOM     47  C   UNL A   1      40.886  28.086  28.810  1.00  0.00     0.049 A 
ATOM     48  H   UNL A   1      40.505  28.855  30.708  1.00  0.00     0.167 HD
ATOM     49  C   UNL A   1      39.842  31.046  34.536  1.00  0.00     0.037 A 
ATOM     50  C   UNL A   1      41.995  27.329  28.918  1.00  0.00     0.037 A 
ATOM     51  C   UNL A   1      40.965  30.182  34.769  1.00  0.00     0.049 A 
ATOM     52  C   UNL A   1      42.701  27.268  30.251  1.00  0.00     0.074 A 
ATOM     53  C   UNL A   1      41.660  29.963  35.942  1.00  0.00     0.029 A 
ATOM     54  N   UNL A   1      41.561  29.394  33.792  1.00  0.00    -0.354 N 
ATOM     55  N   UNL A   1      42.401  27.872  31.377  1.00  0.00    -0.248 NA
ATOM     56  C   UNL A   1      43.901  26.425  30.330  1.00  0.00     0.031 C 
ATOM     57  C   UNL A   1      42.713  29.088  35.663  1.00  0.00     0.029 A 
ATOM     58  C   UNL A   1      42.631  28.707  34.332  1.00  0.00     0.049 A 
ATOM     59  H   UNL A   1      41.265  29.334  32.855  1.00  0.00     0.167 HD
ATOM     60  C   UNL A   1      43.347  27.453  32.304  1.00  0.00     0.074 A 
ATOM     61  C   UNL A   1      44.232  26.540  31.608  1.00  0.00     0.031 C 
ATOM     62  C   UNL A   1      43.474  27.784  33.613  1.00  0.00     0.037 A 
BRANCH  49  63
ATOM     63  C   UNL A   1      39.338  31.899  35.662  1.00  0.00     0.064 A 
ATOM     64  C   UNL A   1      38.412  31.419  36.602  1.00  0.00     0.173 A 
ATOM     65  C   UNL A   1      39.805  33.214  35.817  1.00  0.00     0.173 A 
ATOM     66  F   UNL A   1      37.917  30.177  36.488  1.00  0.00    -0.203 F 
ATOM     67  C   UNL A   1      37.957  32.230  37.639  1.00  0.00     0.198 A 
ATOM     68  C   UNL A   1      39.372  34.010  36.874  1.00  0.00     0.198 A 
ATOM     69  F   UNL A   1      40.687  33.725  34.945  1.00  0.00    -0.203 F 
ATOM     70  F   UNL A   1      37.036  31.766  38.493  1.00  0.00    -0.200 F 
ATOM     71  C   UNL A   1      38.444  33.520  37.779  1.00  0.00     0.200 A 
ATOM     72  F   UNL A   1      39.853  35.253  37.013  1.00  0.00    -0.200 F 
ATOM     73  F   UNL A   1      38.013  34.296  38.783  1.00  0.00    -0.200 F 
ENDBRANCH  49  63
BRANCH  50  74
ATOM     74  C   UNL A   1      42.520  26.598  27.735  1.00  0.00     0.064 A 
ATOM     75  C   UNL A   1      42.144  25.271  27.483  1.00  0.00     0.173 A 
ATOM     76  C   UNL A   1      43.416  27.200  26.840  1.00  0.00     0.173 A 
ATOM     77  F   UNL A   1      41.307  24.641  28.321  1.00  0.00    -0.203 F 
ATOM     78  C   UNL A   1      42.660  24.569  26.394  1.00  0.00     0.198 A 
ATOM     79  C   UNL A   1      43.907  26.508  25.733  1.00  0.00     0.198 A 
ATOM     80  F   UNL A   1      43.809  28.468  27.031  1.00  0.00    -0.203 F 
ATOM     81  F   UNL A   1      42.323  23.285  26.208  1.00  0.00    -0.200 F 
ATOM     82  C   UNL A   1      43.536  25.191  25.517  1.00  0.00     0.200 A 
ATOM     83  F   UNL A   1      44.742  27.117  24.881  1.00  0.00    -0.200 F 
ATOM     84  F   UNL A   1      44.030  24.516  24.470  1.00  0.00    -0.200 F 
ENDBRANCH  50  74
BRANCH  62  85
ATOM     85  C   UNL A   1      44.564  27.113  34.397  1.00  0.00     0.064 A 
ATOM     86  C   UNL A   1      45.794  27.739  34.637  1.00  0.00     0.173 A 
ATOM     87  C   UNL A   1      44.331  25.863  34.990  1.00  0.00     0.173 A 
ATOM     88  F   UNL A   1      46.067  28.929  34.082  1.00  0.00    -0.203 F 
ATOM     89  C   UNL A   1      46.759  27.129  35.434  1.00  0.00     0.198 A 
ATOM     90  C   UNL A   1      45.285  25.272  35.811  1.00  0.00     0.198 A 
ATOM     91  F   UNL A   1      43.164  25.230  34.797  1.00  0.00    -0.203 F 
ATOM     92  F   UNL A   1      47.944  27.726  35.623  1.00  0.00    -0.200 F 
ATOM     93  C   UNL A   1      46.499  25.902  36.028  1.00  0.00     0.200 A 
ATOM     94  F   UNL A   1      45.022  24.098  36.401  1.00  0.00    -0.200 F 
ATOM     95  F   UNL A   1      47.422  25.328  36.813  1.00  0.00    -0.200 F 
ENDBRANCH  62  85
ENDBRANCH  36  37
ENDBRANCH  29  31
ENDBRANCH  28  29
ENDBRANCH  27  28
ENDBRANCH  26  27
ENDBRANCH  25  26
ENDBRANCH  24  25
ENDBRANCH   1  24
TORSDOF 19
ENDMDL
