MODEL 1
REMARK VINA RESULT:     -11.7      0.000      0.000
REMARK SMILES O=C(CCCN1C(=O)C(=O)/C(=C(/[O-])c2ccccc2)[C@@H]1/C=C/c1ccccc1)OCCOCCOC(=O)c1ccc(-c2c3nc(c(-c4c(F)c(F)c(F)c(F)c4F)c4ccc([nH]4)c(-c4c(F)c(F)c(F)c(F)c4F)c4nc(c(-c5c(F)c(F)c(F)c(F)c5F)c5ccc2[nH]5)C=C4)C=C3)cc1
REMARK SMILES IDX 30 1 29 2 2 3 1 4 3 5 4 6 5 7 6 8 7 9 20 10 8 11 9 12 11 13
REMARK SMILES IDX 10 14 12 15 13 16 21 17 22 18 23 19 24 20 28 21 25 22 27 23
REMARK SMILES IDX 26 24 14 25 15 26 19 27 16 28 18 29 17 30 31 31 32 32 33 33
REMARK SMILES IDX 34 34 35 35 36 36 37 37 38 38 39 39 100 40 40 41 99 42 41 43
REMARK SMILES IDX 42 44 43 45 93 46 44 47 98 48 92 49 94 50 45 51 97 52 91 53
REMARK SMILES IDX 90 54 46 56 78 57 58 58 77 59 59 60 62 61 76 62 95 63 60 64
REMARK SMILES IDX 61 65 75 67 96 68 63 69 47 70 48 71 56 72 49 73 50 74 54 75
REMARK SMILES IDX 57 76 51 77 52 78 55 79 53 80 79 81 80 82 88 83 81 84 82 85
REMARK SMILES IDX 86 86 89 87 83 88 84 89 87 90 85 91 64 92 65 93 73 94 66 95
REMARK SMILES IDX 67 96 71 97 74 98 68 99 69 100 72 101 70 102
REMARK H PARENT 94 55 62 66
REMARK Flexibility Score: inf
ROOT
ATOM      1  C   UNL A   1      35.457  23.729  23.285  1.00  0.00     0.261 C 
ENDROOT
BRANCH   1   2
ATOM      2  O   UNL A   1      34.301  23.524  22.462  1.00  0.00    -0.463 OA
BRANCH   2   3
ATOM      3  C   UNL A   1      33.362  24.482  22.404  1.00  0.00     0.305 C 
ATOM      4  O   UNL A   1      33.579  25.576  21.892  1.00  0.00    -0.252 OA
BRANCH   3   5
ATOM      5  C   UNL A   1      32.018  24.102  22.987  1.00  0.00     0.124 C 
BRANCH   5   6
ATOM      6  C   UNL A   1      30.775  24.840  22.514  1.00  0.00     0.033 C 
BRANCH   6   7
ATOM      7  C   UNL A   1      29.934  25.667  23.492  1.00  0.00     0.121 C 
BRANCH   7   8
ATOM      8  N   UNL A   1      30.469  26.791  24.265  1.00  0.00    -0.325 N 
ATOM      9  C   UNL A   1      31.107  27.816  23.581  1.00  0.00     0.295 C 
ATOM     10  C   UNL A   1      30.673  26.886  25.707  1.00  0.00     0.143 C 
ATOM     11  O   UNL A   1      31.086  28.047  22.392  1.00  0.00    -0.265 OA
ATOM     12  C   UNL A   1      31.910  28.622  24.595  1.00  0.00     0.248 C 
ATOM     13  C   UNL A   1      31.633  28.041  25.932  1.00  0.00     0.024 C 
ATOM     14  O   UNL A   1      32.613  29.558  24.295  1.00  0.00    -0.283 OA
ATOM     15  C   UNL A   1      32.174  28.454  27.096  1.00  0.00    -0.092 C 
ATOM     16  O   UNL A   1      31.809  27.908  28.314  1.00  0.00    -0.872 OA
BRANCH  10  17
ATOM     17  C   UNL A   1      31.198  25.587  26.239  1.00  0.00     0.003 C 
ATOM     18  C   UNL A   1      32.474  25.194  26.075  1.00  0.00     0.006 C 
BRANCH  18  19
ATOM     19  C   UNL A   1      33.065  23.958  26.605  1.00  0.00    -0.026 A 
ATOM     20  C   UNL A   1      32.219  23.033  27.235  1.00  0.00     0.008 A 
ATOM     21  C   UNL A   1      34.431  23.664  26.519  1.00  0.00     0.008 A 
ATOM     22  C   UNL A   1      32.724  21.833  27.740  1.00  0.00     0.001 A 
ATOM     23  C   UNL A   1      34.936  22.462  27.019  1.00  0.00     0.001 A 
ATOM     24  C   UNL A   1      34.081  21.545  27.625  1.00  0.00     0.000 A 
ENDBRANCH  18  19
ENDBRANCH  10  17
BRANCH  15  25
ATOM     25  C   UNL A   1      33.241  29.456  27.262  1.00  0.00    -0.033 A 
ATOM     26  C   UNL A   1      34.576  29.028  27.318  1.00  0.00     0.007 A 
ATOM     27  C   UNL A   1      32.960  30.815  27.444  1.00  0.00     0.007 A 
ATOM     28  C   UNL A   1      35.612  29.942  27.526  1.00  0.00     0.001 A 
ATOM     29  C   UNL A   1      33.998  31.731  27.645  1.00  0.00     0.001 A 
ATOM     30  C   UNL A   1      35.321  31.295  27.686  1.00  0.00     0.000 A 
ENDBRANCH  15  25
ENDBRANCH   7   8
ENDBRANCH   6   7
ENDBRANCH   5   6
ENDBRANCH   3   5
ENDBRANCH   2   3
ENDBRANCH   1   2
BRANCH   1  31
ATOM     31  C   UNL A   1      36.653  22.775  23.223  1.00  0.00     0.202 C 
BRANCH  31  32
ATOM     32  O   UNL A   1      37.170  22.312  24.467  1.00  0.00    -0.374 OA
BRANCH  32  33
ATOM     33  C   UNL A   1      37.174  20.879  24.595  1.00  0.00     0.202 C 
BRANCH  33  34
ATOM     34  C   UNL A   1      38.486  20.306  25.142  1.00  0.00     0.261 C 
BRANCH  34  35
ATOM     35  O   UNL A   1      38.866  20.963  26.357  1.00  0.00    -0.460 OA
BRANCH  35  36
ATOM     36  C   UNL A   1      40.205  21.023  26.573  1.00  0.00     0.338 C 
ATOM     37  O   UNL A   1      41.041  20.216  26.199  1.00  0.00    -0.246 OA
BRANCH  36  38
ATOM     38  C   UNL A   1      40.546  22.349  27.148  1.00  0.00     0.060 A 
ATOM     39  C   UNL A   1      39.715  23.431  26.818  1.00  0.00     0.016 A 
ATOM     40  C   UNL A   1      41.606  22.528  28.043  1.00  0.00     0.016 A 
ATOM     41  C   UNL A   1      39.986  24.701  27.319  1.00  0.00     0.010 A 
ATOM     42  C   UNL A   1      41.876  23.801  28.549  1.00  0.00     0.010 A 
ATOM     43  C   UNL A   1      41.103  24.901  28.139  1.00  0.00    -0.014 A 
BRANCH  43  44
ATOM     44  C   UNL A   1      41.618  26.275  28.332  1.00  0.00     0.031 A 
ATOM     45  C   UNL A   1      42.967  26.601  27.750  1.00  0.00     0.074 A 
ATOM     46  C   UNL A   1      40.901  27.220  28.963  1.00  0.00     0.049 A 
ATOM     47  N   UNL A   1      43.647  27.717  27.784  1.00  0.00    -0.248 NA
ATOM     48  C   UNL A   1      43.648  25.506  27.037  1.00  0.00     0.031 C 
ATOM     49  C   UNL A   1      39.567  27.036  29.528  1.00  0.00     0.029 A 
ATOM     50  N   UNL A   1      41.203  28.532  29.227  1.00  0.00    -0.354 N 
ATOM     51  C   UNL A   1      44.835  27.452  27.112  1.00  0.00     0.074 A 
ATOM     52  C   UNL A   1      44.807  26.060  26.724  1.00  0.00     0.031 C 
ATOM     53  C   UNL A   1      39.160  28.197  30.068  1.00  0.00     0.029 A 
ATOM     54  C   UNL A   1      40.216  29.197  29.910  1.00  0.00     0.049 A 
ATOM     55  H   UNL A   1      42.047  28.957  28.951  1.00  0.00     0.167 HD
ATOM     56  C   UNL A   1      45.854  28.297  26.831  1.00  0.00     0.037 A 
ATOM     57  C   UNL A   1      40.181  30.467  30.360  1.00  0.00     0.037 A 
ATOM     58  C   UNL A   1      45.870  29.684  27.211  1.00  0.00     0.049 A 
ATOM     59  C   UNL A   1      41.356  31.374  30.087  1.00  0.00     0.074 A 
ATOM     60  C   UNL A   1      46.840  30.636  26.960  1.00  0.00     0.029 A 
ATOM     61  N   UNL A   1      44.867  30.313  27.934  1.00  0.00    -0.354 N 
ATOM     62  N   UNL A   1      42.465  31.128  29.430  1.00  0.00    -0.248 NA
ATOM     63  C   UNL A   1      41.267  32.743  30.612  1.00  0.00     0.031 C 
ATOM     64  C   UNL A   1      46.456  31.824  27.588  1.00  0.00     0.029 A 
ATOM     65  C   UNL A   1      45.208  31.636  28.163  1.00  0.00     0.049 A 
ATOM     66  H   UNL A   1      44.035  29.883  28.239  1.00  0.00     0.167 HD
ATOM     67  C   UNL A   1      43.178  32.320  29.419  1.00  0.00     0.074 A 
ATOM     68  C   UNL A   1      42.375  33.289  30.134  1.00  0.00     0.031 C 
ATOM     69  C   UNL A   1      44.385  32.592  28.862  1.00  0.00     0.037 A 
BRANCH  56  70
ATOM     70  C   UNL A   1      47.047  27.727  26.116  1.00  0.00     0.064 A 
ATOM     71  C   UNL A   1      48.135  27.171  26.805  1.00  0.00     0.173 A 
ATOM     72  C   UNL A   1      47.100  27.747  24.714  1.00  0.00     0.173 A 
ATOM     73  F   UNL A   1      48.145  27.145  28.146  1.00  0.00    -0.203 F 
ATOM     74  C   UNL A   1      49.249  26.691  26.119  1.00  0.00     0.198 A 
ATOM     75  C   UNL A   1      48.199  27.231  24.030  1.00  0.00     0.198 A 
ATOM     76  F   UNL A   1      46.089  28.269  24.004  1.00  0.00    -0.203 F 
ATOM     77  F   UNL A   1      50.306  26.229  26.802  1.00  0.00    -0.200 F 
ATOM     78  C   UNL A   1      49.276  26.716  24.733  1.00  0.00     0.200 A 
ATOM     79  F   UNL A   1      48.218  27.245  22.691  1.00  0.00    -0.200 F 
ATOM     80  F   UNL A   1      50.348  26.255  24.075  1.00  0.00    -0.200 F 
ENDBRANCH  56  70
BRANCH  57  81
ATOM     81  C   UNL A   1      38.990  30.967  31.096  1.00  0.00     0.064 A 
ATOM     82  C   UNL A   1      38.853  30.759  32.476  1.00  0.00     0.173 A 
ATOM     83  C   UNL A   1      37.953  31.640  30.434  1.00  0.00     0.173 A 
ATOM     84  F   UNL A   1      39.805  30.096  33.150  1.00  0.00    -0.203 F 
ATOM     85  C   UNL A   1      37.715  31.183  33.160  1.00  0.00     0.198 A 
ATOM     86  C   UNL A   1      36.829  32.092  31.124  1.00  0.00     0.198 A 
ATOM     87  F   UNL A   1      38.031  31.863  29.113  1.00  0.00    -0.203 F 
ATOM     88  F   UNL A   1      37.587  30.922  34.468  1.00  0.00    -0.200 F 
ATOM     89  C   UNL A   1      36.708  31.855  32.485  1.00  0.00     0.200 A 
ATOM     90  F   UNL A   1      35.862  32.749  30.470  1.00  0.00    -0.200 F 
ATOM     91  F   UNL A   1      35.614  32.262  33.143  1.00  0.00    -0.200 F 
ENDBRANCH  57  81
BRANCH  69  92
ATOM     92  C   UNL A   1      44.879  34.011  28.935  1.00  0.00     0.064 A 
ATOM     93  C   UNL A   1      45.744  34.450  29.948  1.00  0.00     0.173 A 
ATOM     94  C   UNL A   1      44.500  34.938  27.950  1.00  0.00     0.173 A 
ATOM     95  F   UNL A   1      46.133  33.608  30.918  1.00  0.00    -0.203 F 
ATOM     96  C   UNL A   1      46.176  35.773  29.996  1.00  0.00     0.198 A 
ATOM     97  C   UNL A   1      44.966  36.249  27.980  1.00  0.00     0.198 A 
ATOM     98  F   UNL A   1      43.686  34.569  26.950  1.00  0.00    -0.203 F 
ATOM     99  F   UNL A   1      46.949  36.186  31.011  1.00  0.00    -0.200 F 
ATOM    100  C   UNL A   1      45.792  36.669  29.010  1.00  0.00     0.200 A 
ATOM    101  F   UNL A   1      44.611  37.106  27.013  1.00  0.00    -0.200 F 
ATOM    102  F   UNL A   1      46.213  37.941  29.057  1.00  0.00    -0.200 F 
ENDBRANCH  69  92
ENDBRANCH  43  44
ENDBRANCH  36  38
ENDBRANCH  35  36
ENDBRANCH  34  35
ENDBRANCH  33  34
ENDBRANCH  32  33
ENDBRANCH  31  32
ENDBRANCH   1  31
TORSDOF 20
ENDMDL
MODEL 2
REMARK VINA RESULT:     -11.6      1.303      3.181
REMARK SMILES O=C(CCCN1C(=O)C(=O)/C(=C(/[O-])c2ccccc2)[C@@H]1/C=C/c1ccccc1)OCCOCCOC(=O)c1ccc(-c2c3nc(c(-c4c(F)c(F)c(F)c(F)c4F)c4ccc([nH]4)c(-c4c(F)c(F)c(F)c(F)c4F)c4nc(c(-c5c(F)c(F)c(F)c(F)c5F)c5ccc2[nH]5)C=C4)C=C3)cc1
REMARK SMILES IDX 30 1 29 2 2 3 1 4 3 5 4 6 5 7 6 8 7 9 20 10 8 11 9 12 11 13
REMARK SMILES IDX 10 14 12 15 13 16 21 17 22 18 23 19 24 20 28 21 25 22 27 23
REMARK SMILES IDX 26 24 14 25 15 26 19 27 16 28 18 29 17 30 31 31 32 32 33 33
REMARK SMILES IDX 34 34 35 35 36 36 37 37 38 38 39 39 100 40 40 41 99 42 41 43
REMARK SMILES IDX 42 44 43 45 93 46 44 47 98 48 92 49 94 50 45 51 97 52 91 53
REMARK SMILES IDX 90 54 46 56 78 57 58 58 77 59 59 60 62 61 76 62 95 63 60 64
REMARK SMILES IDX 61 65 75 67 96 68 63 69 47 70 48 71 56 72 49 73 50 74 54 75
REMARK SMILES IDX 57 76 51 77 52 78 55 79 53 80 79 81 80 82 88 83 81 84 82 85
REMARK SMILES IDX 86 86 89 87 83 88 84 89 87 90 85 91 64 92 65 93 73 94 66 95
REMARK SMILES IDX 67 96 71 97 74 98 68 99 69 100 72 101 70 102
REMARK H PARENT 94 55 62 66
REMARK Flexibility Score: inf
ROOT
ATOM      1  C   UNL A   1      34.540  24.168  24.289  1.00  0.00     0.261 C 
ENDROOT
BRANCH   1   2
ATOM      2  O   UNL A   1      34.005  23.419  23.189  1.00  0.00    -0.463 OA
BRANCH   2   3
ATOM      3  C   UNL A   1      32.843  23.807  22.639  1.00  0.00     0.305 C 
ATOM      4  O   UNL A   1      32.799  24.558  21.671  1.00  0.00    -0.252 OA
BRANCH   3   5
ATOM      5  C   UNL A   1      31.601  23.226  23.282  1.00  0.00     0.124 C 
BRANCH   5   6
ATOM      6  C   UNL A   1      30.296  24.001  23.197  1.00  0.00     0.033 C 
BRANCH   6   7
ATOM      7  C   UNL A   1      30.095  25.289  24.001  1.00  0.00     0.121 C 
BRANCH   7   8
ATOM      8  N   UNL A   1      31.194  26.030  24.625  1.00  0.00    -0.325 N 
ATOM      9  C   UNL A   1      31.376  25.906  25.995  1.00  0.00     0.295 C 
ATOM     10  C   UNL A   1      31.995  27.112  24.063  1.00  0.00     0.143 C 
ATOM     11  O   UNL A   1      30.900  25.077  26.740  1.00  0.00    -0.265 OA
ATOM     12  C   UNL A   1      32.276  27.048  26.450  1.00  0.00     0.248 C 
ATOM     13  C   UNL A   1      32.669  27.803  25.235  1.00  0.00     0.024 C 
ATOM     14  O   UNL A   1      32.581  27.237  27.604  1.00  0.00    -0.283 OA
ATOM     15  C   UNL A   1      33.443  28.907  25.211  1.00  0.00    -0.092 C 
ATOM     16  O   UNL A   1      33.828  29.514  24.029  1.00  0.00    -0.872 OA
BRANCH  10  17
ATOM     17  C   UNL A   1      31.124  28.038  23.270  1.00  0.00     0.003 C 
ATOM     18  C   UNL A   1      30.341  28.970  23.840  1.00  0.00     0.006 C 
BRANCH  18  19
ATOM     19  C   UNL A   1      29.497  29.936  23.124  1.00  0.00    -0.026 A 
ATOM     20  C   UNL A   1      29.174  31.141  23.765  1.00  0.00     0.008 A 
ATOM     21  C   UNL A   1      28.994  29.707  21.837  1.00  0.00     0.008 A 
ATOM     22  C   UNL A   1      28.391  32.103  23.124  1.00  0.00     0.001 A 
ATOM     23  C   UNL A   1      28.216  30.672  21.193  1.00  0.00     0.001 A 
ATOM     24  C   UNL A   1      27.919  31.871  21.835  1.00  0.00     0.000 A 
ENDBRANCH  18  19
ENDBRANCH  10  17
BRANCH  15  25
ATOM     25  C   UNL A   1      33.933  29.661  26.379  1.00  0.00    -0.033 A 
ATOM     26  C   UNL A   1      33.210  30.781  26.819  1.00  0.00     0.007 A 
ATOM     27  C   UNL A   1      35.139  29.344  27.014  1.00  0.00     0.007 A 
ATOM     28  C   UNL A   1      33.669  31.552  27.890  1.00  0.00     0.001 A 
ATOM     29  C   UNL A   1      35.594  30.112  28.091  1.00  0.00     0.001 A 
ATOM     30  C   UNL A   1      34.860  31.214  28.527  1.00  0.00     0.000 A 
ENDBRANCH  15  25
ENDBRANCH   7   8
ENDBRANCH   6   7
ENDBRANCH   5   6
ENDBRANCH   3   5
ENDBRANCH   2   3
ENDBRANCH   1   2
BRANCH   1  31
ATOM     31  C   UNL A   1      35.849  23.754  24.967  1.00  0.00     0.202 C 
BRANCH  31  32
ATOM     32  O   UNL A   1      35.938  22.407  25.424  1.00  0.00    -0.374 OA
BRANCH  32  33
ATOM     33  C   UNL A   1      36.542  21.513  24.473  1.00  0.00     0.202 C 
BRANCH  33  34
ATOM     34  C   UNL A   1      37.881  20.926  24.933  1.00  0.00     0.261 C 
BRANCH  34  35
ATOM     35  O   UNL A   1      38.304  21.518  26.168  1.00  0.00    -0.460 OA
BRANCH  35  36
ATOM     36  C   UNL A   1      39.646  21.504  26.373  1.00  0.00     0.338 C 
ATOM     37  O   UNL A   1      40.439  20.675  25.956  1.00  0.00    -0.246 OA
BRANCH  36  38
ATOM     38  C   UNL A   1      40.056  22.788  26.998  1.00  0.00     0.060 A 
ATOM     39  C   UNL A   1      39.289  23.925  26.704  1.00  0.00     0.016 A 
ATOM     40  C   UNL A   1      41.118  22.874  27.904  1.00  0.00     0.016 A 
ATOM     41  C   UNL A   1      39.626  25.159  27.253  1.00  0.00     0.010 A 
ATOM     42  C   UNL A   1      41.455  24.111  28.458  1.00  0.00     0.010 A 
ATOM     43  C   UNL A   1      40.747  25.266  28.085  1.00  0.00    -0.014 A 
BRANCH  43  44
ATOM     44  C   UNL A   1      41.336  26.602  28.332  1.00  0.00     0.031 A 
ATOM     45  C   UNL A   1      42.725  26.856  27.810  1.00  0.00     0.074 A 
ATOM     46  C   UNL A   1      40.652  27.575  28.957  1.00  0.00     0.049 A 
ATOM     47  N   UNL A   1      43.469  27.928  27.897  1.00  0.00    -0.248 NA
ATOM     48  C   UNL A   1      43.366  25.738  27.098  1.00  0.00     0.031 C 
ATOM     49  C   UNL A   1      39.289  27.460  29.465  1.00  0.00     0.029 A 
ATOM     50  N   UNL A   1      41.022  28.860  29.264  1.00  0.00    -0.354 N 
ATOM     51  C   UNL A   1      44.664  27.605  27.266  1.00  0.00     0.074 A 
ATOM     52  C   UNL A   1      44.568  26.227  26.844  1.00  0.00     0.031 C 
ATOM     53  C   UNL A   1      38.931  28.633  30.017  1.00  0.00     0.029 A 
ATOM     54  C   UNL A   1      40.051  29.569  29.925  1.00  0.00     0.049 A 
ATOM     55  H   UNL A   1      41.901  29.238  29.031  1.00  0.00     0.167 HD
ATOM     56  C   UNL A   1      45.743  28.392  27.046  1.00  0.00     0.037 A 
ATOM     57  C   UNL A   1      40.075  30.828  30.403  1.00  0.00     0.037 A 
ATOM     58  C   UNL A   1      45.828  29.766  27.459  1.00  0.00     0.049 A 
ATOM     59  C   UNL A   1      41.313  31.668  30.198  1.00  0.00     0.074 A 
ATOM     60  C   UNL A   1      46.864  30.662  27.269  1.00  0.00     0.029 A 
ATOM     61  N   UNL A   1      44.837  30.440  28.158  1.00  0.00    -0.354 N 
ATOM     62  N   UNL A   1      42.430  31.368  29.579  1.00  0.00    -0.248 NA
ATOM     63  C   UNL A   1      41.285  33.028  30.752  1.00  0.00     0.031 C 
ATOM     64  C   UNL A   1      46.527  31.858  27.911  1.00  0.00     0.029 A 
ATOM     65  C   UNL A   1      45.247  31.734  28.432  1.00  0.00     0.049 A 
ATOM     66  H   UNL A   1      43.969  30.055  28.420  1.00  0.00     0.167 HD
ATOM     67  C   UNL A   1      43.214  32.514  29.625  1.00  0.00     0.074 A 
ATOM     68  C   UNL A   1      42.443  33.515  30.332  1.00  0.00     0.031 C 
ATOM     69  C   UNL A   1      44.457  32.724  29.122  1.00  0.00     0.037 A 
BRANCH  56  70
ATOM     70  C   UNL A   1      46.927  27.765  26.364  1.00  0.00     0.064 A 
ATOM     71  C   UNL A   1      47.963  27.149  27.082  1.00  0.00     0.173 A 
ATOM     72  C   UNL A   1      47.026  27.791  24.965  1.00  0.00     0.173 A 
ATOM     73  F   UNL A   1      47.929  27.114  28.422  1.00  0.00    -0.203 F 
ATOM     74  C   UNL A   1      49.072  26.617  26.427  1.00  0.00     0.198 A 
ATOM     75  C   UNL A   1      48.118  27.224  24.311  1.00  0.00     0.198 A 
ATOM     76  F   UNL A   1      46.066  28.369  24.227  1.00  0.00    -0.203 F 
ATOM     77  F   UNL A   1      50.082  26.096  27.139  1.00  0.00    -0.200 F 
ATOM     78  C   UNL A   1      49.145  26.649  25.043  1.00  0.00     0.200 A 
ATOM     79  F   UNL A   1      48.180  27.246  22.973  1.00  0.00    -0.200 F 
ATOM     80  F   UNL A   1      50.211  26.137  24.415  1.00  0.00    -0.200 F 
ENDBRANCH  56  70
BRANCH  57  81
ATOM     81  C   UNL A   1      38.887  31.385  31.104  1.00  0.00     0.064 A 
ATOM     82  C   UNL A   1      37.960  32.191  30.427  1.00  0.00     0.173 A 
ATOM     83  C   UNL A   1      38.667  31.147  32.468  1.00  0.00     0.173 A 
ATOM     84  F   UNL A   1      38.141  32.471  29.127  1.00  0.00    -0.203 F 
ATOM     85  C   UNL A   1      36.873  32.754  31.092  1.00  0.00     0.198 A 
ATOM     86  C   UNL A   1      37.563  31.686  33.126  1.00  0.00     0.198 A 
ATOM     87  F   UNL A   1      39.525  30.387  33.165  1.00  0.00    -0.203 F 
ATOM     88  F   UNL A   1      36.034  33.565  30.431  1.00  0.00    -0.200 F 
ATOM     89  C   UNL A   1      36.672  32.496  32.439  1.00  0.00     0.200 A 
ATOM     90  F   UNL A   1      37.367  31.426  34.425  1.00  0.00    -0.200 F 
ATOM     91  F   UNL A   1      35.627  33.039  33.078  1.00  0.00    -0.200 F 
ENDBRANCH  57  81
BRANCH  69  92
ATOM     92  C   UNL A   1      45.033  34.107  29.248  1.00  0.00     0.064 A 
ATOM     93  C   UNL A   1      45.812  34.495  30.348  1.00  0.00     0.173 A 
ATOM     94  C   UNL A   1      44.822  35.052  28.230  1.00  0.00     0.173 A 
ATOM     95  F   UNL A   1      46.039  33.635  31.353  1.00  0.00    -0.203 F 
ATOM     96  C   UNL A   1      46.322  35.787  30.443  1.00  0.00     0.198 A 
ATOM     97  C   UNL A   1      45.367  36.329  28.310  1.00  0.00     0.198 A 
ATOM     98  F   UNL A   1      44.096  34.730  27.148  1.00  0.00    -0.203 F 
ATOM     99  F   UNL A   1      47.009  36.155  31.535  1.00  0.00    -0.200 F 
ATOM    100  C   UNL A   1      46.105  36.700  29.423  1.00  0.00     0.200 A 
ATOM    101  F   UNL A   1      45.174  37.202  27.312  1.00  0.00    -0.200 F 
ATOM    102  F   UNL A   1      46.601  37.942  29.515  1.00  0.00    -0.200 F 
ENDBRANCH  69  92
ENDBRANCH  43  44
ENDBRANCH  36  38
ENDBRANCH  35  36
ENDBRANCH  34  35
ENDBRANCH  33  34
ENDBRANCH  32  33
ENDBRANCH  31  32
ENDBRANCH   1  31
TORSDOF 20
ENDMDL
MODEL 3
REMARK VINA RESULT:     -10.4      5.072     10.366
REMARK SMILES O=C(CCCN1C(=O)C(=O)/C(=C(/[O-])c2ccccc2)[C@@H]1/C=C/c1ccccc1)OCCOCCOC(=O)c1ccc(-c2c3nc(c(-c4c(F)c(F)c(F)c(F)c4F)c4ccc([nH]4)c(-c4c(F)c(F)c(F)c(F)c4F)c4nc(c(-c5c(F)c(F)c(F)c(F)c5F)c5ccc2[nH]5)C=C4)C=C3)cc1
REMARK SMILES IDX 30 1 29 2 2 3 1 4 3 5 4 6 5 7 6 8 7 9 20 10 8 11 9 12 11 13
REMARK SMILES IDX 10 14 12 15 13 16 21 17 22 18 23 19 24 20 28 21 25 22 27 23
REMARK SMILES IDX 26 24 14 25 15 26 19 27 16 28 18 29 17 30 31 31 32 32 33 33
REMARK SMILES IDX 34 34 35 35 36 36 37 37 38 38 39 39 100 40 40 41 99 42 41 43
REMARK SMILES IDX 42 44 43 45 93 46 44 47 98 48 92 49 94 50 45 51 97 52 91 53
REMARK SMILES IDX 90 54 46 56 78 57 58 58 77 59 59 60 62 61 76 62 95 63 60 64
REMARK SMILES IDX 61 65 75 67 96 68 63 69 47 70 48 71 56 72 49 73 50 74 54 75
REMARK SMILES IDX 57 76 51 77 52 78 55 79 53 80 79 81 80 82 88 83 81 84 82 85
REMARK SMILES IDX 86 86 89 87 83 88 84 89 87 90 85 91 64 92 65 93 73 94 66 95
REMARK SMILES IDX 67 96 71 97 74 98 68 99 69 100 72 101 70 102
REMARK H PARENT 94 55 62 66
REMARK Flexibility Score: inf
ROOT
ATOM      1  C   UNL A   1      50.397  27.149  25.382  1.00  0.00     0.261 C 
ENDROOT
BRANCH   1   2
ATOM      2  O   UNL A   1      49.554  27.098  24.223  1.00  0.00    -0.463 OA
BRANCH   2   3
ATOM      3  C   UNL A   1      48.605  26.150  24.148  1.00  0.00     0.305 C 
ATOM      4  O   UNL A   1      48.241  25.676  23.077  1.00  0.00    -0.252 OA
BRANCH   3   5
ATOM      5  C   UNL A   1      48.044  25.693  25.478  1.00  0.00     0.124 C 
BRANCH   5   6
ATOM      6  C   UNL A   1      46.825  26.403  26.046  1.00  0.00     0.033 C 
BRANCH   6   7
ATOM      7  C   UNL A   1      45.849  27.142  25.127  1.00  0.00     0.121 C 
BRANCH   7   8
ATOM      8  N   UNL A   1      44.486  27.505  25.522  1.00  0.00    -0.325 N 
ATOM      9  C   UNL A   1      44.313  28.588  26.372  1.00  0.00     0.295 C 
ATOM     10  C   UNL A   1      43.259  26.730  25.368  1.00  0.00     0.143 C 
ATOM     11  O   UNL A   1      45.118  29.447  26.660  1.00  0.00    -0.265 OA
ATOM     12  C   UNL A   1      42.904  28.508  26.947  1.00  0.00     0.248 C 
ATOM     13  C   UNL A   1      42.240  27.343  26.313  1.00  0.00     0.024 C 
ATOM     14  O   UNL A   1      42.471  29.291  27.759  1.00  0.00    -0.283 OA
ATOM     15  C   UNL A   1      40.988  26.914  26.573  1.00  0.00    -0.092 C 
ATOM     16  O   UNL A   1      40.411  25.861  25.885  1.00  0.00    -0.872 OA
BRANCH  10  17
ATOM     17  C   UNL A   1      43.523  25.285  25.664  1.00  0.00     0.003 C 
ATOM     18  C   UNL A   1      43.422  24.319  24.733  1.00  0.00     0.006 C 
BRANCH  18  19
ATOM     19  C   UNL A   1      43.707  22.893  24.942  1.00  0.00    -0.026 A 
ATOM     20  C   UNL A   1      42.819  22.145  25.729  1.00  0.00     0.008 A 
ATOM     21  C   UNL A   1      44.827  22.249  24.402  1.00  0.00     0.008 A 
ATOM     22  C   UNL A   1      43.032  20.783  25.946  1.00  0.00     0.001 A 
ATOM     23  C   UNL A   1      45.036  20.885  24.613  1.00  0.00     0.001 A 
ATOM     24  C   UNL A   1      44.136  20.151  25.381  1.00  0.00     0.000 A 
ENDBRANCH  18  19
ENDBRANCH  10  17
BRANCH  15  25
ATOM     25  C   UNL A   1      40.089  27.417  27.625  1.00  0.00    -0.033 A 
ATOM     26  C   UNL A   1      39.861  26.626  28.763  1.00  0.00     0.007 A 
ATOM     27  C   UNL A   1      39.391  28.622  27.491  1.00  0.00     0.007 A 
ATOM     28  C   UNL A   1      38.975  27.045  29.758  1.00  0.00     0.001 A 
ATOM     29  C   UNL A   1      38.510  29.045  28.492  1.00  0.00     0.001 A 
ATOM     30  C   UNL A   1      38.303  28.257  29.623  1.00  0.00     0.000 A 
ENDBRANCH  15  25
ENDBRANCH   7   8
ENDBRANCH   6   7
ENDBRANCH   5   6
ENDBRANCH   3   5
ENDBRANCH   2   3
ENDBRANCH   1   2
BRANCH   1  31
ATOM     31  C   UNL A   1      50.991  28.473  25.871  1.00  0.00     0.202 C 
BRANCH  31  32
ATOM     32  O   UNL A   1      51.283  29.452  24.879  1.00  0.00    -0.374 OA
BRANCH  32  33
ATOM     33  C   UNL A   1      52.668  29.839  24.838  1.00  0.00     0.202 C 
BRANCH  33  34
ATOM     34  C   UNL A   1      52.923  31.288  25.269  1.00  0.00     0.261 C 
BRANCH  34  35
ATOM     35  O   UNL A   1      52.639  31.466  26.663  1.00  0.00    -0.460 OA
BRANCH  35  36
ATOM     36  C   UNL A   1      52.026  32.637  26.971  1.00  0.00     0.338 C 
ATOM     37  O   UNL A   1      52.401  33.759  26.668  1.00  0.00    -0.246 OA
BRANCH  36  38
ATOM     38  C   UNL A   1      50.687  32.349  27.547  1.00  0.00     0.060 A 
ATOM     39  C   UNL A   1      49.691  31.892  26.672  1.00  0.00     0.016 A 
ATOM     40  C   UNL A   1      50.423  32.453  28.917  1.00  0.00     0.016 A 
ATOM     41  C   UNL A   1      48.414  31.611  27.149  1.00  0.00     0.010 A 
ATOM     42  C   UNL A   1      49.143  32.168  29.396  1.00  0.00     0.010 A 
ATOM     43  C   UNL A   1      48.120  31.806  28.503  1.00  0.00    -0.014 A 
BRANCH  43  44
ATOM     44  C   UNL A   1      46.705  31.904  28.928  1.00  0.00     0.031 A 
ATOM     45  C   UNL A   1      46.076  30.682  29.541  1.00  0.00     0.074 A 
ATOM     46  C   UNL A   1      46.008  33.048  28.816  1.00  0.00     0.049 A 
ATOM     47  N   UNL A   1      44.860  30.499  29.986  1.00  0.00    -0.248 NA
ATOM     48  C   UNL A   1      46.942  29.496  29.659  1.00  0.00     0.031 C 
ATOM     49  C   UNL A   1      46.522  34.305  28.282  1.00  0.00     0.029 A 
ATOM     50  N   UNL A   1      44.710  33.330  29.159  1.00  0.00    -0.354 N 
ATOM     51  C   UNL A   1      44.816  29.179  30.419  1.00  0.00     0.074 A 
ATOM     52  C   UNL A   1      46.106  28.592  30.142  1.00  0.00     0.031 C 
ATOM     53  C   UNL A   1      45.550  35.231  28.337  1.00  0.00     0.029 A 
ATOM     54  C   UNL A   1      44.338  34.622  28.886  1.00  0.00     0.049 A 
ATOM     55  H   UNL A   1      44.103  32.669  29.563  1.00  0.00     0.167 HD
ATOM     56  C   UNL A   1      43.793  28.518  31.010  1.00  0.00     0.037 A 
ATOM     57  C   UNL A   1      43.150  35.233  29.056  1.00  0.00     0.037 A 
ATOM     58  C   UNL A   1      42.514  29.111  31.293  1.00  0.00     0.049 A 
ATOM     59  C   UNL A   1      42.005  34.457  29.662  1.00  0.00     0.074 A 
ATOM     60  C   UNL A   1      41.415  28.540  31.907  1.00  0.00     0.029 A 
ATOM     61  N   UNL A   1      42.163  30.414  30.969  1.00  0.00    -0.354 N 
ATOM     62  N   UNL A   1      41.974  33.219  30.094  1.00  0.00    -0.248 NA
ATOM     63  C   UNL A   1      40.731  35.172  29.811  1.00  0.00     0.031 C 
ATOM     64  C   UNL A   1      40.376  29.476  31.895  1.00  0.00     0.029 A 
ATOM     65  C   UNL A   1      40.853  30.658  31.346  1.00  0.00     0.049 A 
ATOM     66  H   UNL A   1      42.758  31.069  30.537  1.00  0.00     0.167 HD
ATOM     67  C   UNL A   1      40.700  33.024  30.611  1.00  0.00     0.074 A 
ATOM     68  C   UNL A   1      39.988  34.273  30.439  1.00  0.00     0.031 C 
ATOM     69  C   UNL A   1      40.166  31.915  31.184  1.00  0.00     0.037 A 
BRANCH  56  70
ATOM     70  C   UNL A   1      44.010  27.069  31.346  1.00  0.00     0.064 A 
ATOM     71  C   UNL A   1      43.861  26.050  30.392  1.00  0.00     0.173 A 
ATOM     72  C   UNL A   1      44.368  26.697  32.650  1.00  0.00     0.173 A 
ATOM     73  F   UNL A   1      43.499  26.349  29.135  1.00  0.00    -0.203 F 
ATOM     74  C   UNL A   1      44.022  24.712  30.741  1.00  0.00     0.198 A 
ATOM     75  C   UNL A   1      44.567  25.360  32.986  1.00  0.00     0.198 A 
ATOM     76  F   UNL A   1      44.523  27.628  33.603  1.00  0.00    -0.203 F 
ATOM     77  F   UNL A   1      43.805  23.752  29.830  1.00  0.00    -0.200 F 
ATOM     78  C   UNL A   1      44.382  24.368  32.036  1.00  0.00     0.200 A 
ATOM     79  F   UNL A   1      44.926  25.031  34.235  1.00  0.00    -0.200 F 
ATOM     80  F   UNL A   1      44.538  23.080  32.370  1.00  0.00    -0.200 F 
ENDBRANCH  56  70
BRANCH  57  81
ATOM     81  C   UNL A   1      42.980  36.660  28.671  1.00  0.00     0.064 A 
ATOM     82  C   UNL A   1      43.423  37.693  29.509  1.00  0.00     0.173 A 
ATOM     83  C   UNL A   1      42.349  37.022  27.472  1.00  0.00     0.173 A 
ATOM     84  F   UNL A   1      44.009  37.399  30.681  1.00  0.00    -0.203 F 
ATOM     85  C   UNL A   1      43.222  39.031  29.175  1.00  0.00     0.198 A 
ATOM     86  C   UNL A   1      42.176  38.360  27.123  1.00  0.00     0.198 A 
ATOM     87  F   UNL A   1      41.902  36.074  26.635  1.00  0.00    -0.203 F 
ATOM     88  F   UNL A   1      43.608  39.996  30.021  1.00  0.00    -0.200 F 
ATOM     89  C   UNL A   1      42.604  39.363  27.979  1.00  0.00     0.200 A 
ATOM     90  F   UNL A   1      41.587  38.677  25.962  1.00  0.00    -0.200 F 
ATOM     91  F   UNL A   1      42.411  40.649  27.658  1.00  0.00    -0.200 F 
ENDBRANCH  57  81
BRANCH  69  92
ATOM     92  C   UNL A   1      38.772  32.022  31.736  1.00  0.00     0.064 A 
ATOM     93  C   UNL A   1      38.521  32.181  33.107  1.00  0.00     0.173 A 
ATOM     94  C   UNL A   1      37.668  31.994  30.868  1.00  0.00     0.173 A 
ATOM     95  F   UNL A   1      39.539  32.207  33.982  1.00  0.00    -0.203 F 
ATOM     96  C   UNL A   1      37.218  32.265  33.592  1.00  0.00     0.198 A 
ATOM     97  C   UNL A   1      36.369  32.119  31.352  1.00  0.00     0.198 A 
ATOM     98  F   UNL A   1      37.850  31.858  29.546  1.00  0.00    -0.203 F 
ATOM     99  F   UNL A   1      37.001  32.351  34.912  1.00  0.00    -0.200 F 
ATOM    100  C   UNL A   1      36.145  32.241  32.714  1.00  0.00     0.200 A 
ATOM    101  F   UNL A   1      35.336  32.117  30.500  1.00  0.00    -0.200 F 
ATOM    102  F   UNL A   1      34.892  32.327  33.183  1.00  0.00    -0.200 F 
ENDBRANCH  69  92
ENDBRANCH  43  44
ENDBRANCH  36  38
ENDBRANCH  35  36
ENDBRANCH  34  35
ENDBRANCH  33  34
ENDBRANCH  32  33
ENDBRANCH  31  32
ENDBRANCH   1  31
TORSDOF 20
ENDMDL
