MODEL 1
REMARK VINA RESULT:     -10.5      0.000      0.000
REMARK SMILES CC(=O)Oc1ccc2oc(N)c([C@@H]3[NH2+][C@@H](C(=O)OCCOCCOC(=O)c4ccc(-c5c6nc(c(-c7c(F)c(F)c(F)c(F)c7F)c7ccc([nH]7)c(-c7c(F)c(F)c(F)c(F)c7F)c7nc(c(-c8c(F)c(F)c(F)c(F)c8F)c8ccc5[nH]8)C=C7)C=C6)cc4)C(C)(C)S3)c(=O)c2c1
REMARK SMILES IDX 20 1 19 2 18 3 16 4 17 5 15 6 13 7 14 8 93 9 90 12 91 13
REMARK SMILES IDX 92 14 12 15 5 16 6 17 97 18 7 19 96 20 8 21 94 22 9 23 95 24
REMARK SMILES IDX 10 25 4 26 2 27 1 28 3 29 11 30 21 33 22 34 23 35 24 36
REMARK SMILES IDX 25 37 26 38 27 39 28 40 89 41 29 42 88 43 30 44 31 45 32 46
REMARK SMILES IDX 82 47 33 48 87 49 81 50 83 51 34 52 86 53 80 54 79 55 35 57
REMARK SMILES IDX 67 58 47 59 66 60 48 61 51 62 65 63 84 64 49 65 50 66 64 68
REMARK SMILES IDX 85 69 52 70 36 71 37 72 45 73 38 74 39 75 43 76 46 77 40 78
REMARK SMILES IDX 41 79 44 80 42 81 68 82 69 83 77 84 70 85 71 86 75 87 78 88
REMARK SMILES IDX 72 89 73 90 76 91 74 92 53 93 54 94 62 95 55 96 56 97 60 98
REMARK SMILES IDX 63 99 57 100 58 101 61 102 59 103
REMARK H PARENT 14 10 14 11 11 31 11 32 83 56 51 67
REMARK Flexibility Score: inf
ROOT
ATOM      1  C   UNL A   1      49.836  25.519  31.936  1.00  0.00     0.202 C 
ENDROOT
BRANCH   1   2
ATOM      2  C   UNL A   1      49.323  25.574  30.493  1.00  0.00     0.261 C 
BRANCH   2   3
ATOM      3  O   UNL A   1      50.191  24.872  29.580  1.00  0.00    -0.459 OA
BRANCH   3   4
ATOM      4  C   UNL A   1      50.418  25.523  28.411  1.00  0.00     0.366 C 
ATOM      5  O   UNL A   1      51.538  25.747  27.959  1.00  0.00    -0.245 OA
BRANCH   4   6
ATOM      6  C   UNL A   1      49.147  25.978  27.687  1.00  0.00     0.310 C 
ATOM      7  C   UNL A   1      47.566  25.457  26.007  1.00  0.00     0.284 C 
ATOM      8  N   UNL A   1      48.881  25.072  26.541  1.00  0.00    -0.318 N 
ATOM      9  S   UNL A   1      47.481  27.272  26.093  1.00  0.00    -0.081 SA
ATOM     10  H   UNL A   1      49.599  25.188  25.826  1.00  0.00     0.348 HD
ATOM     11  H   UNL A   1      48.891  24.094  26.831  1.00  0.00     0.348 HD
ATOM     12  C   UNL A   1      48.942  27.444  27.221  1.00  0.00     0.079 C 
ATOM     13  C   UNL A   1      50.081  28.044  26.389  1.00  0.00     0.030 C 
ATOM     14  C   UNL A   1      48.507  28.424  28.327  1.00  0.00     0.030 C 
BRANCH   7  15
ATOM     15  C   UNL A   1      46.418  24.731  26.684  1.00  0.00     0.128 A 
ATOM     16  C   UNL A   1      43.081  21.154  26.238  1.00  0.00     0.131 A 
ATOM     17  C   UNL A   1      42.548  21.524  27.474  1.00  0.00     0.051 A 
ATOM     18  C   UNL A   1      44.238  21.747  25.737  1.00  0.00     0.063 A 
ATOM     19  C   UNL A   1      43.153  22.548  28.195  1.00  0.00     0.052 A 
ATOM     20  C   UNL A   1      44.829  22.775  26.469  1.00  0.00     0.069 A 
ATOM     21  C   UNL A   1      44.280  23.179  27.675  1.00  0.00     0.140 A 
ATOM     22  C   UNL A   1      46.023  23.473  25.981  1.00  0.00     0.205 A 
ATOM     23  O   UNL A   1      44.795  24.210  28.397  1.00  0.00    -0.440 OA
ATOM     24  O   UNL A   1      46.617  23.047  24.997  1.00  0.00    -0.288 OA
ATOM     25  C   UNL A   1      45.723  25.046  27.805  1.00  0.00     0.205 A 
BRANCH  16  26
ATOM     26  O   UNL A   1      42.510  20.119  25.491  1.00  0.00    -0.427 OA
BRANCH  26  27
ATOM     27  C   UNL A   1      43.146  18.888  25.613  1.00  0.00     0.308 C 
ATOM     28  C   UNL A   1      42.942  18.385  27.009  1.00  0.00     0.139 C 
ATOM     29  O   UNL A   1      43.782  18.295  24.752  1.00  0.00    -0.252 OA
ENDBRANCH  26  27
ENDBRANCH  16  26
BRANCH  25  30
ATOM     30  N   UNL A   1      45.829  26.200  28.521  1.00  0.00    -0.369 N 
ATOM     31  H   UNL A   1      46.644  26.384  29.042  1.00  0.00     0.159 HD
ATOM     32  H   UNL A   1      45.091  26.851  28.517  1.00  0.00     0.159 HD
ENDBRANCH  25  30
ENDBRANCH   7  15
ENDBRANCH   4   6
ENDBRANCH   3   4
ENDBRANCH   2   3
ENDBRANCH   1   2
BRANCH   1  33
ATOM     33  O   UNL A   1      49.033  24.843  32.901  1.00  0.00    -0.374 OA
BRANCH  33  34
ATOM     34  C   UNL A   1      49.714  24.122  33.923  1.00  0.00     0.202 C 
BRANCH  34  35
ATOM     35  C   UNL A   1      48.913  23.759  35.180  1.00  0.00     0.261 C 
BRANCH  35  36
ATOM     36  O   UNL A   1      47.568  24.262  35.098  1.00  0.00    -0.460 OA
BRANCH  36  37
ATOM     37  C   UNL A   1      47.274  25.248  35.980  1.00  0.00     0.338 C 
ATOM     38  O   UNL A   1      47.905  25.557  36.977  1.00  0.00    -0.246 OA
BRANCH  37  39
ATOM     39  C   UNL A   1      46.182  26.080  35.433  1.00  0.00     0.060 A 
ATOM     40  C   UNL A   1      46.406  27.355  34.909  1.00  0.00     0.016 A 
ATOM     41  C   UNL A   1      44.889  25.541  35.460  1.00  0.00     0.016 A 
ATOM     42  C   UNL A   1      45.333  28.067  34.365  1.00  0.00     0.010 A 
ATOM     43  C   UNL A   1      43.820  26.252  34.919  1.00  0.00     0.010 A 
ATOM     44  C   UNL A   1      44.041  27.507  34.339  1.00  0.00    -0.014 A 
BRANCH  44  45
ATOM     45  C   UNL A   1      42.953  28.152  33.563  1.00  0.00     0.031 A 
ATOM     46  C   UNL A   1      42.754  27.882  32.105  1.00  0.00     0.074 A 
ATOM     47  C   UNL A   1      42.169  29.043  34.196  1.00  0.00     0.049 A 
ATOM     48  N   UNL A   1      41.832  28.349  31.300  1.00  0.00    -0.248 NA
ATOM     49  C   UNL A   1      43.721  26.984  31.460  1.00  0.00     0.031 C 
ATOM     50  C   UNL A   1      42.303  29.420  35.604  1.00  0.00     0.029 A 
ATOM     51  N   UNL A   1      41.109  29.789  33.749  1.00  0.00    -0.354 N 
ATOM     52  C   UNL A   1      42.087  27.781  30.060  1.00  0.00     0.074 A 
ATOM     53  C   UNL A   1      43.292  26.988  30.205  1.00  0.00     0.031 C 
ATOM     54  C   UNL A   1      41.333  30.290  35.917  1.00  0.00     0.029 A 
ATOM     55  C   UNL A   1      40.536  30.564  34.726  1.00  0.00     0.049 A 
ATOM     56  H   UNL A   1      40.791  29.770  32.818  1.00  0.00     0.167 HD
ATOM     57  C   UNL A   1      41.366  27.894  28.917  1.00  0.00     0.037 A 
ATOM     58  C   UNL A   1      39.480  31.397  34.672  1.00  0.00     0.037 A 
ATOM     59  C   UNL A   1      40.190  28.716  28.776  1.00  0.00     0.049 A 
ATOM     60  C   UNL A   1      38.739  31.562  33.376  1.00  0.00     0.074 A 
ATOM     61  C   UNL A   1      39.380  28.884  27.666  1.00  0.00     0.029 A 
ATOM     62  N   UNL A   1      39.664  29.528  29.774  1.00  0.00    -0.354 N 
ATOM     63  N   UNL A   1      38.945  30.967  32.227  1.00  0.00    -0.248 NA
ATOM     64  C   UNL A   1      37.621  32.514  33.370  1.00  0.00     0.031 C 
ATOM     65  C   UNL A   1      38.404  29.838  27.971  1.00  0.00     0.029 A 
ATOM     66  C   UNL A   1      38.563  30.221  29.293  1.00  0.00     0.049 A 
ATOM     67  H   UNL A   1      40.021  29.601  30.689  1.00  0.00     0.167 HD
ATOM     68  C   UNL A   1      37.972  31.453  31.365  1.00  0.00     0.074 A 
ATOM     69  C   UNL A   1      37.166  32.383  32.131  1.00  0.00     0.031 C 
ATOM     70  C   UNL A   1      37.769  31.154  30.058  1.00  0.00     0.037 A 
BRANCH  57  71
ATOM     71  C   UNL A   1      41.834  27.103  27.727  1.00  0.00     0.064 A 
ATOM     72  C   UNL A   1      41.242  25.874  27.391  1.00  0.00     0.173 A 
ATOM     73  C   UNL A   1      42.855  27.584  26.895  1.00  0.00     0.173 A 
ATOM     74  F   UNL A   1      40.263  25.364  28.153  1.00  0.00    -0.203 F 
ATOM     75  C   UNL A   1      41.682  25.141  26.291  1.00  0.00     0.198 A 
ATOM     76  C   UNL A   1      43.270  26.864  25.776  1.00  0.00     0.198 A 
ATOM     77  F   UNL A   1      43.449  28.757  27.160  1.00  0.00    -0.203 F 
ATOM     78  F   UNL A   1      41.140  23.944  26.026  1.00  0.00    -0.200 F 
ATOM     79  C   UNL A   1      42.690  25.639  25.481  1.00  0.00     0.200 A 
ATOM     80  F   UNL A   1      44.232  27.355  24.984  1.00  0.00    -0.200 F 
ATOM     81  F   UNL A   1      43.111  24.934  24.422  1.00  0.00    -0.200 F 
ENDBRANCH  57  71
BRANCH  58  82
ATOM     82  C   UNL A   1      39.036  32.075  35.915  1.00  0.00     0.064 A 
ATOM     83  C   UNL A   1      39.398  33.406  36.164  1.00  0.00     0.173 A 
ATOM     84  C   UNL A   1      38.180  31.446  36.831  1.00  0.00     0.173 A 
ATOM     85  F   UNL A   1      40.226  34.043  35.322  1.00  0.00    -0.203 F 
ATOM     86  C   UNL A   1      38.916  34.085  37.279  1.00  0.00     0.198 A 
ATOM     87  C   UNL A   1      37.677  32.136  37.932  1.00  0.00     0.198 A 
ATOM     88  F   UNL A   1      37.798  30.177  36.630  1.00  0.00    -0.203 F 
ATOM     89  F   UNL A   1      39.288  35.353  37.501  1.00  0.00    -0.200 F 
ATOM     90  C   UNL A   1      38.046  33.454  38.155  1.00  0.00     0.200 A 
ATOM     91  F   UNL A   1      36.820  31.529  38.764  1.00  0.00    -0.200 F 
ATOM     92  F   UNL A   1      37.558  34.117  39.213  1.00  0.00    -0.200 F 
ENDBRANCH  58  82
BRANCH  70  93
ATOM     93  C   UNL A   1      36.624  31.833  29.360  1.00  0.00     0.064 A 
ATOM     94  C   UNL A   1      35.473  31.127  28.980  1.00  0.00     0.173 A 
ATOM     95  C   UNL A   1      36.647  33.218  29.131  1.00  0.00     0.173 A 
ATOM     96  F   UNL A   1      35.404  29.800  29.161  1.00  0.00    -0.203 F 
ATOM     97  C   UNL A   1      34.395  31.780  28.386  1.00  0.00     0.198 A 
ATOM     98  C   UNL A   1      35.555  33.872  28.568  1.00  0.00     0.198 A 
ATOM     99  F   UNL A   1      37.721  33.943  29.479  1.00  0.00    -0.203 F 
ATOM    100  F   UNL A   1      33.321  31.078  27.997  1.00  0.00    -0.200 F 
ATOM    101  C   UNL A   1      34.432  33.152  28.191  1.00  0.00     0.200 A 
ATOM    102  F   UNL A   1      35.587  35.201  28.395  1.00  0.00    -0.200 F 
ATOM    103  F   UNL A   1      33.386  33.781  27.637  1.00  0.00    -0.200 F 
ENDBRANCH  70  93
ENDBRANCH  44  45
ENDBRANCH  37  39
ENDBRANCH  36  37
ENDBRANCH  35  36
ENDBRANCH  34  35
ENDBRANCH  33  34
ENDBRANCH   1  33
TORSDOF 18
ENDMDL
MODEL 2
REMARK VINA RESULT:     -10.5      5.385     10.924
REMARK SMILES CC(=O)Oc1ccc2oc(N)c([C@@H]3[NH2+][C@@H](C(=O)OCCOCCOC(=O)c4ccc(-c5c6nc(c(-c7c(F)c(F)c(F)c(F)c7F)c7ccc([nH]7)c(-c7c(F)c(F)c(F)c(F)c7F)c7nc(c(-c8c(F)c(F)c(F)c(F)c8F)c8ccc5[nH]8)C=C7)C=C6)cc4)C(C)(C)S3)c(=O)c2c1
REMARK SMILES IDX 20 1 19 2 18 3 16 4 17 5 15 6 13 7 14 8 93 9 90 12 91 13
REMARK SMILES IDX 92 14 12 15 5 16 6 17 97 18 7 19 96 20 8 21 94 22 9 23 95 24
REMARK SMILES IDX 10 25 4 26 2 27 1 28 3 29 11 30 21 33 22 34 23 35 24 36
REMARK SMILES IDX 25 37 26 38 27 39 28 40 89 41 29 42 88 43 30 44 31 45 32 46
REMARK SMILES IDX 82 47 33 48 87 49 81 50 83 51 34 52 86 53 80 54 79 55 35 57
REMARK SMILES IDX 67 58 47 59 66 60 48 61 51 62 65 63 84 64 49 65 50 66 64 68
REMARK SMILES IDX 85 69 52 70 36 71 37 72 45 73 38 74 39 75 43 76 46 77 40 78
REMARK SMILES IDX 41 79 44 80 42 81 68 82 69 83 77 84 70 85 71 86 75 87 78 88
REMARK SMILES IDX 72 89 73 90 76 91 74 92 53 93 54 94 62 95 55 96 56 97 60 98
REMARK SMILES IDX 63 99 57 100 58 101 61 102 59 103
REMARK H PARENT 14 10 14 11 11 31 11 32 83 56 51 67
REMARK Flexibility Score: inf
ROOT
ATOM      1  C   UNL A   1      38.915  21.380  25.480  1.00  0.00     0.202 C 
ENDROOT
BRANCH   1   2
ATOM      2  C   UNL A   1      37.491  21.856  25.789  1.00  0.00     0.261 C 
BRANCH   2   3
ATOM      3  O   UNL A   1      36.608  21.699  24.661  1.00  0.00    -0.459 OA
BRANCH   3   4
ATOM      4  C   UNL A   1      35.542  20.890  24.892  1.00  0.00     0.366 C 
ATOM      5  O   UNL A   1      35.621  19.670  25.001  1.00  0.00    -0.245 OA
BRANCH   4   6
ATOM      6  C   UNL A   1      34.204  21.629  24.996  1.00  0.00     0.310 C 
ATOM      7  C   UNL A   1      32.883  23.098  26.295  1.00  0.00     0.284 C 
ATOM      8  N   UNL A   1      34.098  22.271  26.331  1.00  0.00    -0.318 N 
ATOM      9  S   UNL A   1      31.639  22.154  25.362  1.00  0.00    -0.081 SA
ATOM     10  H   UNL A   1      34.020  21.562  27.059  1.00  0.00     0.348 HD
ATOM     11  H   UNL A   1      34.923  22.834  26.538  1.00  0.00     0.348 HD
ATOM     12  C   UNL A   1      32.852  20.938  24.668  1.00  0.00     0.079 C 
ATOM     13  C   UNL A   1      32.599  19.601  25.373  1.00  0.00     0.030 C 
ATOM     14  C   UNL A   1      32.527  20.828  23.166  1.00  0.00     0.030 C 
BRANCH   7  15
ATOM     15  C   UNL A   1      33.138  24.502  25.778  1.00  0.00     0.128 A 
ATOM     16  C   UNL A   1      31.059  28.673  24.223  1.00  0.00     0.131 A 
ATOM     17  C   UNL A   1      32.330  29.179  23.944  1.00  0.00     0.051 A 
ATOM     18  C   UNL A   1      30.888  27.440  24.849  1.00  0.00     0.063 A 
ATOM     19  C   UNL A   1      33.449  28.410  24.246  1.00  0.00     0.052 A 
ATOM     20  C   UNL A   1      32.019  26.679  25.141  1.00  0.00     0.069 A 
ATOM     21  C   UNL A   1      33.282  27.154  24.826  1.00  0.00     0.140 A 
ATOM     22  C   UNL A   1      31.911  25.354  25.761  1.00  0.00     0.205 A 
ATOM     23  O   UNL A   1      34.407  26.424  25.047  1.00  0.00    -0.440 OA
ATOM     24  O   UNL A   1      30.827  24.967  26.184  1.00  0.00    -0.288 OA
ATOM     25  C   UNL A   1      34.287  25.081  25.350  1.00  0.00     0.205 A 
BRANCH  16  26
ATOM     26  O   UNL A   1      29.912  29.423  23.948  1.00  0.00    -0.427 OA
BRANCH  26  27
ATOM     27  C   UNL A   1      29.255  29.079  22.770  1.00  0.00     0.308 C 
ATOM     28  C   UNL A   1      28.018  28.312  23.123  1.00  0.00     0.139 C 
ATOM     29  O   UNL A   1      29.606  29.333  21.626  1.00  0.00    -0.252 OA
ENDBRANCH  26  27
ENDBRANCH  16  26
BRANCH  25  30
ATOM     30  N   UNL A   1      35.483  24.456  25.163  1.00  0.00    -0.369 N 
ATOM     31  H   UNL A   1      35.579  23.780  24.453  1.00  0.00     0.159 HD
ATOM     32  H   UNL A   1      36.251  24.680  25.736  1.00  0.00     0.159 HD
ENDBRANCH  25  30
ENDBRANCH   7  15
ENDBRANCH   4   6
ENDBRANCH   3   4
ENDBRANCH   2   3
ENDBRANCH   1   2
BRANCH   1  33
ATOM     33  O   UNL A   1      39.962  21.807  26.348  1.00  0.00    -0.374 OA
BRANCH  33  34
ATOM     34  C   UNL A   1      41.233  21.186  26.188  1.00  0.00     0.202 C 
BRANCH  34  35
ATOM     35  C   UNL A   1      42.407  22.083  25.774  1.00  0.00     0.261 C 
BRANCH  35  36
ATOM     36  O   UNL A   1      41.946  23.389  25.384  1.00  0.00    -0.460 OA
BRANCH  36  37
ATOM     37  C   UNL A   1      42.823  24.395  25.612  1.00  0.00     0.338 C 
ATOM     38  O   UNL A   1      43.849  24.633  24.995  1.00  0.00    -0.246 OA
BRANCH  37  39
ATOM     39  C   UNL A   1      42.239  25.338  26.588  1.00  0.00     0.060 A 
ATOM     40  C   UNL A   1      41.179  24.985  27.425  1.00  0.00     0.016 A 
ATOM     41  C   UNL A   1      42.791  26.625  26.646  1.00  0.00     0.016 A 
ATOM     42  C   UNL A   1      40.707  25.914  28.358  1.00  0.00     0.010 A 
ATOM     43  C   UNL A   1      42.320  27.550  27.575  1.00  0.00     0.010 A 
ATOM     44  C   UNL A   1      41.295  27.190  28.459  1.00  0.00    -0.014 A 
BRANCH  44  45
ATOM     45  C   UNL A   1      40.960  28.089  29.590  1.00  0.00     0.031 A 
ATOM     46  C   UNL A   1      39.837  29.075  29.512  1.00  0.00     0.074 A 
ATOM     47  C   UNL A   1      41.737  28.040  30.688  1.00  0.00     0.049 A 
ATOM     48  N   UNL A   1      39.407  29.907  30.428  1.00  0.00    -0.248 NA
ATOM     49  C   UNL A   1      39.107  29.147  28.239  1.00  0.00     0.031 C 
ATOM     50  C   UNL A   1      42.889  27.151  30.855  1.00  0.00     0.029 A 
ATOM     51  N   UNL A   1      41.680  28.739  31.865  1.00  0.00    -0.354 N 
ATOM     52  C   UNL A   1      38.340  30.584  29.855  1.00  0.00     0.074 A 
ATOM     53  C   UNL A   1      38.231  30.111  28.489  1.00  0.00     0.031 C 
ATOM     54  C   UNL A   1      43.401  27.327  32.080  1.00  0.00     0.029 A 
ATOM     55  C   UNL A   1      42.642  28.366  32.769  1.00  0.00     0.049 A 
ATOM     56  H   UNL A   1      41.013  29.441  32.043  1.00  0.00     0.167 HD
ATOM     57  C   UNL A   1      37.516  31.495  30.428  1.00  0.00     0.037 A 
ATOM     58  C   UNL A   1      42.882  28.804  34.019  1.00  0.00     0.037 A 
ATOM     59  C   UNL A   1      37.657  31.985  31.777  1.00  0.00     0.049 A 
ATOM     60  C   UNL A   1      42.000  29.866  34.608  1.00  0.00     0.074 A 
ATOM     61  C   UNL A   1      36.863  32.894  32.454  1.00  0.00     0.029 A 
ATOM     62  N   UNL A   1      38.675  31.621  32.651  1.00  0.00    -0.354 N 
ATOM     63  N   UNL A   1      40.949  30.450  34.085  1.00  0.00    -0.248 NA
ATOM     64  C   UNL A   1      42.336  30.331  35.960  1.00  0.00     0.031 C 
ATOM     65  C   UNL A   1      37.431  33.125  33.712  1.00  0.00     0.029 A 
ATOM     66  C   UNL A   1      38.545  32.313  33.847  1.00  0.00     0.049 A 
ATOM     67  H   UNL A   1      39.383  30.968  32.451  1.00  0.00     0.167 HD
ATOM     68  C   UNL A   1      40.485  31.335  35.047  1.00  0.00     0.074 A 
ATOM     69  C   UNL A   1      41.361  31.200  36.194  1.00  0.00     0.031 C 
ATOM     70  C   UNL A   1      39.427  32.182  34.982  1.00  0.00     0.037 A 
BRANCH  57  71
ATOM     71  C   UNL A   1      36.381  32.020  29.591  1.00  0.00     0.064 A 
ATOM     72  C   UNL A   1      36.341  33.360  29.176  1.00  0.00     0.173 A 
ATOM     73  C   UNL A   1      35.342  31.175  29.172  1.00  0.00     0.173 A 
ATOM     74  F   UNL A   1      37.307  34.213  29.551  1.00  0.00    -0.203 F 
ATOM     75  C   UNL A   1      35.285  33.844  28.407  1.00  0.00     0.198 A 
ATOM     76  C   UNL A   1      34.305  31.655  28.374  1.00  0.00     0.198 A 
ATOM     77  F   UNL A   1      35.333  29.883  29.529  1.00  0.00    -0.203 F 
ATOM     78  F   UNL A   1      35.242  35.141  28.073  1.00  0.00    -0.200 F 
ATOM     79  C   UNL A   1      34.271  32.991  28.002  1.00  0.00     0.200 A 
ATOM     80  F   UNL A   1      33.335  30.825  27.968  1.00  0.00    -0.200 F 
ATOM     81  F   UNL A   1      33.258  33.456  27.260  1.00  0.00    -0.200 F 
ENDBRANCH  57  71
BRANCH  58  82
ATOM     82  C   UNL A   1      43.972  28.173  34.805  1.00  0.00     0.064 A 
ATOM     83  C   UNL A   1      43.732  27.001  35.535  1.00  0.00     0.173 A 
ATOM     84  C   UNL A   1      45.283  28.672  34.777  1.00  0.00     0.173 A 
ATOM     85  F   UNL A   1      42.491  26.496  35.601  1.00  0.00    -0.203 F 
ATOM     86  C   UNL A   1      44.764  26.348  36.203  1.00  0.00     0.198 A 
ATOM     87  C   UNL A   1      46.319  28.002  35.424  1.00  0.00     0.198 A 
ATOM     88  F   UNL A   1      45.562  29.785  34.084  1.00  0.00    -0.203 F 
ATOM     89  F   UNL A   1      44.506  25.236  36.905  1.00  0.00    -0.200 F 
ATOM     90  C   UNL A   1      46.058  26.841  36.137  1.00  0.00     0.200 A 
ATOM     91  F   UNL A   1      47.571  28.471  35.340  1.00  0.00    -0.200 F 
ATOM     92  F   UNL A   1      47.057  26.195  36.755  1.00  0.00    -0.200 F 
ENDBRANCH  58  82
BRANCH  70  93
ATOM     93  C   UNL A   1      39.145  33.034  36.188  1.00  0.00     0.064 A 
ATOM     94  C   UNL A   1      38.355  32.567  37.249  1.00  0.00     0.173 A 
ATOM     95  C   UNL A   1      39.729  34.304  36.317  1.00  0.00     0.173 A 
ATOM     96  F   UNL A   1      37.760  31.367  37.171  1.00  0.00    -0.203 F 
ATOM     97  C   UNL A   1      38.148  33.346  38.385  1.00  0.00     0.198 A 
ATOM     98  C   UNL A   1      39.548  35.065  37.469  1.00  0.00     0.198 A 
ATOM     99  F   UNL A   1      40.498  34.798  35.335  1.00  0.00    -0.203 F 
ATOM    100  F   UNL A   1      37.357  32.895  39.370  1.00  0.00    -0.200 F 
ATOM    101  C   UNL A   1      38.754  34.588  38.499  1.00  0.00     0.200 A 
ATOM    102  F   UNL A   1      40.147  36.258  37.583  1.00  0.00    -0.200 F 
ATOM    103  F   UNL A   1      38.570  35.326  39.603  1.00  0.00    -0.200 F 
ENDBRANCH  70  93
ENDBRANCH  44  45
ENDBRANCH  37  39
ENDBRANCH  36  37
ENDBRANCH  35  36
ENDBRANCH  34  35
ENDBRANCH  33  34
ENDBRANCH   1  33
TORSDOF 18
ENDMDL
MODEL 3
REMARK VINA RESULT:     -10.4      6.668     12.860
REMARK SMILES CC(=O)Oc1ccc2oc(N)c([C@@H]3[NH2+][C@@H](C(=O)OCCOCCOC(=O)c4ccc(-c5c6nc(c(-c7c(F)c(F)c(F)c(F)c7F)c7ccc([nH]7)c(-c7c(F)c(F)c(F)c(F)c7F)c7nc(c(-c8c(F)c(F)c(F)c(F)c8F)c8ccc5[nH]8)C=C7)C=C6)cc4)C(C)(C)S3)c(=O)c2c1
REMARK SMILES IDX 20 1 19 2 18 3 16 4 17 5 15 6 13 7 14 8 93 9 90 12 91 13
REMARK SMILES IDX 92 14 12 15 5 16 6 17 97 18 7 19 96 20 8 21 94 22 9 23 95 24
REMARK SMILES IDX 10 25 4 26 2 27 1 28 3 29 11 30 21 33 22 34 23 35 24 36
REMARK SMILES IDX 25 37 26 38 27 39 28 40 89 41 29 42 88 43 30 44 31 45 32 46
REMARK SMILES IDX 82 47 33 48 87 49 81 50 83 51 34 52 86 53 80 54 79 55 35 57
REMARK SMILES IDX 67 58 47 59 66 60 48 61 51 62 65 63 84 64 49 65 50 66 64 68
REMARK SMILES IDX 85 69 52 70 36 71 37 72 45 73 38 74 39 75 43 76 46 77 40 78
REMARK SMILES IDX 41 79 44 80 42 81 68 82 69 83 77 84 70 85 71 86 75 87 78 88
REMARK SMILES IDX 72 89 73 90 76 91 74 92 53 93 54 94 62 95 55 96 56 97 60 98
REMARK SMILES IDX 63 99 57 100 58 101 61 102 59 103
REMARK H PARENT 14 10 14 11 11 31 11 32 83 56 51 67
REMARK Flexibility Score: inf
ROOT
ATOM      1  C   UNL A   1      34.014  20.114  24.293  1.00  0.00     0.202 C 
ENDROOT
BRANCH   1   2
ATOM      2  C   UNL A   1      33.173  21.295  24.792  1.00  0.00     0.261 C 
BRANCH   2   3
ATOM      3  O   UNL A   1      32.709  22.127  23.710  1.00  0.00    -0.459 OA
BRANCH   3   4
ATOM      4  C   UNL A   1      33.490  23.207  23.459  1.00  0.00     0.366 C 
ATOM      5  O   UNL A   1      34.397  23.218  22.631  1.00  0.00    -0.245 OA
BRANCH   4   6
ATOM      6  C   UNL A   1      33.158  24.435  24.313  1.00  0.00     0.310 C 
ATOM      7  C   UNL A   1      33.061  26.797  24.380  1.00  0.00     0.284 C 
ATOM      8  N   UNL A   1      33.566  25.665  23.588  1.00  0.00    -0.318 N 
ATOM      9  S   UNL A   1      33.293  26.353  26.128  1.00  0.00    -0.081 SA
ATOM     10  H   UNL A   1      34.582  25.712  23.515  1.00  0.00     0.348 HD
ATOM     11  H   UNL A   1      33.189  25.679  22.640  1.00  0.00     0.348 HD
ATOM     12  C   UNL A   1      33.609  24.558  25.794  1.00  0.00     0.079 C 
ATOM     13  C   UNL A   1      35.098  24.308  26.059  1.00  0.00     0.030 C 
ATOM     14  C   UNL A   1      32.743  23.781  26.804  1.00  0.00     0.030 C 
BRANCH   7  15
ATOM     15  C   UNL A   1      31.646  27.196  24.005  1.00  0.00     0.128 A 
ATOM     16  C   UNL A   1      28.878  30.455  21.584  1.00  0.00     0.131 A 
ATOM     17  C   UNL A   1      27.736  29.806  22.058  1.00  0.00     0.051 A 
ATOM     18  C   UNL A   1      30.154  29.950  21.825  1.00  0.00     0.063 A 
ATOM     19  C   UNL A   1      27.878  28.662  22.836  1.00  0.00     0.052 A 
ATOM     20  C   UNL A   1      30.280  28.805  22.611  1.00  0.00     0.069 A 
ATOM     21  C   UNL A   1      29.153  28.182  23.122  1.00  0.00     0.140 A 
ATOM     22  C   UNL A   1      31.594  28.244  22.940  1.00  0.00     0.205 A 
ATOM     23  O   UNL A   1      29.233  27.094  23.934  1.00  0.00    -0.440 OA
ATOM     24  O   UNL A   1      32.598  28.681  22.388  1.00  0.00    -0.288 OA
ATOM     25  C   UNL A   1      30.456  26.748  24.476  1.00  0.00     0.205 A 
BRANCH  16  26
ATOM     26  O   UNL A   1      28.776  31.599  20.786  1.00  0.00    -0.427 OA
BRANCH  26  27
ATOM     27  C   UNL A   1      28.207  32.702  21.414  1.00  0.00     0.308 C 
ATOM     28  C   UNL A   1      28.812  32.837  22.778  1.00  0.00     0.139 C 
ATOM     29  O   UNL A   1      27.348  33.449  20.963  1.00  0.00    -0.252 OA
ENDBRANCH  26  27
ENDBRANCH  16  26
BRANCH  25  30
ATOM     30  N   UNL A   1      30.274  25.900  25.526  1.00  0.00    -0.369 N 
ATOM     31  H   UNL A   1      30.389  24.930  25.401  1.00  0.00     0.159 HD
ATOM     32  H   UNL A   1      30.026  26.255  26.410  1.00  0.00     0.159 HD
ENDBRANCH  25  30
ENDBRANCH   7  15
ENDBRANCH   4   6
ENDBRANCH   3   4
ENDBRANCH   2   3
ENDBRANCH   1   2
BRANCH   1  33
ATOM     33  O   UNL A   1      35.385  20.065  24.679  1.00  0.00    -0.374 OA
BRANCH  33  34
ATOM     34  C   UNL A   1      35.949  21.253  25.225  1.00  0.00     0.202 C 
BRANCH  34  35
ATOM     35  C   UNL A   1      37.480  21.354  25.259  1.00  0.00     0.261 C 
BRANCH  35  36
ATOM     36  O   UNL A   1      37.908  22.377  26.176  1.00  0.00    -0.460 OA
BRANCH  36  37
ATOM     37  C   UNL A   1      39.251  22.513  26.292  1.00  0.00     0.338 C 
ATOM     38  O   UNL A   1      40.108  21.757  25.864  1.00  0.00    -0.246 OA
BRANCH  37  39
ATOM     39  C   UNL A   1      39.560  23.860  26.815  1.00  0.00     0.060 A 
ATOM     40  C   UNL A   1      39.270  24.235  28.128  1.00  0.00     0.016 A 
ATOM     41  C   UNL A   1      40.163  24.768  25.934  1.00  0.00     0.016 A 
ATOM     42  C   UNL A   1      39.634  25.512  28.570  1.00  0.00     0.010 A 
ATOM     43  C   UNL A   1      40.525  26.039  26.375  1.00  0.00     0.010 A 
ATOM     44  C   UNL A   1      40.290  26.408  27.705  1.00  0.00    -0.014 A 
BRANCH  44  45
ATOM     45  C   UNL A   1      40.882  27.665  28.226  1.00  0.00     0.031 A 
ATOM     46  C   UNL A   1      40.035  28.816  28.669  1.00  0.00     0.074 A 
ATOM     47  C   UNL A   1      42.224  27.772  28.241  1.00  0.00     0.049 A 
ATOM     48  N   UNL A   1      40.407  29.966  29.172  1.00  0.00    -0.248 NA
ATOM     49  C   UNL A   1      38.582  28.664  28.517  1.00  0.00     0.031 C 
ATOM     50  C   UNL A   1      43.148  26.731  27.788  1.00  0.00     0.029 A 
ATOM     51  N   UNL A   1      43.042  28.793  28.650  1.00  0.00    -0.354 N 
ATOM     52  C   UNL A   1      39.237  30.668  29.423  1.00  0.00     0.074 A 
ATOM     53  C   UNL A   1      38.145  29.838  28.954  1.00  0.00     0.031 C 
ATOM     54  C   UNL A   1      44.406  27.149  27.987  1.00  0.00     0.029 A 
ATOM     55  C   UNL A   1      44.378  28.498  28.542  1.00  0.00     0.049 A 
ATOM     56  H   UNL A   1      42.703  29.652  28.989  1.00  0.00     0.167 HD
ATOM     57  C   UNL A   1      39.091  31.879  30.014  1.00  0.00     0.037 A 
ATOM     58  C   UNL A   1      45.462  29.229  28.863  1.00  0.00     0.037 A 
ATOM     59  C   UNL A   1      40.187  32.712  30.443  1.00  0.00     0.049 A 
ATOM     60  C   UNL A   1      45.277  30.599  29.450  1.00  0.00     0.074 A 
ATOM     61  C   UNL A   1      40.142  33.947  31.067  1.00  0.00     0.029 A 
ATOM     62  N   UNL A   1      41.532  32.404  30.273  1.00  0.00    -0.354 N 
ATOM     63  N   UNL A   1      44.166  31.225  29.750  1.00  0.00    -0.248 NA
ATOM     64  C   UNL A   1      46.497  31.362  29.742  1.00  0.00     0.031 C 
ATOM     65  C   UNL A   1      41.453  34.411  31.220  1.00  0.00     0.029 A 
ATOM     66  C   UNL A   1      42.322  33.440  30.751  1.00  0.00     0.049 A 
ATOM     67  H   UNL A   1      41.873  31.572  29.873  1.00  0.00     0.167 HD
ATOM     68  C   UNL A   1      44.548  32.446  30.285  1.00  0.00     0.074 A 
ATOM     69  C   UNL A   1      45.998  32.467  30.282  1.00  0.00     0.031 C 
ATOM     70  C   UNL A   1      43.765  33.458  30.736  1.00  0.00     0.037 A 
BRANCH  57  71
ATOM     71  C   UNL A   1      37.687  32.375  30.233  1.00  0.00     0.064 A 
ATOM     72  C   UNL A   1      37.005  32.124  31.435  1.00  0.00     0.173 A 
ATOM     73  C   UNL A   1      37.027  33.132  29.254  1.00  0.00     0.173 A 
ATOM     74  F   UNL A   1      37.587  31.402  32.404  1.00  0.00    -0.203 F 
ATOM     75  C   UNL A   1      35.703  32.579  31.631  1.00  0.00     0.198 A 
ATOM     76  C   UNL A   1      35.738  33.614  29.467  1.00  0.00     0.198 A 
ATOM     77  F   UNL A   1      37.633  33.412  28.091  1.00  0.00    -0.203 F 
ATOM     78  F   UNL A   1      35.054  32.276  32.764  1.00  0.00    -0.200 F 
ATOM     79  C   UNL A   1      35.073  33.329  30.650  1.00  0.00     0.200 A 
ATOM     80  F   UNL A   1      35.136  34.354  28.526  1.00  0.00    -0.200 F 
ATOM     81  F   UNL A   1      33.822  33.768  30.842  1.00  0.00    -0.200 F 
ENDBRANCH  57  71
BRANCH  58  82
ATOM     82  C   UNL A   1      46.809  28.630  28.691  1.00  0.00     0.064 A 
ATOM     83  C   UNL A   1      47.554  28.884  27.532  1.00  0.00     0.173 A 
ATOM     84  C   UNL A   1      47.411  27.869  29.704  1.00  0.00     0.173 A 
ATOM     85  F   UNL A   1      47.014  29.595  26.531  1.00  0.00    -0.203 F 
ATOM     86  C   UNL A   1      48.854  28.405  27.395  1.00  0.00     0.198 A 
ATOM     87  C   UNL A   1      48.721  27.413  29.577  1.00  0.00     0.198 A 
ATOM     88  F   UNL A   1      46.740  27.609  30.836  1.00  0.00    -0.203 F 
ATOM     89  F   UNL A   1      49.541  28.650  26.271  1.00  0.00    -0.200 F 
ATOM     90  C   UNL A   1      49.441  27.681  28.422  1.00  0.00     0.200 A 
ATOM     91  F   UNL A   1      49.291  26.732  30.580  1.00  0.00    -0.200 F 
ATOM     92  F   UNL A   1      50.703  27.245  28.302  1.00  0.00    -0.200 F 
ENDBRANCH  58  82
BRANCH  70  93
ATOM     93  C   UNL A   1      44.453  34.681  31.275  1.00  0.00     0.064 A 
ATOM     94  C   UNL A   1      44.701  35.801  30.467  1.00  0.00     0.173 A 
ATOM     95  C   UNL A   1      44.806  34.762  32.632  1.00  0.00     0.173 A 
ATOM     96  F   UNL A   1      44.398  35.771  29.161  1.00  0.00    -0.203 F 
ATOM     97  C   UNL A   1      45.288  36.949  30.994  1.00  0.00     0.198 A 
ATOM     98  C   UNL A   1      45.362  35.924  33.162  1.00  0.00     0.198 A 
ATOM     99  F   UNL A   1      44.588  33.722  33.451  1.00  0.00    -0.203 F 
ATOM    100  F   UNL A   1      45.550  37.993  30.194  1.00  0.00    -0.200 F 
ATOM    101  C   UNL A   1      45.607  37.014  32.342  1.00  0.00     0.200 A 
ATOM    102  F   UNL A   1      45.654  35.989  34.468  1.00  0.00    -0.200 F 
ATOM    103  F   UNL A   1      46.153  38.128  32.850  1.00  0.00    -0.200 F 
ENDBRANCH  70  93
ENDBRANCH  44  45
ENDBRANCH  37  39
ENDBRANCH  36  37
ENDBRANCH  35  36
ENDBRANCH  34  35
ENDBRANCH  33  34
ENDBRANCH   1  33
TORSDOF 18
ENDMDL
