MODEL 1
REMARK VINA RESULT:     -12.3      0.000      0.000
REMARK SMILES CS(=O)(=O)c1ccc(N2N=C(C(=O)OCCOCCOC(=O)c3ccc(-c4c5nc(c(-c6c(F)c(F)c(F)c(F)c6F)c6ccc([nH]6)c(-c6c(F)c(F)c(F)c(F)c6F)c6nc(c(-c7c(F)c(F)c(F)c(F)c7F)c7ccc4[nH]7)C=C6)C=C5)cc3)C[C@H]2c2cccs2)cc1
REMARK SMILES IDX 17 1 16 2 15 3 14 4 12 5 13 6 11 7 9 8 10 9 87 10 86 11 8 12
REMARK SMILES IDX 5 13 6 14 94 15 7 16 93 17 2 18 1 19 3 20 4 21 88 22 89 23
REMARK SMILES IDX 92 24 90 25 91 26 18 27 19 28 20 29 21 30 22 31 23 32 24 33
REMARK SMILES IDX 85 34 25 35 84 36 26 37 27 38 28 39 78 40 29 41 83 42 77 43
REMARK SMILES IDX 79 44 30 45 82 46 76 47 75 48 31 50 63 51 43 52 62 53 44 54
REMARK SMILES IDX 47 55 61 56 80 57 45 58 46 59 60 61 81 62 48 63 32 64 33 65
REMARK SMILES IDX 41 66 34 67 35 68 39 69 42 70 36 71 37 72 40 73 38 74 64 75
REMARK SMILES IDX 65 76 73 77 66 78 67 79 71 80 74 81 68 82 69 83 72 84 70 85
REMARK SMILES IDX 49 86 50 87 58 88 51 89 52 90 56 91 59 92 53 93 54 94 57 95
REMARK SMILES IDX 55 96
REMARK H PARENT 79 49 47 60
REMARK Flexibility Score: inf
ROOT
ATOM      1  O   UNL A   1      34.176  20.751  25.397  1.00  0.00    -0.374 OA
ENDROOT
BRANCH   1   2
ATOM      2  C   UNL A   1      32.976  20.848  24.629  1.00  0.00     0.202 C 
BRANCH   2   3
ATOM      3  C   UNL A   1      31.802  21.491  25.366  1.00  0.00     0.261 C 
BRANCH   3   4
ATOM      4  O   UNL A   1      32.302  22.512  26.242  1.00  0.00    -0.459 OA
BRANCH   4   5
ATOM      5  C   UNL A   1      31.397  23.442  26.598  1.00  0.00     0.354 C 
ATOM      6  O   UNL A   1      30.477  23.327  27.386  1.00  0.00    -0.245 OA
BRANCH   5   7
ATOM      7  C   UNL A   1      31.759  24.748  25.944  1.00  0.00     0.148 C 
ATOM      8  N   UNL A   1      31.580  26.668  25.075  1.00  0.00    -0.256 N 
ATOM      9  N   UNL A   1      30.883  25.674  25.702  1.00  0.00    -0.169 NA
ATOM     10  C   UNL A   1      32.874  26.179  24.562  1.00  0.00     0.154 C 
ATOM     11  C   UNL A   1      33.178  25.092  25.606  1.00  0.00     0.099 C 
BRANCH   8  12
ATOM     12  C   UNL A   1      30.857  27.700  24.490  1.00  0.00     0.060 A 
ATOM     13  C   UNL A   1      29.346  29.812  23.434  1.00  0.00     0.067 A 
ATOM     14  C   UNL A   1      30.476  30.090  24.204  1.00  0.00     0.022 A 
ATOM     15  C   UNL A   1      28.951  28.494  23.200  1.00  0.00     0.022 A 
ATOM     16  C   UNL A   1      31.231  29.032  24.719  1.00  0.00     0.029 A 
ATOM     17  C   UNL A   1      29.703  27.449  23.736  1.00  0.00     0.029 A 
BRANCH  13  18
ATOM     18  S   UNL A   1      28.351  31.139  22.798  1.00  0.00     0.175 S 
ATOM     19  C   UNL A   1      28.027  30.636  21.128  1.00  0.00     0.163 C 
ATOM     20  O   UNL A   1      29.175  32.331  22.750  1.00  0.00    -0.224 OA
ATOM     21  O   UNL A   1      27.095  31.129  23.523  1.00  0.00    -0.224 OA
ENDBRANCH  13  18
ENDBRANCH   8  12
BRANCH  10  22
ATOM     22  C   UNL A   1      32.874  25.668  23.121  1.00  0.00     0.030 A 
ATOM     23  C   UNL A   1      32.439  26.353  21.997  1.00  0.00     0.017 A 
ATOM     24  S   UNL A   1      33.395  24.084  22.690  1.00  0.00    -0.147 S 
ATOM     25  C   UNL A   1      32.530  25.578  20.804  1.00  0.00     0.012 A 
ATOM     26  C   UNL A   1      33.057  24.331  21.038  1.00  0.00     0.065 A 
ENDBRANCH  10  22
ENDBRANCH   5   7
ENDBRANCH   4   5
ENDBRANCH   3   4
ENDBRANCH   2   3
ENDBRANCH   1   2
BRANCH   1  27
ATOM     27  C   UNL A   1      35.350  21.363  24.859  1.00  0.00     0.202 C 
BRANCH  27  28
ATOM     28  C   UNL A   1      36.674  20.708  25.270  1.00  0.00     0.261 C 
BRANCH  28  29
ATOM     29  O   UNL A   1      37.780  21.622  25.147  1.00  0.00    -0.460 OA
BRANCH  29  30
ATOM     30  C   UNL A   1      38.867  21.304  25.892  1.00  0.00     0.338 C 
ATOM     31  O   UNL A   1      39.418  20.219  25.972  1.00  0.00    -0.246 OA
BRANCH  30  32
ATOM     32  C   UNL A   1      39.433  22.520  26.509  1.00  0.00     0.060 A 
ATOM     33  C   UNL A   1      38.887  23.752  26.125  1.00  0.00     0.016 A 
ATOM     34  C   UNL A   1      40.524  22.470  27.379  1.00  0.00     0.016 A 
ATOM     35  C   UNL A   1      39.461  24.942  26.569  1.00  0.00     0.010 A 
ATOM     36  C   UNL A   1      41.107  23.666  27.816  1.00  0.00     0.010 A 
ATOM     37  C   UNL A   1      40.600  24.905  27.383  1.00  0.00    -0.014 A 
BRANCH  37  38
ATOM     38  C   UNL A   1      41.351  26.156  27.649  1.00  0.00     0.031 A 
ATOM     39  C   UNL A   1      40.671  27.268  28.399  1.00  0.00     0.074 A 
ATOM     40  C   UNL A   1      42.630  26.293  27.256  1.00  0.00     0.049 A 
ATOM     41  N   UNL A   1      41.116  28.460  28.704  1.00  0.00    -0.248 NA
ATOM     42  C   UNL A   1      39.302  26.997  28.868  1.00  0.00     0.031 C 
ATOM     43  C   UNL A   1      43.415  25.273  26.566  1.00  0.00     0.029 A 
ATOM     44  N   UNL A   1      43.491  27.356  27.382  1.00  0.00    -0.354 N 
ATOM     45  C   UNL A   1      40.084  29.080  29.398  1.00  0.00     0.074 A 
ATOM     46  C   UNL A   1      38.980  28.146  29.445  1.00  0.00     0.031 C 
ATOM     47  C   UNL A   1      44.643  25.763  26.317  1.00  0.00     0.029 A 
ATOM     48  C   UNL A   1      44.717  27.139  26.804  1.00  0.00     0.049 A 
ATOM     49  H   UNL A   1      43.251  28.192  27.841  1.00  0.00     0.167 HD
ATOM     50  C   UNL A   1      40.063  30.315  29.954  1.00  0.00     0.037 A 
ATOM     51  C   UNL A   1      45.771  27.968  26.671  1.00  0.00     0.037 A 
ATOM     52  C   UNL A   1      41.158  31.246  29.910  1.00  0.00     0.049 A 
ATOM     53  C   UNL A   1      45.695  29.363  27.234  1.00  0.00     0.074 A 
ATOM     54  C   UNL A   1      41.231  32.521  30.444  1.00  0.00     0.029 A 
ATOM     55  N   UNL A   1      42.375  31.001  29.292  1.00  0.00    -0.354 N 
ATOM     56  N   UNL A   1      44.721  29.939  27.895  1.00  0.00    -0.248 NA
ATOM     57  C   UNL A   1      46.869  30.226  27.030  1.00  0.00     0.031 C 
ATOM     58  C   UNL A   1      42.479  33.062  30.116  1.00  0.00     0.029 A 
ATOM     59  C   UNL A   1      43.198  32.108  29.415  1.00  0.00     0.049 A 
ATOM     60  H   UNL A   1      42.617  30.165  28.832  1.00  0.00     0.167 HD
ATOM     61  C   UNL A   1      45.173  31.213  28.214  1.00  0.00     0.074 A 
ATOM     62  C   UNL A   1      46.513  31.327  27.679  1.00  0.00     0.031 C 
ATOM     63  C   UNL A   1      44.536  32.198  28.891  1.00  0.00     0.037 A 
BRANCH  50  64
ATOM     64  C   UNL A   1      38.802  30.738  30.646  1.00  0.00     0.064 A 
ATOM     65  C   UNL A   1      37.701  31.226  29.928  1.00  0.00     0.173 A 
ATOM     66  C   UNL A   1      38.682  30.623  32.038  1.00  0.00     0.173 A 
ATOM     67  F   UNL A   1      37.772  31.370  28.596  1.00  0.00    -0.203 F 
ATOM     68  C   UNL A   1      36.530  31.601  30.582  1.00  0.00     0.198 A 
ATOM     69  C   UNL A   1      37.501  30.975  32.687  1.00  0.00     0.198 A 
ATOM     70  F   UNL A   1      39.707  30.160  32.770  1.00  0.00    -0.203 F 
ATOM     71  F   UNL A   1      35.502  32.100  29.881  1.00  0.00    -0.200 F 
ATOM     72  C   UNL A   1      36.429  31.469  31.960  1.00  0.00     0.200 A 
ATOM     73  F   UNL A   1      37.402  30.840  34.016  1.00  0.00    -0.200 F 
ATOM     74  F   UNL A   1      35.299  31.825  32.586  1.00  0.00    -0.200 F 
ENDBRANCH  50  64
BRANCH  51  75
ATOM     75  C   UNL A   1      46.993  27.508  25.962  1.00  0.00     0.064 A 
ATOM     76  C   UNL A   1      48.062  26.931  26.662  1.00  0.00     0.173 A 
ATOM     77  C   UNL A   1      47.129  27.663  24.574  1.00  0.00     0.173 A 
ATOM     78  F   UNL A   1      47.988  26.788  27.994  1.00  0.00    -0.203 F 
ATOM     79  C   UNL A   1      49.227  26.543  26.005  1.00  0.00     0.198 A 
ATOM     80  C   UNL A   1      48.285  27.251  23.914  1.00  0.00     0.198 A 
ATOM     81  F   UNL A   1      46.137  28.213  23.859  1.00  0.00    -0.203 F 
ATOM     82  F   UNL A   1      50.252  26.037  26.705  1.00  0.00    -0.200 F 
ATOM     83  C   UNL A   1      49.336  26.699  24.630  1.00  0.00     0.200 A 
ATOM     84  F   UNL A   1      48.383  27.396  22.586  1.00  0.00    -0.200 F 
ATOM     85  F   UNL A   1      50.457  26.327  23.999  1.00  0.00    -0.200 F 
ENDBRANCH  51  75
BRANCH  63  86
ATOM     86  C   UNL A   1      45.293  33.471  29.133  1.00  0.00     0.064 A 
ATOM     87  C   UNL A   1      46.180  33.608  30.210  1.00  0.00     0.173 A 
ATOM     88  C   UNL A   1      45.163  34.551  28.246  1.00  0.00     0.173 A 
ATOM     89  F   UNL A   1      46.327  32.608  31.093  1.00  0.00    -0.203 F 
ATOM     90  C   UNL A   1      46.895  34.786  30.402  1.00  0.00     0.198 A 
ATOM     91  C   UNL A   1      45.899  35.719  28.427  1.00  0.00     0.198 A 
ATOM     92  F   UNL A   1      44.332  34.468  27.196  1.00  0.00    -0.203 F 
ATOM     93  F   UNL A   1      47.708  34.910  31.460  1.00  0.00    -0.200 F 
ATOM     94  C   UNL A   1      46.760  35.837  29.507  1.00  0.00     0.200 A 
ATOM     95  F   UNL A   1      45.776  36.729  27.555  1.00  0.00    -0.200 F 
ATOM     96  F   UNL A   1      47.455  36.968  29.689  1.00  0.00    -0.200 F 
ENDBRANCH  63  86
ENDBRANCH  37  38
ENDBRANCH  30  32
ENDBRANCH  29  30
ENDBRANCH  28  29
ENDBRANCH  27  28
ENDBRANCH   1  27
TORSDOF 17
ENDMDL
MODEL 2
REMARK VINA RESULT:     -12.2      1.321      7.350
REMARK SMILES CS(=O)(=O)c1ccc(N2N=C(C(=O)OCCOCCOC(=O)c3ccc(-c4c5nc(c(-c6c(F)c(F)c(F)c(F)c6F)c6ccc([nH]6)c(-c6c(F)c(F)c(F)c(F)c6F)c6nc(c(-c7c(F)c(F)c(F)c(F)c7F)c7ccc4[nH]7)C=C6)C=C5)cc3)C[C@H]2c2cccs2)cc1
REMARK SMILES IDX 17 1 16 2 15 3 14 4 12 5 13 6 11 7 9 8 10 9 87 10 86 11 8 12
REMARK SMILES IDX 5 13 6 14 94 15 7 16 93 17 2 18 1 19 3 20 4 21 88 22 89 23
REMARK SMILES IDX 92 24 90 25 91 26 18 27 19 28 20 29 21 30 22 31 23 32 24 33
REMARK SMILES IDX 85 34 25 35 84 36 26 37 27 38 28 39 78 40 29 41 83 42 77 43
REMARK SMILES IDX 79 44 30 45 82 46 76 47 75 48 31 50 63 51 43 52 62 53 44 54
REMARK SMILES IDX 47 55 61 56 80 57 45 58 46 59 60 61 81 62 48 63 32 64 33 65
REMARK SMILES IDX 41 66 34 67 35 68 39 69 42 70 36 71 37 72 40 73 38 74 64 75
REMARK SMILES IDX 65 76 73 77 66 78 67 79 71 80 74 81 68 82 69 83 72 84 70 85
REMARK SMILES IDX 49 86 50 87 58 88 51 89 52 90 56 91 59 92 53 93 54 94 57 95
REMARK SMILES IDX 55 96
REMARK H PARENT 79 49 47 60
REMARK Flexibility Score: inf
ROOT
ATOM      1  O   UNL A   1      36.818  22.278  24.826  1.00  0.00    -0.374 OA
ENDROOT
BRANCH   1   2
ATOM      2  C   UNL A   1      35.596  23.017  24.834  1.00  0.00     0.202 C 
BRANCH   2   3
ATOM      3  C   UNL A   1      35.161  23.536  23.464  1.00  0.00     0.261 C 
BRANCH   3   4
ATOM      4  O   UNL A   1      33.805  23.135  23.221  1.00  0.00    -0.459 OA
BRANCH   4   5
ATOM      5  C   UNL A   1      33.172  23.841  22.266  1.00  0.00     0.354 C 
ATOM      6  O   UNL A   1      33.345  23.793  21.062  1.00  0.00    -0.245 OA
BRANCH   5   7
ATOM      7  C   UNL A   1      32.083  24.658  22.906  1.00  0.00     0.148 C 
ATOM      8  N   UNL A   1      30.645  26.177  23.225  1.00  0.00    -0.256 N 
ATOM      9  N   UNL A   1      31.546  25.686  22.323  1.00  0.00    -0.169 NA
ATOM     10  C   UNL A   1      30.903  25.659  24.582  1.00  0.00     0.154 C 
ATOM     11  C   UNL A   1      31.493  24.283  24.231  1.00  0.00     0.099 C 
BRANCH   8  12
ATOM     12  C   UNL A   1      30.076  27.417  22.966  1.00  0.00     0.060 A 
ATOM     13  C   UNL A   1      28.996  29.971  22.552  1.00  0.00     0.067 A 
ATOM     14  C   UNL A   1      30.333  29.728  22.236  1.00  0.00     0.022 A 
ATOM     15  C   UNL A   1      28.196  28.960  23.089  1.00  0.00     0.022 A 
ATOM     16  C   UNL A   1      30.862  28.449  22.435  1.00  0.00     0.029 A 
ATOM     17  C   UNL A   1      28.744  27.694  23.301  1.00  0.00     0.029 A 
BRANCH  13  18
ATOM     18  S   UNL A   1      28.309  31.595  22.341  1.00  0.00     0.175 S 
ATOM     19  C   UNL A   1      27.840  31.617  20.631  1.00  0.00     0.163 C 
ATOM     20  O   UNL A   1      29.378  32.558  22.520  1.00  0.00    -0.224 OA
ATOM     21  O   UNL A   1      27.100  31.666  23.140  1.00  0.00    -0.224 OA
ENDBRANCH  13  18
ENDBRANCH   8  12
BRANCH  10  22
ATOM     22  C   UNL A   1      31.813  26.514  25.464  1.00  0.00     0.030 A 
ATOM     23  C   UNL A   1      31.416  27.387  26.466  1.00  0.00     0.017 A 
ATOM     24  S   UNL A   1      33.526  26.543  25.292  1.00  0.00    -0.147 S 
ATOM     25  C   UNL A   1      32.510  28.070  27.073  1.00  0.00     0.012 A 
ATOM     26  C   UNL A   1      33.717  27.684  26.541  1.00  0.00     0.065 A 
ENDBRANCH  10  22
ENDBRANCH   5   7
ENDBRANCH   4   5
ENDBRANCH   3   4
ENDBRANCH   2   3
ENDBRANCH   1   2
BRANCH   1  27
ATOM     27  C   UNL A   1      36.728  20.861  24.991  1.00  0.00     0.202 C 
BRANCH  27  28
ATOM     28  C   UNL A   1      38.051  20.156  25.312  1.00  0.00     0.261 C 
BRANCH  28  29
ATOM     29  O   UNL A   1      39.141  21.092  25.418  1.00  0.00    -0.460 OA
BRANCH  29  30
ATOM     30  C   UNL A   1      39.912  20.945  26.522  1.00  0.00     0.338 C 
ATOM     31  O   UNL A   1      40.399  19.913  26.954  1.00  0.00    -0.246 OA
BRANCH  30  32
ATOM     32  C   UNL A   1      40.246  22.267  27.089  1.00  0.00     0.060 A 
ATOM     33  C   UNL A   1      39.572  23.380  26.568  1.00  0.00     0.016 A 
ATOM     34  C   UNL A   1      41.249  22.431  28.047  1.00  0.00     0.016 A 
ATOM     35  C   UNL A   1      39.933  24.666  26.965  1.00  0.00     0.010 A 
ATOM     36  C   UNL A   1      41.617  23.725  28.437  1.00  0.00     0.010 A 
ATOM     37  C   UNL A   1      40.986  24.847  27.871  1.00  0.00    -0.014 A 
BRANCH  37  38
ATOM     38  C   UNL A   1      41.529  26.208  28.101  1.00  0.00     0.031 A 
ATOM     39  C   UNL A   1      42.907  26.536  27.595  1.00  0.00     0.074 A 
ATOM     40  C   UNL A   1      40.799  27.149  28.724  1.00  0.00     0.049 A 
ATOM     41  N   UNL A   1      43.598  27.640  27.719  1.00  0.00    -0.248 NA
ATOM     42  C   UNL A   1      43.598  25.473  26.846  1.00  0.00     0.031 C 
ATOM     43  C   UNL A   1      39.436  26.970  29.218  1.00  0.00     0.029 A 
ATOM     44  N   UNL A   1      41.111  28.446  29.051  1.00  0.00    -0.354 N 
ATOM     45  C   UNL A   1      44.802  27.405  27.068  1.00  0.00     0.074 A 
ATOM     46  C   UNL A   1      44.762  26.046  26.574  1.00  0.00     0.031 C 
ATOM     47  C   UNL A   1      39.030  28.114  29.798  1.00  0.00     0.029 A 
ATOM     48  C   UNL A   1      40.115  29.092  29.740  1.00  0.00     0.049 A 
ATOM     49  H   UNL A   1      41.967  28.871  28.815  1.00  0.00     0.167 HD
ATOM     50  C   UNL A   1      45.845  28.251  26.889  1.00  0.00     0.037 A 
ATOM     51  C   UNL A   1      40.094  30.327  30.278  1.00  0.00     0.037 A 
ATOM     52  C   UNL A   1      45.889  29.603  27.379  1.00  0.00     0.049 A 
ATOM     53  C   UNL A   1      41.296  31.223  30.130  1.00  0.00     0.074 A 
ATOM     54  C   UNL A   1      46.903  30.537  27.249  1.00  0.00     0.029 A 
ATOM     55  N   UNL A   1      44.872  30.213  28.097  1.00  0.00    -0.354 N 
ATOM     56  N   UNL A   1      42.426  30.997  29.506  1.00  0.00    -0.248 NA
ATOM     57  C   UNL A   1      41.218  32.549  30.764  1.00  0.00     0.031 C 
ATOM     58  C   UNL A   1      46.514  31.700  27.921  1.00  0.00     0.029 A 
ATOM     59  C   UNL A   1      45.242  31.505  28.432  1.00  0.00     0.049 A 
ATOM     60  H   UNL A   1      44.015  29.790  28.334  1.00  0.00     0.167 HD
ATOM     61  C   UNL A   1      43.178  32.157  29.642  1.00  0.00     0.074 A 
ATOM     62  C   UNL A   1      42.375  33.089  30.404  1.00  0.00     0.031 C 
ATOM     63  C   UNL A   1      44.422  32.426  29.176  1.00  0.00     0.037 A 
BRANCH  50  64
ATOM     64  C   UNL A   1      47.038  27.729  26.146  1.00  0.00     0.064 A 
ATOM     65  C   UNL A   1      47.099  27.760  24.745  1.00  0.00     0.173 A 
ATOM     66  C   UNL A   1      48.145  27.224  26.843  1.00  0.00     0.173 A 
ATOM     67  F   UNL A   1      46.059  28.220  24.033  1.00  0.00    -0.203 F 
ATOM     68  C   UNL A   1      48.221  27.288  24.068  1.00  0.00     0.198 A 
ATOM     69  C   UNL A   1      49.275  26.775  26.164  1.00  0.00     0.198 A 
ATOM     70  F   UNL A   1      48.136  27.174  28.184  1.00  0.00    -0.203 F 
ATOM     71  F   UNL A   1      48.244  27.292  22.728  1.00  0.00    -0.200 F 
ATOM     72  C   UNL A   1      49.309  26.802  24.778  1.00  0.00     0.200 A 
ATOM     73  F   UNL A   1      50.328  26.313  26.851  1.00  0.00    -0.200 F 
ATOM     74  F   UNL A   1      50.390  26.353  24.124  1.00  0.00    -0.200 F 
ENDBRANCH  50  64
BRANCH  51  75
ATOM     75  C   UNL A   1      38.895  30.794  31.021  1.00  0.00     0.064 A 
ATOM     76  C   UNL A   1      37.827  31.412  30.356  1.00  0.00     0.173 A 
ATOM     77  C   UNL A   1      38.805  30.657  32.415  1.00  0.00     0.173 A 
ATOM     78  F   UNL A   1      37.880  31.590  29.028  1.00  0.00    -0.203 F 
ATOM     79  C   UNL A   1      36.724  31.894  31.058  1.00  0.00     0.198 A 
ATOM     80  C   UNL A   1      37.690  31.115  33.112  1.00  0.00     0.198 A 
ATOM     81  F   UNL A   1      39.802  30.076  33.097  1.00  0.00    -0.203 F 
ATOM     82  F   UNL A   1      35.738  32.523  30.403  1.00  0.00    -0.200 F 
ATOM     83  C   UNL A   1      36.654  31.740  32.435  1.00  0.00     0.200 A 
ATOM     84  F   UNL A   1      37.623  30.958  34.441  1.00  0.00    -0.200 F 
ATOM     85  F   UNL A   1      35.593  32.203  33.109  1.00  0.00    -0.200 F 
ENDBRANCH  51  75
BRANCH  63  86
ATOM     86  C   UNL A   1      44.976  33.796  29.436  1.00  0.00     0.064 A 
ATOM     87  C   UNL A   1      45.749  34.074  30.573  1.00  0.00     0.173 A 
ATOM     88  C   UNL A   1      44.770  34.831  28.511  1.00  0.00     0.173 A 
ATOM     89  F   UNL A   1      45.961  33.121  31.494  1.00  0.00    -0.203 F 
ATOM     90  C   UNL A   1      46.279  35.344  30.783  1.00  0.00     0.198 A 
ATOM     91  C   UNL A   1      45.323  36.092  28.712  1.00  0.00     0.198 A 
ATOM     92  F   UNL A   1      44.043  34.613  27.404  1.00  0.00    -0.203 F 
ATOM     93  F   UNL A   1      46.982  35.599  31.895  1.00  0.00    -0.200 F 
ATOM     94  C   UNL A   1      46.072  36.349  29.850  1.00  0.00     0.200 A 
ATOM     95  F   UNL A   1      45.132  37.059  27.803  1.00  0.00    -0.200 F 
ATOM     96  F   UNL A   1      46.590  37.569  30.050  1.00  0.00    -0.200 F 
ENDBRANCH  63  86
ENDBRANCH  37  38
ENDBRANCH  30  32
ENDBRANCH  29  30
ENDBRANCH  28  29
ENDBRANCH  27  28
ENDBRANCH   1  27
TORSDOF 17
ENDMDL
MODEL 3
REMARK VINA RESULT:     -12.2      0.726      7.231
REMARK SMILES CS(=O)(=O)c1ccc(N2N=C(C(=O)OCCOCCOC(=O)c3ccc(-c4c5nc(c(-c6c(F)c(F)c(F)c(F)c6F)c6ccc([nH]6)c(-c6c(F)c(F)c(F)c(F)c6F)c6nc(c(-c7c(F)c(F)c(F)c(F)c7F)c7ccc4[nH]7)C=C6)C=C5)cc3)C[C@H]2c2cccs2)cc1
REMARK SMILES IDX 17 1 16 2 15 3 14 4 12 5 13 6 11 7 9 8 10 9 87 10 86 11 8 12
REMARK SMILES IDX 5 13 6 14 94 15 7 16 93 17 2 18 1 19 3 20 4 21 88 22 89 23
REMARK SMILES IDX 92 24 90 25 91 26 18 27 19 28 20 29 21 30 22 31 23 32 24 33
REMARK SMILES IDX 85 34 25 35 84 36 26 37 27 38 28 39 78 40 29 41 83 42 77 43
REMARK SMILES IDX 79 44 30 45 82 46 76 47 75 48 31 50 63 51 43 52 62 53 44 54
REMARK SMILES IDX 47 55 61 56 80 57 45 58 46 59 60 61 81 62 48 63 32 64 33 65
REMARK SMILES IDX 41 66 34 67 35 68 39 69 42 70 36 71 37 72 40 73 38 74 64 75
REMARK SMILES IDX 65 76 73 77 66 78 67 79 71 80 74 81 68 82 69 83 72 84 70 85
REMARK SMILES IDX 49 86 50 87 58 88 51 89 52 90 56 91 59 92 53 93 54 94 57 95
REMARK SMILES IDX 55 96
REMARK H PARENT 79 49 47 60
REMARK Flexibility Score: inf
ROOT
ATOM      1  O   UNL A   1      35.734  20.918  25.681  1.00  0.00    -0.374 OA
ENDROOT
BRANCH   1   2
ATOM      2  C   UNL A   1      34.344  21.109  25.418  1.00  0.00     0.202 C 
BRANCH   2   3
ATOM      3  C   UNL A   1      33.619  21.977  26.446  1.00  0.00     0.261 C 
BRANCH   3   4
ATOM      4  O   UNL A   1      32.443  22.535  25.841  1.00  0.00    -0.459 OA
BRANCH   4   5
ATOM      5  C   UNL A   1      31.864  23.526  26.544  1.00  0.00     0.354 C 
ATOM      6  O   UNL A   1      31.319  23.452  27.630  1.00  0.00    -0.245 OA
BRANCH   5   7
ATOM      7  C   UNL A   1      32.090  24.828  25.826  1.00  0.00     0.148 C 
ATOM      8  N   UNL A   1      31.718  26.696  24.903  1.00  0.00    -0.256 N 
ATOM      9  N   UNL A   1      31.134  25.678  25.604  1.00  0.00    -0.169 NA
ATOM     10  C   UNL A   1      33.014  26.282  24.331  1.00  0.00     0.154 C 
ATOM     11  C   UNL A   1      33.457  25.262  25.393  1.00  0.00     0.099 C 
BRANCH   8  12
ATOM     12  C   UNL A   1      30.888  27.648  24.327  1.00  0.00     0.060 A 
ATOM     13  C   UNL A   1      29.167  29.605  23.291  1.00  0.00     0.067 A 
ATOM     14  C   UNL A   1      30.328  29.992  23.961  1.00  0.00     0.022 A 
ATOM     15  C   UNL A   1      28.845  28.254  23.148  1.00  0.00     0.022 A 
ATOM     16  C   UNL A   1      31.187  29.011  24.466  1.00  0.00     0.029 A 
ATOM     17  C   UNL A   1      29.702  27.287  23.674  1.00  0.00     0.029 A 
BRANCH  13  18
ATOM     18  S   UNL A   1      28.043  30.831  22.670  1.00  0.00     0.175 S 
ATOM     19  C   UNL A   1      28.986  32.330  22.764  1.00  0.00     0.163 C 
ATOM     20  O   UNL A   1      26.941  30.941  23.607  1.00  0.00    -0.224 OA
ATOM     21  O   UNL A   1      27.804  30.536  21.270  1.00  0.00    -0.224 OA
ENDBRANCH  13  18
ENDBRANCH   8  12
BRANCH  10  22
ATOM     22  C   UNL A   1      32.971  25.718  22.911  1.00  0.00     0.030 A 
ATOM     23  C   UNL A   1      32.630  26.402  21.755  1.00  0.00     0.017 A 
ATOM     24  S   UNL A   1      33.312  24.069  22.549  1.00  0.00    -0.147 S 
ATOM     25  C   UNL A   1      32.644  25.575  20.594  1.00  0.00     0.012 A 
ATOM     26  C   UNL A   1      33.022  24.286  20.885  1.00  0.00     0.065 A 
ENDBRANCH  10  22
ENDBRANCH   5   7
ENDBRANCH   4   5
ENDBRANCH   3   4
ENDBRANCH   2   3
ENDBRANCH   1   2
BRANCH   1  27
ATOM     27  C   UNL A   1      36.438  19.994  24.848  1.00  0.00     0.202 C 
BRANCH  27  28
ATOM     28  C   UNL A   1      37.965  20.032  24.975  1.00  0.00     0.261 C 
BRANCH  28  29
ATOM     29  O   UNL A   1      38.415  21.241  25.618  1.00  0.00    -0.460 OA
BRANCH  29  30
ATOM     30  C   UNL A   1      39.570  21.117  26.316  1.00  0.00     0.338 C 
ATOM     31  O   UNL A   1      40.308  20.147  26.363  1.00  0.00    -0.246 OA
BRANCH  30  32
ATOM     32  C   UNL A   1      39.938  22.413  26.923  1.00  0.00     0.060 A 
ATOM     33  C   UNL A   1      39.284  23.556  26.445  1.00  0.00     0.016 A 
ATOM     34  C   UNL A   1      40.952  22.523  27.877  1.00  0.00     0.016 A 
ATOM     35  C   UNL A   1      39.677  24.821  26.881  1.00  0.00     0.010 A 
ATOM     36  C   UNL A   1      41.352  23.794  28.307  1.00  0.00     0.010 A 
ATOM     37  C   UNL A   1      40.741  24.948  27.783  1.00  0.00    -0.014 A 
BRANCH  37  38
ATOM     38  C   UNL A   1      41.316  26.288  28.053  1.00  0.00     0.031 A 
ATOM     39  C   UNL A   1      42.722  26.580  27.605  1.00  0.00     0.074 A 
ATOM     40  C   UNL A   1      40.591  27.244  28.661  1.00  0.00     0.049 A 
ATOM     41  N   UNL A   1      43.441  27.660  27.771  1.00  0.00    -0.248 NA
ATOM     42  C   UNL A   1      43.409  25.506  26.868  1.00  0.00     0.031 C 
ATOM     43  C   UNL A   1      39.206  27.101  29.098  1.00  0.00     0.029 A 
ATOM     44  N   UNL A   1      40.930  28.526  29.017  1.00  0.00    -0.354 N 
ATOM     45  C   UNL A   1      44.662  27.396  27.163  1.00  0.00     0.074 A 
ATOM     46  C   UNL A   1      44.599  26.045  26.649  1.00  0.00     0.031 C 
ATOM     47  C   UNL A   1      38.812  28.250  29.678  1.00  0.00     0.029 A 
ATOM     48  C   UNL A   1      39.928  29.194  29.676  1.00  0.00     0.049 A 
ATOM     49  H   UNL A   1      41.807  28.927  28.820  1.00  0.00     0.167 HD
ATOM     50  C   UNL A   1      45.737  28.211  27.037  1.00  0.00     0.037 A 
ATOM     51  C   UNL A   1      39.924  30.423  30.230  1.00  0.00     0.037 A 
ATOM     52  C   UNL A   1      45.803  29.555  27.547  1.00  0.00     0.049 A 
ATOM     53  C   UNL A   1      41.158  31.282  30.141  1.00  0.00     0.074 A 
ATOM     54  C   UNL A   1      46.849  30.459  27.469  1.00  0.00     0.029 A 
ATOM     55  N   UNL A   1      44.778  30.188  28.233  1.00  0.00    -0.354 N 
ATOM     56  N   UNL A   1      42.304  31.029  29.558  1.00  0.00    -0.248 NA
ATOM     57  C   UNL A   1      41.096  32.601  30.790  1.00  0.00     0.031 C 
ATOM     58  C   UNL A   1      46.470  31.625  28.142  1.00  0.00     0.029 A 
ATOM     59  C   UNL A   1      45.173  31.463  28.600  1.00  0.00     0.049 A 
ATOM     60  H   UNL A   1      43.900  29.789  28.431  1.00  0.00     0.167 HD
ATOM     61  C   UNL A   1      43.085  32.164  29.739  1.00  0.00     0.074 A 
ATOM     62  C   UNL A   1      42.281  33.111  30.482  1.00  0.00     0.031 C 
ATOM     63  C   UNL A   1      44.353  32.400  29.325  1.00  0.00     0.037 A 
BRANCH  50  64
ATOM     64  C   UNL A   1      46.941  27.662  26.333  1.00  0.00     0.064 A 
ATOM     65  C   UNL A   1      47.950  26.981  27.029  1.00  0.00     0.173 A 
ATOM     66  C   UNL A   1      47.070  27.788  24.943  1.00  0.00     0.173 A 
ATOM     67  F   UNL A   1      47.879  26.849  28.363  1.00  0.00    -0.203 F 
ATOM     68  C   UNL A   1      49.055  26.462  26.360  1.00  0.00     0.198 A 
ATOM     69  C   UNL A   1      48.164  27.246  24.273  1.00  0.00     0.198 A 
ATOM     70  F   UNL A   1      46.130  28.429  24.231  1.00  0.00    -0.203 F 
ATOM     71  F   UNL A   1      50.027  25.847  27.050  1.00  0.00    -0.200 F 
ATOM     72  C   UNL A   1      49.158  26.589  24.982  1.00  0.00     0.200 A 
ATOM     73  F   UNL A   1      48.258  27.363  22.941  1.00  0.00    -0.200 F 
ATOM     74  F   UNL A   1      50.219  26.083  24.340  1.00  0.00    -0.200 F 
ENDBRANCH  50  64
BRANCH  51  75
ATOM     75  C   UNL A   1      38.711  30.917  30.933  1.00  0.00     0.064 A 
ATOM     76  C   UNL A   1      37.667  31.531  30.228  1.00  0.00     0.173 A 
ATOM     77  C   UNL A   1      38.586  30.811  32.326  1.00  0.00     0.173 A 
ATOM     78  F   UNL A   1      37.755  31.679  28.898  1.00  0.00    -0.203 F 
ATOM     79  C   UNL A   1      36.551  32.038  30.891  1.00  0.00     0.198 A 
ATOM     80  C   UNL A   1      37.458  31.294  32.985  1.00  0.00     0.198 A 
ATOM     81  F   UNL A   1      39.560  30.235  33.046  1.00  0.00    -0.203 F 
ATOM     82  F   UNL A   1      35.588  32.662  30.199  1.00  0.00    -0.200 F 
ATOM     83  C   UNL A   1      36.446  31.915  32.270  1.00  0.00     0.200 A 
ATOM     84  F   UNL A   1      37.357  31.167  34.316  1.00  0.00    -0.200 F 
ATOM     85  F   UNL A   1      35.374  32.403  32.907  1.00  0.00    -0.200 F 
ENDBRANCH  51  75
BRANCH  63  86
ATOM     86  C   UNL A   1      44.939  33.748  29.626  1.00  0.00     0.064 A 
ATOM     87  C   UNL A   1      45.687  33.984  30.788  1.00  0.00     0.173 A 
ATOM     88  C   UNL A   1      44.788  34.805  28.714  1.00  0.00     0.173 A 
ATOM     89  F   UNL A   1      45.847  33.009  31.696  1.00  0.00    -0.203 F 
ATOM     90  C   UNL A   1      46.247  35.234  31.036  1.00  0.00     0.198 A 
ATOM     91  C   UNL A   1      45.370  36.046  28.953  1.00  0.00     0.198 A 
ATOM     92  F   UNL A   1      44.086  34.628  27.584  1.00  0.00    -0.203 F 
ATOM     93  F   UNL A   1      46.926  35.449  32.171  1.00  0.00    -0.200 F 
ATOM     94  C   UNL A   1      46.095  36.261  30.116  1.00  0.00     0.200 A 
ATOM     95  F   UNL A   1      45.232  37.034  28.058  1.00  0.00    -0.200 F 
ATOM     96  F   UNL A   1      46.641  37.461  30.353  1.00  0.00    -0.200 F 
ENDBRANCH  63  86
ENDBRANCH  37  38
ENDBRANCH  30  32
ENDBRANCH  29  30
ENDBRANCH  28  29
ENDBRANCH  27  28
ENDBRANCH   1  27
TORSDOF 17
ENDMDL
