MODEL 1
REMARK VINA RESULT:      -9.9      0.000      0.000
REMARK SMILES O=C(COc1cc2ccccc2cc1O)OCCOCCOC(=O)c1ccc(-c2c3nc(c(-c4c(F)c(F)c(F)c(F)c4F)c4ccc([nH]4)c(-c4c(F)c(F)c(F)c(F)c4F)c4nc(c(-c5c(F)c(F)c(F)c(F)c5F)c5ccc2[nH]5)C=C4)C=C3)cc1
REMARK SMILES IDX 18 1 17 2 16 3 2 4 1 5 3 6 4 7 5 8 6 9 14 10 7 11 13 12 8 13
REMARK SMILES IDX 12 14 9 15 11 16 10 17 15 18 19 20 20 21 21 22 22 23 23 24
REMARK SMILES IDX 24 25 25 26 26 27 87 28 27 29 86 30 28 31 29 32 30 33 80 34
REMARK SMILES IDX 31 35 85 36 79 37 81 38 32 39 84 40 78 41 77 42 33 44 65 45
REMARK SMILES IDX 45 46 64 47 46 48 49 49 63 50 82 51 47 52 48 53 62 55 83 56
REMARK SMILES IDX 50 57 34 58 35 59 43 60 36 61 37 62 41 63 44 64 38 65 39 66
REMARK SMILES IDX 42 67 40 68 66 69 67 70 75 71 68 72 69 73 73 74 76 75 70 76
REMARK SMILES IDX 71 77 74 78 72 79 51 80 52 81 60 82 53 83 54 84 58 85 61 86
REMARK SMILES IDX 55 87 56 88 59 89 57 90
REMARK H PARENT 15 19 81 43 49 54
REMARK Flexibility Score: inf
ROOT
ATOM      1  C   UNL A   1      33.716  35.672  29.121  1.00  0.00     0.202 C 
ENDROOT
BRANCH   1   2
ATOM      2  C   UNL A   1      32.903  36.439  30.164  1.00  0.00     0.261 C 
BRANCH   2   3
ATOM      3  O   UNL A   1      32.618  35.662  31.332  1.00  0.00    -0.461 OA
BRANCH   3   4
ATOM      4  C   UNL A   1      32.841  36.248  32.542  1.00  0.00     0.344 C 
ATOM      5  O   UNL A   1      32.154  37.198  32.907  1.00  0.00    -0.248 OA
BRANCH   4   6
ATOM      6  C   UNL A   1      34.100  35.793  33.294  1.00  0.00     0.352 C 
BRANCH   6   7
ATOM      7  O   UNL A   1      35.302  35.606  32.553  1.00  0.00    -0.478 OA
BRANCH   7   8
ATOM      8  C   UNL A   1      35.862  34.358  32.574  1.00  0.00     0.162 A 
ATOM      9  C   UNL A   1      37.188  34.300  33.011  1.00  0.00     0.059 A 
ATOM     10  C   UNL A   1      35.227  33.171  32.201  1.00  0.00     0.158 A 
ATOM     11  C   UNL A   1      37.827  33.067  33.225  1.00  0.00    -0.014 A 
ATOM     12  C   UNL A   1      35.810  31.935  32.486  1.00  0.00     0.059 A 
ATOM     13  C   UNL A   1      39.168  32.990  33.640  1.00  0.00     0.009 A 
ATOM     14  C   UNL A   1      37.100  31.871  33.034  1.00  0.00    -0.014 A 
ATOM     15  C   UNL A   1      39.757  31.759  33.928  1.00  0.00     0.001 A 
ATOM     16  C   UNL A   1      37.692  30.643  33.374  1.00  0.00     0.009 A 
ATOM     17  C   UNL A   1      39.009  30.589  33.828  1.00  0.00     0.001 A 
BRANCH  10  18
ATOM     18  O   UNL A   1      34.028  33.215  31.554  1.00  0.00    -0.504 OA
ATOM     19  H   UNL A   1      33.239  33.358  32.038  1.00  0.00     0.293 HD
ENDBRANCH  10  18
ENDBRANCH   7   8
ENDBRANCH   6   7
ENDBRANCH   4   6
ENDBRANCH   3   4
ENDBRANCH   2   3
ENDBRANCH   1   2
BRANCH   1  20
ATOM     20  O   UNL A   1      32.949  35.104  28.056  1.00  0.00    -0.374 OA
BRANCH  20  21
ATOM     21  C   UNL A   1      33.015  33.671  28.000  1.00  0.00     0.202 C 
BRANCH  21  22
ATOM     22  C   UNL A   1      34.426  33.090  28.190  1.00  0.00     0.261 C 
BRANCH  22  23
ATOM     23  O   UNL A   1      34.410  31.917  29.014  1.00  0.00    -0.460 OA
BRANCH  23  24
ATOM     24  C   UNL A   1      34.443  30.755  28.308  1.00  0.00     0.338 C 
ATOM     25  O   UNL A   1      33.569  30.305  27.598  1.00  0.00    -0.246 OA
BRANCH  24  26
ATOM     26  C   UNL A   1      35.805  30.176  28.371  1.00  0.00     0.060 A 
ATOM     27  C   UNL A   1      36.236  29.702  29.617  1.00  0.00     0.016 A 
ATOM     28  C   UNL A   1      36.644  30.081  27.254  1.00  0.00     0.016 A 
ATOM     29  C   UNL A   1      37.519  29.182  29.764  1.00  0.00     0.010 A 
ATOM     30  C   UNL A   1      37.934  29.559  27.402  1.00  0.00     0.010 A 
ATOM     31  C   UNL A   1      38.387  29.144  28.666  1.00  0.00    -0.014 A 
BRANCH  31  32
ATOM     32  C   UNL A   1      39.822  28.853  28.898  1.00  0.00     0.031 A 
ATOM     33  C   UNL A   1      40.651  29.880  29.617  1.00  0.00     0.074 A 
ATOM     34  C   UNL A   1      40.363  27.678  28.531  1.00  0.00     0.049 A 
ATOM     35  N   UNL A   1      41.912  29.838  29.966  1.00  0.00    -0.248 NA
ATOM     36  C   UNL A   1      39.962  31.125  29.998  1.00  0.00     0.031 C 
ATOM     37  C   UNL A   1      39.656  26.597  27.848  1.00  0.00     0.029 A 
ATOM     38  N   UNL A   1      41.641  27.202  28.686  1.00  0.00    -0.354 N 
ATOM     39  C   UNL A   1      42.161  31.038  30.619  1.00  0.00     0.074 A 
ATOM     40  C   UNL A   1      40.937  31.808  30.578  1.00  0.00     0.031 C 
ATOM     41  C   UNL A   1      40.514  25.585  27.631  1.00  0.00     0.029 A 
ATOM     42  C   UNL A   1      41.832  25.955  28.145  1.00  0.00     0.049 A 
ATOM     43  H   UNL A   1      42.352  27.706  29.140  1.00  0.00     0.167 HD
ATOM     44  C   UNL A   1      43.300  31.454  31.218  1.00  0.00     0.037 A 
ATOM     45  C   UNL A   1      42.951  25.207  28.068  1.00  0.00     0.037 A 
ATOM     46  C   UNL A   1      44.523  30.698  31.243  1.00  0.00     0.049 A 
ATOM     47  C   UNL A   1      44.226  25.722  28.688  1.00  0.00     0.074 A 
ATOM     48  C   UNL A   1      45.739  31.037  31.811  1.00  0.00     0.029 A 
ATOM     49  N   UNL A   1      44.686  29.447  30.667  1.00  0.00    -0.354 N 
ATOM     50  N   UNL A   1      44.444  26.844  29.330  1.00  0.00    -0.248 NA
ATOM     51  C   UNL A   1      45.409  24.854  28.583  1.00  0.00     0.031 C 
ATOM     52  C   UNL A   1      46.649  30.008  31.542  1.00  0.00     0.029 A 
ATOM     53  C   UNL A   1      45.987  29.007  30.851  1.00  0.00     0.049 A 
ATOM     54  H   UNL A   1      43.982  28.946  30.195  1.00  0.00     0.167 HD
ATOM     55  C   UNL A   1      45.777  26.808  29.723  1.00  0.00     0.074 A 
ATOM     56  C   UNL A   1      46.310  25.542  29.270  1.00  0.00     0.031 C 
ATOM     57  C   UNL A   1      46.499  27.741  30.393  1.00  0.00     0.037 A 
BRANCH  44  58
ATOM     58  C   UNL A   1      43.276  32.794  31.888  1.00  0.00     0.064 A 
ATOM     59  C   UNL A   1      43.414  33.982  31.153  1.00  0.00     0.173 A 
ATOM     60  C   UNL A   1      43.089  32.898  33.275  1.00  0.00     0.173 A 
ATOM     61  F   UNL A   1      43.616  33.935  29.828  1.00  0.00    -0.203 F 
ATOM     62  C   UNL A   1      43.383  35.222  31.784  1.00  0.00     0.198 A 
ATOM     63  C   UNL A   1      43.032  34.140  33.899  1.00  0.00     0.198 A 
ATOM     64  F   UNL A   1      42.955  31.793  34.023  1.00  0.00    -0.203 F 
ATOM     65  F   UNL A   1      43.560  36.341  31.068  1.00  0.00    -0.200 F 
ATOM     66  C   UNL A   1      43.186  35.301  33.155  1.00  0.00     0.200 A 
ATOM     67  F   UNL A   1      42.834  34.216  35.222  1.00  0.00    -0.200 F 
ATOM     68  F   UNL A   1      43.150  36.496  33.760  1.00  0.00    -0.200 F 
ENDBRANCH  44  58
BRANCH  45  69
ATOM     69  C   UNL A   1      42.928  23.894  27.368  1.00  0.00     0.064 A 
ATOM     70  C   UNL A   1      43.273  23.784  26.015  1.00  0.00     0.173 A 
ATOM     71  C   UNL A   1      42.514  22.730  28.032  1.00  0.00     0.173 A 
ATOM     72  F   UNL A   1      43.652  24.874  25.330  1.00  0.00    -0.203 F 
ATOM     73  C   UNL A   1      43.178  22.566  25.344  1.00  0.00     0.198 A 
ATOM     74  C   UNL A   1      42.447  21.506  27.368  1.00  0.00     0.198 A 
ATOM     75  F   UNL A   1      42.170  22.781  29.327  1.00  0.00    -0.203 F 
ATOM     76  F   UNL A   1      43.458  22.502  24.035  1.00  0.00    -0.200 F 
ATOM     77  C   UNL A   1      42.769  21.428  26.022  1.00  0.00     0.200 A 
ATOM     78  F   UNL A   1      42.060  20.409  28.030  1.00  0.00    -0.200 F 
ATOM     79  F   UNL A   1      42.672  20.259  25.374  1.00  0.00    -0.200 F 
ENDBRANCH  45  69
BRANCH  57  80
ATOM     80  C   UNL A   1      47.932  27.412  30.696  1.00  0.00     0.064 A 
ATOM     81  C   UNL A   1      48.299  26.733  31.866  1.00  0.00     0.173 A 
ATOM     82  C   UNL A   1      48.948  27.766  29.795  1.00  0.00     0.173 A 
ATOM     83  F   UNL A   1      47.366  26.386  32.766  1.00  0.00    -0.203 F 
ATOM     84  C   UNL A   1      49.635  26.451  32.142  1.00  0.00     0.198 A 
ATOM     85  C   UNL A   1      50.280  27.453  30.058  1.00  0.00     0.198 A 
ATOM     86  F   UNL A   1      48.650  28.408  28.656  1.00  0.00    -0.203 F 
ATOM     87  F   UNL A   1      49.968  25.852  33.294  1.00  0.00    -0.200 F 
ATOM     88  C   UNL A   1      50.622  26.806  31.235  1.00  0.00     0.200 A 
ATOM     89  F   UNL A   1      51.231  27.785  29.174  1.00  0.00    -0.200 F 
ATOM     90  F   UNL A   1      51.907  26.534  31.502  1.00  0.00    -0.200 F 
ENDBRANCH  57  80
ENDBRANCH  31  32
ENDBRANCH  24  26
ENDBRANCH  23  24
ENDBRANCH  22  23
ENDBRANCH  21  22
ENDBRANCH  20  21
ENDBRANCH   1  20
TORSDOF 17
ENDMDL
MODEL 2
REMARK VINA RESULT:      -9.8      0.691      2.006
REMARK SMILES O=C(COc1cc2ccccc2cc1O)OCCOCCOC(=O)c1ccc(-c2c3nc(c(-c4c(F)c(F)c(F)c(F)c4F)c4ccc([nH]4)c(-c4c(F)c(F)c(F)c(F)c4F)c4nc(c(-c5c(F)c(F)c(F)c(F)c5F)c5ccc2[nH]5)C=C4)C=C3)cc1
REMARK SMILES IDX 18 1 17 2 16 3 2 4 1 5 3 6 4 7 5 8 6 9 14 10 7 11 13 12 8 13
REMARK SMILES IDX 12 14 9 15 11 16 10 17 15 18 19 20 20 21 21 22 22 23 23 24
REMARK SMILES IDX 24 25 25 26 26 27 87 28 27 29 86 30 28 31 29 32 30 33 80 34
REMARK SMILES IDX 31 35 85 36 79 37 81 38 32 39 84 40 78 41 77 42 33 44 65 45
REMARK SMILES IDX 45 46 64 47 46 48 49 49 63 50 82 51 47 52 48 53 62 55 83 56
REMARK SMILES IDX 50 57 34 58 35 59 43 60 36 61 37 62 41 63 44 64 38 65 39 66
REMARK SMILES IDX 42 67 40 68 66 69 67 70 75 71 68 72 69 73 73 74 76 75 70 76
REMARK SMILES IDX 71 77 74 78 72 79 51 80 52 81 60 82 53 83 54 84 58 85 61 86
REMARK SMILES IDX 55 87 56 88 59 89 57 90
REMARK H PARENT 15 19 81 43 49 54
REMARK Flexibility Score: inf
ROOT
ATOM      1  C   UNL A   1      33.456  35.230  29.699  1.00  0.00     0.202 C 
ENDROOT
BRANCH   1   2
ATOM      2  C   UNL A   1      32.950  36.278  30.690  1.00  0.00     0.261 C 
BRANCH   2   3
ATOM      3  O   UNL A   1      32.982  35.825  32.047  1.00  0.00    -0.461 OA
BRANCH   3   4
ATOM      4  C   UNL A   1      34.098  36.113  32.776  1.00  0.00     0.344 C 
ATOM      5  O   UNL A   1      34.400  37.279  33.012  1.00  0.00    -0.248 OA
BRANCH   4   6
ATOM      6  C   UNL A   1      35.028  34.931  33.086  1.00  0.00     0.352 C 
BRANCH   6   7
ATOM      7  O   UNL A   1      36.422  35.184  33.228  1.00  0.00    -0.478 OA
BRANCH   7   8
ATOM      8  C   UNL A   1      37.225  34.115  33.519  1.00  0.00     0.162 A 
ATOM      9  C   UNL A   1      36.727  32.867  33.132  1.00  0.00     0.059 A 
ATOM     10  C   UNL A   1      38.466  34.173  34.156  1.00  0.00     0.158 A 
ATOM     11  C   UNL A   1      37.518  31.709  33.233  1.00  0.00    -0.014 A 
ATOM     12  C   UNL A   1      39.300  33.055  34.188  1.00  0.00     0.059 A 
ATOM     13  C   UNL A   1      37.026  30.444  32.873  1.00  0.00     0.009 A 
ATOM     14  C   UNL A   1      38.849  31.821  33.694  1.00  0.00    -0.014 A 
ATOM     15  C   UNL A   1      37.854  29.320  32.900  1.00  0.00     0.001 A 
ATOM     16  C   UNL A   1      39.683  30.691  33.671  1.00  0.00     0.009 A 
ATOM     17  C   UNL A   1      39.190  29.450  33.267  1.00  0.00     0.001 A 
BRANCH  10  18
ATOM     18  O   UNL A   1      38.871  35.330  34.753  1.00  0.00    -0.504 OA
ATOM     19  H   UNL A   1      39.161  36.051  34.229  1.00  0.00     0.293 HD
ENDBRANCH  10  18
ENDBRANCH   7   8
ENDBRANCH   6   7
ENDBRANCH   4   6
ENDBRANCH   3   4
ENDBRANCH   2   3
ENDBRANCH   1   2
BRANCH   1  20
ATOM     20  O   UNL A   1      32.529  34.877  28.668  1.00  0.00    -0.374 OA
BRANCH  20  21
ATOM     21  C   UNL A   1      32.928  33.728  27.905  1.00  0.00     0.202 C 
BRANCH  21  22
ATOM     22  C   UNL A   1      34.343  33.214  28.219  1.00  0.00     0.261 C 
BRANCH  22  23
ATOM     23  O   UNL A   1      34.310  31.969  28.929  1.00  0.00    -0.460 OA
BRANCH  23  24
ATOM     24  C   UNL A   1      34.384  30.879  28.119  1.00  0.00     0.338 C 
ATOM     25  O   UNL A   1      33.554  30.501  27.320  1.00  0.00    -0.246 OA
BRANCH  24  26
ATOM     26  C   UNL A   1      35.742  30.290  28.205  1.00  0.00     0.060 A 
ATOM     27  C   UNL A   1      36.100  29.700  29.424  1.00  0.00     0.016 A 
ATOM     28  C   UNL A   1      36.644  30.297  27.135  1.00  0.00     0.016 A 
ATOM     29  C   UNL A   1      37.373  29.162  29.595  1.00  0.00     0.010 A 
ATOM     30  C   UNL A   1      37.923  29.757  27.308  1.00  0.00     0.010 A 
ATOM     31  C   UNL A   1      38.303  29.223  28.551  1.00  0.00    -0.014 A 
BRANCH  31  32
ATOM     32  C   UNL A   1      39.722  28.906  28.837  1.00  0.00     0.031 A 
ATOM     33  C   UNL A   1      40.541  29.914  29.594  1.00  0.00     0.074 A 
ATOM     34  C   UNL A   1      40.257  27.723  28.484  1.00  0.00     0.049 A 
ATOM     35  N   UNL A   1      41.786  29.847  29.992  1.00  0.00    -0.248 NA
ATOM     36  C   UNL A   1      39.860  31.168  29.956  1.00  0.00     0.031 C 
ATOM     37  C   UNL A   1      39.557  26.659  27.768  1.00  0.00     0.029 A 
ATOM     38  N   UNL A   1      41.519  27.223  28.686  1.00  0.00    -0.354 N 
ATOM     39  C   UNL A   1      42.030  31.039  30.661  1.00  0.00     0.074 A 
ATOM     40  C   UNL A   1      40.823  31.831  30.577  1.00  0.00     0.031 C 
ATOM     41  C   UNL A   1      40.406  25.632  27.578  1.00  0.00     0.029 A 
ATOM     42  C   UNL A   1      41.709  25.976  28.145  1.00  0.00     0.049 A 
ATOM     43  H   UNL A   1      42.220  27.713  29.171  1.00  0.00     0.167 HD
ATOM     44  C   UNL A   1      43.153  31.431  31.307  1.00  0.00     0.037 A 
ATOM     45  C   UNL A   1      42.816  25.208  28.107  1.00  0.00     0.037 A 
ATOM     46  C   UNL A   1      44.360  30.653  31.375  1.00  0.00     0.049 A 
ATOM     47  C   UNL A   1      44.075  25.697  28.780  1.00  0.00     0.074 A 
ATOM     48  C   UNL A   1      45.558  30.968  31.991  1.00  0.00     0.029 A 
ATOM     49  N   UNL A   1      44.523  29.402  30.798  1.00  0.00    -0.354 N 
ATOM     50  N   UNL A   1      44.288  26.811  29.437  1.00  0.00    -0.248 NA
ATOM     51  C   UNL A   1      45.246  24.809  28.716  1.00  0.00     0.031 C 
ATOM     52  C   UNL A   1      46.460  29.924  31.753  1.00  0.00     0.029 A 
ATOM     53  C   UNL A   1      45.808  28.938  31.030  1.00  0.00     0.049 A 
ATOM     54  H   UNL A   1      43.829  28.917  30.296  1.00  0.00     0.167 HD
ATOM     55  C   UNL A   1      45.603  26.750  29.881  1.00  0.00     0.074 A 
ATOM     56  C   UNL A   1      46.131  25.476  29.441  1.00  0.00     0.031 C 
ATOM     57  C   UNL A   1      46.315  27.666  30.584  1.00  0.00     0.037 A 
BRANCH  44  58
ATOM     58  C   UNL A   1      43.126  32.768  31.984  1.00  0.00     0.064 A 
ATOM     59  C   UNL A   1      42.886  32.885  33.362  1.00  0.00     0.173 A 
ATOM     60  C   UNL A   1      43.365  33.943  31.256  1.00  0.00     0.173 A 
ATOM     61  F   UNL A   1      42.630  31.793  34.097  1.00  0.00    -0.203 F 
ATOM     62  C   UNL A   1      42.869  34.131  33.982  1.00  0.00     0.198 A 
ATOM     63  C   UNL A   1      43.374  35.185  31.885  1.00  0.00     0.198 A 
ATOM     64  F   UNL A   1      43.597  33.885  29.937  1.00  0.00    -0.203 F 
ATOM     65  F   UNL A   1      42.596  34.223  35.291  1.00  0.00    -0.200 F 
ATOM     66  C   UNL A   1      43.119  35.279  33.245  1.00  0.00     0.200 A 
ATOM     67  F   UNL A   1      43.624  36.293  31.173  1.00  0.00    -0.200 F 
ATOM     68  F   UNL A   1      43.109  36.477  33.844  1.00  0.00    -0.200 F 
ENDBRANCH  44  58
BRANCH  45  69
ATOM     69  C   UNL A   1      42.797  23.900  27.399  1.00  0.00     0.064 A 
ATOM     70  C   UNL A   1      43.190  23.792  26.059  1.00  0.00     0.173 A 
ATOM     71  C   UNL A   1      42.340  22.740  28.040  1.00  0.00     0.173 A 
ATOM     72  F   UNL A   1      43.612  24.879  25.395  1.00  0.00    -0.203 F 
ATOM     73  C   UNL A   1      43.100  22.579  25.378  1.00  0.00     0.198 A 
ATOM     74  C   UNL A   1      42.277  21.521  27.367  1.00  0.00     0.198 A 
ATOM     75  F   UNL A   1      41.949  22.789  29.323  1.00  0.00    -0.203 F 
ATOM     76  F   UNL A   1      43.427  22.517  24.079  1.00  0.00    -0.200 F 
ATOM     77  C   UNL A   1      42.647  21.445  26.033  1.00  0.00     0.200 A 
ATOM     78  F   UNL A   1      41.848  20.426  28.008  1.00  0.00    -0.200 F 
ATOM     79  F   UNL A   1      42.555  20.281  25.375  1.00  0.00    -0.200 F 
ENDBRANCH  45  69
BRANCH  57  80
ATOM     80  C   UNL A   1      47.729  27.310  30.941  1.00  0.00     0.064 A 
ATOM     81  C   UNL A   1      48.794  27.559  30.062  1.00  0.00     0.173 A 
ATOM     82  C   UNL A   1      48.025  26.730  32.183  1.00  0.00     0.173 A 
ATOM     83  F   UNL A   1      48.561  28.100  28.856  1.00  0.00    -0.203 F 
ATOM     84  C   UNL A   1      50.098  27.207  30.400  1.00  0.00     0.198 A 
ATOM     85  C   UNL A   1      49.335  26.409  32.531  1.00  0.00     0.198 A 
ATOM     86  F   UNL A   1      47.044  26.480  33.064  1.00  0.00    -0.203 F 
ATOM     87  F   UNL A   1      51.092  27.402  29.521  1.00  0.00    -0.200 F 
ATOM     88  C   UNL A   1      50.367  26.638  31.635  1.00  0.00     0.200 A 
ATOM     89  F   UNL A   1      49.595  25.871  33.731  1.00  0.00    -0.200 F 
ATOM     90  F   UNL A   1      51.623  26.300  31.958  1.00  0.00    -0.200 F 
ENDBRANCH  57  80
ENDBRANCH  31  32
ENDBRANCH  24  26
ENDBRANCH  23  24
ENDBRANCH  22  23
ENDBRANCH  21  22
ENDBRANCH  20  21
ENDBRANCH   1  20
TORSDOF 17
ENDMDL
MODEL 3
REMARK VINA RESULT:      -9.7      4.855     11.567
REMARK SMILES O=C(COc1cc2ccccc2cc1O)OCCOCCOC(=O)c1ccc(-c2c3nc(c(-c4c(F)c(F)c(F)c(F)c4F)c4ccc([nH]4)c(-c4c(F)c(F)c(F)c(F)c4F)c4nc(c(-c5c(F)c(F)c(F)c(F)c5F)c5ccc2[nH]5)C=C4)C=C3)cc1
REMARK SMILES IDX 18 1 17 2 16 3 2 4 1 5 3 6 4 7 5 8 6 9 14 10 7 11 13 12 8 13
REMARK SMILES IDX 12 14 9 15 11 16 10 17 15 18 19 20 20 21 21 22 22 23 23 24
REMARK SMILES IDX 24 25 25 26 26 27 87 28 27 29 86 30 28 31 29 32 30 33 80 34
REMARK SMILES IDX 31 35 85 36 79 37 81 38 32 39 84 40 78 41 77 42 33 44 65 45
REMARK SMILES IDX 45 46 64 47 46 48 49 49 63 50 82 51 47 52 48 53 62 55 83 56
REMARK SMILES IDX 50 57 34 58 35 59 43 60 36 61 37 62 41 63 44 64 38 65 39 66
REMARK SMILES IDX 42 67 40 68 66 69 67 70 75 71 68 72 69 73 73 74 76 75 70 76
REMARK SMILES IDX 71 77 74 78 72 79 51 80 52 81 60 82 53 83 54 84 58 85 61 86
REMARK SMILES IDX 55 87 56 88 59 89 57 90
REMARK H PARENT 15 19 81 43 49 54
REMARK Flexibility Score: inf
ROOT
ATOM      1  C   UNL A   1      42.811  18.401  26.737  1.00  0.00     0.202 C 
ENDROOT
BRANCH   1   2
ATOM      2  C   UNL A   1      43.998  18.468  25.776  1.00  0.00     0.261 C 
BRANCH   2   3
ATOM      3  O   UNL A   1      43.769  19.341  24.665  1.00  0.00    -0.461 OA
BRANCH   3   4
ATOM      4  C   UNL A   1      44.805  19.541  23.802  1.00  0.00     0.344 C 
ATOM      5  O   UNL A   1      45.354  18.584  23.261  1.00  0.00    -0.248 OA
BRANCH   4   6
ATOM      6  C   UNL A   1      45.354  20.972  23.722  1.00  0.00     0.352 C 
BRANCH   6   7
ATOM      7  O   UNL A   1      44.474  22.054  24.014  1.00  0.00    -0.478 OA
BRANCH   7   8
ATOM      8  C   UNL A   1      44.705  22.753  25.167  1.00  0.00     0.162 A 
ATOM      9  C   UNL A   1      43.741  22.597  26.167  1.00  0.00     0.059 A 
ATOM     10  C   UNL A   1      45.797  23.587  25.413  1.00  0.00     0.158 A 
ATOM     11  C   UNL A   1      43.936  23.137  27.451  1.00  0.00    -0.014 A 
ATOM     12  C   UNL A   1      46.054  24.060  26.701  1.00  0.00     0.059 A 
ATOM     13  C   UNL A   1      42.967  23.012  28.461  1.00  0.00     0.009 A 
ATOM     14  C   UNL A   1      45.145  23.809  27.740  1.00  0.00    -0.014 A 
ATOM     15  C   UNL A   1      43.216  23.481  29.752  1.00  0.00     0.001 A 
ATOM     16  C   UNL A   1      45.400  24.232  29.055  1.00  0.00     0.009 A 
ATOM     17  C   UNL A   1      44.445  24.059  30.057  1.00  0.00     0.001 A 
BRANCH  10  18
ATOM     18  O   UNL A   1      46.624  23.946  24.389  1.00  0.00    -0.504 OA
ATOM     19  H   UNL A   1      47.550  23.975  24.524  1.00  0.00     0.293 HD
ENDBRANCH  10  18
ENDBRANCH   7   8
ENDBRANCH   6   7
ENDBRANCH   4   6
ENDBRANCH   3   4
ENDBRANCH   2   3
ENDBRANCH   1   2
BRANCH   1  20
ATOM     20  O   UNL A   1      42.518  19.623  27.420  1.00  0.00    -0.374 OA
BRANCH  20  21
ATOM     21  C   UNL A   1      41.114  19.901  27.522  1.00  0.00     0.202 C 
BRANCH  21  22
ATOM     22  C   UNL A   1      40.487  20.495  26.249  1.00  0.00     0.261 C 
BRANCH  22  23
ATOM     23  O   UNL A   1      40.611  21.924  26.214  1.00  0.00    -0.460 OA
BRANCH  23  24
ATOM     24  C   UNL A   1      39.417  22.574  26.244  1.00  0.00     0.338 C 
ATOM     25  O   UNL A   1      38.323  22.108  26.007  1.00  0.00    -0.246 OA
BRANCH  24  26
ATOM     26  C   UNL A   1      39.608  23.933  26.805  1.00  0.00     0.060 A 
ATOM     27  C   UNL A   1      40.219  24.881  25.974  1.00  0.00     0.016 A 
ATOM     28  C   UNL A   1      39.198  24.288  28.095  1.00  0.00     0.016 A 
ATOM     29  C   UNL A   1      40.470  26.167  26.445  1.00  0.00     0.010 A 
ATOM     30  C   UNL A   1      39.451  25.580  28.568  1.00  0.00     0.010 A 
ATOM     31  C   UNL A   1      40.122  26.511  27.757  1.00  0.00    -0.014 A 
BRANCH  31  32
ATOM     32  C   UNL A   1      40.642  27.776  28.327  1.00  0.00     0.031 A 
ATOM     33  C   UNL A   1      42.131  27.972  28.391  1.00  0.00     0.074 A 
ATOM     34  C   UNL A   1      39.810  28.756  28.724  1.00  0.00     0.049 A 
ATOM     35  N   UNL A   1      42.818  29.002  28.812  1.00  0.00    -0.248 NA
ATOM     36  C   UNL A   1      42.957  26.851  27.912  1.00  0.00     0.031 C 
ATOM     37  C   UNL A   1      38.350  28.692  28.689  1.00  0.00     0.029 A 
ATOM     38  N   UNL A   1      40.082  30.000  29.235  1.00  0.00    -0.354 N 
ATOM     39  C   UNL A   1      44.153  28.661  28.633  1.00  0.00     0.074 A 
ATOM     40  C   UNL A   1      44.182  27.312  28.111  1.00  0.00     0.031 C 
ATOM     41  C   UNL A   1      37.853  29.845  29.172  1.00  0.00     0.029 A 
ATOM     42  C   UNL A   1      38.959  30.718  29.563  1.00  0.00     0.049 A 
ATOM     43  H   UNL A   1      40.996  30.344  29.356  1.00  0.00     0.167 HD
ATOM     44  C   UNL A   1      45.255  29.411  28.863  1.00  0.00     0.037 A 
ATOM     45  C   UNL A   1      38.844  31.937  30.125  1.00  0.00     0.037 A 
ATOM     46  C   UNL A   1      45.229  30.745  29.401  1.00  0.00     0.049 A 
ATOM     47  C   UNL A   1      40.092  32.727  30.432  1.00  0.00     0.074 A 
ATOM     48  C   UNL A   1      46.292  31.583  29.685  1.00  0.00     0.029 A 
ATOM     49  N   UNL A   1      44.074  31.433  29.740  1.00  0.00    -0.354 N 
ATOM     50  N   UNL A   1      41.348  32.409  30.231  1.00  0.00    -0.248 NA
ATOM     51  C   UNL A   1      39.902  34.057  31.032  1.00  0.00     0.031 C 
ATOM     52  C   UNL A   1      45.780  32.765  30.236  1.00  0.00     0.029 A 
ATOM     53  C   UNL A   1      44.398  32.680  30.247  1.00  0.00     0.049 A 
ATOM     54  H   UNL A   1      43.158  31.085  29.637  1.00  0.00     0.167 HD
ATOM     55  C   UNL A   1      42.094  33.501  30.658  1.00  0.00     0.074 A 
ATOM     56  C   UNL A   1      41.148  34.502  31.104  1.00  0.00     0.031 C 
ATOM     57  C   UNL A   1      43.441  33.663  30.685  1.00  0.00     0.037 A 
BRANCH  44  58
ATOM     58  C   UNL A   1      46.584  28.797  28.541  1.00  0.00     0.064 A 
ATOM     59  C   UNL A   1      47.158  28.922  27.266  1.00  0.00     0.173 A 
ATOM     60  C   UNL A   1      47.305  28.098  29.520  1.00  0.00     0.173 A 
ATOM     61  F   UNL A   1      46.498  29.563  26.290  1.00  0.00    -0.203 F 
ATOM     62  C   UNL A   1      48.395  28.354  26.978  1.00  0.00     0.198 A 
ATOM     63  C   UNL A   1      48.554  27.553  29.237  1.00  0.00     0.198 A 
ATOM     64  F   UNL A   1      46.800  27.948  30.753  1.00  0.00    -0.203 F 
ATOM     65  F   UNL A   1      48.904  28.449  25.742  1.00  0.00    -0.200 F 
ATOM     66  C   UNL A   1      49.096  27.676  27.965  1.00  0.00     0.200 A 
ATOM     67  F   UNL A   1      49.234  26.905  30.193  1.00  0.00    -0.200 F 
ATOM     68  F   UNL A   1      50.290  27.134  27.690  1.00  0.00    -0.200 F 
ENDBRANCH  44  58
BRANCH  45  69
ATOM     69  C   UNL A   1      37.502  32.490  30.449  1.00  0.00     0.064 A 
ATOM     70  C   UNL A   1      36.783  33.251  29.518  1.00  0.00     0.173 A 
ATOM     71  C   UNL A   1      36.933  32.305  31.717  1.00  0.00     0.173 A 
ATOM     72  F   UNL A   1      37.297  33.477  28.299  1.00  0.00    -0.203 F 
ATOM     73  C   UNL A   1      35.560  33.830  29.852  1.00  0.00     0.198 A 
ATOM     74  C   UNL A   1      35.696  32.859  32.041  1.00  0.00     0.198 A 
ATOM     75  F   UNL A   1      37.581  31.586  32.646  1.00  0.00    -0.203 F 
ATOM     76  F   UNL A   1      34.922  34.602  28.961  1.00  0.00    -0.200 F 
ATOM     77  C   UNL A   1      35.016  33.630  31.111  1.00  0.00     0.200 A 
ATOM     78  F   UNL A   1      35.171  32.655  33.256  1.00  0.00    -0.200 F 
ATOM     79  F   UNL A   1      33.843  34.192  31.433  1.00  0.00    -0.200 F 
ENDBRANCH  45  69
BRANCH  57  80
ATOM     80  C   UNL A   1      43.964  34.976  31.191  1.00  0.00     0.064 A 
ATOM     81  C   UNL A   1      44.149  36.072  30.335  1.00  0.00     0.173 A 
ATOM     82  C   UNL A   1      44.267  35.145  32.550  1.00  0.00     0.173 A 
ATOM     83  F   UNL A   1      43.887  35.957  29.024  1.00  0.00    -0.203 F 
ATOM     84  C   UNL A   1      44.653  37.278  30.816  1.00  0.00     0.198 A 
ATOM     85  C   UNL A   1      44.739  36.364  33.033  1.00  0.00     0.198 A 
ATOM     86  F   UNL A   1      44.098  34.132  33.413  1.00  0.00    -0.203 F 
ATOM     87  F   UNL A   1      44.876  38.294  29.970  1.00  0.00    -0.200 F 
ATOM     88  C   UNL A   1      44.941  37.424  32.164  1.00  0.00     0.200 A 
ATOM     89  F   UNL A   1      45.005  36.506  34.339  1.00  0.00    -0.200 F 
ATOM     90  F   UNL A   1      45.426  38.586  32.625  1.00  0.00    -0.200 F 
ENDBRANCH  57  80
ENDBRANCH  31  32
ENDBRANCH  24  26
ENDBRANCH  23  24
ENDBRANCH  22  23
ENDBRANCH  21  22
ENDBRANCH  20  21
ENDBRANCH   1  20
TORSDOF 17
ENDMDL
