MODEL 1
REMARK VINA RESULT:     -12.5      0.000      0.000
REMARK SMILES COC(=O)c1ccc2c(c1)=N[C@H](c1cn(CCC(=O)OCCOCCOC(=O)c3ccc(-c4c5nc(c(-c6c(F)c(F)c(F)c(F)c6F)c6ccc([nH]6)c(-c6c(F)c(F)c(F)c(F)c6F)c6nc(c(-c7c(F)c(F)c(F)c(F)c7F)c7ccc4[nH]7)C=C6)C=C5)cc3)c3ccccc13)N=2
REMARK SMILES IDX 21 1 20 2 18 3 19 4 17 5 16 6 15 7 13 8 14 9 97 10 92 11
REMARK SMILES IDX 96 12 93 13 95 14 94 15 12 16 5 17 6 18 10 19 7 20 9 21 8 22
REMARK SMILES IDX 11 23 98 24 3 25 4 26 2 27 1 28 22 29 23 30 24 31 25 32
REMARK SMILES IDX 26 33 27 34 28 35 29 36 30 37 91 38 31 39 90 40 32 41 33 42
REMARK SMILES IDX 34 43 84 44 35 45 89 46 83 47 85 48 36 49 88 50 82 51 81 52
REMARK SMILES IDX 37 54 69 55 49 56 68 57 50 58 53 59 67 60 86 61 51 62 52 63
REMARK SMILES IDX 66 65 87 66 54 67 38 68 39 69 47 70 40 71 41 72 45 73 48 74
REMARK SMILES IDX 42 75 43 76 46 77 44 78 70 79 71 80 79 81 72 82 73 83 77 84
REMARK SMILES IDX 80 85 74 86 75 87 78 88 76 89 55 90 56 91 64 92 57 93 58 94
REMARK SMILES IDX 62 95 65 96 59 97 60 98 63 99 61 100
REMARK H PARENT 85 53 53 64
REMARK Flexibility Score: inf
ROOT
ATOM      1  C   UNL A   1      36.278  19.774  24.945  1.00  0.00     0.261 C 
ENDROOT
BRANCH   1   2
ATOM      2  O   UNL A   1      34.935  20.291  25.027  1.00  0.00    -0.463 OA
BRANCH   2   3
ATOM      3  C   UNL A   1      33.937  19.450  24.661  1.00  0.00     0.307 C 
ATOM      4  O   UNL A   1      34.053  18.240  24.506  1.00  0.00    -0.252 OA
BRANCH   3   5
ATOM      5  C   UNL A   1      32.631  20.179  24.466  1.00  0.00     0.144 C 
BRANCH   5   6
ATOM      6  C   UNL A   1      32.638  21.169  23.298  1.00  0.00     0.134 C 
BRANCH   6   7
ATOM      7  N   UNL A   1      32.254  22.514  23.689  1.00  0.00    -0.346 N 
ATOM      8  C   UNL A   1      30.950  24.271  23.862  1.00  0.00     0.024 A 
ATOM      9  C   UNL A   1      31.039  22.915  24.201  1.00  0.00     0.094 A 
ATOM     10  C   UNL A   1      31.953  24.428  22.805  1.00  0.00     0.007 A 
ATOM     11  C   UNL A   1      32.940  23.686  23.472  1.00  0.00     0.048 A 
ATOM     12  C   UNL A   1      32.432  25.564  22.138  1.00  0.00     0.011 A 
ATOM     13  C   UNL A   1      33.910  24.385  24.210  1.00  0.00     0.027 A 
ATOM     14  C   UNL A   1      33.326  26.332  22.868  1.00  0.00     0.001 A 
ATOM     15  C   UNL A   1      33.961  25.771  23.978  1.00  0.00     0.002 A 
BRANCH   8  16
ATOM     16  C   UNL A   1      30.144  25.339  24.581  1.00  0.00     0.255 C 
ATOM     17  C   UNL A   1      31.629  29.517  25.629  1.00  0.00     0.062 A 
ATOM     18  C   UNL A   1      30.914  29.810  24.390  1.00  0.00     0.018 A 
ATOM     19  C   UNL A   1      31.734  28.262  26.106  1.00  0.00     0.046 A 
ATOM     20  C   UNL A   1      30.279  28.873  23.666  1.00  0.00     0.031 A 
ATOM     21  C   UNL A   1      31.056  27.173  25.381  1.00  0.00     0.087 A 
ATOM     22  C   UNL A   1      30.297  27.485  24.156  1.00  0.00     0.086 A 
ATOM     23  N   UNL A   1      30.979  25.924  25.687  1.00  0.00    -0.252 NA
ATOM     24  N   UNL A   1      29.704  26.448  23.677  1.00  0.00    -0.252 NA
BRANCH  17  25
ATOM     25  C   UNL A   1      32.296  30.590  26.436  1.00  0.00     0.337 C 
ATOM     26  O   UNL A   1      31.756  31.640  26.753  1.00  0.00    -0.246 OA
BRANCH  25  27
ATOM     27  O   UNL A   1      33.581  30.250  26.725  1.00  0.00    -0.465 OA
ATOM     28  C   UNL A   1      34.193  31.054  27.740  1.00  0.00     0.282 C 
ENDBRANCH  25  27
ENDBRANCH  17  25
ENDBRANCH   8  16
ENDBRANCH   6   7
ENDBRANCH   5   6
ENDBRANCH   3   5
ENDBRANCH   2   3
ENDBRANCH   1   2
BRANCH   1  29
ATOM     29  C   UNL A   1      37.318  20.894  25.015  1.00  0.00     0.202 C 
BRANCH  29  30
ATOM     30  O   UNL A   1      36.889  22.106  25.644  1.00  0.00    -0.374 OA
BRANCH  30  31
ATOM     31  C   UNL A   1      37.739  23.229  25.402  1.00  0.00     0.202 C 
BRANCH  31  32
ATOM     32  C   UNL A   1      38.089  24.051  26.651  1.00  0.00     0.261 C 
BRANCH  32  33
ATOM     33  O   UNL A   1      39.459  24.470  26.592  1.00  0.00    -0.460 OA
BRANCH  33  34
ATOM     34  C   UNL A   1      40.084  24.671  27.778  1.00  0.00     0.338 C 
ATOM     35  O   UNL A   1      41.072  24.102  28.208  1.00  0.00    -0.246 OA
BRANCH  34  36
ATOM     36  C   UNL A   1      39.531  25.929  28.315  1.00  0.00     0.060 A 
ATOM     37  C   UNL A   1      39.597  27.092  27.561  1.00  0.00     0.016 A 
ATOM     38  C   UNL A   1      39.214  25.994  29.670  1.00  0.00     0.016 A 
ATOM     39  C   UNL A   1      39.593  28.324  28.194  1.00  0.00     0.010 A 
ATOM     40  C   UNL A   1      39.110  27.239  30.289  1.00  0.00     0.010 A 
ATOM     41  C   UNL A   1      39.400  28.409  29.577  1.00  0.00    -0.014 A 
BRANCH  41  42
ATOM     42  C   UNL A   1      39.435  29.757  30.184  1.00  0.00     0.031 A 
ATOM     43  C   UNL A   1      40.748  30.478  30.064  1.00  0.00     0.074 A 
ATOM     44  C   UNL A   1      38.355  30.366  30.724  1.00  0.00     0.049 A 
ATOM     45  N   UNL A   1      41.419  31.107  30.980  1.00  0.00    -0.248 NA
ATOM     46  C   UNL A   1      41.457  30.387  28.771  1.00  0.00     0.031 C 
ATOM     47  C   UNL A   1      36.977  29.871  30.774  1.00  0.00     0.029 A 
ATOM     48  N   UNL A   1      38.230  31.632  31.234  1.00  0.00    -0.354 N 
ATOM     49  C   UNL A   1      42.557  31.610  30.348  1.00  0.00     0.074 A 
ATOM     50  C   UNL A   1      42.597  31.021  29.037  1.00  0.00     0.031 C 
ATOM     51  C   UNL A   1      36.138  30.903  30.999  1.00  0.00     0.029 A 
ATOM     52  C   UNL A   1      36.922  32.105  31.218  1.00  0.00     0.049 A 
ATOM     53  H   UNL A   1      38.991  32.155  31.576  1.00  0.00     0.167 HD
ATOM     54  C   UNL A   1      43.289  32.638  30.859  1.00  0.00     0.037 A 
ATOM     55  C   UNL A   1      36.504  33.396  31.267  1.00  0.00     0.037 A 
ATOM     56  C   UNL A   1      43.113  32.778  32.274  1.00  0.00     0.049 A 
ATOM     57  C   UNL A   1      37.605  34.208  31.835  1.00  0.00     0.074 A 
ATOM     58  C   UNL A   1      43.372  31.976  33.369  1.00  0.00     0.029 A 
ATOM     59  N   UNL A   1      42.315  33.791  32.742  1.00  0.00    -0.354 N 
ATOM     60  N   UNL A   1      37.992  34.143  33.077  1.00  0.00    -0.248 NA
ATOM     61  C   UNL A   1      38.569  34.776  30.905  1.00  0.00     0.031 C 
ATOM     62  C   UNL A   1      42.330  32.263  34.295  1.00  0.00     0.029 A 
ATOM     63  C   UNL A   1      41.530  33.252  33.726  1.00  0.00     0.049 A 
ATOM     64  H   UNL A   1      42.309  34.725  32.431  1.00  0.00     0.167 HD
ATOM     65  C   UNL A   1      39.373  34.233  33.012  1.00  0.00     0.074 A 
ATOM     66  C   UNL A   1      39.666  34.708  31.663  1.00  0.00     0.031 C 
ATOM     67  C   UNL A   1      40.163  33.645  33.955  1.00  0.00     0.037 A 
BRANCH  54  68
ATOM     68  C   UNL A   1      43.903  33.720  30.005  1.00  0.00     0.064 A 
ATOM     69  C   UNL A   1      45.271  34.029  30.139  1.00  0.00     0.173 A 
ATOM     70  C   UNL A   1      43.135  34.661  29.283  1.00  0.00     0.173 A 
ATOM     71  F   UNL A   1      46.089  33.225  30.834  1.00  0.00    -0.203 F 
ATOM     72  C   UNL A   1      45.811  35.219  29.639  1.00  0.00     0.198 A 
ATOM     73  C   UNL A   1      43.688  35.817  28.738  1.00  0.00     0.198 A 
ATOM     74  F   UNL A   1      41.805  34.558  29.173  1.00  0.00    -0.203 F 
ATOM     75  F   UNL A   1      47.089  35.529  29.893  1.00  0.00    -0.200 F 
ATOM     76  C   UNL A   1      45.018  36.113  28.941  1.00  0.00     0.200 A 
ATOM     77  F   UNL A   1      42.895  36.678  28.085  1.00  0.00    -0.200 F 
ATOM     78  F   UNL A   1      45.518  37.278  28.511  1.00  0.00    -0.200 F 
ENDBRANCH  54  68
BRANCH  55  79
ATOM     79  C   UNL A   1      35.352  34.003  30.545  1.00  0.00     0.064 A 
ATOM     80  C   UNL A   1      34.305  34.636  31.235  1.00  0.00     0.173 A 
ATOM     81  C   UNL A   1      35.379  34.202  29.148  1.00  0.00     0.173 A 
ATOM     82  F   UNL A   1      34.232  34.556  32.572  1.00  0.00    -0.203 F 
ATOM     83  C   UNL A   1      33.352  35.421  30.571  1.00  0.00     0.198 A 
ATOM     84  C   UNL A   1      34.421  34.970  28.487  1.00  0.00     0.198 A 
ATOM     85  F   UNL A   1      36.388  33.735  28.401  1.00  0.00    -0.203 F 
ATOM     86  F   UNL A   1      32.403  36.057  31.273  1.00  0.00    -0.200 F 
ATOM     87  C   UNL A   1      33.413  35.590  29.199  1.00  0.00     0.200 A 
ATOM     88  F   UNL A   1      34.518  35.154  27.162  1.00  0.00    -0.200 F 
ATOM     89  F   UNL A   1      32.534  36.381  28.568  1.00  0.00    -0.200 F 
ENDBRANCH  55  79
BRANCH  67  90
ATOM     90  C   UNL A   1      39.517  33.123  35.205  1.00  0.00     0.064 A 
ATOM     91  C   UNL A   1      39.206  33.923  36.318  1.00  0.00     0.173 A 
ATOM     92  C   UNL A   1      39.028  31.809  35.197  1.00  0.00     0.173 A 
ATOM     93  F   UNL A   1      39.552  35.216  36.358  1.00  0.00    -0.203 F 
ATOM     94  C   UNL A   1      38.466  33.417  37.385  1.00  0.00     0.198 A 
ATOM     95  C   UNL A   1      38.257  31.319  36.246  1.00  0.00     0.198 A 
ATOM     96  F   UNL A   1      39.248  31.016  34.135  1.00  0.00    -0.203 F 
ATOM     97  F   UNL A   1      38.182  34.200  38.436  1.00  0.00    -0.200 F 
ATOM     98  C   UNL A   1      37.983  32.120  37.342  1.00  0.00     0.200 A 
ATOM     99  F   UNL A   1      37.748  30.081  36.178  1.00  0.00    -0.200 F 
ATOM    100  F   UNL A   1      37.224  31.652  38.344  1.00  0.00    -0.200 F 
ENDBRANCH  67  90
ENDBRANCH  41  42
ENDBRANCH  34  36
ENDBRANCH  33  34
ENDBRANCH  32  33
ENDBRANCH  31  32
ENDBRANCH  30  31
ENDBRANCH  29  30
ENDBRANCH   1  29
TORSDOF 19
ENDMDL
MODEL 2
REMARK VINA RESULT:     -12.4      5.736     11.159
REMARK SMILES COC(=O)c1ccc2c(c1)=N[C@H](c1cn(CCC(=O)OCCOCCOC(=O)c3ccc(-c4c5nc(c(-c6c(F)c(F)c(F)c(F)c6F)c6ccc([nH]6)c(-c6c(F)c(F)c(F)c(F)c6F)c6nc(c(-c7c(F)c(F)c(F)c(F)c7F)c7ccc4[nH]7)C=C6)C=C5)cc3)c3ccccc13)N=2
REMARK SMILES IDX 21 1 20 2 18 3 19 4 17 5 16 6 15 7 13 8 14 9 97 10 92 11
REMARK SMILES IDX 96 12 93 13 95 14 94 15 12 16 5 17 6 18 10 19 7 20 9 21 8 22
REMARK SMILES IDX 11 23 98 24 3 25 4 26 2 27 1 28 22 29 23 30 24 31 25 32
REMARK SMILES IDX 26 33 27 34 28 35 29 36 30 37 91 38 31 39 90 40 32 41 33 42
REMARK SMILES IDX 34 43 84 44 35 45 89 46 83 47 85 48 36 49 88 50 82 51 81 52
REMARK SMILES IDX 37 54 69 55 49 56 68 57 50 58 53 59 67 60 86 61 51 62 52 63
REMARK SMILES IDX 66 65 87 66 54 67 38 68 39 69 47 70 40 71 41 72 45 73 48 74
REMARK SMILES IDX 42 75 43 76 46 77 44 78 70 79 71 80 79 81 72 82 73 83 77 84
REMARK SMILES IDX 80 85 74 86 75 87 78 88 76 89 55 90 56 91 64 92 57 93 58 94
REMARK SMILES IDX 62 95 65 96 59 97 60 98 63 99 61 100
REMARK H PARENT 85 53 53 64
REMARK Flexibility Score: inf
ROOT
ATOM      1  C   UNL A   1      32.999  30.912  27.172  1.00  0.00     0.261 C 
ENDROOT
BRANCH   1   2
ATOM      2  O   UNL A   1      32.772  29.500  27.349  1.00  0.00    -0.463 OA
BRANCH   2   3
ATOM      3  C   UNL A   1      32.754  28.743  26.225  1.00  0.00     0.307 C 
ATOM      4  O   UNL A   1      33.626  28.734  25.364  1.00  0.00    -0.252 OA
BRANCH   3   5
ATOM      5  C   UNL A   1      31.517  27.884  26.146  1.00  0.00     0.144 C 
BRANCH   5   6
ATOM      6  C   UNL A   1      31.421  27.043  24.870  1.00  0.00     0.134 C 
BRANCH   6   7
ATOM      7  N   UNL A   1      31.956  25.703  25.029  1.00  0.00    -0.346 N 
ATOM      8  C   UNL A   1      33.311  24.144  25.774  1.00  0.00     0.024 A 
ATOM      9  C   UNL A   1      32.396  25.117  26.196  1.00  0.00     0.094 A 
ATOM     10  C   UNL A   1      33.631  24.547  24.402  1.00  0.00     0.007 A 
ATOM     11  C   UNL A   1      32.299  24.806  24.044  1.00  0.00     0.048 A 
ATOM     12  C   UNL A   1      34.389  23.923  23.401  1.00  0.00     0.011 A 
ATOM     13  C   UNL A   1      31.588  23.804  23.363  1.00  0.00     0.027 A 
ATOM     14  C   UNL A   1      33.755  22.867  22.765  1.00  0.00     0.001 A 
ATOM     15  C   UNL A   1      32.367  22.746  22.861  1.00  0.00     0.002 A 
BRANCH   8  16
ATOM     16  C   UNL A   1      33.698  22.875  26.512  1.00  0.00     0.255 C 
ATOM     17  C   UNL A   1      33.770  18.688  24.718  1.00  0.00     0.062 A 
ATOM     18  C   UNL A   1      35.180  19.040  24.584  1.00  0.00     0.018 A 
ATOM     19  C   UNL A   1      32.867  19.555  25.216  1.00  0.00     0.046 A 
ATOM     20  C   UNL A   1      35.685  20.221  24.980  1.00  0.00     0.031 A 
ATOM     21  C   UNL A   1      33.337  20.869  25.688  1.00  0.00     0.087 A 
ATOM     22  C   UNL A   1      34.771  21.199  25.592  1.00  0.00     0.086 A 
ATOM     23  N   UNL A   1      32.664  21.815  26.244  1.00  0.00    -0.252 NA
ATOM     24  N   UNL A   1      35.039  22.347  26.107  1.00  0.00    -0.252 NA
BRANCH  17  25
ATOM     25  C   UNL A   1      33.241  17.348  24.301  1.00  0.00     0.337 C 
ATOM     26  O   UNL A   1      33.331  16.902  23.166  1.00  0.00    -0.246 OA
BRANCH  25  27
ATOM     27  O   UNL A   1      32.621  16.728  25.340  1.00  0.00    -0.465 OA
ATOM     28  C   UNL A   1      32.717  15.298  25.320  1.00  0.00     0.282 C 
ENDBRANCH  25  27
ENDBRANCH  17  25
ENDBRANCH   8  16
ENDBRANCH   6   7
ENDBRANCH   5   6
ENDBRANCH   3   5
ENDBRANCH   2   3
ENDBRANCH   1   2
BRANCH   1  29
ATOM     29  C   UNL A   1      34.312  31.358  27.819  1.00  0.00     0.202 C 
BRANCH  29  30
ATOM     30  O   UNL A   1      34.314  32.673  28.385  1.00  0.00    -0.374 OA
BRANCH  30  31
ATOM     31  C   UNL A   1      35.526  33.400  28.183  1.00  0.00     0.202 C 
BRANCH  31  32
ATOM     32  C   UNL A   1      36.490  33.390  29.378  1.00  0.00     0.261 C 
BRANCH  32  33
ATOM     33  O   UNL A   1      37.577  32.490  29.121  1.00  0.00    -0.460 OA
BRANCH  33  34
ATOM     34  C   UNL A   1      37.520  31.280  29.731  1.00  0.00     0.338 C 
ATOM     35  O   UNL A   1      36.624  30.836  30.426  1.00  0.00    -0.246 OA
BRANCH  34  36
ATOM     36  C   UNL A   1      38.607  30.479  29.136  1.00  0.00     0.060 A 
ATOM     37  C   UNL A   1      38.366  29.172  28.739  1.00  0.00     0.016 A 
ATOM     38  C   UNL A   1      39.915  30.943  29.247  1.00  0.00     0.016 A 
ATOM     39  C   UNL A   1      39.410  28.263  28.690  1.00  0.00     0.010 A 
ATOM     40  C   UNL A   1      40.974  30.048  29.099  1.00  0.00     0.010 A 
ATOM     41  C   UNL A   1      40.724  28.681  28.921  1.00  0.00    -0.014 A 
BRANCH  41  42
ATOM     42  C   UNL A   1      41.781  27.649  28.879  1.00  0.00     0.031 A 
ATOM     43  C   UNL A   1      42.580  27.498  30.143  1.00  0.00     0.074 A 
ATOM     44  C   UNL A   1      41.975  26.813  27.833  1.00  0.00     0.049 A 
ATOM     45  N   UNL A   1      43.868  27.430  30.290  1.00  0.00    -0.248 NA
ATOM     46  C   UNL A   1      41.842  27.546  31.422  1.00  0.00     0.031 C 
ATOM     47  C   UNL A   1      41.186  26.719  26.602  1.00  0.00     0.029 A 
ATOM     48  N   UNL A   1      42.848  25.766  27.701  1.00  0.00    -0.354 N 
ATOM     49  C   UNL A   1      44.092  27.280  31.659  1.00  0.00     0.074 A 
ATOM     50  C   UNL A   1      42.831  27.499  32.312  1.00  0.00     0.031 C 
ATOM     51  C   UNL A   1      41.415  25.528  26.012  1.00  0.00     0.029 A 
ATOM     52  C   UNL A   1      42.443  24.826  26.758  1.00  0.00     0.049 A 
ATOM     53  H   UNL A   1      43.680  25.686  28.222  1.00  0.00     0.167 HD
ATOM     54  C   UNL A   1      45.255  26.782  32.164  1.00  0.00     0.037 A 
ATOM     55  C   UNL A   1      42.832  23.529  26.657  1.00  0.00     0.037 A 
ATOM     56  C   UNL A   1      46.350  26.932  31.252  1.00  0.00     0.049 A 
ATOM     57  C   UNL A   1      44.116  23.383  27.382  1.00  0.00     0.074 A 
ATOM     58  C   UNL A   1      46.996  28.011  30.680  1.00  0.00     0.029 A 
ATOM     59  N   UNL A   1      46.782  25.834  30.554  1.00  0.00    -0.354 N 
ATOM     60  N   UNL A   1      45.244  23.895  26.977  1.00  0.00    -0.248 NA
ATOM     61  C   UNL A   1      44.055  23.034  28.793  1.00  0.00     0.031 C 
ATOM     62  C   UNL A   1      47.376  27.570  29.381  1.00  0.00     0.029 A 
ATOM     63  C   UNL A   1      46.980  26.239  29.261  1.00  0.00     0.049 A 
ATOM     64  H   UNL A   1      46.924  24.928  30.913  1.00  0.00     0.167 HD
ATOM     65  C   UNL A   1      45.852  24.345  28.137  1.00  0.00     0.074 A 
ATOM     66  C   UNL A   1      45.118  23.712  29.229  1.00  0.00     0.031 C 
ATOM     67  C   UNL A   1      46.707  25.407  28.117  1.00  0.00     0.037 A 
BRANCH  54  68
ATOM     68  C   UNL A   1      45.310  25.858  33.356  1.00  0.00     0.064 A 
ATOM     69  C   UNL A   1      44.662  24.609  33.306  1.00  0.00     0.173 A 
ATOM     70  C   UNL A   1      45.719  26.281  34.641  1.00  0.00     0.173 A 
ATOM     71  F   UNL A   1      44.200  24.123  32.144  1.00  0.00    -0.203 F 
ATOM     72  C   UNL A   1      44.391  23.872  34.464  1.00  0.00     0.198 A 
ATOM     73  C   UNL A   1      45.497  25.518  35.785  1.00  0.00     0.198 A 
ATOM     74  F   UNL A   1      46.244  27.493  34.857  1.00  0.00    -0.203 F 
ATOM     75  F   UNL A   1      43.666  22.747  34.384  1.00  0.00    -0.200 F 
ATOM     76  C   UNL A   1      44.807  24.328  35.702  1.00  0.00     0.200 A 
ATOM     77  F   UNL A   1      45.891  25.991  36.975  1.00  0.00    -0.200 F 
ATOM     78  F   UNL A   1      44.500  23.654  36.817  1.00  0.00    -0.200 F 
ENDBRANCH  54  68
BRANCH  55  79
ATOM     79  C   UNL A   1      41.996  22.361  26.266  1.00  0.00     0.064 A 
ATOM     80  C   UNL A   1      42.573  21.117  25.955  1.00  0.00     0.173 A 
ATOM     81  C   UNL A   1      40.596  22.366  26.435  1.00  0.00     0.173 A 
ATOM     82  F   UNL A   1      43.903  21.001  25.836  1.00  0.00    -0.203 F 
ATOM     83  C   UNL A   1      41.798  19.956  25.830  1.00  0.00     0.198 A 
ATOM     84  C   UNL A   1      39.824  21.212  26.294  1.00  0.00     0.198 A 
ATOM     85  F   UNL A   1      39.950  23.470  26.835  1.00  0.00    -0.203 F 
ATOM     86  F   UNL A   1      42.392  18.778  25.592  1.00  0.00    -0.200 F 
ATOM     87  C   UNL A   1      40.426  20.004  26.003  1.00  0.00     0.200 A 
ATOM     88  F   UNL A   1      38.501  21.270  26.504  1.00  0.00    -0.200 F 
ATOM     89  F   UNL A   1      39.690  18.886  25.935  1.00  0.00    -0.200 F 
ENDBRANCH  55  79
BRANCH  67  90
ATOM     90  C   UNL A   1      47.183  25.918  26.789  1.00  0.00     0.064 A 
ATOM     91  C   UNL A   1      46.455  26.815  25.989  1.00  0.00     0.173 A 
ATOM     92  C   UNL A   1      48.501  25.633  26.405  1.00  0.00     0.173 A 
ATOM     93  F   UNL A   1      45.226  27.214  26.342  1.00  0.00    -0.203 F 
ATOM     94  C   UNL A   1      47.015  27.376  24.843  1.00  0.00     0.198 A 
ATOM     95  C   UNL A   1      49.070  26.224  25.281  1.00  0.00     0.198 A 
ATOM     96  F   UNL A   1      49.262  24.824  27.161  1.00  0.00    -0.203 F 
ATOM     97  F   UNL A   1      46.300  28.230  24.096  1.00  0.00    -0.200 F 
ATOM     98  C   UNL A   1      48.325  27.089  24.497  1.00  0.00     0.200 A 
ATOM     99  F   UNL A   1      50.353  25.983  24.979  1.00  0.00    -0.200 F 
ATOM    100  F   UNL A   1      48.880  27.671  23.425  1.00  0.00    -0.200 F 
ENDBRANCH  67  90
ENDBRANCH  41  42
ENDBRANCH  34  36
ENDBRANCH  33  34
ENDBRANCH  32  33
ENDBRANCH  31  32
ENDBRANCH  30  31
ENDBRANCH  29  30
ENDBRANCH   1  29
TORSDOF 19
ENDMDL
MODEL 3
REMARK VINA RESULT:     -12.3      4.558      6.631
REMARK SMILES COC(=O)c1ccc2c(c1)=N[C@H](c1cn(CCC(=O)OCCOCCOC(=O)c3ccc(-c4c5nc(c(-c6c(F)c(F)c(F)c(F)c6F)c6ccc([nH]6)c(-c6c(F)c(F)c(F)c(F)c6F)c6nc(c(-c7c(F)c(F)c(F)c(F)c7F)c7ccc4[nH]7)C=C6)C=C5)cc3)c3ccccc13)N=2
REMARK SMILES IDX 21 1 20 2 18 3 19 4 17 5 16 6 15 7 13 8 14 9 97 10 92 11
REMARK SMILES IDX 96 12 93 13 95 14 94 15 12 16 5 17 6 18 10 19 7 20 9 21 8 22
REMARK SMILES IDX 11 23 98 24 3 25 4 26 2 27 1 28 22 29 23 30 24 31 25 32
REMARK SMILES IDX 26 33 27 34 28 35 29 36 30 37 91 38 31 39 90 40 32 41 33 42
REMARK SMILES IDX 34 43 84 44 35 45 89 46 83 47 85 48 36 49 88 50 82 51 81 52
REMARK SMILES IDX 37 54 69 55 49 56 68 57 50 58 53 59 67 60 86 61 51 62 52 63
REMARK SMILES IDX 66 65 87 66 54 67 38 68 39 69 47 70 40 71 41 72 45 73 48 74
REMARK SMILES IDX 42 75 43 76 46 77 44 78 70 79 71 80 79 81 72 82 73 83 77 84
REMARK SMILES IDX 80 85 74 86 75 87 78 88 76 89 55 90 56 91 64 92 57 93 58 94
REMARK SMILES IDX 62 95 65 96 59 97 60 98 63 99 61 100
REMARK H PARENT 85 53 53 64
REMARK Flexibility Score: inf
ROOT
ATOM      1  C   UNL A   1      40.045  22.133  26.563  1.00  0.00     0.261 C 
ENDROOT
BRANCH   1   2
ATOM      2  O   UNL A   1      39.063  21.421  25.784  1.00  0.00    -0.463 OA
BRANCH   2   3
ATOM      3  C   UNL A   1      37.872  22.040  25.597  1.00  0.00     0.307 C 
ATOM      4  O   UNL A   1      37.638  23.215  25.852  1.00  0.00    -0.252 OA
BRANCH   3   5
ATOM      5  C   UNL A   1      36.838  21.106  25.022  1.00  0.00     0.144 C 
BRANCH   5   6
ATOM      6  C   UNL A   1      35.452  21.241  25.658  1.00  0.00     0.134 C 
BRANCH   6   7
ATOM      7  N   UNL A   1      34.645  22.285  25.051  1.00  0.00    -0.346 N 
ATOM      8  C   UNL A   1      34.150  23.887  23.634  1.00  0.00     0.024 A 
ATOM      9  C   UNL A   1      34.475  22.527  23.705  1.00  0.00     0.094 A 
ATOM     10  C   UNL A   1      34.578  24.411  24.934  1.00  0.00     0.007 A 
ATOM     11  C   UNL A   1      34.031  23.348  25.671  1.00  0.00     0.048 A 
ATOM     12  C   UNL A   1      34.419  25.670  25.528  1.00  0.00     0.011 A 
ATOM     13  C   UNL A   1      32.763  23.525  26.249  1.00  0.00     0.027 A 
ATOM     14  C   UNL A   1      33.151  25.919  26.033  1.00  0.00     0.001 A 
ATOM     15  C   UNL A   1      32.287  24.848  26.267  1.00  0.00     0.002 A 
BRANCH   8  16
ATOM     16  C   UNL A   1      33.357  24.579  22.539  1.00  0.00     0.255 C 
ATOM     17  C   UNL A   1      31.006  28.452  23.019  1.00  0.00     0.062 A 
ATOM     18  C   UNL A   1      32.245  28.980  22.457  1.00  0.00     0.018 A 
ATOM     19  C   UNL A   1      30.853  27.141  23.290  1.00  0.00     0.046 A 
ATOM     20  C   UNL A   1      33.295  28.208  22.131  1.00  0.00     0.031 A 
ATOM     21  C   UNL A   1      31.952  26.219  22.951  1.00  0.00     0.087 A 
ATOM     22  C   UNL A   1      33.181  26.756  22.340  1.00  0.00     0.086 A 
ATOM     23  N   UNL A   1      31.996  24.937  23.070  1.00  0.00    -0.252 NA
ATOM     24  N   UNL A   1      34.017  25.825  22.036  1.00  0.00    -0.252 NA
BRANCH  17  25
ATOM     25  C   UNL A   1      29.836  29.334  23.339  1.00  0.00     0.337 C 
ATOM     26  O   UNL A   1      29.897  30.306  24.078  1.00  0.00    -0.246 OA
BRANCH  25  27
ATOM     27  O   UNL A   1      28.708  28.880  22.731  1.00  0.00    -0.465 OA
ATOM     28  C   UNL A   1      28.002  29.872  21.975  1.00  0.00     0.282 C 
ENDBRANCH  25  27
ENDBRANCH  17  25
ENDBRANCH   8  16
ENDBRANCH   6   7
ENDBRANCH   5   6
ENDBRANCH   3   5
ENDBRANCH   2   3
ENDBRANCH   1   2
BRANCH   1  29
ATOM     29  C   UNL A   1      41.281  21.273  26.834  1.00  0.00     0.202 C 
BRANCH  29  30
ATOM     30  O   UNL A   1      41.708  20.435  25.754  1.00  0.00    -0.374 OA
BRANCH  30  31
ATOM     31  C   UNL A   1      42.334  19.218  26.162  1.00  0.00     0.202 C 
BRANCH  31  32
ATOM     32  C   UNL A   1      43.513  18.774  25.285  1.00  0.00     0.261 C 
BRANCH  32  33
ATOM     33  O   UNL A   1      44.554  19.759  25.331  1.00  0.00    -0.460 OA
BRANCH  33  34
ATOM     34  C   UNL A   1      44.737  20.502  24.211  1.00  0.00     0.338 C 
ATOM     35  O   UNL A   1      44.537  20.173  23.056  1.00  0.00    -0.246 OA
BRANCH  34  36
ATOM     36  C   UNL A   1      44.925  21.890  24.676  1.00  0.00     0.060 A 
ATOM     37  C   UNL A   1      45.837  22.165  25.685  1.00  0.00     0.016 A 
ATOM     38  C   UNL A   1      43.988  22.851  24.303  1.00  0.00     0.016 A 
ATOM     39  C   UNL A   1      45.665  23.284  26.482  1.00  0.00     0.010 A 
ATOM     40  C   UNL A   1      43.881  24.026  25.045  1.00  0.00     0.010 A 
ATOM     41  C   UNL A   1      44.650  24.204  26.202  1.00  0.00    -0.014 A 
BRANCH  41  42
ATOM     42  C   UNL A   1      44.512  25.360  27.114  1.00  0.00     0.031 A 
ATOM     43  C   UNL A   1      45.581  26.409  26.982  1.00  0.00     0.074 A 
ATOM     44  C   UNL A   1      43.460  25.542  27.945  1.00  0.00     0.049 A 
ATOM     45  N   UNL A   1      46.273  26.989  27.915  1.00  0.00    -0.248 NA
ATOM     46  C   UNL A   1      46.011  26.773  25.617  1.00  0.00     0.031 C 
ATOM     47  C   UNL A   1      42.265  24.705  28.075  1.00  0.00     0.029 A 
ATOM     48  N   UNL A   1      43.169  26.599  28.766  1.00  0.00    -0.354 N 
ATOM     49  C   UNL A   1      47.116  27.891  27.265  1.00  0.00     0.074 A 
ATOM     50  C   UNL A   1      47.014  27.614  25.858  1.00  0.00     0.031 C 
ATOM     51  C   UNL A   1      41.285  25.413  28.673  1.00  0.00     0.029 A 
ATOM     52  C   UNL A   1      41.814  26.706  29.065  1.00  0.00     0.049 A 
ATOM     53  H   UNL A   1      43.850  27.221  29.111  1.00  0.00     0.167 HD
ATOM     54  C   UNL A   1      47.695  28.947  27.901  1.00  0.00     0.037 A 
ATOM     55  C   UNL A   1      41.143  27.805  29.497  1.00  0.00     0.037 A 
ATOM     56  C   UNL A   1      47.788  28.743  29.316  1.00  0.00     0.049 A 
ATOM     57  C   UNL A   1      42.132  28.743  30.077  1.00  0.00     0.074 A 
ATOM     58  C   UNL A   1      48.437  27.831  30.125  1.00  0.00     0.029 A 
ATOM     59  N   UNL A   1      46.902  29.394  30.136  1.00  0.00    -0.354 N 
ATOM     60  N   UNL A   1      42.772  28.528  31.192  1.00  0.00    -0.248 NA
ATOM     61  C   UNL A   1      42.735  29.721  29.185  1.00  0.00     0.031 C 
ATOM     62  C   UNL A   1      47.572  27.639  31.239  1.00  0.00     0.029 A 
ATOM     63  C   UNL A   1      46.474  28.479  31.061  1.00  0.00     0.049 A 
ATOM     64  H   UNL A   1      46.627  30.337  30.072  1.00  0.00     0.167 HD
ATOM     65  C   UNL A   1      44.055  28.987  30.945  1.00  0.00     0.074 A 
ATOM     66  C   UNL A   1      43.952  29.788  29.728  1.00  0.00     0.031 C 
ATOM     67  C   UNL A   1      45.132  28.445  31.583  1.00  0.00     0.037 A 
BRANCH  54  68
ATOM     68  C   UNL A   1      47.866  30.303  27.262  1.00  0.00     0.064 A 
ATOM     69  C   UNL A   1      49.127  30.932  27.276  1.00  0.00     0.173 A 
ATOM     70  C   UNL A   1      46.778  31.131  26.907  1.00  0.00     0.173 A 
ATOM     71  F   UNL A   1      50.227  30.251  27.632  1.00  0.00    -0.203 F 
ATOM     72  C   UNL A   1      49.273  32.298  27.012  1.00  0.00     0.198 A 
ATOM     73  C   UNL A   1      46.935  32.478  26.590  1.00  0.00     0.198 A 
ATOM     74  F   UNL A   1      45.511  30.702  26.961  1.00  0.00    -0.203 F 
ATOM     75  F   UNL A   1      50.472  32.879  27.155  1.00  0.00    -0.200 F 
ATOM     76  C   UNL A   1      48.177  33.070  26.673  1.00  0.00     0.200 A 
ATOM     77  F   UNL A   1      45.855  33.211  26.285  1.00  0.00    -0.200 F 
ATOM     78  F   UNL A   1      48.304  34.388  26.477  1.00  0.00    -0.200 F 
ENDBRANCH  54  68
BRANCH  55  79
ATOM     79  C   UNL A   1      39.762  28.225  29.129  1.00  0.00     0.064 A 
ATOM     80  C   UNL A   1      38.738  28.298  30.089  1.00  0.00     0.173 A 
ATOM     81  C   UNL A   1      39.477  28.810  27.877  1.00  0.00     0.173 A 
ATOM     82  F   UNL A   1      38.938  27.824  31.327  1.00  0.00    -0.203 F 
ATOM     83  C   UNL A   1      37.513  28.922  29.814  1.00  0.00     0.198 A 
ATOM     84  C   UNL A   1      38.252  29.416  27.600  1.00  0.00     0.198 A 
ATOM     85  F   UNL A   1      40.413  28.894  26.923  1.00  0.00    -0.203 F 
ATOM     86  F   UNL A   1      36.584  29.023  30.775  1.00  0.00    -0.200 F 
ATOM     87  C   UNL A   1      37.273  29.483  28.572  1.00  0.00     0.200 A 
ATOM     88  F   UNL A   1      38.051  29.989  26.405  1.00  0.00    -0.200 F 
ATOM     89  F   UNL A   1      36.123  30.125  28.324  1.00  0.00    -0.200 F 
ENDBRANCH  55  79
BRANCH  67  90
ATOM     90  C   UNL A   1      44.888  27.528  32.745  1.00  0.00     0.064 A 
ATOM     91  C   UNL A   1      44.622  26.154  32.614  1.00  0.00     0.173 A 
ATOM     92  C   UNL A   1      45.116  28.022  34.037  1.00  0.00     0.173 A 
ATOM     93  F   UNL A   1      44.490  25.587  31.409  1.00  0.00    -0.203 F 
ATOM     94  C   UNL A   1      44.560  25.323  33.732  1.00  0.00     0.198 A 
ATOM     95  C   UNL A   1      45.092  27.184  35.146  1.00  0.00     0.198 A 
ATOM     96  F   UNL A   1      45.428  29.317  34.216  1.00  0.00    -0.203 F 
ATOM     97  F   UNL A   1      44.305  24.015  33.582  1.00  0.00    -0.200 F 
ATOM     98  C   UNL A   1      44.806  25.836  34.994  1.00  0.00     0.200 A 
ATOM     99  F   UNL A   1      45.381  27.674  36.359  1.00  0.00    -0.200 F 
ATOM    100  F   UNL A   1      44.800  25.026  36.062  1.00  0.00    -0.200 F 
ENDBRANCH  67  90
ENDBRANCH  41  42
ENDBRANCH  34  36
ENDBRANCH  33  34
ENDBRANCH  32  33
ENDBRANCH  31  32
ENDBRANCH  30  31
ENDBRANCH  29  30
ENDBRANCH   1  29
TORSDOF 19
ENDMDL
