MODEL 1
REMARK VINA RESULT:     -11.6      0.000      0.000
REMARK SMILES C=C1c2ccccc2C(=O)N1[C@](C)(C(=O)OCCOCCOC(=O)c1ccc(-c2c3nc(c(-c4c(F)c(F)c(F)c(F)c4F)c4ccc([nH]4)c(-c4c(F)c(F)c(F)c(F)c4F)c4nc(c(-c5c(F)c(F)c(F)c(F)c5F)c5ccc2[nH]5)C=C4)C=C3)cc1)C(F)(F)F
REMARK SMILES IDX 20 1 19 2 18 3 17 4 16 5 14 6 15 7 12 8 13 9 11 10 1 11 2 12
REMARK SMILES IDX 3 13 4 14 8 15 9 16 5 17 7 18 10 19 6 20 88 21 89 22 90 23
REMARK SMILES IDX 91 24 21 25 22 26 23 27 24 28 25 29 26 30 87 31 27 32 86 33
REMARK SMILES IDX 28 34 29 35 30 36 80 37 31 38 85 39 79 40 81 41 32 42 84 43
REMARK SMILES IDX 78 44 77 45 33 47 65 48 45 49 64 50 46 51 49 52 63 53 82 54
REMARK SMILES IDX 47 55 48 56 62 58 83 59 50 60 34 61 35 62 43 63 36 64 37 65
REMARK SMILES IDX 41 66 44 67 38 68 39 69 42 70 40 71 66 72 67 73 75 74 68 75
REMARK SMILES IDX 69 76 73 77 76 78 70 79 71 80 74 81 72 82 51 83 52 84 60 85
REMARK SMILES IDX 53 86 54 87 58 88 61 89 55 90 56 91 59 92 57 93
REMARK H PARENT 81 46 49 57
REMARK Flexibility Score: inf
ROOT
ATOM      1  C   UNL A   1      31.479  30.855  25.922  1.00  0.00     0.202 C 
ENDROOT
BRANCH   1   2
ATOM      2  O   UNL A   1      32.314  29.772  26.320  1.00  0.00    -0.374 OA
BRANCH   2   3
ATOM      3  C   UNL A   1      31.818  28.850  27.289  1.00  0.00     0.202 C 
BRANCH   3   4
ATOM      4  C   UNL A   1      31.408  27.460  26.804  1.00  0.00     0.261 C 
BRANCH   4   5
ATOM      5  O   UNL A   1      32.351  26.956  25.847  1.00  0.00    -0.461 OA
BRANCH   5   6
ATOM      6  C   UNL A   1      32.010  25.799  25.216  1.00  0.00     0.341 C 
ATOM      7  O   UNL A   1      31.706  24.771  25.812  1.00  0.00    -0.249 OA
BRANCH   6   8
ATOM      8  C   UNL A   1      32.151  25.890  23.693  1.00  0.00     0.238 C 
ATOM      9  C   UNL A   1      31.839  24.589  22.909  1.00  0.00     0.058 C 
BRANCH   8  10
ATOM     10  N   UNL A   1      31.165  26.943  23.337  1.00  0.00    -0.283 N 
ATOM     11  C   UNL A   1      32.457  28.975  22.753  1.00  0.00     0.038 C 
ATOM     12  C   UNL A   1      31.346  28.285  23.014  1.00  0.00     0.046 C 
ATOM     13  C   UNL A   1      30.011  28.897  22.985  1.00  0.00     0.010 A 
ATOM     14  C   UNL A   1      29.575  30.195  22.785  1.00  0.00     0.011 A 
ATOM     15  C   UNL A   1      29.079  27.901  23.252  1.00  0.00     0.049 A 
ATOM     16  C   UNL A   1      29.799  26.652  23.472  1.00  0.00     0.260 C 
ATOM     17  C   UNL A   1      28.200  30.457  22.859  1.00  0.00     0.001 A 
ATOM     18  C   UNL A   1      27.716  28.126  23.334  1.00  0.00     0.014 A 
ATOM     19  O   UNL A   1      29.260  25.605  23.764  1.00  0.00    -0.269 OA
ATOM     20  C   UNL A   1      27.277  29.431  23.131  1.00  0.00     0.001 A 
ENDBRANCH   8  10
BRANCH   8  21
ATOM     21  C   UNL A   1      33.652  26.152  23.501  1.00  0.00     0.422 C 
ATOM     22  F   UNL A   1      34.403  25.105  23.941  1.00  0.00    -0.168 F 
ATOM     23  F   UNL A   1      33.958  26.281  22.183  1.00  0.00    -0.168 F 
ATOM     24  F   UNL A   1      34.133  27.242  24.132  1.00  0.00    -0.168 F 
ENDBRANCH   8  21
ENDBRANCH   6   8
ENDBRANCH   5   6
ENDBRANCH   4   5
ENDBRANCH   3   4
ENDBRANCH   2   3
ENDBRANCH   1   2
BRANCH   1  25
ATOM     25  C   UNL A   1      31.734  32.247  26.518  1.00  0.00     0.261 C 
BRANCH  25  26
ATOM     26  O   UNL A   1      32.533  32.231  27.711  1.00  0.00    -0.460 OA
BRANCH  26  27
ATOM     27  C   UNL A   1      33.548  33.130  27.706  1.00  0.00     0.338 C 
ATOM     28  O   UNL A   1      33.463  34.340  27.580  1.00  0.00    -0.246 OA
BRANCH  27  29
ATOM     29  C   UNL A   1      34.819  32.476  28.055  1.00  0.00     0.060 A 
ATOM     30  C   UNL A   1      34.780  31.104  28.339  1.00  0.00     0.016 A 
ATOM     31  C   UNL A   1      35.996  33.205  28.226  1.00  0.00     0.016 A 
ATOM     32  C   UNL A   1      35.907  30.465  28.844  1.00  0.00     0.010 A 
ATOM     33  C   UNL A   1      37.126  32.563  28.744  1.00  0.00     0.010 A 
ATOM     34  C   UNL A   1      37.073  31.200  29.091  1.00  0.00    -0.014 A 
BRANCH  34  35
ATOM     35  C   UNL A   1      38.179  30.568  29.851  1.00  0.00     0.031 A 
ATOM     36  C   UNL A   1      38.363  30.920  31.301  1.00  0.00     0.074 A 
ATOM     37  C   UNL A   1      38.976  29.657  29.267  1.00  0.00     0.049 A 
ATOM     38  N   UNL A   1      39.279  30.518  32.145  1.00  0.00    -0.248 NA
ATOM     39  C   UNL A   1      37.382  31.853  31.878  1.00  0.00     0.031 C 
ATOM     40  C   UNL A   1      38.861  29.199  27.885  1.00  0.00     0.029 A 
ATOM     41  N   UNL A   1      40.045  28.957  29.768  1.00  0.00    -0.354 N 
ATOM     42  C   UNL A   1      38.990  31.153  33.347  1.00  0.00     0.074 A 
ATOM     43  C   UNL A   1      37.836  31.994  33.115  1.00  0.00     0.031 C 
ATOM     44  C   UNL A   1      39.827  28.297  27.643  1.00  0.00     0.029 A 
ATOM     45  C   UNL A   1      40.652  28.147  28.841  1.00  0.00     0.049 A 
ATOM     46  H   UNL A   1      40.347  29.028  30.702  1.00  0.00     0.167 HD
ATOM     47  C   UNL A   1      39.627  31.037  34.537  1.00  0.00     0.037 A 
ATOM     48  C   UNL A   1      41.763  27.393  28.943  1.00  0.00     0.037 A 
ATOM     49  C   UNL A   1      40.775  30.195  34.760  1.00  0.00     0.049 A 
ATOM     50  C   UNL A   1      42.503  27.347  30.256  1.00  0.00     0.074 A 
ATOM     51  C   UNL A   1      41.483  29.994  35.932  1.00  0.00     0.029 A 
ATOM     52  N   UNL A   1      41.387  29.420  33.786  1.00  0.00    -0.354 N 
ATOM     53  N   UNL A   1      42.214  27.933  31.394  1.00  0.00    -0.248 NA
ATOM     54  C   UNL A   1      43.725  26.532  30.298  1.00  0.00     0.031 C 
ATOM     55  C   UNL A   1      42.561  29.150  35.652  1.00  0.00     0.029 A 
ATOM     56  C   UNL A   1      42.485  28.766  34.323  1.00  0.00     0.049 A 
ATOM     57  H   UNL A   1      41.088  29.346  32.851  1.00  0.00     0.167 HD
ATOM     58  C   UNL A   1      43.195  27.531  32.292  1.00  0.00     0.074 A 
ATOM     59  C   UNL A   1      44.077  26.638  31.572  1.00  0.00     0.031 C 
ATOM     60  C   UNL A   1      43.350  27.871  33.596  1.00  0.00     0.037 A 
BRANCH  47  61
ATOM     61  C   UNL A   1      39.118  31.859  35.686  1.00  0.00     0.064 A 
ATOM     62  C   UNL A   1      38.233  31.333  36.640  1.00  0.00     0.173 A 
ATOM     63  C   UNL A   1      39.554  33.183  35.858  1.00  0.00     0.173 A 
ATOM     64  F   UNL A   1      37.775  30.078  36.517  1.00  0.00    -0.203 F 
ATOM     65  C   UNL A   1      37.788  32.108  37.708  1.00  0.00     0.198 A 
ATOM     66  C   UNL A   1      39.133  33.942  36.945  1.00  0.00     0.198 A 
ATOM     67  F   UNL A   1      40.404  33.735  34.978  1.00  0.00    -0.203 F 
ATOM     68  F   UNL A   1      36.907  31.599  38.582  1.00  0.00    -0.200 F 
ATOM     69  C   UNL A   1      38.244  33.408  37.865  1.00  0.00     0.200 A 
ATOM     70  F   UNL A   1      39.588  35.193  37.103  1.00  0.00    -0.200 F 
ATOM     71  F   UNL A   1      37.824  34.148  38.901  1.00  0.00    -0.200 F 
ENDBRANCH  47  61
BRANCH  48  72
ATOM     72  C   UNL A   1      42.260  26.634  27.764  1.00  0.00     0.064 A 
ATOM     73  C   UNL A   1      41.802  25.337  27.492  1.00  0.00     0.173 A 
ATOM     74  C   UNL A   1      43.226  27.177  26.904  1.00  0.00     0.173 A 
ATOM     75  F   UNL A   1      40.898  24.763  28.298  1.00  0.00    -0.203 F 
ATOM     76  C   UNL A   1      42.312  24.603  26.421  1.00  0.00     0.198 A 
ATOM     77  C   UNL A   1      43.708  26.456  25.814  1.00  0.00     0.198 A 
ATOM     78  F   UNL A   1      43.701  28.413  27.120  1.00  0.00    -0.203 F 
ATOM     79  F   UNL A   1      41.900  23.344  26.219  1.00  0.00    -0.200 F 
ATOM     80  C   UNL A   1      43.258  25.166  25.580  1.00  0.00     0.200 A 
ATOM     81  F   UNL A   1      44.613  27.010  24.994  1.00  0.00    -0.200 F 
ATOM     82  F   UNL A   1      43.747  24.461  24.550  1.00  0.00    -0.200 F 
ENDBRANCH  48  72
BRANCH  60  83
ATOM     83  C   UNL A   1      44.491  27.241  34.343  1.00  0.00     0.064 A 
ATOM     84  C   UNL A   1      45.744  27.867  34.451  1.00  0.00     0.173 A 
ATOM     85  C   UNL A   1      44.318  26.009  34.996  1.00  0.00     0.173 A 
ATOM     86  F   UNL A   1      45.968  29.038  33.836  1.00  0.00    -0.203 F 
ATOM     87  C   UNL A   1      46.785  27.268  35.155  1.00  0.00     0.198 A 
ATOM     88  C   UNL A   1      45.350  25.433  35.729  1.00  0.00     0.198 A 
ATOM     89  F   UNL A   1      43.139  25.371  34.934  1.00  0.00    -0.203 F 
ATOM     90  F   UNL A   1      47.988  27.857  35.196  1.00  0.00    -0.200 F 
ATOM     91  C   UNL A   1      46.585  26.057  35.801  1.00  0.00     0.200 A 
ATOM     92  F   UNL A   1      45.149  24.272  36.368  1.00  0.00    -0.200 F 
ATOM     93  F   UNL A   1      47.587  25.488  36.484  1.00  0.00    -0.200 F 
ENDBRANCH  60  83
ENDBRANCH  34  35
ENDBRANCH  27  29
ENDBRANCH  26  27
ENDBRANCH  25  26
ENDBRANCH   1  25
TORSDOF 16
ENDMDL
MODEL 2
REMARK VINA RESULT:     -11.5      2.411      8.132
REMARK SMILES C=C1c2ccccc2C(=O)N1[C@](C)(C(=O)OCCOCCOC(=O)c1ccc(-c2c3nc(c(-c4c(F)c(F)c(F)c(F)c4F)c4ccc([nH]4)c(-c4c(F)c(F)c(F)c(F)c4F)c4nc(c(-c5c(F)c(F)c(F)c(F)c5F)c5ccc2[nH]5)C=C4)C=C3)cc1)C(F)(F)F
REMARK SMILES IDX 20 1 19 2 18 3 17 4 16 5 14 6 15 7 12 8 13 9 11 10 1 11 2 12
REMARK SMILES IDX 3 13 4 14 8 15 9 16 5 17 7 18 10 19 6 20 88 21 89 22 90 23
REMARK SMILES IDX 91 24 21 25 22 26 23 27 24 28 25 29 26 30 87 31 27 32 86 33
REMARK SMILES IDX 28 34 29 35 30 36 80 37 31 38 85 39 79 40 81 41 32 42 84 43
REMARK SMILES IDX 78 44 77 45 33 47 65 48 45 49 64 50 46 51 49 52 63 53 82 54
REMARK SMILES IDX 47 55 48 56 62 58 83 59 50 60 34 61 35 62 43 63 36 64 37 65
REMARK SMILES IDX 41 66 44 67 38 68 39 69 42 70 40 71 66 72 67 73 75 74 68 75
REMARK SMILES IDX 69 76 73 77 76 78 70 79 71 80 74 81 72 82 51 83 52 84 60 85
REMARK SMILES IDX 53 86 54 87 58 88 61 89 55 90 56 91 59 92 57 93
REMARK H PARENT 81 46 49 57
REMARK Flexibility Score: inf
ROOT
ATOM      1  C   UNL A   1      33.116  29.042  24.711  1.00  0.00     0.202 C 
ENDROOT
BRANCH   1   2
ATOM      2  O   UNL A   1      32.783  27.692  24.402  1.00  0.00    -0.374 OA
BRANCH   2   3
ATOM      3  C   UNL A   1      33.556  27.009  23.418  1.00  0.00     0.202 C 
BRANCH   3   4
ATOM      4  C   UNL A   1      32.994  25.706  22.849  1.00  0.00     0.261 C 
BRANCH   4   5
ATOM      5  O   UNL A   1      32.647  24.798  23.905  1.00  0.00    -0.461 OA
BRANCH   5   6
ATOM      6  C   UNL A   1      33.344  23.630  23.948  1.00  0.00     0.341 C 
ATOM      7  O   UNL A   1      33.565  22.939  22.959  1.00  0.00    -0.249 OA
BRANCH   6   8
ATOM      8  C   UNL A   1      33.727  23.221  25.375  1.00  0.00     0.238 C 
ATOM      9  C   UNL A   1      32.691  23.566  26.475  1.00  0.00     0.058 C 
BRANCH   8  10
ATOM     10  N   UNL A   1      33.873  21.746  25.262  1.00  0.00    -0.283 N 
ATOM     11  C   UNL A   1      36.286  21.280  24.946  1.00  0.00     0.038 C 
ATOM     12  C   UNL A   1      34.991  20.961  24.998  1.00  0.00     0.046 C 
ATOM     13  C   UNL A   1      34.505  19.594  24.773  1.00  0.00     0.010 A 
ATOM     14  C   UNL A   1      35.139  18.416  24.417  1.00  0.00     0.011 A 
ATOM     15  C   UNL A   1      33.125  19.597  24.946  1.00  0.00     0.049 A 
ATOM     16  C   UNL A   1      32.711  20.959  25.263  1.00  0.00     0.260 C 
ATOM     17  C   UNL A   1      34.360  17.264  24.243  1.00  0.00     0.001 A 
ATOM     18  C   UNL A   1      32.328  18.479  24.781  1.00  0.00     0.014 A 
ATOM     19  O   UNL A   1      31.556  21.290  25.435  1.00  0.00    -0.269 OA
ATOM     20  C   UNL A   1      32.965  17.294  24.423  1.00  0.00     0.001 A 
ENDBRANCH   8  10
BRANCH   8  21
ATOM     21  C   UNL A   1      34.960  24.091  25.663  1.00  0.00     0.422 C 
ATOM     22  F   UNL A   1      35.719  24.269  24.547  1.00  0.00    -0.168 F 
ATOM     23  F   UNL A   1      34.591  25.343  26.046  1.00  0.00    -0.168 F 
ATOM     24  F   UNL A   1      35.795  23.614  26.607  1.00  0.00    -0.168 F 
ENDBRANCH   8  21
ENDBRANCH   6   8
ENDBRANCH   5   6
ENDBRANCH   4   5
ENDBRANCH   3   4
ENDBRANCH   2   3
ENDBRANCH   1   2
BRANCH   1  25
ATOM     25  C   UNL A   1      32.166  29.856  25.602  1.00  0.00     0.261 C 
BRANCH  25  26
ATOM     26  O   UNL A   1      32.599  29.965  26.967  1.00  0.00    -0.460 OA
BRANCH  26  27
ATOM     27  C   UNL A   1      33.250  31.121  27.247  1.00  0.00     0.338 C 
ATOM     28  O   UNL A   1      32.778  32.245  27.286  1.00  0.00    -0.246 OA
BRANCH  27  29
ATOM     29  C   UNL A   1      34.627  30.845  27.689  1.00  0.00     0.060 A 
ATOM     30  C   UNL A   1      34.947  29.518  28.003  1.00  0.00     0.016 A 
ATOM     31  C   UNL A   1      35.544  31.871  27.913  1.00  0.00     0.016 A 
ATOM     32  C   UNL A   1      36.170  29.216  28.592  1.00  0.00     0.010 A 
ATOM     33  C   UNL A   1      36.771  31.568  28.514  1.00  0.00     0.010 A 
ATOM     34  C   UNL A   1      37.071  30.246  28.891  1.00  0.00    -0.014 A 
BRANCH  34  35
ATOM     35  C   UNL A   1      38.256  29.948  29.731  1.00  0.00     0.031 A 
ATOM     36  C   UNL A   1      39.318  29.027  29.197  1.00  0.00     0.074 A 
ATOM     37  C   UNL A   1      38.406  30.531  30.933  1.00  0.00     0.049 A 
ATOM     38  N   UNL A   1      40.415  28.601  29.769  1.00  0.00    -0.248 NA
ATOM     39  C   UNL A   1      39.113  28.513  27.833  1.00  0.00     0.031 C 
ATOM     40  C   UNL A   1      37.470  31.479  31.532  1.00  0.00     0.029 A 
ATOM     41  N   UNL A   1      39.404  30.405  31.867  1.00  0.00    -0.354 N 
ATOM     42  C   UNL A   1      41.026  27.766  28.841  1.00  0.00     0.074 A 
ATOM     43  C   UNL A   1      40.162  27.717  27.683  1.00  0.00     0.031 C 
ATOM     44  C   UNL A   1      37.934  31.846  32.738  1.00  0.00     0.029 A 
ATOM     45  C   UNL A   1      39.177  31.126  33.012  1.00  0.00     0.049 A 
ATOM     46  H   UNL A   1      40.206  29.850  31.729  1.00  0.00     0.167 HD
ATOM     47  C   UNL A   1      42.206  27.109  28.946  1.00  0.00     0.037 A 
ATOM     48  C   UNL A   1      39.880  31.176  34.160  1.00  0.00     0.037 A 
ATOM     49  C   UNL A   1      43.063  27.166  30.103  1.00  0.00     0.049 A 
ATOM     50  C   UNL A   1      41.147  30.367  34.282  1.00  0.00     0.074 A 
ATOM     51  C   UNL A   1      44.286  26.550  30.301  1.00  0.00     0.029 A 
ATOM     52  N   UNL A   1      42.779  27.875  31.261  1.00  0.00    -0.354 N 
ATOM     53  N   UNL A   1      41.730  29.597  33.394  1.00  0.00    -0.248 NA
ATOM     54  C   UNL A   1      41.854  30.437  35.567  1.00  0.00     0.031 C 
ATOM     55  C   UNL A   1      44.711  26.834  31.603  1.00  0.00     0.029 A 
ATOM     56  C   UNL A   1      43.789  27.685  32.191  1.00  0.00     0.049 A 
ATOM     57  H   UNL A   1      41.979  28.430  31.403  1.00  0.00     0.167 HD
ATOM     58  C   UNL A   1      42.886  29.120  34.000  1.00  0.00     0.074 A 
ATOM     59  C   UNL A   1      42.930  29.702  35.325  1.00  0.00     0.031 C 
ATOM     60  C   UNL A   1      43.825  28.278  33.504  1.00  0.00     0.037 A 
BRANCH  47  61
ATOM     61  C   UNL A   1      42.631  26.248  27.791  1.00  0.00     0.064 A 
ATOM     62  C   UNL A   1      42.120  24.954  27.604  1.00  0.00     0.173 A 
ATOM     63  C   UNL A   1      43.531  26.740  26.833  1.00  0.00     0.173 A 
ATOM     64  F   UNL A   1      41.266  24.429  28.496  1.00  0.00    -0.203 F 
ATOM     65  C   UNL A   1      42.513  24.179  26.515  1.00  0.00     0.198 A 
ATOM     66  C   UNL A   1      43.895  25.975  25.729  1.00  0.00     0.198 A 
ATOM     67  F   UNL A   1      44.047  27.973  26.960  1.00  0.00    -0.203 F 
ATOM     68  F   UNL A   1      42.047  22.928  26.382  1.00  0.00    -0.200 F 
ATOM     69  C   UNL A   1      43.393  24.692  25.574  1.00  0.00     0.200 A 
ATOM     70  F   UNL A   1      44.733  26.480  24.813  1.00  0.00    -0.200 F 
ATOM     71  F   UNL A   1      43.760  23.949  24.522  1.00  0.00    -0.200 F 
ENDBRANCH  47  61
BRANCH  48  72
ATOM     72  C   UNL A   1      39.395  32.003  35.296  1.00  0.00     0.064 A 
ATOM     73  C   UNL A   1      38.556  31.461  36.281  1.00  0.00     0.173 A 
ATOM     74  C   UNL A   1      39.732  33.360  35.406  1.00  0.00     0.173 A 
ATOM     75  F   UNL A   1      38.183  30.175  36.208  1.00  0.00    -0.203 F 
ATOM     76  C   UNL A   1      38.053  32.251  37.313  1.00  0.00     0.198 A 
ATOM     77  C   UNL A   1      39.258  34.139  36.458  1.00  0.00     0.198 A 
ATOM     78  F   UNL A   1      40.530  33.930  34.490  1.00  0.00    -0.203 F 
ATOM     79  F   UNL A   1      37.206  31.721  38.206  1.00  0.00    -0.200 F 
ATOM     80  C   UNL A   1      38.410  33.587  37.405  1.00  0.00     0.200 A 
ATOM     81  F   UNL A   1      39.618  35.427  36.550  1.00  0.00    -0.200 F 
ATOM     82  F   UNL A   1      37.927  34.346  38.398  1.00  0.00    -0.200 F 
ENDBRANCH  48  72
BRANCH  60  83
ATOM     83  C   UNL A   1      45.007  27.968  34.379  1.00  0.00     0.064 A 
ATOM     84  C   UNL A   1      46.158  28.773  34.385  1.00  0.00     0.173 A 
ATOM     85  C   UNL A   1      44.973  26.870  35.254  1.00  0.00     0.173 A 
ATOM     86  F   UNL A   1      46.248  29.827  33.559  1.00  0.00    -0.203 F 
ATOM     87  C   UNL A   1      47.239  28.471  35.209  1.00  0.00     0.198 A 
ATOM     88  C   UNL A   1      46.042  26.593  36.102  1.00  0.00     0.198 A 
ATOM     89  F   UNL A   1      43.896  26.071  35.296  1.00  0.00    -0.203 F 
ATOM     90  F   UNL A   1      48.348  29.221  35.156  1.00  0.00    -0.200 F 
ATOM     91  C   UNL A   1      47.176  27.388  36.073  1.00  0.00     0.200 A 
ATOM     92  F   UNL A   1      45.972  25.557  36.949  1.00  0.00    -0.200 F 
ATOM     93  F   UNL A   1      48.215  27.106  36.870  1.00  0.00    -0.200 F 
ENDBRANCH  60  83
ENDBRANCH  34  35
ENDBRANCH  27  29
ENDBRANCH  26  27
ENDBRANCH  25  26
ENDBRANCH   1  25
TORSDOF 16
ENDMDL
MODEL 3
REMARK VINA RESULT:     -11.5      1.777      3.748
REMARK SMILES C=C1c2ccccc2C(=O)N1[C@](C)(C(=O)OCCOCCOC(=O)c1ccc(-c2c3nc(c(-c4c(F)c(F)c(F)c(F)c4F)c4ccc([nH]4)c(-c4c(F)c(F)c(F)c(F)c4F)c4nc(c(-c5c(F)c(F)c(F)c(F)c5F)c5ccc2[nH]5)C=C4)C=C3)cc1)C(F)(F)F
REMARK SMILES IDX 20 1 19 2 18 3 17 4 16 5 14 6 15 7 12 8 13 9 11 10 1 11 2 12
REMARK SMILES IDX 3 13 4 14 8 15 9 16 5 17 7 18 10 19 6 20 88 21 89 22 90 23
REMARK SMILES IDX 91 24 21 25 22 26 23 27 24 28 25 29 26 30 87 31 27 32 86 33
REMARK SMILES IDX 28 34 29 35 30 36 80 37 31 38 85 39 79 40 81 41 32 42 84 43
REMARK SMILES IDX 78 44 77 45 33 47 65 48 45 49 64 50 46 51 49 52 63 53 82 54
REMARK SMILES IDX 47 55 48 56 62 58 83 59 50 60 34 61 35 62 43 63 36 64 37 65
REMARK SMILES IDX 41 66 44 67 38 68 39 69 42 70 40 71 66 72 67 73 75 74 68 75
REMARK SMILES IDX 69 76 73 77 76 78 70 79 71 80 74 81 72 82 51 83 52 84 60 85
REMARK SMILES IDX 53 86 54 87 58 88 61 89 55 90 56 91 59 92 57 93
REMARK H PARENT 81 46 49 57
REMARK Flexibility Score: inf
ROOT
ATOM      1  C   UNL A   1      31.756  30.139  25.464  1.00  0.00     0.202 C 
ENDROOT
BRANCH   1   2
ATOM      2  O   UNL A   1      30.636  30.074  24.586  1.00  0.00    -0.374 OA
BRANCH   2   3
ATOM      3  C   UNL A   1      30.637  29.089  23.555  1.00  0.00     0.202 C 
BRANCH   3   4
ATOM      4  C   UNL A   1      31.989  28.608  23.030  1.00  0.00     0.261 C 
BRANCH   4   5
ATOM      5  O   UNL A   1      32.029  27.174  22.967  1.00  0.00    -0.461 OA
BRANCH   5   6
ATOM      6  C   UNL A   1      32.450  26.533  24.091  1.00  0.00     0.341 C 
ATOM      7  O   UNL A   1      33.338  26.963  24.820  1.00  0.00    -0.249 OA
BRANCH   6   8
ATOM      8  C   UNL A   1      31.772  25.172  24.286  1.00  0.00     0.238 C 
ATOM      9  C   UNL A   1      30.908  24.675  23.100  1.00  0.00     0.058 C 
BRANCH   8  10
ATOM     10  N   UNL A   1      32.927  24.259  24.488  1.00  0.00    -0.283 N 
ATOM     11  C   UNL A   1      32.855  23.513  26.850  1.00  0.00     0.038 C 
ATOM     12  C   UNL A   1      33.398  23.630  25.637  1.00  0.00     0.046 C 
ATOM     13  C   UNL A   1      34.700  23.042  25.294  1.00  0.00     0.010 A 
ATOM     14  C   UNL A   1      35.648  22.358  26.035  1.00  0.00     0.011 A 
ATOM     15  C   UNL A   1      34.946  23.304  23.951  1.00  0.00     0.049 A 
ATOM     16  C   UNL A   1      33.824  24.073  23.425  1.00  0.00     0.260 C 
ATOM     17  C   UNL A   1      36.829  21.954  25.398  1.00  0.00     0.001 A 
ATOM     18  C   UNL A   1      36.101  22.921  23.293  1.00  0.00     0.014 A 
ATOM     19  O   UNL A   1      33.765  24.485  22.285  1.00  0.00    -0.269 OA
ATOM     20  C   UNL A   1      37.055  22.233  24.038  1.00  0.00     0.001 A 
ENDBRANCH   8  10
BRANCH   8  21
ATOM     21  C   UNL A   1      30.796  25.437  25.442  1.00  0.00     0.422 C 
ATOM     22  F   UNL A   1      29.790  26.272  25.066  1.00  0.00    -0.168 F 
ATOM     23  F   UNL A   1      30.180  24.288  25.830  1.00  0.00    -0.168 F 
ATOM     24  F   UNL A   1      31.342  25.989  26.544  1.00  0.00    -0.168 F 
ENDBRANCH   8  21
ENDBRANCH   6   8
ENDBRANCH   5   6
ENDBRANCH   4   5
ENDBRANCH   3   4
ENDBRANCH   2   3
ENDBRANCH   1   2
BRANCH   1  25
ATOM     25  C   UNL A   1      31.815  31.261  26.510  1.00  0.00     0.261 C 
BRANCH  25  26
ATOM     26  O   UNL A   1      32.807  31.056  27.528  1.00  0.00    -0.460 OA
BRANCH  26  27
ATOM     27  C   UNL A   1      33.686  32.081  27.654  1.00  0.00     0.338 C 
ATOM     28  O   UNL A   1      33.440  33.275  27.631  1.00  0.00    -0.246 OA
BRANCH  27  29
ATOM     29  C   UNL A   1      35.023  31.574  28.009  1.00  0.00     0.060 A 
ATOM     30  C   UNL A   1      35.142  30.203  28.269  1.00  0.00     0.016 A 
ATOM     31  C   UNL A   1      36.103  32.434  28.210  1.00  0.00     0.016 A 
ATOM     32  C   UNL A   1      36.331  29.691  28.778  1.00  0.00     0.010 A 
ATOM     33  C   UNL A   1      37.294  31.919  28.731  1.00  0.00     0.010 A 
ATOM     34  C   UNL A   1      37.398  30.553  29.054  1.00  0.00    -0.014 A 
BRANCH  34  35
ATOM     35  C   UNL A   1      38.562  30.042  29.818  1.00  0.00     0.031 A 
ATOM     36  C   UNL A   1      38.780  30.523  31.226  1.00  0.00     0.074 A 
ATOM     37  C   UNL A   1      39.383  29.125  29.280  1.00  0.00     0.049 A 
ATOM     38  N   UNL A   1      39.746  30.239  32.062  1.00  0.00    -0.248 NA
ATOM     39  C   UNL A   1      37.775  31.454  31.763  1.00  0.00     0.031 C 
ATOM     40  C   UNL A   1      39.243  28.547  27.946  1.00  0.00     0.029 A 
ATOM     41  N   UNL A   1      40.504  28.521  29.793  1.00  0.00    -0.354 N 
ATOM     42  C   UNL A   1      39.469  30.959  33.218  1.00  0.00     0.074 A 
ATOM     43  C   UNL A   1      38.265  31.720  32.965  1.00  0.00     0.031 C 
ATOM     44  C   UNL A   1      40.244  27.675  27.740  1.00  0.00     0.029 A 
ATOM     45  C   UNL A   1      41.119  27.666  28.912  1.00  0.00     0.049 A 
ATOM     46  H   UNL A   1      40.836  28.685  30.705  1.00  0.00     0.167 HD
ATOM     47  C   UNL A   1      40.154  30.973  34.387  1.00  0.00     0.037 A 
ATOM     48  C   UNL A   1      42.270  26.978  29.031  1.00  0.00     0.037 A 
ATOM     49  C   UNL A   1      41.350  30.210  34.633  1.00  0.00     0.049 A 
ATOM     50  C   UNL A   1      43.059  27.079  30.312  1.00  0.00     0.074 A 
ATOM     51  C   UNL A   1      42.110  30.143  35.787  1.00  0.00     0.029 A 
ATOM     52  N   UNL A   1      41.966  29.386  33.701  1.00  0.00    -0.354 N 
ATOM     53  N   UNL A   1      42.781  27.744  31.409  1.00  0.00    -0.248 NA
ATOM     54  C   UNL A   1      44.321  26.331  30.372  1.00  0.00     0.031 C 
ATOM     55  C   UNL A   1      43.219  29.331  35.534  1.00  0.00     0.029 A 
ATOM     56  C   UNL A   1      43.114  28.833  34.246  1.00  0.00     0.049 A 
ATOM     57  H   UNL A   1      41.637  29.219  32.789  1.00  0.00     0.167 HD
ATOM     58  C   UNL A   1      43.813  27.468  32.296  1.00  0.00     0.074 A 
ATOM     59  C   UNL A   1      44.713  26.561  31.617  1.00  0.00     0.031 C 
ATOM     60  C   UNL A   1      43.998  27.923  33.560  1.00  0.00     0.037 A 
BRANCH  47  61
ATOM     61  C   UNL A   1      39.644  31.865  35.484  1.00  0.00     0.064 A 
ATOM     62  C   UNL A   1      40.072  33.195  35.618  1.00  0.00     0.173 A 
ATOM     63  C   UNL A   1      38.681  31.393  36.390  1.00  0.00     0.173 A 
ATOM     64  F   UNL A   1      41.000  33.693  34.786  1.00  0.00    -0.203 F 
ATOM     65  C   UNL A   1      39.573  34.010  36.631  1.00  0.00     0.198 A 
ATOM     66  C   UNL A   1      38.160  32.221  37.380  1.00  0.00     0.198 A 
ATOM     67  F   UNL A   1      38.233  30.131  36.305  1.00  0.00    -0.203 F 
ATOM     68  F   UNL A   1      40.031  35.263  36.767  1.00  0.00    -0.200 F 
ATOM     69  C   UNL A   1      38.611  33.526  37.505  1.00  0.00     0.200 A 
ATOM     70  F   UNL A   1      37.219  31.756  38.213  1.00  0.00    -0.200 F 
ATOM     71  F   UNL A   1      38.123  34.316  38.471  1.00  0.00    -0.200 F 
ENDBRANCH  47  61
BRANCH  48  72
ATOM     72  C   UNL A   1      42.763  26.148  27.900  1.00  0.00     0.064 A 
ATOM     73  C   UNL A   1      43.617  26.685  26.925  1.00  0.00     0.173 A 
ATOM     74  C   UNL A   1      42.366  24.811  27.750  1.00  0.00     0.173 A 
ATOM     75  F   UNL A   1      44.005  27.965  27.008  1.00  0.00    -0.203 F 
ATOM     76  C   UNL A   1      44.031  25.924  25.833  1.00  0.00     0.198 A 
ATOM     77  C   UNL A   1      42.809  24.041  26.678  1.00  0.00     0.198 A 
ATOM     78  F   UNL A   1      41.547  24.248  28.653  1.00  0.00    -0.203 F 
ATOM     79  F   UNL A   1      44.799  26.480  24.886  1.00  0.00    -0.200 F 
ATOM     80  C   UNL A   1      43.633  24.602  25.714  1.00  0.00     0.200 A 
ATOM     81  F   UNL A   1      42.433  22.759  26.575  1.00  0.00    -0.200 F 
ATOM     82  F   UNL A   1      44.032  23.871  24.664  1.00  0.00    -0.200 F 
ENDBRANCH  48  72
BRANCH  60  83
ATOM     83  C   UNL A   1      45.196  27.414  34.311  1.00  0.00     0.064 A 
ATOM     84  C   UNL A   1      45.152  26.229  35.063  1.00  0.00     0.173 A 
ATOM     85  C   UNL A   1      46.419  28.101  34.245  1.00  0.00     0.173 A 
ATOM     86  F   UNL A   1      44.006  25.540  35.169  1.00  0.00    -0.203 F 
ATOM     87  C   UNL A   1      46.276  25.771  35.745  1.00  0.00     0.198 A 
ATOM     88  C   UNL A   1      47.550  27.620  34.899  1.00  0.00     0.198 A 
ATOM     89  F   UNL A   1      46.521  29.234  33.535  1.00  0.00    -0.203 F 
ATOM     90  F   UNL A   1      46.195  24.668  36.502  1.00  0.00    -0.200 F 
ATOM     91  C   UNL A   1      47.476  26.461  35.655  1.00  0.00     0.200 A 
ATOM     92  F   UNL A   1      48.712  28.279  34.796  1.00  0.00    -0.200 F 
ATOM     93  F   UNL A   1      48.558  26.014  36.306  1.00  0.00    -0.200 F 
ENDBRANCH  60  83
ENDBRANCH  34  35
ENDBRANCH  27  29
ENDBRANCH  26  27
ENDBRANCH  25  26
ENDBRANCH   1  25
TORSDOF 16
ENDMDL
