MODEL 1
REMARK VINA RESULT:     -11.1      0.000      0.000
REMARK SMILES C[C@H]([NH2+][C@@H]1CCOC2(CCC2)C1)C(=O)OCCOCCOC(=O)c1ccc(-c2c3nc(c(-c4c(F)c(F)c(F)c(F)c4F)c4ccc([nH]4)c(-c4c(F)c(F)c(F)c(F)c4F)c4nc(c(-c5c(F)c(F)c(F)c(F)c5F)c5ccc2[nH]5)C=C4)C=C3)cc1
REMARK SMILES IDX 18 1 17 2 16 3 15 4 13 5 14 6 2 7 1 8 3 9 4 12 5 13 12 14
REMARK SMILES IDX 6 15 8 16 7 17 9 18 11 19 10 20 19 21 20 22 21 23 22 24
REMARK SMILES IDX 23 25 24 26 25 27 86 28 26 29 85 30 27 31 28 32 29 33 79 34
REMARK SMILES IDX 30 35 84 36 78 37 80 38 31 39 83 40 77 41 76 42 32 44 64 45
REMARK SMILES IDX 44 46 63 47 45 48 48 49 62 50 81 51 46 52 47 53 61 55 82 56
REMARK SMILES IDX 49 57 33 58 34 59 42 60 35 61 36 62 40 63 43 64 37 65 38 66
REMARK SMILES IDX 41 67 39 68 65 69 66 70 74 71 67 72 68 73 72 74 75 75 69 76
REMARK SMILES IDX 70 77 73 78 71 79 50 80 51 81 59 82 52 83 53 84 57 85 60 86
REMARK SMILES IDX 54 87 55 88 58 89 56 90
REMARK H PARENT 3 10 3 11 80 43 48 54
REMARK Flexibility Score: inf
ROOT
ATOM      1  O   UNL A   1      32.993  29.437  24.835  1.00  0.00    -0.374 OA
ENDROOT
BRANCH   1   2
ATOM      2  C   UNL A   1      33.353  28.063  24.917  1.00  0.00     0.202 C 
BRANCH   2   3
ATOM      3  C   UNL A   1      32.837  27.235  26.106  1.00  0.00     0.261 C 
BRANCH   3   4
ATOM      4  O   UNL A   1      31.604  26.560  25.827  1.00  0.00    -0.459 OA
BRANCH   4   5
ATOM      5  C   UNL A   1      31.642  25.197  25.947  1.00  0.00     0.364 C 
ATOM      6  O   UNL A   1      31.520  24.592  27.003  1.00  0.00    -0.245 OA
BRANCH   5   7
ATOM      7  C   UNL A   1      31.730  24.542  24.550  1.00  0.00     0.290 C 
ATOM      8  C   UNL A   1      30.728  25.229  23.637  1.00  0.00     0.088 C 
BRANCH   7   9
ATOM      9  N   UNL A   1      31.811  23.092  24.656  1.00  0.00    -0.332 N 
ATOM     10  H   UNL A   1      30.849  22.775  24.526  1.00  0.00     0.347 HD
ATOM     11  H   UNL A   1      32.341  23.040  25.526  1.00  0.00     0.347 HD
BRANCH   9  12
ATOM     12  C   UNL A   1      32.607  22.160  23.874  1.00  0.00     0.188 C 
ATOM     13  C   UNL A   1      32.800  20.715  24.330  1.00  0.00     0.093 C 
ATOM     14  C   UNL A   1      33.893  22.750  23.296  1.00  0.00     0.100 C 
ATOM     15  C   UNL A   1      34.111  20.407  25.039  1.00  0.00     0.167 C 
ATOM     16  C   UNL A   1      35.096  22.543  24.204  1.00  0.00     0.074 C 
ATOM     17  O   UNL A   1      35.230  21.151  24.585  1.00  0.00    -0.375 OA
ATOM     18  C   UNL A   1      36.406  23.068  23.526  1.00  0.00     0.036 C 
ATOM     19  C   UNL A   1      35.350  23.643  25.277  1.00  0.00     0.036 C 
ATOM     20  C   UNL A   1      36.832  23.631  24.889  1.00  0.00     0.006 C 
ENDBRANCH   9  12
ENDBRANCH   7   9
ENDBRANCH   5   7
ENDBRANCH   4   5
ENDBRANCH   3   4
ENDBRANCH   2   3
ENDBRANCH   1   2
BRANCH   1  21
ATOM     21  C   UNL A   1      31.736  29.863  25.352  1.00  0.00     0.202 C 
BRANCH  21  22
ATOM     22  C   UNL A   1      31.690  30.938  26.450  1.00  0.00     0.261 C 
BRANCH  22  23
ATOM     23  O   UNL A   1      32.735  30.801  27.431  1.00  0.00    -0.460 OA
BRANCH  23  24
ATOM     24  C   UNL A   1      33.518  31.896  27.586  1.00  0.00     0.338 C 
ATOM     25  O   UNL A   1      33.164  33.060  27.638  1.00  0.00    -0.246 OA
BRANCH  24  26
ATOM     26  C   UNL A   1      34.908  31.499  27.868  1.00  0.00     0.060 A 
ATOM     27  C   UNL A   1      35.165  30.144  28.116  1.00  0.00     0.016 A 
ATOM     28  C   UNL A   1      35.897  32.462  28.067  1.00  0.00     0.016 A 
ATOM     29  C   UNL A   1      36.403  29.748  28.616  1.00  0.00     0.010 A 
ATOM     30  C   UNL A   1      37.132  32.067  28.589  1.00  0.00     0.010 A 
ATOM     31  C   UNL A   1      37.369  30.717  28.908  1.00  0.00    -0.014 A 
BRANCH  31  32
ATOM     32  C   UNL A   1      38.537  30.356  29.746  1.00  0.00     0.031 A 
ATOM     33  C   UNL A   1      39.535  29.376  29.197  1.00  0.00     0.074 A 
ATOM     34  C   UNL A   1      38.706  30.888  30.966  1.00  0.00     0.049 A 
ATOM     35  N   UNL A   1      40.560  28.813  29.783  1.00  0.00    -0.248 NA
ATOM     36  C   UNL A   1      39.345  28.973  27.794  1.00  0.00     0.031 C 
ATOM     37  C   UNL A   1      37.840  31.896  31.573  1.00  0.00     0.029 A 
ATOM     38  N   UNL A   1      39.659  30.636  31.921  1.00  0.00    -0.354 N 
ATOM     39  C   UNL A   1      41.123  27.975  28.830  1.00  0.00     0.074 A 
ATOM     40  C   UNL A   1      40.319  28.092  27.631  1.00  0.00     0.031 C 
ATOM     41  C   UNL A   1      38.283  32.152  32.816  1.00  0.00     0.029 A 
ATOM     42  C   UNL A   1      39.436  31.299  33.100  1.00  0.00     0.049 A 
ATOM     43  H   UNL A   1      40.426  30.037  31.773  1.00  0.00     0.167 HD
ATOM     44  C   UNL A   1      42.210  27.177  28.947  1.00  0.00     0.037 A 
ATOM     45  C   UNL A   1      40.066  31.193  34.286  1.00  0.00     0.037 A 
ATOM     46  C   UNL A   1      43.003  27.068  30.143  1.00  0.00     0.049 A 
ATOM     47  C   UNL A   1      41.232  30.248  34.420  1.00  0.00     0.074 A 
ATOM     48  C   UNL A   1      44.131  26.301  30.366  1.00  0.00     0.029 A 
ATOM     49  N   UNL A   1      42.736  27.746  31.325  1.00  0.00    -0.354 N 
ATOM     50  N   UNL A   1      41.762  29.457  33.517  1.00  0.00    -0.248 NA
ATOM     51  C   UNL A   1      41.884  30.180  35.734  1.00  0.00     0.031 C 
ATOM     52  C   UNL A   1      44.519  26.476  31.698  1.00  0.00     0.029 A 
ATOM     53  C   UNL A   1      43.667  27.395  32.290  1.00  0.00     0.049 A 
ATOM     54  H   UNL A   1      41.997  28.381  31.458  1.00  0.00     0.167 HD
ATOM     55  C   UNL A   1      42.826  28.821  34.143  1.00  0.00     0.074 A 
ATOM     56  C   UNL A   1      42.866  29.317  35.503  1.00  0.00     0.031 C 
ATOM     57  C   UNL A   1      43.695  27.912  33.635  1.00  0.00     0.037 A 
BRANCH  44  58
ATOM     58  C   UNL A   1      42.569  26.325  27.765  1.00  0.00     0.064 A 
ATOM     59  C   UNL A   1      41.981  25.070  27.546  1.00  0.00     0.173 A 
ATOM     60  C   UNL A   1      43.522  26.773  26.836  1.00  0.00     0.173 A 
ATOM     61  F   UNL A   1      41.078  24.588  28.413  1.00  0.00    -0.203 F 
ATOM     62  C   UNL A   1      42.360  24.281  26.462  1.00  0.00     0.198 A 
ATOM     63  C   UNL A   1      43.875  25.994  25.737  1.00  0.00     0.198 A 
ATOM     64  F   UNL A   1      44.113  27.967  26.996  1.00  0.00    -0.203 F 
ATOM     65  F   UNL A   1      41.828  23.060  26.306  1.00  0.00    -0.200 F 
ATOM     66  C   UNL A   1      43.302  24.744  25.558  1.00  0.00     0.200 A 
ATOM     67  F   UNL A   1      44.779  26.450  24.858  1.00  0.00    -0.200 F 
ATOM     68  F   UNL A   1      43.667  23.983  24.517  1.00  0.00    -0.200 F 
ENDBRANCH  44  58
BRANCH  45  69
ATOM     69  C   UNL A   1      39.584  31.990  35.441  1.00  0.00     0.064 A 
ATOM     70  C   UNL A   1      38.603  31.491  36.307  1.00  0.00     0.173 A 
ATOM     71  C   UNL A   1      40.120  33.256  35.720  1.00  0.00     0.173 A 
ATOM     72  F   UNL A   1      38.045  30.295  36.068  1.00  0.00    -0.203 F 
ATOM     73  C   UNL A   1      38.172  32.230  37.408  1.00  0.00     0.198 A 
ATOM     74  C   UNL A   1      39.707  33.984  36.834  1.00  0.00     0.198 A 
ATOM     75  F   UNL A   1      41.063  33.778  34.921  1.00  0.00    -0.203 F 
ATOM     76  F   UNL A   1      37.213  31.743  38.205  1.00  0.00    -0.200 F 
ATOM     77  C   UNL A   1      38.731  33.472  37.676  1.00  0.00     0.200 A 
ATOM     78  F   UNL A   1      40.260  35.176  37.096  1.00  0.00    -0.200 F 
ATOM     79  F   UNL A   1      38.328  34.174  38.742  1.00  0.00    -0.200 F 
ENDBRANCH  45  69
BRANCH  57  80
ATOM     80  C   UNL A   1      44.795  27.426  34.533  1.00  0.00     0.064 A 
ATOM     81  C   UNL A   1      44.657  26.265  35.308  1.00  0.00     0.173 A 
ATOM     82  C   UNL A   1      46.029  28.094  34.561  1.00  0.00     0.173 A 
ATOM     83  F   UNL A   1      43.493  25.600  35.325  1.00  0.00    -0.203 F 
ATOM     84  C   UNL A   1      45.712  25.800  36.088  1.00  0.00     0.198 A 
ATOM     85  C   UNL A   1      47.089  27.611  35.321  1.00  0.00     0.198 A 
ATOM     86  F   UNL A   1      46.213  29.205  33.830  1.00  0.00    -0.203 F 
ATOM     87  F   UNL A   1      45.550  24.707  36.847  1.00  0.00    -0.200 F 
ATOM     88  C   UNL A   1      46.929  26.466  36.087  1.00  0.00     0.200 A 
ATOM     89  F   UNL A   1      48.268  28.248  35.307  1.00  0.00    -0.200 F 
ATOM     90  F   UNL A   1      47.948  26.007  36.828  1.00  0.00    -0.200 F 
ENDBRANCH  57  80
ENDBRANCH  31  32
ENDBRANCH  24  26
ENDBRANCH  23  24
ENDBRANCH  22  23
ENDBRANCH  21  22
ENDBRANCH   1  21
TORSDOF 16
ENDMDL
MODEL 2
REMARK VINA RESULT:     -11.1      0.810      2.528
REMARK SMILES C[C@H]([NH2+][C@@H]1CCOC2(CCC2)C1)C(=O)OCCOCCOC(=O)c1ccc(-c2c3nc(c(-c4c(F)c(F)c(F)c(F)c4F)c4ccc([nH]4)c(-c4c(F)c(F)c(F)c(F)c4F)c4nc(c(-c5c(F)c(F)c(F)c(F)c5F)c5ccc2[nH]5)C=C4)C=C3)cc1
REMARK SMILES IDX 18 1 17 2 16 3 15 4 13 5 14 6 2 7 1 8 3 9 4 12 5 13 12 14
REMARK SMILES IDX 6 15 8 16 7 17 9 18 11 19 10 20 19 21 20 22 21 23 22 24
REMARK SMILES IDX 23 25 24 26 25 27 86 28 26 29 85 30 27 31 28 32 29 33 79 34
REMARK SMILES IDX 30 35 84 36 78 37 80 38 31 39 83 40 77 41 76 42 32 44 64 45
REMARK SMILES IDX 44 46 63 47 45 48 48 49 62 50 81 51 46 52 47 53 61 55 82 56
REMARK SMILES IDX 49 57 33 58 34 59 42 60 35 61 36 62 40 63 43 64 37 65 38 66
REMARK SMILES IDX 41 67 39 68 65 69 66 70 74 71 67 72 68 73 72 74 75 75 69 76
REMARK SMILES IDX 70 77 73 78 71 79 50 80 51 81 59 82 52 83 53 84 57 85 60 86
REMARK SMILES IDX 54 87 55 88 58 89 56 90
REMARK H PARENT 3 10 3 11 80 43 48 54
REMARK Flexibility Score: inf
ROOT
ATOM      1  O   UNL A   1      32.109  28.838  25.495  1.00  0.00    -0.374 OA
ENDROOT
BRANCH   1   2
ATOM      2  C   UNL A   1      31.496  27.774  26.213  1.00  0.00     0.202 C 
BRANCH   2   3
ATOM      3  C   UNL A   1      31.692  26.334  25.710  1.00  0.00     0.261 C 
BRANCH   3   4
ATOM      4  O   UNL A   1      33.030  25.852  25.894  1.00  0.00    -0.459 OA
BRANCH   4   5
ATOM      5  C   UNL A   1      33.761  25.703  24.747  1.00  0.00     0.364 C 
ATOM      6  O   UNL A   1      33.871  26.560  23.881  1.00  0.00    -0.245 OA
BRANCH   5   7
ATOM      7  C   UNL A   1      34.520  24.358  24.771  1.00  0.00     0.290 C 
ATOM      8  C   UNL A   1      34.601  23.831  23.347  1.00  0.00     0.088 C 
BRANCH   7   9
ATOM      9  N   UNL A   1      34.075  23.524  25.879  1.00  0.00    -0.332 N 
ATOM     10  H   UNL A   1      33.116  23.272  25.636  1.00  0.00     0.347 HD
ATOM     11  H   UNL A   1      34.351  24.140  26.643  1.00  0.00     0.347 HD
BRANCH   9  12
ATOM     12  C   UNL A   1      34.655  22.292  26.387  1.00  0.00     0.188 C 
ATOM     13  C   UNL A   1      36.074  21.874  26.006  1.00  0.00     0.093 C 
ATOM     14  C   UNL A   1      33.700  21.099  26.409  1.00  0.00     0.100 C 
ATOM     15  C   UNL A   1      36.193  20.841  24.895  1.00  0.00     0.167 C 
ATOM     16  C   UNL A   1      33.779  20.257  25.144  1.00  0.00     0.074 C 
ATOM     17  O   UNL A   1      35.148  19.883  24.850  1.00  0.00    -0.375 OA
ATOM     18  C   UNL A   1      32.863  18.992  25.255  1.00  0.00     0.036 C 
ATOM     19  C   UNL A   1      32.848  20.683  23.970  1.00  0.00     0.036 C 
ATOM     20  C   UNL A   1      32.458  19.212  23.791  1.00  0.00     0.006 C 
ENDBRANCH   9  12
ENDBRANCH   7   9
ENDBRANCH   5   7
ENDBRANCH   4   5
ENDBRANCH   3   4
ENDBRANCH   2   3
ENDBRANCH   1   2
BRANCH   1  21
ATOM     21  C   UNL A   1      31.427  30.082  25.371  1.00  0.00     0.202 C 
BRANCH  21  22
ATOM     22  C   UNL A   1      31.710  31.208  26.379  1.00  0.00     0.261 C 
BRANCH  22  23
ATOM     23  O   UNL A   1      32.799  30.917  27.274  1.00  0.00    -0.460 OA
BRANCH  23  24
ATOM     24  C   UNL A   1      33.576  31.982  27.591  1.00  0.00     0.338 C 
ATOM     25  O   UNL A   1      33.220  33.133  27.769  1.00  0.00    -0.246 OA
BRANCH  24  26
ATOM     26  C   UNL A   1      34.953  31.547  27.879  1.00  0.00     0.060 A 
ATOM     27  C   UNL A   1      35.165  30.194  28.175  1.00  0.00     0.016 A 
ATOM     28  C   UNL A   1      35.977  32.482  28.035  1.00  0.00     0.016 A 
ATOM     29  C   UNL A   1      36.392  29.774  28.682  1.00  0.00     0.010 A 
ATOM     30  C   UNL A   1      37.201  32.063  28.564  1.00  0.00     0.010 A 
ATOM     31  C   UNL A   1      37.393  30.718  28.932  1.00  0.00    -0.014 A 
BRANCH  31  32
ATOM     32  C   UNL A   1      38.554  30.347  29.775  1.00  0.00     0.031 A 
ATOM     33  C   UNL A   1      39.543  29.354  29.233  1.00  0.00     0.074 A 
ATOM     34  C   UNL A   1      38.724  30.882  30.994  1.00  0.00     0.049 A 
ATOM     35  N   UNL A   1      40.560  28.783  29.825  1.00  0.00    -0.248 NA
ATOM     36  C   UNL A   1      39.354  28.949  27.831  1.00  0.00     0.031 C 
ATOM     37  C   UNL A   1      37.867  31.901  31.595  1.00  0.00     0.029 A 
ATOM     38  N   UNL A   1      39.671  30.622  31.953  1.00  0.00    -0.354 N 
ATOM     39  C   UNL A   1      41.117  27.935  28.877  1.00  0.00     0.074 A 
ATOM     40  C   UNL A   1      40.320  28.057  27.675  1.00  0.00     0.031 C 
ATOM     41  C   UNL A   1      38.308  32.157  32.838  1.00  0.00     0.029 A 
ATOM     42  C   UNL A   1      39.451  31.292  33.130  1.00  0.00     0.049 A 
ATOM     43  H   UNL A   1      40.432  30.015  31.810  1.00  0.00     0.167 HD
ATOM     44  C   UNL A   1      42.195  27.125  29.001  1.00  0.00     0.037 A 
ATOM     45  C   UNL A   1      40.076  31.184  34.318  1.00  0.00     0.037 A 
ATOM     46  C   UNL A   1      42.982  27.013  30.200  1.00  0.00     0.049 A 
ATOM     47  C   UNL A   1      41.230  30.227  34.459  1.00  0.00     0.074 A 
ATOM     48  C   UNL A   1      44.102  26.235  30.430  1.00  0.00     0.029 A 
ATOM     49  N   UNL A   1      42.719  27.697  31.378  1.00  0.00    -0.354 N 
ATOM     50  N   UNL A   1      41.756  29.427  33.561  1.00  0.00    -0.248 NA
ATOM     51  C   UNL A   1      41.877  30.156  35.776  1.00  0.00     0.031 C 
ATOM     52  C   UNL A   1      44.487  26.410  31.763  1.00  0.00     0.029 A 
ATOM     53  C   UNL A   1      43.642  27.340  32.348  1.00  0.00     0.049 A 
ATOM     54  H   UNL A   1      41.986  28.341  31.507  1.00  0.00     0.167 HD
ATOM     55  C   UNL A   1      42.810  28.781  34.193  1.00  0.00     0.074 A 
ATOM     56  C   UNL A   1      42.851  29.282  35.552  1.00  0.00     0.031 C 
ATOM     57  C   UNL A   1      43.672  27.861  33.692  1.00  0.00     0.037 A 
BRANCH  44  58
ATOM     58  C   UNL A   1      42.549  26.266  27.823  1.00  0.00     0.064 A 
ATOM     59  C   UNL A   1      43.513  26.655  26.881  1.00  0.00     0.173 A 
ATOM     60  C   UNL A   1      41.908  25.032  27.633  1.00  0.00     0.173 A 
ATOM     61  F   UNL A   1      44.143  27.832  27.007  1.00  0.00    -0.203 F 
ATOM     62  C   UNL A   1      43.797  25.857  25.775  1.00  0.00     0.198 A 
ATOM     63  C   UNL A   1      42.216  24.223  26.542  1.00  0.00     0.198 A 
ATOM     64  F   UNL A   1      40.980  24.610  28.505  1.00  0.00    -0.203 F 
ATOM     65  F   UNL A   1      44.679  26.276  24.857  1.00  0.00    -0.200 F 
ATOM     66  C   UNL A   1      43.152  24.641  25.609  1.00  0.00     0.200 A 
ATOM     67  F   UNL A   1      41.598  23.043  26.389  1.00  0.00    -0.200 F 
ATOM     68  F   UNL A   1      43.423  23.876  24.542  1.00  0.00    -0.200 F 
ENDBRANCH  44  58
BRANCH  45  69
ATOM     69  C   UNL A   1      39.598  31.990  35.469  1.00  0.00     0.064 A 
ATOM     70  C   UNL A   1      40.078  33.285  35.696  1.00  0.00     0.173 A 
ATOM     71  C   UNL A   1      38.627  31.488  36.349  1.00  0.00     0.173 A 
ATOM     72  F   UNL A   1      41.024  33.799  34.895  1.00  0.00    -0.203 F 
ATOM     73  C   UNL A   1      39.607  34.050  36.762  1.00  0.00     0.198 A 
ATOM     74  C   UNL A   1      38.139  32.263  37.399  1.00  0.00     0.198 A 
ATOM     75  F   UNL A   1      38.135  30.253  36.174  1.00  0.00    -0.203 F 
ATOM     76  F   UNL A   1      40.102  35.277  36.974  1.00  0.00    -0.200 F 
ATOM     77  C   UNL A   1      38.631  33.542  37.606  1.00  0.00     0.200 A 
ATOM     78  F   UNL A   1      37.186  31.772  38.204  1.00  0.00    -0.200 F 
ATOM     79  F   UNL A   1      38.168  34.283  38.621  1.00  0.00    -0.200 F 
ENDBRANCH  45  69
BRANCH  57  80
ATOM     80  C   UNL A   1      44.762  27.367  34.595  1.00  0.00     0.064 A 
ATOM     81  C   UNL A   1      45.980  28.049  34.725  1.00  0.00     0.173 A 
ATOM     82  C   UNL A   1      44.554  26.233  35.396  1.00  0.00     0.173 A 
ATOM     83  F   UNL A   1      46.232  29.129  33.971  1.00  0.00    -0.203 F 
ATOM     84  C   UNL A   1      46.956  27.604  35.614  1.00  0.00     0.198 A 
ATOM     85  C   UNL A   1      45.520  25.808  36.303  1.00  0.00     0.198 A 
ATOM     86  F   UNL A   1      43.401  25.551  35.315  1.00  0.00    -0.203 F 
ATOM     87  F   UNL A   1      48.126  28.251  35.698  1.00  0.00    -0.200 F 
ATOM     88  C   UNL A   1      46.722  26.492  36.409  1.00  0.00     0.200 A 
ATOM     89  F   UNL A   1      45.285  24.741  37.079  1.00  0.00    -0.200 F 
ATOM     90  F   UNL A   1      47.656  26.075  37.275  1.00  0.00    -0.200 F 
ENDBRANCH  57  80
ENDBRANCH  31  32
ENDBRANCH  24  26
ENDBRANCH  23  24
ENDBRANCH  22  23
ENDBRANCH  21  22
ENDBRANCH   1  21
TORSDOF 16
ENDMDL
MODEL 3
REMARK VINA RESULT:     -11.0      4.600      7.298
REMARK SMILES C[C@H]([NH2+][C@@H]1CCOC2(CCC2)C1)C(=O)OCCOCCOC(=O)c1ccc(-c2c3nc(c(-c4c(F)c(F)c(F)c(F)c4F)c4ccc([nH]4)c(-c4c(F)c(F)c(F)c(F)c4F)c4nc(c(-c5c(F)c(F)c(F)c(F)c5F)c5ccc2[nH]5)C=C4)C=C3)cc1
REMARK SMILES IDX 18 1 17 2 16 3 15 4 13 5 14 6 2 7 1 8 3 9 4 12 5 13 12 14
REMARK SMILES IDX 6 15 8 16 7 17 9 18 11 19 10 20 19 21 20 22 21 23 22 24
REMARK SMILES IDX 23 25 24 26 25 27 86 28 26 29 85 30 27 31 28 32 29 33 79 34
REMARK SMILES IDX 30 35 84 36 78 37 80 38 31 39 83 40 77 41 76 42 32 44 64 45
REMARK SMILES IDX 44 46 63 47 45 48 48 49 62 50 81 51 46 52 47 53 61 55 82 56
REMARK SMILES IDX 49 57 33 58 34 59 42 60 35 61 36 62 40 63 43 64 37 65 38 66
REMARK SMILES IDX 41 67 39 68 65 69 66 70 74 71 67 72 68 73 72 74 75 75 69 76
REMARK SMILES IDX 70 77 73 78 71 79 50 80 51 81 59 82 52 83 53 84 57 85 60 86
REMARK SMILES IDX 54 87 55 88 58 89 56 90
REMARK H PARENT 3 10 3 11 80 43 48 54
REMARK Flexibility Score: inf
ROOT
ATOM      1  O   UNL A   1      36.683  21.308  25.755  1.00  0.00    -0.374 OA
ENDROOT
BRANCH   1   2
ATOM      2  C   UNL A   1      36.170  22.608  25.490  1.00  0.00     0.202 C 
BRANCH   2   3
ATOM      3  C   UNL A   1      35.101  23.186  26.432  1.00  0.00     0.261 C 
BRANCH   3   4
ATOM      4  O   UNL A   1      34.499  22.194  27.274  1.00  0.00    -0.459 OA
BRANCH   4   5
ATOM      5  C   UNL A   1      33.134  22.240  27.349  1.00  0.00     0.364 C 
ATOM      6  O   UNL A   1      32.508  22.621  28.329  1.00  0.00    -0.245 OA
BRANCH   5   7
ATOM      7  C   UNL A   1      32.511  21.868  25.985  1.00  0.00     0.290 C 
ATOM      8  C   UNL A   1      31.096  22.420  25.941  1.00  0.00     0.088 C 
BRANCH   7   9
ATOM      9  N   UNL A   1      32.813  20.488  25.630  1.00  0.00    -0.332 N 
ATOM     10  H   UNL A   1      31.913  20.010  25.683  1.00  0.00     0.347 HD
ATOM     11  H   UNL A   1      33.599  20.345  26.264  1.00  0.00     0.347 HD
BRANCH   9  12
ATOM     12  C   UNL A   1      33.428  19.968  24.420  1.00  0.00     0.188 C 
ATOM     13  C   UNL A   1      32.654  19.918  23.104  1.00  0.00     0.093 C 
ATOM     14  C   UNL A   1      34.279  18.716  24.625  1.00  0.00     0.100 C 
ATOM     15  C   UNL A   1      32.049  18.572  22.733  1.00  0.00     0.167 C 
ATOM     16  C   UNL A   1      33.495  17.429  24.416  1.00  0.00     0.074 C 
ATOM     17  O   UNL A   1      32.800  17.441  23.145  1.00  0.00    -0.375 OA
ATOM     18  C   UNL A   1      34.430  16.178  24.533  1.00  0.00     0.036 C 
ATOM     19  C   UNL A   1      32.765  16.853  25.666  1.00  0.00     0.036 C 
ATOM     20  C   UNL A   1      33.308  15.467  25.302  1.00  0.00     0.006 C 
ENDBRANCH   9  12
ENDBRANCH   7   9
ENDBRANCH   5   7
ENDBRANCH   4   5
ENDBRANCH   3   4
ENDBRANCH   2   3
ENDBRANCH   1   2
BRANCH   1  21
ATOM     21  C   UNL A   1      37.460  20.647  24.761  1.00  0.00     0.202 C 
BRANCH  21  22
ATOM     22  C   UNL A   1      38.717  19.864  25.175  1.00  0.00     0.261 C 
BRANCH  22  23
ATOM     23  O   UNL A   1      39.192  20.196  26.492  1.00  0.00    -0.460 OA
BRANCH  23  24
ATOM     24  C   UNL A   1      40.489  20.587  26.549  1.00  0.00     0.338 C 
ATOM     25  O   UNL A   1      41.456  20.019  26.074  1.00  0.00    -0.246 OA
BRANCH  24  26
ATOM     26  C   UNL A   1      40.596  21.932  27.137  1.00  0.00     0.060 A 
ATOM     27  C   UNL A   1      39.835  22.960  26.564  1.00  0.00     0.016 A 
ATOM     28  C   UNL A   1      41.560  22.212  28.106  1.00  0.00     0.016 A 
ATOM     29  C   UNL A   1      40.071  24.286  26.920  1.00  0.00     0.010 A 
ATOM     30  C   UNL A   1      41.810  23.543  28.447  1.00  0.00     0.010 A 
ATOM     31  C   UNL A   1      41.100  24.584  27.821  1.00  0.00    -0.014 A 
BRANCH  31  32
ATOM     32  C   UNL A   1      41.582  25.980  27.943  1.00  0.00     0.031 A 
ATOM     33  C   UNL A   1      42.938  26.318  27.392  1.00  0.00     0.074 A 
ATOM     34  C   UNL A   1      40.830  26.925  28.529  1.00  0.00     0.049 A 
ATOM     35  N   UNL A   1      43.624  27.427  27.489  1.00  0.00    -0.248 NA
ATOM     36  C   UNL A   1      43.613  25.255  26.631  1.00  0.00     0.031 C 
ATOM     37  C   UNL A   1      39.475  26.728  29.038  1.00  0.00     0.029 A 
ATOM     38  N   UNL A   1      41.114  28.238  28.809  1.00  0.00    -0.354 N 
ATOM     39  C   UNL A   1      44.819  27.188  26.822  1.00  0.00     0.074 A 
ATOM     40  C   UNL A   1      44.771  25.826  26.336  1.00  0.00     0.031 C 
ATOM     41  C   UNL A   1      39.056  27.873  29.602  1.00  0.00     0.029 A 
ATOM     42  C   UNL A   1      40.128  28.865  29.527  1.00  0.00     0.049 A 
ATOM     43  H   UNL A   1      41.943  28.684  28.524  1.00  0.00     0.167 HD
ATOM     44  C   UNL A   1      45.863  28.030  26.637  1.00  0.00     0.037 A 
ATOM     45  C   UNL A   1      40.114  30.087  30.093  1.00  0.00     0.037 A 
ATOM     46  C   UNL A   1      45.901  29.383  27.124  1.00  0.00     0.049 A 
ATOM     47  C   UNL A   1      41.312  30.986  29.937  1.00  0.00     0.074 A 
ATOM     48  C   UNL A   1      46.902  30.327  26.981  1.00  0.00     0.029 A 
ATOM     49  N   UNL A   1      44.887  29.981  27.861  1.00  0.00    -0.354 N 
ATOM     50  N   UNL A   1      42.440  30.759  29.306  1.00  0.00    -0.248 NA
ATOM     51  C   UNL A   1      41.237  32.310  30.571  1.00  0.00     0.031 C 
ATOM     52  C   UNL A   1      46.516  31.479  27.674  1.00  0.00     0.029 A 
ATOM     53  C   UNL A   1      45.250  31.274  28.201  1.00  0.00     0.049 A 
ATOM     54  H   UNL A   1      44.037  29.550  28.105  1.00  0.00     0.167 HD
ATOM     55  C   UNL A   1      43.195  31.916  29.441  1.00  0.00     0.074 A 
ATOM     56  C   UNL A   1      42.398  32.846  30.215  1.00  0.00     0.031 C 
ATOM     57  C   UNL A   1      44.434  32.187  28.962  1.00  0.00     0.037 A 
BRANCH  44  58
ATOM     58  C   UNL A   1      47.065  27.489  25.920  1.00  0.00     0.064 A 
ATOM     59  C   UNL A   1      48.099  26.825  26.597  1.00  0.00     0.173 A 
ATOM     60  C   UNL A   1      47.184  27.641  24.529  1.00  0.00     0.173 A 
ATOM     61  F   UNL A   1      48.041  26.668  27.928  1.00  0.00    -0.203 F 
ATOM     62  C   UNL A   1      49.223  26.365  25.914  1.00  0.00     0.198 A 
ATOM     63  C   UNL A   1      48.295  27.154  23.847  1.00  0.00     0.198 A 
ATOM     64  F   UNL A   1      46.223  28.267  23.833  1.00  0.00    -0.203 F 
ATOM     65  F   UNL A   1      50.224  25.785  26.590  1.00  0.00    -0.200 F 
ATOM     66  C   UNL A   1      49.318  26.526  24.541  1.00  0.00     0.200 A 
ATOM     67  F   UNL A   1      48.380  27.302  22.517  1.00  0.00    -0.200 F 
ATOM     68  F   UNL A   1      50.402  26.086  23.885  1.00  0.00    -0.200 F 
ENDBRANCH  44  58
BRANCH  45  69
ATOM     69  C   UNL A   1      38.930  30.512  30.881  1.00  0.00     0.064 A 
ATOM     70  C   UNL A   1      38.880  30.333  32.269  1.00  0.00     0.173 A 
ATOM     71  C   UNL A   1      37.835  31.134  30.261  1.00  0.00     0.173 A 
ATOM     72  F   UNL A   1      39.893  29.723  32.902  1.00  0.00    -0.203 F 
ATOM     73  C   UNL A   1      37.778  30.759  33.009  1.00  0.00     0.198 A 
ATOM     74  C   UNL A   1      36.745  31.580  31.005  1.00  0.00     0.198 A 
ATOM     75  F   UNL A   1      37.834  31.328  28.934  1.00  0.00    -0.203 F 
ATOM     76  F   UNL A   1      37.743  30.552  34.332  1.00  0.00    -0.200 F 
ATOM     77  C   UNL A   1      36.716  31.391  32.378  1.00  0.00     0.200 A 
ATOM     78  F   UNL A   1      35.728  32.202  30.393  1.00  0.00    -0.200 F 
ATOM     79  F   UNL A   1      35.665  31.812  33.093  1.00  0.00    -0.200 F 
ENDBRANCH  45  69
BRANCH  57  80
ATOM     80  C   UNL A   1      44.993  33.556  29.216  1.00  0.00     0.064 A 
ATOM     81  C   UNL A   1      45.813  33.827  30.320  1.00  0.00     0.173 A 
ATOM     82  C   UNL A   1      44.760  34.593  28.298  1.00  0.00     0.173 A 
ATOM     83  F   UNL A   1      46.053  32.873  31.232  1.00  0.00    -0.203 F 
ATOM     84  C   UNL A   1      46.368  35.091  30.503  1.00  0.00     0.198 A 
ATOM     85  C   UNL A   1      45.339  35.846  28.471  1.00  0.00     0.198 A 
ATOM     86  F   UNL A   1      43.989  34.381  27.221  1.00  0.00    -0.203 F 
ATOM     87  F   UNL A   1      47.122  35.338  31.583  1.00  0.00    -0.200 F 
ATOM     88  C   UNL A   1      46.140  36.096  29.575  1.00  0.00     0.200 A 
ATOM     89  F   UNL A   1      45.127  36.811  27.565  1.00  0.00    -0.200 F 
ATOM     90  F   UNL A   1      46.688  37.307  29.746  1.00  0.00    -0.200 F 
ENDBRANCH  57  80
ENDBRANCH  31  32
ENDBRANCH  24  26
ENDBRANCH  23  24
ENDBRANCH  22  23
ENDBRANCH  21  22
ENDBRANCH   1  21
TORSDOF 16
ENDMDL
