MODEL 1
REMARK VINA RESULT:     -12.3      0.000      0.000
REMARK SMILES Cc1cc2c(c(C)c1Cl)C=C(C(=O)OCCOCCOC(=O)c1ccc(-c3c4nc(c(-c5c(F)c(F)c(F)c(F)c5F)c5ccc([nH]5)c(-c5c(F)c(F)c(F)c(F)c5F)c5nc(c(-c6c(F)c(F)c(F)c(F)c6F)c6ccc3[nH]6)C=C5)C=C4)cc1)[C@@H](C(F)(F)F)O2
REMARK SMILES IDX 18 1 17 2 16 3 15 4 14 5 12 6 13 7 11 8 1 9 2 10 3 11 8 12
REMARK SMILES IDX 4 13 6 14 9 15 5 16 91 17 7 18 10 19 86 20 87 21 88 22 89 23
REMARK SMILES IDX 90 24 19 25 20 26 21 27 22 28 23 29 24 30 85 31 25 32 84 33
REMARK SMILES IDX 26 34 27 35 28 36 78 37 29 38 83 39 77 40 79 41 30 42 82 43
REMARK SMILES IDX 76 44 75 45 31 47 63 48 43 49 62 50 44 51 47 52 61 53 80 54
REMARK SMILES IDX 45 55 46 56 60 58 81 59 48 60 32 61 33 62 41 63 34 64 35 65
REMARK SMILES IDX 39 66 42 67 36 68 37 69 40 70 38 71 64 72 65 73 73 74 66 75
REMARK SMILES IDX 67 76 71 77 74 78 68 79 69 80 72 81 70 82 49 83 50 84 58 85
REMARK SMILES IDX 51 86 52 87 56 88 59 89 53 90 54 91 57 92 55 93
REMARK H PARENT 79 46 47 57
REMARK Flexibility Score: inf
ROOT
ATOM      1  C   UNL A   1      31.919  29.556  25.210  1.00  0.00     0.202 C 
ENDROOT
BRANCH   1   2
ATOM      2  O   UNL A   1      33.245  29.208  24.808  1.00  0.00    -0.374 OA
BRANCH   2   3
ATOM      3  C   UNL A   1      33.454  28.840  23.446  1.00  0.00     0.202 C 
BRANCH   3   4
ATOM      4  C   UNL A   1      33.202  27.374  23.085  1.00  0.00     0.261 C 
BRANCH   4   5
ATOM      5  O   UNL A   1      33.999  26.489  23.889  1.00  0.00    -0.460 OA
BRANCH   5   6
ATOM      6  C   UNL A   1      33.294  25.759  24.783  1.00  0.00     0.338 C 
ATOM      7  O   UNL A   1      32.256  26.084  25.340  1.00  0.00    -0.246 OA
BRANCH   6   8
ATOM      8  C   UNL A   1      33.893  24.418  24.920  1.00  0.00     0.087 C 
ATOM      9  C   UNL A   1      37.961  19.398  24.843  1.00  0.00     0.046 C 
ATOM     10  C   UNL A   1      37.241  20.689  25.131  1.00  0.00    -0.028 A 
ATOM     11  C   UNL A   1      35.876  20.780  24.833  1.00  0.00     0.052 A 
ATOM     12  C   UNL A   1      37.907  21.824  25.635  1.00  0.00     0.047 A 
ATOM     13  C   UNL A   1      35.193  21.986  24.972  1.00  0.00     0.128 A 
ATOM     14  C   UNL A   1      37.223  23.046  25.822  1.00  0.00    -0.021 A 
ATOM     15  Cl  UNL A   1      39.605  21.701  25.990  1.00  0.00    -0.084 Cl
ATOM     16  C   UNL A   1      35.863  23.128  25.427  1.00  0.00     0.022 A 
ATOM     17  O   UNL A   1      33.869  21.951  24.634  1.00  0.00    -0.475 OA
ATOM     18  C   UNL A   1      37.906  24.262  26.402  1.00  0.00     0.047 C 
ATOM     19  C   UNL A   1      35.143  24.396  25.398  1.00  0.00     0.027 C 
ATOM     20  C   UNL A   1      33.132  23.197  24.505  1.00  0.00     0.316 C 
BRANCH  20  21
ATOM     21  C   UNL A   1      32.589  23.289  23.071  1.00  0.00     0.430 C 
ATOM     22  F   UNL A   1      32.255  22.065  22.595  1.00  0.00    -0.167 F 
ATOM     23  F   UNL A   1      31.467  24.045  23.007  1.00  0.00    -0.167 F 
ATOM     24  F   UNL A   1      33.490  23.826  22.219  1.00  0.00    -0.167 F 
ENDBRANCH  20  21
ENDBRANCH   6   8
ENDBRANCH   5   6
ENDBRANCH   4   5
ENDBRANCH   3   4
ENDBRANCH   2   3
ENDBRANCH   1   2
BRANCH   1  25
ATOM     25  C   UNL A   1      31.759  30.824  26.055  1.00  0.00     0.261 C 
BRANCH  25  26
ATOM     26  O   UNL A   1      32.560  30.780  27.252  1.00  0.00    -0.460 OA
BRANCH  26  27
ATOM     27  C   UNL A   1      33.321  31.878  27.460  1.00  0.00     0.338 C 
ATOM     28  O   UNL A   1      32.954  33.044  27.491  1.00  0.00    -0.246 OA
BRANCH  27  29
ATOM     29  C   UNL A   1      34.691  31.486  27.829  1.00  0.00     0.060 A 
ATOM     30  C   UNL A   1      34.924  30.128  28.091  1.00  0.00     0.016 A 
ATOM     31  C   UNL A   1      35.691  32.436  28.038  1.00  0.00     0.016 A 
ATOM     32  C   UNL A   1      36.143  29.723  28.629  1.00  0.00     0.010 A 
ATOM     33  C   UNL A   1      36.907  32.030  28.595  1.00  0.00     0.010 A 
ATOM     34  C   UNL A   1      37.117  30.681  28.937  1.00  0.00    -0.014 A 
BRANCH  34  35
ATOM     35  C   UNL A   1      38.253  30.304  29.809  1.00  0.00     0.031 A 
ATOM     36  C   UNL A   1      39.302  29.379  29.255  1.00  0.00     0.074 A 
ATOM     37  C   UNL A   1      38.377  30.805  31.049  1.00  0.00     0.049 A 
ATOM     38  N   UNL A   1      40.344  28.853  29.846  1.00  0.00    -0.248 NA
ATOM     39  C   UNL A   1      39.158  29.000  27.839  1.00  0.00     0.031 C 
ATOM     40  C   UNL A   1      37.468  31.768  31.665  1.00  0.00     0.029 A 
ATOM     41  N   UNL A   1      39.326  30.569  32.010  1.00  0.00    -0.354 N 
ATOM     42  C   UNL A   1      40.978  28.085  28.877  1.00  0.00     0.074 A 
ATOM     43  C   UNL A   1      40.192  28.190  27.668  1.00  0.00     0.031 C 
ATOM     44  C   UNL A   1      37.900  32.036  32.909  1.00  0.00     0.029 A 
ATOM     45  C   UNL A   1      39.091  31.235  33.187  1.00  0.00     0.049 A 
ATOM     46  H   UNL A   1      40.101  29.977  31.870  1.00  0.00     0.167 HD
ATOM     47  C   UNL A   1      42.117  27.362  28.987  1.00  0.00     0.037 A 
ATOM     48  C   UNL A   1      39.751  31.180  34.360  1.00  0.00     0.037 A 
ATOM     49  C   UNL A   1      42.892  27.252  30.192  1.00  0.00     0.049 A 
ATOM     50  C   UNL A   1      40.955  30.283  34.488  1.00  0.00     0.074 A 
ATOM     51  C   UNL A   1      44.051  26.531  30.411  1.00  0.00     0.029 A 
ATOM     52  N   UNL A   1      42.581  27.884  31.387  1.00  0.00    -0.354 N 
ATOM     53  N   UNL A   1      41.533  29.534  33.579  1.00  0.00    -0.248 NA
ATOM     54  C   UNL A   1      41.593  30.215  35.811  1.00  0.00     0.031 C 
ATOM     55  C   UNL A   1      44.420  26.693  31.751  1.00  0.00     0.029 A 
ATOM     56  C   UNL A   1      43.515  27.551  32.354  1.00  0.00     0.049 A 
ATOM     57  H   UNL A   1      41.811  28.482  31.527  1.00  0.00     0.167 HD
ATOM     58  C   UNL A   1      42.603  28.918  34.214  1.00  0.00     0.074 A 
ATOM     59  C   UNL A   1      42.611  29.398  35.581  1.00  0.00     0.031 C 
ATOM     60  C   UNL A   1      43.498  28.031  33.712  1.00  0.00     0.037 A 
BRANCH  47  61
ATOM     61  C   UNL A   1      42.579  26.612  27.773  1.00  0.00     0.064 A 
ATOM     62  C   UNL A   1      43.456  27.190  26.844  1.00  0.00     0.173 A 
ATOM     63  C   UNL A   1      42.169  25.288  27.557  1.00  0.00     0.173 A 
ATOM     64  F   UNL A   1      43.860  28.460  26.998  1.00  0.00    -0.203 F 
ATOM     65  C   UNL A   1      43.896  26.473  25.735  1.00  0.00     0.198 A 
ATOM     66  C   UNL A   1      42.631  24.567  26.460  1.00  0.00     0.198 A 
ATOM     67  F   UNL A   1      41.329  24.691  28.416  1.00  0.00    -0.203 F 
ATOM     68  F   UNL A   1      44.706  27.056  24.840  1.00  0.00    -0.200 F 
ATOM     69  C   UNL A   1      43.490  25.160  25.547  1.00  0.00     0.200 A 
ATOM     70  F   UNL A   1      42.243  23.296  26.284  1.00  0.00    -0.200 F 
ATOM     71  F   UNL A   1      43.921  24.469  24.484  1.00  0.00    -0.200 F 
ENDBRANCH  47  61
BRANCH  48  72
ATOM     72  C   UNL A   1      39.275  31.981  35.516  1.00  0.00     0.064 A 
ATOM     73  C   UNL A   1      38.411  31.428  36.469  1.00  0.00     0.173 A 
ATOM     74  C   UNL A   1      39.667  33.318  35.686  1.00  0.00     0.173 A 
ATOM     75  F   UNL A   1      37.984  30.165  36.333  1.00  0.00    -0.203 F 
ATOM     76  C   UNL A   1      37.951  32.183  37.547  1.00  0.00     0.198 A 
ATOM     77  C   UNL A   1      39.227  34.064  36.776  1.00  0.00     0.198 A 
ATOM     78  F   UNL A   1      40.488  33.895  34.795  1.00  0.00    -0.203 F 
ATOM     79  F   UNL A   1      37.095  31.643  38.424  1.00  0.00    -0.200 F 
ATOM     80  C   UNL A   1      38.364  33.498  37.703  1.00  0.00     0.200 A 
ATOM     81  F   UNL A   1      39.636  35.330  36.928  1.00  0.00    -0.200 F 
ATOM     82  F   UNL A   1      37.927  34.222  38.742  1.00  0.00    -0.200 F 
ENDBRANCH  48  72
BRANCH  60  83
ATOM     83  C   UNL A   1      44.559  27.521  34.644  1.00  0.00     0.064 A 
ATOM     84  C   UNL A   1      44.379  26.339  35.377  1.00  0.00     0.173 A 
ATOM     85  C   UNL A   1      45.783  28.194  34.770  1.00  0.00     0.173 A 
ATOM     86  F   UNL A   1      43.221  25.666  35.301  1.00  0.00    -0.203 F 
ATOM     87  C   UNL A   1      45.380  25.862  36.221  1.00  0.00     0.198 A 
ATOM     88  C   UNL A   1      46.792  27.698  35.592  1.00  0.00     0.198 A 
ATOM     89  F   UNL A   1      46.008  29.325  34.083  1.00  0.00    -0.203 F 
ATOM     90  F   UNL A   1      45.170  24.753  36.944  1.00  0.00    -0.200 F 
ATOM     91  C   UNL A   1      46.587  26.537  36.321  1.00  0.00     0.200 A 
ATOM     92  F   UNL A   1      47.963  28.345  35.678  1.00  0.00    -0.200 F 
ATOM     93  F   UNL A   1      47.551  26.072  37.128  1.00  0.00    -0.200 F 
ENDBRANCH  60  83
ENDBRANCH  34  35
ENDBRANCH  27  29
ENDBRANCH  26  27
ENDBRANCH  25  26
ENDBRANCH   1  25
TORSDOF 15
ENDMDL
MODEL 2
REMARK VINA RESULT:     -12.1      4.240      9.918
REMARK SMILES Cc1cc2c(c(C)c1Cl)C=C(C(=O)OCCOCCOC(=O)c1ccc(-c3c4nc(c(-c5c(F)c(F)c(F)c(F)c5F)c5ccc([nH]5)c(-c5c(F)c(F)c(F)c(F)c5F)c5nc(c(-c6c(F)c(F)c(F)c(F)c6F)c6ccc3[nH]6)C=C5)C=C4)cc1)[C@@H](C(F)(F)F)O2
REMARK SMILES IDX 18 1 17 2 16 3 15 4 14 5 12 6 13 7 11 8 1 9 2 10 3 11 8 12
REMARK SMILES IDX 4 13 6 14 9 15 5 16 91 17 7 18 10 19 86 20 87 21 88 22 89 23
REMARK SMILES IDX 90 24 19 25 20 26 21 27 22 28 23 29 24 30 85 31 25 32 84 33
REMARK SMILES IDX 26 34 27 35 28 36 78 37 29 38 83 39 77 40 79 41 30 42 82 43
REMARK SMILES IDX 76 44 75 45 31 47 63 48 43 49 62 50 44 51 47 52 61 53 80 54
REMARK SMILES IDX 45 55 46 56 60 58 81 59 48 60 32 61 33 62 41 63 34 64 35 65
REMARK SMILES IDX 39 66 42 67 36 68 37 69 40 70 38 71 64 72 65 73 73 74 66 75
REMARK SMILES IDX 67 76 71 77 74 78 68 79 69 80 72 81 70 82 49 83 50 84 58 85
REMARK SMILES IDX 51 86 52 87 56 88 59 89 53 90 54 91 57 92 55 93
REMARK H PARENT 79 46 47 57
REMARK Flexibility Score: inf
ROOT
ATOM      1  C   UNL A   1      35.855  20.893  25.314  1.00  0.00     0.202 C 
ENDROOT
BRANCH   1   2
ATOM      2  O   UNL A   1      35.553  22.043  26.105  1.00  0.00    -0.374 OA
BRANCH   2   3
ATOM      3  C   UNL A   1      34.432  21.974  26.982  1.00  0.00     0.202 C 
BRANCH   3   4
ATOM      4  C   UNL A   1      33.259  22.907  26.671  1.00  0.00     0.261 C 
BRANCH   4   5
ATOM      5  O   UNL A   1      33.708  24.240  26.382  1.00  0.00    -0.460 OA
BRANCH   5   6
ATOM      6  C   UNL A   1      33.534  24.623  25.097  1.00  0.00     0.338 C 
ATOM      7  O   UNL A   1      33.665  23.928  24.100  1.00  0.00    -0.246 OA
BRANCH   6   8
ATOM      8  C   UNL A   1      33.029  26.008  25.050  1.00  0.00     0.087 C 
ATOM      9  C   UNL A   1      31.232  32.017  26.601  1.00  0.00     0.046 C 
ATOM     10  C   UNL A   1      31.993  30.753  26.305  1.00  0.00    -0.028 A 
ATOM     11  C   UNL A   1      31.419  29.806  25.448  1.00  0.00     0.052 A 
ATOM     12  C   UNL A   1      33.234  30.465  26.908  1.00  0.00     0.047 A 
ATOM     13  C   UNL A   1      32.029  28.571  25.236  1.00  0.00     0.128 A 
ATOM     14  C   UNL A   1      33.889  29.235  26.672  1.00  0.00    -0.021 A 
ATOM     15  Cl  UNL A   1      33.931  31.643  27.979  1.00  0.00    -0.084 Cl
ATOM     16  C   UNL A   1      33.238  28.263  25.870  1.00  0.00     0.022 A 
ATOM     17  O   UNL A   1      31.362  27.728  24.392  1.00  0.00    -0.475 OA
ATOM     18  C   UNL A   1      35.240  28.923  27.272  1.00  0.00     0.047 C 
ATOM     19  C   UNL A   1      33.746  26.902  25.741  1.00  0.00     0.027 C 
ATOM     20  C   UNL A   1      31.776  26.338  24.298  1.00  0.00     0.316 C 
BRANCH  20  21
ATOM     21  C   UNL A   1      30.587  25.453  24.698  1.00  0.00     0.430 C 
ATOM     22  F   UNL A   1      30.665  25.090  26.001  1.00  0.00    -0.167 F 
ATOM     23  F   UNL A   1      29.407  26.099  24.549  1.00  0.00    -0.167 F 
ATOM     24  F   UNL A   1      30.526  24.319  23.963  1.00  0.00    -0.167 F 
ENDBRANCH  20  21
ENDBRANCH   6   8
ENDBRANCH   5   6
ENDBRANCH   4   5
ENDBRANCH   3   4
ENDBRANCH   2   3
ENDBRANCH   1   2
BRANCH   1  25
ATOM     25  C   UNL A   1      37.335  20.617  25.024  1.00  0.00     0.261 C 
BRANCH  25  26
ATOM     26  O   UNL A   1      38.167  21.749  25.341  1.00  0.00    -0.460 OA
BRANCH  26  27
ATOM     27  C   UNL A   1      39.244  21.458  26.106  1.00  0.00     0.338 C 
ATOM     28  O   UNL A   1      39.866  20.407  26.148  1.00  0.00    -0.246 OA
BRANCH  27  29
ATOM     29  C   UNL A   1      39.716  22.666  26.801  1.00  0.00     0.060 A 
ATOM     30  C   UNL A   1      39.103  23.883  26.470  1.00  0.00     0.016 A 
ATOM     31  C   UNL A   1      40.815  22.632  27.661  1.00  0.00     0.016 A 
ATOM     32  C   UNL A   1      39.630  25.080  26.945  1.00  0.00     0.010 A 
ATOM     33  C   UNL A   1      41.353  23.836  28.123  1.00  0.00     0.010 A 
ATOM     34  C   UNL A   1      40.792  25.064  27.726  1.00  0.00    -0.014 A 
BRANCH  34  35
ATOM     35  C   UNL A   1      41.537  26.325  27.942  1.00  0.00     0.031 A 
ATOM     36  C   UNL A   1      40.868  27.426  28.720  1.00  0.00     0.074 A 
ATOM     37  C   UNL A   1      42.796  26.478  27.498  1.00  0.00     0.049 A 
ATOM     38  N   UNL A   1      41.288  28.639  28.975  1.00  0.00    -0.248 NA
ATOM     39  C   UNL A   1      39.548  27.113  29.292  1.00  0.00     0.031 C 
ATOM     40  C   UNL A   1      43.574  25.456  26.802  1.00  0.00     0.029 A 
ATOM     41  N   UNL A   1      43.638  27.557  27.572  1.00  0.00    -0.354 N 
ATOM     42  C   UNL A   1      40.287  29.230  29.735  1.00  0.00     0.074 A 
ATOM     43  C   UNL A   1      39.228  28.256  29.880  1.00  0.00     0.031 C 
ATOM     44  C   UNL A   1      44.783  25.962  26.504  1.00  0.00     0.029 A 
ATOM     45  C   UNL A   1      44.847  27.352  26.954  1.00  0.00     0.049 A 
ATOM     46  H   UNL A   1      43.399  28.398  28.024  1.00  0.00     0.167 HD
ATOM     47  C   UNL A   1      40.258  30.474  30.270  1.00  0.00     0.037 A 
ATOM     48  C   UNL A   1      45.872  28.201  26.755  1.00  0.00     0.037 A 
ATOM     49  C   UNL A   1      41.308  31.443  30.120  1.00  0.00     0.049 A 
ATOM     50  C   UNL A   1      45.771  29.615  27.267  1.00  0.00     0.074 A 
ATOM     51  C   UNL A   1      41.367  32.736  30.607  1.00  0.00     0.029 A 
ATOM     52  N   UNL A   1      42.488  31.223  29.423  1.00  0.00    -0.354 N 
ATOM     53  N   UNL A   1      44.810  30.180  27.959  1.00  0.00    -0.248 NA
ATOM     54  C   UNL A   1      46.894  30.513  26.961  1.00  0.00     0.031 C 
ATOM     55  C   UNL A   1      42.565  33.313  30.171  1.00  0.00     0.029 A 
ATOM     56  C   UNL A   1      43.271  32.365  29.449  1.00  0.00     0.049 A 
ATOM     57  H   UNL A   1      42.732  30.380  28.976  1.00  0.00     0.167 HD
ATOM     58  C   UNL A   1      45.215  31.489  28.179  1.00  0.00     0.074 A 
ATOM     59  C   UNL A   1      46.521  31.631  27.568  1.00  0.00     0.031 C 
ATOM     60  C   UNL A   1      44.564  32.488  28.824  1.00  0.00     0.037 A 
BRANCH  47  61
ATOM     61  C   UNL A   1      39.038  30.862  31.049  1.00  0.00     0.064 A 
ATOM     62  C   UNL A   1      38.967  30.684  32.439  1.00  0.00     0.173 A 
ATOM     63  C   UNL A   1      37.941  31.455  30.404  1.00  0.00     0.173 A 
ATOM     64  F   UNL A   1      39.982  30.105  33.097  1.00  0.00    -0.203 F 
ATOM     65  C   UNL A   1      37.837  31.073  33.152  1.00  0.00     0.198 A 
ATOM     66  C   UNL A   1      36.823  31.864  31.125  1.00  0.00     0.198 A 
ATOM     67  F   UNL A   1      37.960  31.645  29.077  1.00  0.00    -0.203 F 
ATOM     68  F   UNL A   1      37.775  30.861  34.474  1.00  0.00    -0.200 F 
ATOM     69  C   UNL A   1      36.769  31.669  32.497  1.00  0.00     0.200 A 
ATOM     70  F   UNL A   1      35.796  32.447  30.491  1.00  0.00    -0.200 F 
ATOM     71  F   UNL A   1      35.685  32.051  33.187  1.00  0.00    -0.200 F 
ENDBRANCH  47  61
BRANCH  48  72
ATOM     72  C   UNL A   1      47.078  27.747  26.016  1.00  0.00     0.064 A 
ATOM     73  C   UNL A   1      47.117  27.771  24.616  1.00  0.00     0.173 A 
ATOM     74  C   UNL A   1      48.211  27.270  26.694  1.00  0.00     0.173 A 
ATOM     75  F   UNL A   1      46.048  28.188  23.924  1.00  0.00    -0.203 F 
ATOM     76  C   UNL A   1      48.242  27.330  23.921  1.00  0.00     0.198 A 
ATOM     77  C   UNL A   1      49.343  26.855  25.999  1.00  0.00     0.198 A 
ATOM     78  F   UNL A   1      48.219  27.220  28.035  1.00  0.00    -0.203 F 
ATOM     79  F   UNL A   1      48.240  27.328  22.581  1.00  0.00    -0.200 F 
ATOM     80  C   UNL A   1      49.356  26.878  24.612  1.00  0.00     0.200 A 
ATOM     81  F   UNL A   1      50.420  26.427  26.671  1.00  0.00    -0.200 F 
ATOM     82  F   UNL A   1      50.439  26.461  23.944  1.00  0.00    -0.200 F 
ENDBRANCH  48  72
BRANCH  60  83
ATOM     83  C   UNL A   1      45.251  33.820  28.905  1.00  0.00     0.064 A 
ATOM     84  C   UNL A   1      45.073  34.794  27.910  1.00  0.00     0.173 A 
ATOM     85  C   UNL A   1      46.056  34.144  30.006  1.00  0.00     0.173 A 
ATOM     86  F   UNL A   1      44.323  34.527  26.831  1.00  0.00    -0.203 F 
ATOM     87  C   UNL A   1      45.697  36.036  28.006  1.00  0.00     0.198 A 
ATOM     88  C   UNL A   1      46.654  35.397  30.113  1.00  0.00     0.198 A 
ATOM     89  F   UNL A   1      46.251  33.251  30.989  1.00  0.00    -0.203 F 
ATOM     90  F   UNL A   1      45.547  36.935  27.024  1.00  0.00    -0.200 F 
ATOM     91  C   UNL A   1      46.480  36.338  29.110  1.00  0.00     0.200 A 
ATOM     92  F   UNL A   1      47.400  35.693  31.187  1.00  0.00    -0.200 F 
ATOM     93  F   UNL A   1      47.072  37.537  29.204  1.00  0.00    -0.200 F 
ENDBRANCH  60  83
ENDBRANCH  34  35
ENDBRANCH  27  29
ENDBRANCH  26  27
ENDBRANCH  25  26
ENDBRANCH   1  25
TORSDOF 15
ENDMDL
MODEL 3
REMARK VINA RESULT:     -12.1      4.258      9.902
REMARK SMILES Cc1cc2c(c(C)c1Cl)C=C(C(=O)OCCOCCOC(=O)c1ccc(-c3c4nc(c(-c5c(F)c(F)c(F)c(F)c5F)c5ccc([nH]5)c(-c5c(F)c(F)c(F)c(F)c5F)c5nc(c(-c6c(F)c(F)c(F)c(F)c6F)c6ccc3[nH]6)C=C5)C=C4)cc1)[C@@H](C(F)(F)F)O2
REMARK SMILES IDX 18 1 17 2 16 3 15 4 14 5 12 6 13 7 11 8 1 9 2 10 3 11 8 12
REMARK SMILES IDX 4 13 6 14 9 15 5 16 91 17 7 18 10 19 86 20 87 21 88 22 89 23
REMARK SMILES IDX 90 24 19 25 20 26 21 27 22 28 23 29 24 30 85 31 25 32 84 33
REMARK SMILES IDX 26 34 27 35 28 36 78 37 29 38 83 39 77 40 79 41 30 42 82 43
REMARK SMILES IDX 76 44 75 45 31 47 63 48 43 49 62 50 44 51 47 52 61 53 80 54
REMARK SMILES IDX 45 55 46 56 60 58 81 59 48 60 32 61 33 62 41 63 34 64 35 65
REMARK SMILES IDX 39 66 42 67 36 68 37 69 40 70 38 71 64 72 65 73 73 74 66 75
REMARK SMILES IDX 67 76 71 77 74 78 68 79 69 80 72 81 70 82 49 83 50 84 58 85
REMARK SMILES IDX 51 86 52 87 56 88 59 89 53 90 54 91 57 92 55 93
REMARK H PARENT 79 46 47 57
REMARK Flexibility Score: inf
ROOT
ATOM      1  C   UNL A   1      35.807  20.857  25.246  1.00  0.00     0.202 C 
ENDROOT
BRANCH   1   2
ATOM      2  O   UNL A   1      35.449  22.068  25.912  1.00  0.00    -0.374 OA
BRANCH   2   3
ATOM      3  C   UNL A   1      34.399  22.014  26.875  1.00  0.00     0.202 C 
BRANCH   3   4
ATOM      4  C   UNL A   1      33.184  22.909  26.616  1.00  0.00     0.261 C 
BRANCH   4   5
ATOM      5  O   UNL A   1      33.575  24.269  26.366  1.00  0.00    -0.460 OA
BRANCH   5   6
ATOM      6  C   UNL A   1      33.449  24.659  25.077  1.00  0.00     0.338 C 
ATOM      7  O   UNL A   1      33.604  23.967  24.083  1.00  0.00    -0.246 OA
BRANCH   6   8
ATOM      8  C   UNL A   1      32.963  26.050  25.019  1.00  0.00     0.087 C 
ATOM      9  C   UNL A   1      31.234  32.090  26.529  1.00  0.00     0.046 C 
ATOM     10  C   UNL A   1      31.980  30.814  26.246  1.00  0.00    -0.028 A 
ATOM     11  C   UNL A   1      31.402  29.872  25.386  1.00  0.00     0.052 A 
ATOM     12  C   UNL A   1      33.211  30.511  26.862  1.00  0.00     0.047 A 
ATOM     13  C   UNL A   1      31.997  28.628  25.185  1.00  0.00     0.128 A 
ATOM     14  C   UNL A   1      33.851  29.271  26.639  1.00  0.00    -0.021 A 
ATOM     15  Cl  UNL A   1      33.912  31.684  27.937  1.00  0.00    -0.084 Cl
ATOM     16  C   UNL A   1      33.195  28.306  25.833  1.00  0.00     0.022 A 
ATOM     17  O   UNL A   1      31.328  27.791  24.337  1.00  0.00    -0.475 OA
ATOM     18  C   UNL A   1      35.191  28.943  27.254  1.00  0.00     0.047 C 
ATOM     19  C   UNL A   1      33.685  26.937  25.715  1.00  0.00     0.027 C 
ATOM     20  C   UNL A   1      31.723  26.395  24.253  1.00  0.00     0.316 C 
BRANCH  20  21
ATOM     21  C   UNL A   1      30.518  25.528  24.644  1.00  0.00     0.430 C 
ATOM     22  F   UNL A   1      30.502  24.368  23.944  1.00  0.00    -0.167 F 
ATOM     23  F   UNL A   1      30.549  25.186  25.954  1.00  0.00    -0.167 F 
ATOM     24  F   UNL A   1      29.343  26.157  24.416  1.00  0.00    -0.167 F 
ENDBRANCH  20  21
ENDBRANCH   6   8
ENDBRANCH   5   6
ENDBRANCH   4   5
ENDBRANCH   3   4
ENDBRANCH   2   3
ENDBRANCH   1   2
BRANCH   1  25
ATOM     25  C   UNL A   1      37.302  20.605  25.016  1.00  0.00     0.261 C 
BRANCH  25  26
ATOM     26  O   UNL A   1      38.102  21.750  25.367  1.00  0.00    -0.460 OA
BRANCH  26  27
ATOM     27  C   UNL A   1      39.187  21.468  26.123  1.00  0.00     0.338 C 
ATOM     28  O   UNL A   1      39.811  20.417  26.167  1.00  0.00    -0.246 OA
BRANCH  27  29
ATOM     29  C   UNL A   1      39.665  22.682  26.803  1.00  0.00     0.060 A 
ATOM     30  C   UNL A   1      39.065  23.899  26.448  1.00  0.00     0.016 A 
ATOM     31  C   UNL A   1      40.757  22.652  27.670  1.00  0.00     0.016 A 
ATOM     32  C   UNL A   1      39.599  25.099  26.909  1.00  0.00     0.010 A 
ATOM     33  C   UNL A   1      41.303  23.859  28.117  1.00  0.00     0.010 A 
ATOM     34  C   UNL A   1      40.755  25.085  27.698  1.00  0.00    -0.014 A 
BRANCH  34  35
ATOM     35  C   UNL A   1      41.509  26.343  27.899  1.00  0.00     0.031 A 
ATOM     36  C   UNL A   1      40.849  27.457  28.665  1.00  0.00     0.074 A 
ATOM     37  C   UNL A   1      42.769  26.481  27.454  1.00  0.00     0.049 A 
ATOM     38  N   UNL A   1      41.277  28.670  28.906  1.00  0.00    -0.248 NA
ATOM     39  C   UNL A   1      39.526  27.161  29.241  1.00  0.00     0.031 C 
ATOM     40  C   UNL A   1      43.539  25.445  26.769  1.00  0.00     0.029 A 
ATOM     41  N   UNL A   1      43.620  27.554  27.515  1.00  0.00    -0.354 N 
ATOM     42  C   UNL A   1      40.281  29.277  29.660  1.00  0.00     0.074 A 
ATOM     43  C   UNL A   1      39.215  28.313  29.815  1.00  0.00     0.031 C 
ATOM     44  C   UNL A   1      44.752  25.939  26.465  1.00  0.00     0.029 A 
ATOM     45  C   UNL A   1      44.826  27.334  26.900  1.00  0.00     0.049 A 
ATOM     46  H   UNL A   1      43.387  28.403  27.958  1.00  0.00     0.167 HD
ATOM     47  C   UNL A   1      40.261  30.527  30.180  1.00  0.00     0.037 A 
ATOM     48  C   UNL A   1      45.858  28.173  26.691  1.00  0.00     0.037 A 
ATOM     49  C   UNL A   1      41.319  31.487  30.019  1.00  0.00     0.049 A 
ATOM     50  C   UNL A   1      45.768  29.593  27.187  1.00  0.00     0.074 A 
ATOM     51  C   UNL A   1      41.388  32.784  30.492  1.00  0.00     0.029 A 
ATOM     52  N   UNL A   1      42.497  31.250  29.325  1.00  0.00    -0.354 N 
ATOM     53  N   UNL A   1      44.811  30.173  27.872  1.00  0.00    -0.248 NA
ATOM     54  C   UNL A   1      46.897  30.479  26.871  1.00  0.00     0.031 C 
ATOM     55  C   UNL A   1      42.589  33.347  30.049  1.00  0.00     0.029 A 
ATOM     56  C   UNL A   1      43.289  32.386  29.338  1.00  0.00     0.049 A 
ATOM     57  H   UNL A   1      42.734  30.400  28.888  1.00  0.00     0.167 HD
ATOM     58  C   UNL A   1      45.226  31.482  28.077  1.00  0.00     0.074 A 
ATOM     59  C   UNL A   1      46.533  31.607  27.465  1.00  0.00     0.031 C 
ATOM     60  C   UNL A   1      44.582  32.493  28.712  1.00  0.00     0.037 A 
BRANCH  47  61
ATOM     61  C   UNL A   1      39.044  30.933  30.955  1.00  0.00     0.064 A 
ATOM     62  C   UNL A   1      37.933  31.513  30.325  1.00  0.00     0.173 A 
ATOM     63  C   UNL A   1      38.972  30.705  32.338  1.00  0.00     0.173 A 
ATOM     64  F   UNL A   1      37.962  31.768  29.009  1.00  0.00    -0.203 F 
ATOM     65  C   UNL A   1      36.799  31.862  31.054  1.00  0.00     0.198 A 
ATOM     66  C   UNL A   1      37.828  31.034  33.058  1.00  0.00     0.198 A 
ATOM     67  F   UNL A   1      40.009  30.155  32.987  1.00  0.00    -0.203 F 
ATOM     68  F   UNL A   1      35.763  32.448  30.438  1.00  0.00    -0.200 F 
ATOM     69  C   UNL A   1      36.744  31.616  32.418  1.00  0.00     0.200 A 
ATOM     70  F   UNL A   1      37.773  30.787  34.375  1.00  0.00    -0.200 F 
ATOM     71  F   UNL A   1      35.649  31.944  33.116  1.00  0.00    -0.200 F 
ENDBRANCH  47  61
BRANCH  48  72
ATOM     72  C   UNL A   1      47.061  27.701  25.958  1.00  0.00     0.064 A 
ATOM     73  C   UNL A   1      48.182  27.220  26.646  1.00  0.00     0.173 A 
ATOM     74  C   UNL A   1      47.117  27.731  24.556  1.00  0.00     0.173 A 
ATOM     75  F   UNL A   1      48.188  27.201  27.986  1.00  0.00    -0.203 F 
ATOM     76  C   UNL A   1      49.317  26.791  25.960  1.00  0.00     0.198 A 
ATOM     77  C   UNL A   1      48.241  27.278  23.871  1.00  0.00     0.198 A 
ATOM     78  F   UNL A   1      46.071  28.191  23.852  1.00  0.00    -0.203 F 
ATOM     79  F   UNL A   1      50.390  26.370  26.643  1.00  0.00    -0.200 F 
ATOM     80  C   UNL A   1      49.343  26.814  24.573  1.00  0.00     0.200 A 
ATOM     81  F   UNL A   1      48.259  27.295  22.532  1.00  0.00    -0.200 F 
ATOM     82  F   UNL A   1      50.432  26.396  23.914  1.00  0.00    -0.200 F 
ENDBRANCH  48  72
BRANCH  60  83
ATOM     83  C   UNL A   1      45.279  33.820  28.777  1.00  0.00     0.064 A 
ATOM     84  C   UNL A   1      46.178  34.122  29.811  1.00  0.00     0.173 A 
ATOM     85  C   UNL A   1      45.084  34.781  27.774  1.00  0.00     0.173 A 
ATOM     86  F   UNL A   1      46.388  33.242  30.801  1.00  0.00    -0.203 F 
ATOM     87  C   UNL A   1      46.838  35.348  29.850  1.00  0.00     0.198 A 
ATOM     88  C   UNL A   1      45.767  35.994  27.801  1.00  0.00     0.198 A 
ATOM     89  F   UNL A   1      44.241  34.538  26.759  1.00  0.00    -0.203 F 
ATOM     90  F   UNL A   1      47.659  35.631  30.870  1.00  0.00    -0.200 F 
ATOM     91  C   UNL A   1      46.638  36.279  28.841  1.00  0.00     0.200 A 
ATOM     92  F   UNL A   1      45.583  36.887  26.818  1.00  0.00    -0.200 F 
ATOM     93  F   UNL A   1      47.280  37.455  28.876  1.00  0.00    -0.200 F 
ENDBRANCH  60  83
ENDBRANCH  34  35
ENDBRANCH  27  29
ENDBRANCH  26  27
ENDBRANCH  25  26
ENDBRANCH   1  25
TORSDOF 15
ENDMDL
