MODEL 1
REMARK VINA RESULT:     -12.5      0.000      0.000
REMARK SMILES N#Cc1cccnc1N1CC[NH+]([C@@H](C(=O)OCCOCCOC(=O)c2ccc(-c3c4nc(c(-c5c(F)c(F)c(F)c(F)c5F)c5ccc([nH]5)c(-c5c(F)c(F)c(F)c(F)c5F)c5nc(c(-c6c(F)c(F)c(F)c(F)c6F)c6ccc3[nH]6)C=C5)C=C4)cc2)c2c[nH]c3cc(CO)ccc23)CC1
REMARK SMILES IDX 18 1 17 2 16 3 14 4 15 5 13 6 12 7 9 8 10 9 100 10 11 11
REMARK SMILES IDX 99 12 8 14 3 15 4 16 5 17 7 18 6 19 2 20 1 21 88 22 89 23
REMARK SMILES IDX 98 24 90 25 91 26 97 27 92 29 96 30 93 31 94 32 95 33 19 35
REMARK SMILES IDX 20 36 21 37 22 38 23 39 24 40 25 41 26 42 87 43 27 44 86 45
REMARK SMILES IDX 28 46 29 47 30 48 80 49 31 50 85 51 79 52 81 53 32 54 84 55
REMARK SMILES IDX 78 56 77 57 33 59 65 60 45 61 64 62 46 63 49 64 63 65 82 66
REMARK SMILES IDX 47 67 48 68 62 70 83 71 50 72 34 73 35 74 43 75 36 76 37 77
REMARK SMILES IDX 41 78 44 79 38 80 39 81 42 82 40 83 66 84 67 85 75 86 68 87
REMARK SMILES IDX 69 88 73 89 76 90 70 91 71 92 74 93 72 94 51 95 52 96 60 97
REMARK SMILES IDX 53 98 54 99 58 100 61 101 55 102 56 103 59 104 57 105
REMARK H PARENT 12 13 90 28 95 34 81 58 49 69
REMARK Flexibility Score: inf
ROOT
ATOM      1  C   UNL A   1      35.670  22.845  26.440  1.00  0.00     0.202 C 
ENDROOT
BRANCH   1   2
ATOM      2  C   UNL A   1      35.675  23.837  25.270  1.00  0.00     0.261 C 
BRANCH   2   3
ATOM      3  O   UNL A   1      34.397  23.972  24.610  1.00  0.00    -0.459 OA
BRANCH   3   4
ATOM      4  C   UNL A   1      34.346  23.542  23.313  1.00  0.00     0.370 C 
ATOM      5  O   UNL A   1      35.351  23.210  22.685  1.00  0.00    -0.245 OA
BRANCH   4   6
ATOM      6  C   UNL A   1      32.933  23.463  22.693  1.00  0.00     0.328 C 
BRANCH   6   7
ATOM      7  N   UNL A   1      32.248  24.701  22.158  1.00  0.00    -0.316 N 
ATOM      8  N   UNL A   1      32.052  27.297  23.592  1.00  0.00    -0.344 N 
ATOM      9  C   UNL A   1      31.369  26.076  24.021  1.00  0.00     0.179 C 
ATOM     10  C   UNL A   1      33.208  27.039  22.678  1.00  0.00     0.179 C 
ATOM     11  C   UNL A   1      31.044  25.252  22.776  1.00  0.00     0.285 C 
ATOM     12  C   UNL A   1      33.017  25.854  21.666  1.00  0.00     0.285 C 
ATOM     13  H   UNL A   1      31.982  24.099  21.379  1.00  0.00     0.349 HD
BRANCH   8  14
ATOM     14  C   UNL A   1      32.219  28.190  24.663  1.00  0.00     0.146 A 
ATOM     15  C   UNL A   1      31.464  29.358  24.800  1.00  0.00     0.095 A 
ATOM     16  C   UNL A   1      31.810  30.293  25.794  1.00  0.00     0.025 A 
ATOM     17  C   UNL A   1      32.882  30.045  26.642  1.00  0.00     0.022 A 
ATOM     18  N   UNL A   1      33.203  27.919  25.561  1.00  0.00    -0.238 NA
ATOM     19  C   UNL A   1      33.524  28.835  26.508  1.00  0.00     0.113 A 
BRANCH  15  20
ATOM     20  C   UNL A   1      30.366  29.656  23.927  1.00  0.00     0.103 C 
ATOM     21  N   UNL A   1      29.479  29.961  23.257  1.00  0.00    -0.192 NA
ENDBRANCH  15  20
ENDBRANCH   8  14
ENDBRANCH   6   7
BRANCH   6  22
ATOM     22  C   UNL A   1      32.058  22.257  23.222  1.00  0.00     0.046 A 
ATOM     23  C   UNL A   1      31.425  22.318  24.468  1.00  0.00     0.094 A 
ATOM     24  C   UNL A   1      32.228  20.826  23.143  1.00  0.00     0.009 A 
ATOM     25  N   UNL A   1      32.284  21.519  25.223  1.00  0.00    -0.361 N 
ATOM     26  C   UNL A   1      32.714  20.493  24.407  1.00  0.00     0.046 A 
ATOM     27  C   UNL A   1      31.919  19.735  22.309  1.00  0.00     0.011 A 
ATOM     28  H   UNL A   1      32.536  21.661  26.164  1.00  0.00     0.166 HD
ATOM     29  C   UNL A   1      33.443  19.328  24.655  1.00  0.00     0.032 A 
ATOM     30  C   UNL A   1      32.493  18.481  22.600  1.00  0.00     0.007 A 
ATOM     31  C   UNL A   1      33.372  18.324  23.681  1.00  0.00    -0.021 A 
BRANCH  31  32
ATOM     32  C   UNL A   1      34.224  17.086  23.800  1.00  0.00     0.191 C 
BRANCH  32  33
ATOM     33  O   UNL A   1      35.205  17.247  24.822  1.00  0.00    -0.392 OA
ATOM     34  H   UNL A   1      34.865  17.844  25.507  1.00  0.00     0.211 HD
ENDBRANCH  32  33
ENDBRANCH  31  32
ENDBRANCH   6  22
ENDBRANCH   4   6
ENDBRANCH   3   4
ENDBRANCH   2   3
ENDBRANCH   1   2
BRANCH   1  35
ATOM     35  O   UNL A   1      35.584  21.457  26.143  1.00  0.00    -0.374 OA
BRANCH  35  36
ATOM     36  C   UNL A   1      36.274  20.971  25.001  1.00  0.00     0.202 C 
BRANCH  36  37
ATOM     37  C   UNL A   1      37.723  20.522  25.162  1.00  0.00     0.261 C 
BRANCH  37  38
ATOM     38  O   UNL A   1      38.643  21.620  25.255  1.00  0.00    -0.460 OA
BRANCH  38  39
ATOM     39  C   UNL A   1      39.671  21.389  26.099  1.00  0.00     0.338 C 
ATOM     40  O   UNL A   1      40.350  20.372  26.153  1.00  0.00    -0.246 OA
BRANCH  39  41
ATOM     41  C   UNL A   1      39.975  22.524  26.992  1.00  0.00     0.060 A 
ATOM     42  C   UNL A   1      39.436  23.748  26.624  1.00  0.00     0.016 A 
ATOM     43  C   UNL A   1      40.941  22.474  27.995  1.00  0.00     0.016 A 
ATOM     44  C   UNL A   1      40.016  24.912  27.100  1.00  0.00     0.010 A 
ATOM     45  C   UNL A   1      41.527  23.632  28.491  1.00  0.00     0.010 A 
ATOM     46  C   UNL A   1      41.116  24.851  27.968  1.00  0.00    -0.014 A 
BRANCH  46  47
ATOM     47  C   UNL A   1      41.799  26.100  28.320  1.00  0.00     0.031 A 
ATOM     48  C   UNL A   1      43.165  26.404  27.789  1.00  0.00     0.074 A 
ATOM     49  C   UNL A   1      41.092  26.984  29.033  1.00  0.00     0.049 A 
ATOM     50  N   UNL A   1      43.807  27.542  27.780  1.00  0.00    -0.248 NA
ATOM     51  C   UNL A   1      43.917  25.287  27.198  1.00  0.00     0.031 C 
ATOM     52  C   UNL A   1      39.780  26.718  29.626  1.00  0.00     0.029 A 
ATOM     53  N   UNL A   1      41.351  28.287  29.338  1.00  0.00    -0.354 N 
ATOM     54  C   UNL A   1      45.021  27.289  27.154  1.00  0.00     0.074 A 
ATOM     55  C   UNL A   1      45.061  25.871  26.864  1.00  0.00     0.031 C 
ATOM     56  C   UNL A   1      39.322  27.847  30.183  1.00  0.00     0.029 A 
ATOM     57  C   UNL A   1      40.317  28.896  29.997  1.00  0.00     0.049 A 
ATOM     58  H   UNL A   1      42.194  28.742  29.108  1.00  0.00     0.167 HD
ATOM     59  C   UNL A   1      45.988  28.180  26.828  1.00  0.00     0.037 A 
ATOM     60  C   UNL A   1      40.192  30.174  30.386  1.00  0.00     0.037 A 
ATOM     61  C   UNL A   1      45.908  29.585  27.144  1.00  0.00     0.049 A 
ATOM     62  C   UNL A   1      41.284  31.134  30.008  1.00  0.00     0.074 A 
ATOM     63  C   UNL A   1      46.803  30.596  26.845  1.00  0.00     0.029 A 
ATOM     64  N   UNL A   1      44.861  30.175  27.844  1.00  0.00    -0.354 N 
ATOM     65  N   UNL A   1      42.388  30.916  29.330  1.00  0.00    -0.248 NA
ATOM     66  C   UNL A   1      41.098  32.527  30.422  1.00  0.00     0.031 C 
ATOM     67  C   UNL A   1      46.325  31.785  27.409  1.00  0.00     0.029 A 
ATOM     68  C   UNL A   1      45.097  31.531  27.999  1.00  0.00     0.049 A 
ATOM     69  H   UNL A   1      44.067  29.698  28.180  1.00  0.00     0.167 HD
ATOM     70  C   UNL A   1      43.014  32.149  29.216  1.00  0.00     0.074 A 
ATOM     71  C   UNL A   1      42.141  33.112  29.856  1.00  0.00     0.031 C 
ATOM     72  C   UNL A   1      44.205  32.461  28.645  1.00  0.00     0.037 A 
BRANCH  59  73
ATOM     73  C   UNL A   1      47.194  27.687  26.076  1.00  0.00     0.064 A 
ATOM     74  C   UNL A   1      47.211  27.636  24.673  1.00  0.00     0.173 A 
ATOM     75  C   UNL A   1      48.377  27.348  26.751  1.00  0.00     0.173 A 
ATOM     76  F   UNL A   1      46.109  27.944  23.973  1.00  0.00    -0.203 F 
ATOM     77  C   UNL A   1      48.358  27.256  23.979  1.00  0.00     0.198 A 
ATOM     78  C   UNL A   1      49.531  26.996  26.053  1.00  0.00     0.198 A 
ATOM     79  F   UNL A   1      48.424  27.383  28.092  1.00  0.00    -0.203 F 
ATOM     80  F   UNL A   1      48.336  27.186  22.640  1.00  0.00    -0.200 F 
ATOM     81  C   UNL A   1      49.519  26.947  24.668  1.00  0.00     0.200 A 
ATOM     82  F   UNL A   1      50.658  26.716  26.723  1.00  0.00    -0.200 F 
ATOM     83  F   UNL A   1      50.628  26.601  23.999  1.00  0.00    -0.200 F 
ENDBRANCH  59  73
BRANCH  60  84
ATOM     84  C   UNL A   1      38.994  30.602  31.146  1.00  0.00     0.064 A 
ATOM     85  C   UNL A   1      37.865  31.122  30.502  1.00  0.00     0.173 A 
ATOM     86  C   UNL A   1      38.967  30.516  32.547  1.00  0.00     0.173 A 
ATOM     87  F   UNL A   1      37.839  31.217  29.164  1.00  0.00    -0.203 F 
ATOM     88  C   UNL A   1      36.779  31.598  31.232  1.00  0.00     0.198 A 
ATOM     89  C   UNL A   1      37.863  30.950  33.273  1.00  0.00     0.198 A 
ATOM     90  F   UNL A   1      40.010  29.998  33.210  1.00  0.00    -0.203 F 
ATOM     91  F   UNL A   1      35.745  32.164  30.595  1.00  0.00    -0.200 F 
ATOM     92  C   UNL A   1      36.778  31.511  32.616  1.00  0.00     0.200 A 
ATOM     93  F   UNL A   1      37.854  30.833  34.607  1.00  0.00    -0.200 F 
ATOM     94  F   UNL A   1      35.737  31.977  33.318  1.00  0.00    -0.200 F 
ENDBRANCH  60  84
BRANCH  72  95
ATOM     95  C   UNL A   1      44.596  33.912  28.669  1.00  0.00     0.064 A 
ATOM     96  C   UNL A   1      44.227  34.795  27.642  1.00  0.00     0.173 A 
ATOM     97  C   UNL A   1      45.368  34.421  29.724  1.00  0.00     0.173 A 
ATOM     98  F   UNL A   1      43.499  34.357  26.603  1.00  0.00    -0.203 F 
ATOM     99  C   UNL A   1      44.670  36.114  27.639  1.00  0.00     0.198 A 
ATOM    100  C   UNL A   1      45.768  35.754  29.742  1.00  0.00     0.198 A 
ATOM    101  F   UNL A   1      45.738  33.626  30.739  1.00  0.00    -0.203 F 
ATOM    102  F   UNL A   1      44.385  36.911  26.599  1.00  0.00    -0.200 F 
ATOM    103  C   UNL A   1      45.436  36.594  28.690  1.00  0.00     0.200 A 
ATOM    104  F   UNL A   1      46.489  36.221  30.770  1.00  0.00    -0.200 F 
ATOM    105  F   UNL A   1      45.867  37.862  28.682  1.00  0.00    -0.200 F 
ENDBRANCH  72  95
ENDBRANCH  46  47
ENDBRANCH  39  41
ENDBRANCH  38  39
ENDBRANCH  37  38
ENDBRANCH  36  37
ENDBRANCH  35  36
ENDBRANCH   1  35
TORSDOF 20
ENDMDL
MODEL 2
REMARK VINA RESULT:     -12.5      4.283      8.317
REMARK SMILES N#Cc1cccnc1N1CC[NH+]([C@@H](C(=O)OCCOCCOC(=O)c2ccc(-c3c4nc(c(-c5c(F)c(F)c(F)c(F)c5F)c5ccc([nH]5)c(-c5c(F)c(F)c(F)c(F)c5F)c5nc(c(-c6c(F)c(F)c(F)c(F)c6F)c6ccc3[nH]6)C=C5)C=C4)cc2)c2c[nH]c3cc(CO)ccc23)CC1
REMARK SMILES IDX 18 1 17 2 16 3 14 4 15 5 13 6 12 7 9 8 10 9 100 10 11 11
REMARK SMILES IDX 99 12 8 14 3 15 4 16 5 17 7 18 6 19 2 20 1 21 88 22 89 23
REMARK SMILES IDX 98 24 90 25 91 26 97 27 92 29 96 30 93 31 94 32 95 33 19 35
REMARK SMILES IDX 20 36 21 37 22 38 23 39 24 40 25 41 26 42 87 43 27 44 86 45
REMARK SMILES IDX 28 46 29 47 30 48 80 49 31 50 85 51 79 52 81 53 32 54 84 55
REMARK SMILES IDX 78 56 77 57 33 59 65 60 45 61 64 62 46 63 49 64 63 65 82 66
REMARK SMILES IDX 47 67 48 68 62 70 83 71 50 72 34 73 35 74 43 75 36 76 37 77
REMARK SMILES IDX 41 78 44 79 38 80 39 81 42 82 40 83 66 84 67 85 75 86 68 87
REMARK SMILES IDX 69 88 73 89 76 90 70 91 71 92 74 93 72 94 51 95 52 96 60 97
REMARK SMILES IDX 53 98 54 99 58 100 61 101 55 102 56 103 59 104 57 105
REMARK H PARENT 12 13 90 28 95 34 81 58 49 69
REMARK Flexibility Score: inf
ROOT
ATOM      1  C   UNL A   1      31.840  29.515  27.304  1.00  0.00     0.202 C 
ENDROOT
BRANCH   1   2
ATOM      2  C   UNL A   1      31.639  28.263  26.441  1.00  0.00     0.261 C 
BRANCH   2   3
ATOM      3  O   UNL A   1      32.627  28.104  25.399  1.00  0.00    -0.459 OA
BRANCH   3   4
ATOM      4  C   UNL A   1      32.644  26.888  24.773  1.00  0.00     0.370 C 
ATOM      5  O   UNL A   1      33.688  26.334  24.430  1.00  0.00    -0.245 OA
BRANCH   4   6
ATOM      6  C   UNL A   1      31.261  26.232  24.555  1.00  0.00     0.328 C 
BRANCH   6   7
ATOM      7  N   UNL A   1      30.975  24.837  25.062  1.00  0.00    -0.316 N 
ATOM      8  N   UNL A   1      32.948  22.616  25.155  1.00  0.00    -0.344 N 
ATOM      9  C   UNL A   1      32.422  23.187  23.915  1.00  0.00     0.179 C 
ATOM     10  C   UNL A   1      32.794  23.522  26.336  1.00  0.00     0.179 C 
ATOM     11  C   UNL A   1      30.998  23.670  24.183  1.00  0.00     0.285 C 
ATOM     12  C   UNL A   1      31.475  24.373  26.365  1.00  0.00     0.285 C 
ATOM     13  H   UNL A   1      30.016  25.172  25.154  1.00  0.00     0.349 HD
BRANCH   8  14
ATOM     14  C   UNL A   1      34.185  21.985  24.941  1.00  0.00     0.146 A 
ATOM     15  C   UNL A   1      34.349  20.598  25.005  1.00  0.00     0.095 A 
ATOM     16  C   UNL A   1      35.645  20.052  24.960  1.00  0.00     0.025 A 
ATOM     17  C   UNL A   1      36.749  20.886  24.836  1.00  0.00     0.022 A 
ATOM     18  N   UNL A   1      35.268  22.777  24.723  1.00  0.00    -0.238 NA
ATOM     19  C   UNL A   1      36.508  22.232  24.688  1.00  0.00     0.113 A 
BRANCH  15  20
ATOM     20  C   UNL A   1      33.232  19.711  25.156  1.00  0.00     0.103 C 
ATOM     21  N   UNL A   1      32.366  18.973  25.340  1.00  0.00    -0.192 NA
ENDBRANCH  15  20
ENDBRANCH   8  14
ENDBRANCH   6   7
BRANCH   6  22
ATOM     22  C   UNL A   1      30.471  26.782  23.300  1.00  0.00     0.046 A 
ATOM     23  C   UNL A   1      31.128  27.038  22.092  1.00  0.00     0.094 A 
ATOM     24  C   UNL A   1      29.408  27.748  23.170  1.00  0.00     0.009 A 
ATOM     25  N   UNL A   1      31.228  28.428  22.151  1.00  0.00    -0.361 N 
ATOM     26  C   UNL A   1      30.071  28.897  22.742  1.00  0.00     0.046 A 
ATOM     27  C   UNL A   1      28.003  27.831  23.179  1.00  0.00     0.011 A 
ATOM     28  H   UNL A   1      31.982  28.973  21.830  1.00  0.00     0.166 HD
ATOM     29  C   UNL A   1      29.552  30.181  22.915  1.00  0.00     0.032 A 
ATOM     30  C   UNL A   1      27.403  29.107  23.186  1.00  0.00     0.007 A 
ATOM     31  C   UNL A   1      28.185  30.271  23.210  1.00  0.00    -0.021 A 
BRANCH  31  32
ATOM     32  C   UNL A   1      27.563  31.604  23.540  1.00  0.00     0.191 C 
BRANCH  32  33
ATOM     33  O   UNL A   1      27.911  32.578  22.559  1.00  0.00    -0.392 OA
ATOM     34  H   UNL A   1      28.833  32.449  22.286  1.00  0.00     0.211 HD
ENDBRANCH  32  33
ENDBRANCH  31  32
ENDBRANCH   6  22
ENDBRANCH   4   6
ENDBRANCH   3   4
ENDBRANCH   2   3
ENDBRANCH   1   2
BRANCH   1  35
ATOM     35  O   UNL A   1      32.304  30.700  26.671  1.00  0.00    -0.374 OA
BRANCH  35  36
ATOM     36  C   UNL A   1      31.411  31.800  26.567  1.00  0.00     0.202 C 
BRANCH  36  37
ATOM     37  C   UNL A   1      31.960  33.207  26.781  1.00  0.00     0.261 C 
BRANCH  37  38
ATOM     38  O   UNL A   1      32.529  33.394  28.086  1.00  0.00    -0.460 OA
BRANCH  38  39
ATOM     39  C   UNL A   1      33.729  34.011  28.064  1.00  0.00     0.338 C 
ATOM     40  O   UNL A   1      33.924  35.214  27.945  1.00  0.00    -0.246 OA
BRANCH  39  41
ATOM     41  C   UNL A   1      34.873  33.096  28.240  1.00  0.00     0.060 A 
ATOM     42  C   UNL A   1      34.565  31.816  28.681  1.00  0.00     0.016 A 
ATOM     43  C   UNL A   1      36.201  33.516  28.231  1.00  0.00     0.016 A 
ATOM     44  C   UNL A   1      35.546  31.062  29.302  1.00  0.00     0.010 A 
ATOM     45  C   UNL A   1      37.201  32.767  28.841  1.00  0.00     0.010 A 
ATOM     46  C   UNL A   1      36.843  31.575  29.456  1.00  0.00    -0.014 A 
BRANCH  46  47
ATOM     47  C   UNL A   1      37.805  30.813  30.258  1.00  0.00     0.031 A 
ATOM     48  C   UNL A   1      38.723  29.819  29.616  1.00  0.00     0.074 A 
ATOM     49  C   UNL A   1      37.892  31.139  31.553  1.00  0.00     0.049 A 
ATOM     50  N   UNL A   1      39.791  29.251  30.110  1.00  0.00    -0.248 NA
ATOM     51  C   UNL A   1      38.399  29.397  28.245  1.00  0.00     0.031 C 
ATOM     52  C   UNL A   1      36.984  32.057  32.243  1.00  0.00     0.029 A 
ATOM     53  N   UNL A   1      38.804  30.779  32.498  1.00  0.00    -0.354 N 
ATOM     54  C   UNL A   1      40.287  28.433  29.103  1.00  0.00     0.074 A 
ATOM     55  C   UNL A   1      39.361  28.518  27.993  1.00  0.00     0.031 C 
ATOM     56  C   UNL A   1      37.418  32.230  33.498  1.00  0.00     0.029 A 
ATOM     57  C   UNL A   1      38.616  31.421  33.692  1.00  0.00     0.049 A 
ATOM     58  H   UNL A   1      39.522  30.124  32.340  1.00  0.00     0.167 HD
ATOM     59  C   UNL A   1      41.433  27.711  29.109  1.00  0.00     0.037 A 
ATOM     60  C   UNL A   1      39.354  31.369  34.812  1.00  0.00     0.037 A 
ATOM     61  C   UNL A   1      42.323  27.650  30.243  1.00  0.00     0.049 A 
ATOM     62  C   UNL A   1      40.618  30.557  34.783  1.00  0.00     0.074 A 
ATOM     63  C   UNL A   1      43.527  26.981  30.367  1.00  0.00     0.029 A 
ATOM     64  N   UNL A   1      42.094  28.287  31.457  1.00  0.00    -0.354 N 
ATOM     65  N   UNL A   1      41.140  29.862  33.799  1.00  0.00    -0.248 NA
ATOM     66  C   UNL A   1      41.414  30.550  36.013  1.00  0.00     0.031 C 
ATOM     67  C   UNL A   1      43.999  27.169  31.672  1.00  0.00     0.029 A 
ATOM     68  C   UNL A   1      43.125  28.013  32.340  1.00  0.00     0.049 A 
ATOM     69  H   UNL A   1      41.312  28.851  31.660  1.00  0.00     0.167 HD
ATOM     70  C   UNL A   1      42.336  29.354  34.284  1.00  0.00     0.074 A 
ATOM     71  C   UNL A   1      42.479  29.862  35.633  1.00  0.00     0.031 C 
ATOM     72  C   UNL A   1      43.234  28.535  33.679  1.00  0.00     0.037 A 
BRANCH  59  73
ATOM     73  C   UNL A   1      41.812  26.955  27.865  1.00  0.00     0.064 A 
ATOM     74  C   UNL A   1      42.604  27.540  26.865  1.00  0.00     0.173 A 
ATOM     75  C   UNL A   1      41.461  25.604  27.706  1.00  0.00     0.173 A 
ATOM     76  F   UNL A   1      42.966  28.829  26.959  1.00  0.00    -0.203 F 
ATOM     77  C   UNL A   1      43.019  26.810  25.753  1.00  0.00     0.198 A 
ATOM     78  C   UNL A   1      41.902  24.869  26.608  1.00  0.00     0.198 A 
ATOM     79  F   UNL A   1      40.710  24.987  28.632  1.00  0.00    -0.203 F 
ATOM     80  F   UNL A   1      43.748  27.404  24.797  1.00  0.00    -0.200 F 
ATOM     81  C   UNL A   1      42.677  25.473  25.631  1.00  0.00     0.200 A 
ATOM     82  F   UNL A   1      41.586  23.570  26.502  1.00  0.00    -0.200 F 
ATOM     83  F   UNL A   1      43.095  24.766  24.571  1.00  0.00    -0.200 F 
ENDBRANCH  59  73
BRANCH  60  84
ATOM     84  C   UNL A   1      38.923  32.114  36.018  1.00  0.00     0.064 A 
ATOM     85  C   UNL A   1      39.308  33.443  36.235  1.00  0.00     0.173 A 
ATOM     86  C   UNL A   1      38.126  31.496  36.994  1.00  0.00     0.173 A 
ATOM     87  F   UNL A   1      40.062  34.080  35.327  1.00  0.00    -0.203 F 
ATOM     88  C   UNL A   1      38.965  34.105  37.411  1.00  0.00     0.198 A 
ATOM     89  C   UNL A   1      37.747  32.174  38.148  1.00  0.00     0.198 A 
ATOM     90  F   UNL A   1      37.704  30.235  36.821  1.00  0.00    -0.203 F 
ATOM     91  F   UNL A   1      39.414  35.348  37.630  1.00  0.00    -0.200 F 
ATOM     92  C   UNL A   1      38.186  33.471  38.366  1.00  0.00     0.200 A 
ATOM     93  F   UNL A   1      36.965  31.567  39.051  1.00  0.00    -0.200 F 
ATOM     94  F   UNL A   1      37.864  34.106  39.501  1.00  0.00    -0.200 F 
ENDBRANCH  60  84
BRANCH  72  95
ATOM     95  C   UNL A   1      44.457  28.180  34.478  1.00  0.00     0.064 A 
ATOM     96  C   UNL A   1      45.629  28.949  34.418  1.00  0.00     0.173 A 
ATOM     97  C   UNL A   1      44.461  27.042  35.298  1.00  0.00     0.173 A 
ATOM     98  F   UNL A   1      45.682  30.041  33.640  1.00  0.00    -0.203 F 
ATOM     99  C   UNL A   1      46.778  28.557  35.099  1.00  0.00     0.198 A 
ATOM    100  C   UNL A   1      45.597  26.679  36.016  1.00  0.00     0.198 A 
ATOM    101  F   UNL A   1      43.364  26.277  35.404  1.00  0.00    -0.203 F 
ATOM    102  F   UNL A   1      47.912  29.255  34.949  1.00  0.00    -0.200 F 
ATOM    103  C   UNL A   1      46.760  27.426  35.900  1.00  0.00     0.200 A 
ATOM    104  F   UNL A   1      45.571  25.599  36.807  1.00  0.00    -0.200 F 
ATOM    105  F   UNL A   1      47.869  27.046  36.549  1.00  0.00    -0.200 F 
ENDBRANCH  72  95
ENDBRANCH  46  47
ENDBRANCH  39  41
ENDBRANCH  38  39
ENDBRANCH  37  38
ENDBRANCH  36  37
ENDBRANCH  35  36
ENDBRANCH   1  35
TORSDOF 20
ENDMDL
MODEL 3
REMARK VINA RESULT:     -12.5      1.712      2.504
REMARK SMILES N#Cc1cccnc1N1CC[NH+]([C@@H](C(=O)OCCOCCOC(=O)c2ccc(-c3c4nc(c(-c5c(F)c(F)c(F)c(F)c5F)c5ccc([nH]5)c(-c5c(F)c(F)c(F)c(F)c5F)c5nc(c(-c6c(F)c(F)c(F)c(F)c6F)c6ccc3[nH]6)C=C5)C=C4)cc2)c2c[nH]c3cc(CO)ccc23)CC1
REMARK SMILES IDX 18 1 17 2 16 3 14 4 15 5 13 6 12 7 9 8 10 9 100 10 11 11
REMARK SMILES IDX 99 12 8 14 3 15 4 16 5 17 7 18 6 19 2 20 1 21 88 22 89 23
REMARK SMILES IDX 98 24 90 25 91 26 97 27 92 29 96 30 93 31 94 32 95 33 19 35
REMARK SMILES IDX 20 36 21 37 22 38 23 39 24 40 25 41 26 42 87 43 27 44 86 45
REMARK SMILES IDX 28 46 29 47 30 48 80 49 31 50 85 51 79 52 81 53 32 54 84 55
REMARK SMILES IDX 78 56 77 57 33 59 65 60 45 61 64 62 46 63 49 64 63 65 82 66
REMARK SMILES IDX 47 67 48 68 62 70 83 71 50 72 34 73 35 74 43 75 36 76 37 77
REMARK SMILES IDX 41 78 44 79 38 80 39 81 42 82 40 83 66 84 67 85 75 86 68 87
REMARK SMILES IDX 69 88 73 89 76 90 70 91 71 92 74 93 72 94 51 95 52 96 60 97
REMARK SMILES IDX 53 98 54 99 58 100 61 101 55 102 56 103 59 104 57 105
REMARK H PARENT 12 13 90 28 95 34 81 58 49 69
REMARK Flexibility Score: inf
ROOT
ATOM      1  C   UNL A   1      36.604  22.367  25.748  1.00  0.00     0.202 C 
ENDROOT
BRANCH   1   2
ATOM      2  C   UNL A   1      36.026  23.681  25.209  1.00  0.00     0.261 C 
BRANCH   2   3
ATOM      3  O   UNL A   1      34.654  23.581  24.767  1.00  0.00    -0.459 OA
BRANCH   3   4
ATOM      4  C   UNL A   1      34.473  23.270  23.448  1.00  0.00     0.370 C 
ATOM      5  O   UNL A   1      35.413  23.085  22.676  1.00  0.00    -0.245 OA
BRANCH   4   6
ATOM      6  C   UNL A   1      33.003  23.126  22.993  1.00  0.00     0.328 C 
BRANCH   6   7
ATOM      7  N   UNL A   1      32.222  24.322  22.497  1.00  0.00    -0.316 N 
ATOM      8  N   UNL A   1      32.125  26.973  23.838  1.00  0.00    -0.344 N 
ATOM      9  C   UNL A   1      31.536  25.755  24.397  1.00  0.00     0.179 C 
ATOM     10  C   UNL A   1      33.168  26.703  22.801  1.00  0.00     0.179 C 
ATOM     11  C   UNL A   1      31.086  24.871  23.235  1.00  0.00     0.285 C 
ATOM     12  C   UNL A   1      32.891  25.471  21.869  1.00  0.00     0.285 C 
ATOM     13  H   UNL A   1      31.882  23.681  21.781  1.00  0.00     0.349 HD
BRANCH   8  14
ATOM     14  C   UNL A   1      32.395  27.916  24.844  1.00  0.00     0.146 A 
ATOM     15  C   UNL A   1      31.733  29.144  24.928  1.00  0.00     0.095 A 
ATOM     16  C   UNL A   1      32.181  30.110  25.848  1.00  0.00     0.025 A 
ATOM     17  C   UNL A   1      33.261  29.834  26.679  1.00  0.00     0.022 A 
ATOM     18  N   UNL A   1      33.385  27.627  25.729  1.00  0.00    -0.238 NA
ATOM     19  C   UNL A   1      33.806  28.573  26.604  1.00  0.00     0.113 A 
BRANCH  15  20
ATOM     20  C   UNL A   1      30.631  29.470  24.070  1.00  0.00     0.103 C 
ATOM     21  N   UNL A   1      29.703  29.737  23.440  1.00  0.00    -0.192 NA
ENDBRANCH  15  20
ENDBRANCH   8  14
ENDBRANCH   6   7
BRANCH   6  22
ATOM     22  C   UNL A   1      32.233  21.915  23.658  1.00  0.00     0.046 A 
ATOM     23  C   UNL A   1      31.703  22.020  24.948  1.00  0.00     0.094 A 
ATOM     24  C   UNL A   1      32.464  20.491  23.642  1.00  0.00     0.009 A 
ATOM     25  N   UNL A   1      32.658  21.304  25.670  1.00  0.00    -0.361 N 
ATOM     26  C   UNL A   1      33.068  20.252  24.875  1.00  0.00     0.046 A 
ATOM     27  C   UNL A   1      32.141  19.342  22.896  1.00  0.00     0.011 A 
ATOM     28  H   UNL A   1      32.979  21.510  26.577  1.00  0.00     0.166 HD
ATOM     29  C   UNL A   1      33.869  19.136  25.123  1.00  0.00     0.032 A 
ATOM     30  C   UNL A   1      32.795  18.133  23.204  1.00  0.00     0.007 A 
ATOM     31  C   UNL A   1      33.766  18.076  24.214  1.00  0.00    -0.021 A 
BRANCH  31  32
ATOM     32  C   UNL A   1      34.684  16.884  24.326  1.00  0.00     0.191 C 
BRANCH  32  33
ATOM     33  O   UNL A   1      34.649  16.345  25.646  1.00  0.00    -0.392 OA
ATOM     34  H   UNL A   1      34.488  17.059  26.283  1.00  0.00     0.211 HD
ENDBRANCH  32  33
ENDBRANCH  31  32
ENDBRANCH   6  22
ENDBRANCH   4   6
ENDBRANCH   3   4
ENDBRANCH   2   3
ENDBRANCH   1   2
BRANCH   1  35
ATOM     35  O   UNL A   1      37.608  21.712  24.983  1.00  0.00    -0.374 OA
BRANCH  35  36
ATOM     36  C   UNL A   1      37.591  20.293  24.927  1.00  0.00     0.202 C 
BRANCH  36  37
ATOM     37  C   UNL A   1      38.863  19.534  25.291  1.00  0.00     0.261 C 
BRANCH  37  38
ATOM     38  O   UNL A   1      39.780  20.319  26.069  1.00  0.00    -0.460 OA
BRANCH  38  39
ATOM     39  C   UNL A   1      41.054  19.878  26.002  1.00  0.00     0.338 C 
ATOM     40  O   UNL A   1      41.419  18.766  25.643  1.00  0.00    -0.246 OA
BRANCH  39  41
ATOM     41  C   UNL A   1      42.057  20.893  26.377  1.00  0.00     0.060 A 
ATOM     42  C   UNL A   1      42.274  21.058  27.738  1.00  0.00     0.016 A 
ATOM     43  C   UNL A   1      42.579  21.824  25.482  1.00  0.00     0.016 A 
ATOM     44  C   UNL A   1      42.815  22.248  28.196  1.00  0.00     0.010 A 
ATOM     45  C   UNL A   1      43.134  23.019  25.925  1.00  0.00     0.010 A 
ATOM     46  C   UNL A   1      43.166  23.261  27.291  1.00  0.00    -0.014 A 
BRANCH  46  47
ATOM     47  C   UNL A   1      43.583  24.561  27.826  1.00  0.00     0.031 A 
ATOM     48  C   UNL A   1      45.028  24.954  27.848  1.00  0.00     0.074 A 
ATOM     49  C   UNL A   1      42.604  25.404  28.175  1.00  0.00     0.049 A 
ATOM     50  N   UNL A   1      45.554  26.135  28.039  1.00  0.00    -0.248 NA
ATOM     51  C   UNL A   1      46.015  23.884  27.639  1.00  0.00     0.031 C 
ATOM     52  C   UNL A   1      41.184  25.054  28.228  1.00  0.00     0.029 A 
ATOM     53  N   UNL A   1      42.647  26.726  28.500  1.00  0.00    -0.354 N 
ATOM     54  C   UNL A   1      46.929  25.959  27.939  1.00  0.00     0.074 A 
ATOM     55  C   UNL A   1      47.162  24.544  27.746  1.00  0.00     0.031 C 
ATOM     56  C   UNL A   1      40.479  26.155  28.518  1.00  0.00     0.029 A 
ATOM     57  C   UNL A   1      41.404  27.269  28.686  1.00  0.00     0.049 A 
ATOM     58  H   UNL A   1      43.484  27.236  28.593  1.00  0.00     0.167 HD
ATOM     59  C   UNL A   1      47.891  26.912  27.973  1.00  0.00     0.037 A 
ATOM     60  C   UNL A   1      41.063  28.541  28.942  1.00  0.00     0.037 A 
ATOM     61  C   UNL A   1      47.611  28.312  28.175  1.00  0.00     0.049 A 
ATOM     62  C   UNL A   1      42.156  29.571  28.973  1.00  0.00     0.074 A 
ATOM     63  C   UNL A   1      48.490  29.380  28.200  1.00  0.00     0.029 A 
ATOM     64  N   UNL A   1      46.342  28.836  28.393  1.00  0.00    -0.354 N 
ATOM     65  N   UNL A   1      43.447  29.422  28.781  1.00  0.00    -0.248 NA
ATOM     66  C   UNL A   1      41.741  30.954  29.225  1.00  0.00     0.031 C 
ATOM     67  C   UNL A   1      47.761  30.540  28.487  1.00  0.00     0.029 A 
ATOM     68  C   UNL A   1      46.417  30.208  28.570  1.00  0.00     0.049 A 
ATOM     69  H   UNL A   1      45.510  28.309  28.417  1.00  0.00     0.167 HD
ATOM     70  C   UNL A   1      43.994  30.694  28.865  1.00  0.00     0.074 A 
ATOM     71  C   UNL A   1      42.885  31.603  29.080  1.00  0.00     0.031 C 
ATOM     72  C   UNL A   1      45.291  31.083  28.784  1.00  0.00     0.037 A 
BRANCH  59  73
ATOM     73  C   UNL A   1      49.321  26.495  27.763  1.00  0.00     0.064 A 
ATOM     74  C   UNL A   1      49.853  26.326  26.475  1.00  0.00     0.173 A 
ATOM     75  C   UNL A   1      50.197  26.350  28.850  1.00  0.00     0.173 A 
ATOM     76  F   UNL A   1      49.063  26.446  25.397  1.00  0.00    -0.203 F 
ATOM     77  C   UNL A   1      51.199  26.018  26.284  1.00  0.00     0.198 A 
ATOM     78  C   UNL A   1      51.549  26.071  28.655  1.00  0.00     0.198 A 
ATOM     79  F   UNL A   1      49.749  26.505  30.106  1.00  0.00    -0.203 F 
ATOM     80  F   UNL A   1      51.673  25.831  25.044  1.00  0.00    -0.200 F 
ATOM     81  C   UNL A   1      52.047  25.902  27.373  1.00  0.00     0.200 A 
ATOM     82  F   UNL A   1      52.371  25.978  29.710  1.00  0.00    -0.200 F 
ATOM     83  F   UNL A   1      53.346  25.627  27.188  1.00  0.00    -0.200 F 
ENDBRANCH  59  73
BRANCH  60  84
ATOM     84  C   UNL A   1      39.640  28.895  29.165  1.00  0.00     0.064 A 
ATOM     85  C   UNL A   1      39.054  28.805  30.434  1.00  0.00     0.173 A 
ATOM     86  C   UNL A   1      38.832  29.315  28.098  1.00  0.00     0.173 A 
ATOM     87  F   UNL A   1      39.788  28.418  31.488  1.00  0.00    -0.203 F 
ATOM     88  C   UNL A   1      37.697  29.061  30.615  1.00  0.00     0.198 A 
ATOM     89  C   UNL A   1      37.486  29.613  28.289  1.00  0.00     0.198 A 
ATOM     90  F   UNL A   1      39.352  29.447  26.870  1.00  0.00    -0.203 F 
ATOM     91  F   UNL A   1      37.143  28.889  31.822  1.00  0.00    -0.200 F 
ATOM     92  C   UNL A   1      36.915  29.464  29.544  1.00  0.00     0.200 A 
ATOM     93  F   UNL A   1      36.744  30.034  27.257  1.00  0.00    -0.200 F 
ATOM     94  F   UNL A   1      35.608  29.701  29.717  1.00  0.00    -0.200 F 
ENDBRANCH  60  84
BRANCH  72  95
ATOM     95  C   UNL A   1      45.556  32.558  28.895  1.00  0.00     0.064 A 
ATOM     96  C   UNL A   1      45.619  33.386  27.763  1.00  0.00     0.173 A 
ATOM     97  C   UNL A   1      45.767  33.147  30.150  1.00  0.00     0.173 A 
ATOM     98  F   UNL A   1      45.436  32.870  26.538  1.00  0.00    -0.203 F 
ATOM     99  C   UNL A   1      45.948  34.733  27.880  1.00  0.00     0.198 A 
ATOM    100  C   UNL A   1      46.048  34.505  30.267  1.00  0.00     0.198 A 
ATOM    101  F   UNL A   1      45.705  32.407  31.267  1.00  0.00    -0.203 F 
ATOM    102  F   UNL A   1      46.097  35.480  26.777  1.00  0.00    -0.200 F 
ATOM    103  C   UNL A   1      46.158  35.292  29.131  1.00  0.00     0.200 A 
ATOM    104  F   UNL A   1      46.228  35.048  31.478  1.00  0.00    -0.200 F 
ATOM    105  F   UNL A   1      46.481  36.588  29.240  1.00  0.00    -0.200 F 
ENDBRANCH  72  95
ENDBRANCH  46  47
ENDBRANCH  39  41
ENDBRANCH  38  39
ENDBRANCH  37  38
ENDBRANCH  36  37
ENDBRANCH  35  36
ENDBRANCH   1  35
TORSDOF 20
ENDMDL
