MODEL 1
REMARK VINA RESULT:     -12.3      0.000      0.000
REMARK SMILES COC(=O)c1ccc(C)c2c1[C@H]1C=CC[C@H]1[C@@H](c1ccc(C(=O)OCCOCCOC(=O)c3ccc(-c4c5nc(c(-c6c(F)c(F)c(F)c(F)c6F)c6ccc([nH]6)c(-c6c(F)c(F)c(F)c(F)c6F)c6nc(c(-c7c(F)c(F)c(F)c(F)c7F)c7ccc4[nH]7)C=C6)C=C5)cc3)cc1)N2
REMARK SMILES IDX 26 1 25 2 24 3 22 4 23 5 21 6 18 7 19 8 97 9 20 10 96 11
REMARK SMILES IDX 17 12 5 13 6 14 11 15 7 16 10 17 12 18 8 19 98 20 13 21
REMARK SMILES IDX 16 22 9 23 14 25 15 26 3 27 4 28 2 29 1 30 27 31 28 32 29 33
REMARK SMILES IDX 30 34 31 35 32 36 33 37 34 38 95 39 35 40 94 41 36 42 37 43
REMARK SMILES IDX 38 44 88 45 39 46 93 47 87 48 89 49 40 50 92 51 86 52 85 53
REMARK SMILES IDX 41 55 73 56 53 57 72 58 54 59 57 60 71 61 90 62 55 63 56 64
REMARK SMILES IDX 70 66 91 67 58 68 42 69 43 70 51 71 44 72 45 73 49 74 52 75
REMARK SMILES IDX 46 76 47 77 50 78 48 79 74 80 75 81 83 82 76 83 77 84 81 85
REMARK SMILES IDX 84 86 78 87 79 88 82 89 80 90 59 91 60 92 68 93 61 94 62 95
REMARK SMILES IDX 66 96 69 97 63 98 64 99 67 100 65 101
REMARK H PARENT 98 24 89 54 57 65
REMARK Flexibility Score: inf
ROOT
ATOM      1  C   UNL A   1      34.786  32.218  29.053  1.00  0.00     0.202 C 
ENDROOT
BRANCH   1   2
ATOM      2  C   UNL A   1      34.028  31.979  27.745  1.00  0.00     0.261 C 
BRANCH   2   3
ATOM      3  O   UNL A   1      33.454  30.663  27.712  1.00  0.00    -0.460 OA
BRANCH   3   4
ATOM      4  C   UNL A   1      32.558  30.475  26.715  1.00  0.00     0.338 C 
ATOM      5  O   UNL A   1      31.673  31.241  26.368  1.00  0.00    -0.246 OA
BRANCH   4   6
ATOM      6  C   UNL A   1      32.920  29.278  25.934  1.00  0.00     0.060 A 
ATOM      7  C   UNL A   1      33.498  27.069  24.267  1.00  0.00    -0.025 A 
ATOM      8  C   UNL A   1      33.211  28.339  23.737  1.00  0.00     0.007 A 
ATOM      9  C   UNL A   1      33.546  26.954  25.672  1.00  0.00     0.007 A 
ATOM     10  C   UNL A   1      32.908  29.424  24.551  1.00  0.00     0.016 A 
ATOM     11  C   UNL A   1      33.271  28.052  26.504  1.00  0.00     0.016 A 
BRANCH   7  12
ATOM     12  C   UNL A   1      33.689  25.832  23.377  1.00  0.00     0.114 C 
ATOM     13  C   UNL A   1      32.390  22.882  26.156  1.00  0.00     0.065 A 
ATOM     14  C   UNL A   1      33.286  22.475  27.151  1.00  0.00     0.016 A 
ATOM     15  C   UNL A   1      32.828  23.673  25.067  1.00  0.00    -0.003 A 
ATOM     16  C   UNL A   1      34.624  22.838  27.073  1.00  0.00     0.006 A 
ATOM     17  C   UNL A   1      34.201  24.036  24.992  1.00  0.00     0.042 A 
ATOM     18  C   UNL A   1      31.857  24.149  24.000  1.00  0.00     0.050 C 
ATOM     19  C   UNL A   1      35.097  23.616  26.005  1.00  0.00    -0.028 A 
ATOM     20  N   UNL A   1      34.630  24.908  23.996  1.00  0.00    -0.377 N 
ATOM     21  C   UNL A   1      30.723  25.042  24.448  1.00  0.00    -0.023 C 
ATOM     22  C   UNL A   1      32.479  25.017  22.887  1.00  0.00     0.031 C 
ATOM     23  C   UNL A   1      36.550  24.013  26.068  1.00  0.00     0.046 C 
ATOM     24  H   UNL A   1      35.572  24.902  23.709  1.00  0.00     0.161 HD
ATOM     25  C   UNL A   1      30.425  25.970  23.530  1.00  0.00    -0.030 C 
ATOM     26  C   UNL A   1      31.330  25.874  22.347  1.00  0.00     0.034 C 
BRANCH  13  27
ATOM     27  C   UNL A   1      30.978  22.460  26.301  1.00  0.00     0.338 C 
ATOM     28  O   UNL A   1      30.437  21.587  25.638  1.00  0.00    -0.246 OA
BRANCH  27  29
ATOM     29  O   UNL A   1      30.391  23.240  27.243  1.00  0.00    -0.465 OA
ATOM     30  C   UNL A   1      29.104  22.783  27.663  1.00  0.00     0.282 C 
ENDBRANCH  27  29
ENDBRANCH  13  27
ENDBRANCH   7  12
ENDBRANCH   4   6
ENDBRANCH   3   4
ENDBRANCH   2   3
ENDBRANCH   1   2
BRANCH   1  31
ATOM     31  O   UNL A   1      34.019  32.710  30.149  1.00  0.00    -0.374 OA
BRANCH  31  32
ATOM     32  C   UNL A   1      34.715  33.475  31.139  1.00  0.00     0.202 C 
BRANCH  32  33
ATOM     33  C   UNL A   1      34.656  32.940  32.577  1.00  0.00     0.261 C 
BRANCH  33  34
ATOM     34  O   UNL A   1      35.460  31.752  32.727  1.00  0.00    -0.460 OA
BRANCH  34  35
ATOM     35  C   UNL A   1      36.739  31.963  33.116  1.00  0.00     0.338 C 
ATOM     36  O   UNL A   1      37.131  32.545  34.115  1.00  0.00    -0.246 OA
BRANCH  35  37
ATOM     37  C   UNL A   1      37.645  31.202  32.240  1.00  0.00     0.060 A 
ATOM     38  C   UNL A   1      38.624  30.400  32.843  1.00  0.00     0.016 A 
ATOM     39  C   UNL A   1      37.594  31.344  30.852  1.00  0.00     0.016 A 
ATOM     40  C   UNL A   1      39.580  29.761  32.060  1.00  0.00     0.010 A 
ATOM     41  C   UNL A   1      38.571  30.722  30.069  1.00  0.00     0.010 A 
ATOM     42  C   UNL A   1      39.586  29.957  30.673  1.00  0.00    -0.014 A 
BRANCH  42  43
ATOM     43  C   UNL A   1      40.756  29.515  29.882  1.00  0.00     0.031 A 
ATOM     44  C   UNL A   1      41.851  30.506  29.604  1.00  0.00     0.074 A 
ATOM     45  C   UNL A   1      40.855  28.248  29.445  1.00  0.00     0.049 A 
ATOM     46  N   UNL A   1      42.949  30.356  28.911  1.00  0.00    -0.248 NA
ATOM     47  C   UNL A   1      41.686  31.847  30.190  1.00  0.00     0.031 C 
ATOM     48  C   UNL A   1      39.882  27.189  29.698  1.00  0.00     0.029 A 
ATOM     49  N   UNL A   1      41.826  27.643  28.688  1.00  0.00    -0.354 N 
ATOM     50  C   UNL A   1      43.607  31.576  28.983  1.00  0.00     0.074 A 
ATOM     51  C   UNL A   1      42.775  32.467  29.760  1.00  0.00     0.031 C 
ATOM     52  C   UNL A   1      40.299  26.063  29.092  1.00  0.00     0.029 A 
ATOM     53  C   UNL A   1      41.551  26.332  28.387  1.00  0.00     0.049 A 
ATOM     54  H   UNL A   1      42.644  28.105  28.389  1.00  0.00     0.167 HD
ATOM     55  C   UNL A   1      44.805  31.917  28.454  1.00  0.00     0.037 A 
ATOM     56  C   UNL A   1      42.227  25.460  27.613  1.00  0.00     0.037 A 
ATOM     57  C   UNL A   1      45.627  31.030  27.676  1.00  0.00     0.049 A 
ATOM     58  C   UNL A   1      43.513  25.894  26.959  1.00  0.00     0.074 A 
ATOM     59  C   UNL A   1      46.863  31.281  27.106  1.00  0.00     0.029 A 
ATOM     60  N   UNL A   1      45.291  29.725  27.351  1.00  0.00    -0.354 N 
ATOM     61  N   UNL A   1      44.140  27.042  27.048  1.00  0.00    -0.248 NA
ATOM     62  C   UNL A   1      44.185  24.911  26.097  1.00  0.00     0.031 C 
ATOM     63  C   UNL A   1      47.252  30.142  26.394  1.00  0.00     0.029 A 
ATOM     64  C   UNL A   1      46.283  29.166  26.563  1.00  0.00     0.049 A 
ATOM     65  H   UNL A   1      44.470  29.265  27.637  1.00  0.00     0.167 HD
ATOM     66  C   UNL A   1      45.288  26.913  26.276  1.00  0.00     0.074 A 
ATOM     67  C   UNL A   1      45.278  25.570  25.736  1.00  0.00     0.031 C 
ATOM     68  C   UNL A   1      46.261  27.826  26.037  1.00  0.00     0.037 A 
BRANCH  55  69
ATOM     69  C   UNL A   1      45.301  33.312  28.686  1.00  0.00     0.064 A 
ATOM     70  C   UNL A   1      44.952  34.365  27.828  1.00  0.00     0.173 A 
ATOM     71  C   UNL A   1      46.071  33.613  29.819  1.00  0.00     0.173 A 
ATOM     72  F   UNL A   1      44.229  34.124  26.724  1.00  0.00    -0.203 F 
ATOM     73  C   UNL A   1      45.361  35.669  28.093  1.00  0.00     0.198 A 
ATOM     74  C   UNL A   1      46.458  34.921  30.094  1.00  0.00     0.198 A 
ATOM     75  F   UNL A   1      46.429  32.640  30.670  1.00  0.00    -0.203 F 
ATOM     76  F   UNL A   1      45.037  36.657  27.248  1.00  0.00    -0.200 F 
ATOM     77  C   UNL A   1      46.104  35.948  29.231  1.00  0.00     0.200 A 
ATOM     78  F   UNL A   1      47.166  35.190  31.199  1.00  0.00    -0.200 F 
ATOM     79  F   UNL A   1      46.481  37.206  29.496  1.00  0.00    -0.200 F 
ENDBRANCH  55  69
BRANCH  56  80
ATOM     80  C   UNL A   1      41.693  24.089  27.408  1.00  0.00     0.064 A 
ATOM     81  C   UNL A   1      42.315  22.976  27.989  1.00  0.00     0.173 A 
ATOM     82  C   UNL A   1      40.553  23.861  26.622  1.00  0.00     0.173 A 
ATOM     83  F   UNL A   1      43.423  23.139  28.728  1.00  0.00    -0.203 F 
ATOM     84  C   UNL A   1      41.824  21.688  27.785  1.00  0.00     0.198 A 
ATOM     85  C   UNL A   1      40.048  22.576  26.439  1.00  0.00     0.198 A 
ATOM     86  F   UNL A   1      39.923  24.892  26.038  1.00  0.00    -0.203 F 
ATOM     87  F   UNL A   1      42.461  20.637  28.321  1.00  0.00    -0.200 F 
ATOM     88  C   UNL A   1      40.688  21.489  27.016  1.00  0.00     0.200 A 
ATOM     89  F   UNL A   1      38.943  22.391  25.704  1.00  0.00    -0.200 F 
ATOM     90  F   UNL A   1      40.212  20.251  26.825  1.00  0.00    -0.200 F 
ENDBRANCH  56  80
BRANCH  68  91
ATOM     91  C   UNL A   1      47.412  27.409  25.169  1.00  0.00     0.064 A 
ATOM     92  C   UNL A   1      47.444  27.713  23.800  1.00  0.00     0.173 A 
ATOM     93  C   UNL A   1      48.535  26.778  25.730  1.00  0.00     0.173 A 
ATOM     94  F   UNL A   1      46.392  28.305  23.216  1.00  0.00    -0.203 F 
ATOM     95  C   UNL A   1      48.552  27.389  23.022  1.00  0.00     0.198 A 
ATOM     96  C   UNL A   1      49.652  26.483  24.954  1.00  0.00     0.198 A 
ATOM     97  F   UNL A   1      48.558  26.477  27.037  1.00  0.00    -0.203 F 
ATOM     98  F   UNL A   1      48.549  27.660  21.710  1.00  0.00    -0.200 F 
ATOM     99  C   UNL A   1      49.659  26.784  23.602  1.00  0.00     0.200 A 
ATOM    100  F   UNL A   1      50.727  25.915  25.520  1.00  0.00    -0.200 F 
ATOM    101  F   UNL A   1      50.733  26.493  22.854  1.00  0.00    -0.200 F 
ENDBRANCH  68  91
ENDBRANCH  42  43
ENDBRANCH  35  37
ENDBRANCH  34  35
ENDBRANCH  33  34
ENDBRANCH  32  33
ENDBRANCH  31  32
ENDBRANCH   1  31
TORSDOF 17
ENDMDL
MODEL 2
REMARK VINA RESULT:     -12.2      4.951      7.705
REMARK SMILES COC(=O)c1ccc(C)c2c1[C@H]1C=CC[C@H]1[C@@H](c1ccc(C(=O)OCCOCCOC(=O)c3ccc(-c4c5nc(c(-c6c(F)c(F)c(F)c(F)c6F)c6ccc([nH]6)c(-c6c(F)c(F)c(F)c(F)c6F)c6nc(c(-c7c(F)c(F)c(F)c(F)c7F)c7ccc4[nH]7)C=C6)C=C5)cc3)cc1)N2
REMARK SMILES IDX 26 1 25 2 24 3 22 4 23 5 21 6 18 7 19 8 97 9 20 10 96 11
REMARK SMILES IDX 17 12 5 13 6 14 11 15 7 16 10 17 12 18 8 19 98 20 13 21
REMARK SMILES IDX 16 22 9 23 14 25 15 26 3 27 4 28 2 29 1 30 27 31 28 32 29 33
REMARK SMILES IDX 30 34 31 35 32 36 33 37 34 38 95 39 35 40 94 41 36 42 37 43
REMARK SMILES IDX 38 44 88 45 39 46 93 47 87 48 89 49 40 50 92 51 86 52 85 53
REMARK SMILES IDX 41 55 73 56 53 57 72 58 54 59 57 60 71 61 90 62 55 63 56 64
REMARK SMILES IDX 70 66 91 67 58 68 42 69 43 70 51 71 44 72 45 73 49 74 52 75
REMARK SMILES IDX 46 76 47 77 50 78 48 79 74 80 75 81 83 82 76 83 77 84 81 85
REMARK SMILES IDX 84 86 78 87 79 88 82 89 80 90 59 91 60 92 68 93 61 94 62 95
REMARK SMILES IDX 66 96 69 97 63 98 64 99 67 100 65 101
REMARK H PARENT 98 24 89 54 57 65
REMARK Flexibility Score: inf
ROOT
ATOM      1  C   UNL A   1      34.988  32.527  28.596  1.00  0.00     0.202 C 
ENDROOT
BRANCH   1   2
ATOM      2  C   UNL A   1      33.850  32.167  27.637  1.00  0.00     0.261 C 
BRANCH   2   3
ATOM      3  O   UNL A   1      33.788  30.749  27.418  1.00  0.00    -0.460 OA
BRANCH   3   4
ATOM      4  C   UNL A   1      32.730  30.351  26.672  1.00  0.00     0.338 C 
ATOM      5  O   UNL A   1      31.688  30.960  26.490  1.00  0.00    -0.246 OA
BRANCH   4   6
ATOM      6  C   UNL A   1      33.082  29.138  25.909  1.00  0.00     0.060 A 
ATOM      7  C   UNL A   1      33.644  26.901  24.277  1.00  0.00    -0.025 A 
ATOM      8  C   UNL A   1      33.388  28.169  23.728  1.00  0.00     0.007 A 
ATOM      9  C   UNL A   1      33.667  26.800  25.683  1.00  0.00     0.007 A 
ATOM     10  C   UNL A   1      33.094  29.269  24.525  1.00  0.00     0.016 A 
ATOM     11  C   UNL A   1      33.400  27.913  26.499  1.00  0.00     0.016 A 
BRANCH   7  12
ATOM     12  C   UNL A   1      33.825  25.650  23.403  1.00  0.00     0.114 C 
ATOM     13  C   UNL A   1      32.491  22.749  26.218  1.00  0.00     0.065 A 
ATOM     14  C   UNL A   1      33.381  22.347  27.221  1.00  0.00     0.016 A 
ATOM     15  C   UNL A   1      32.939  23.521  25.120  1.00  0.00    -0.003 A 
ATOM     16  C   UNL A   1      34.722  22.697  27.142  1.00  0.00     0.006 A 
ATOM     17  C   UNL A   1      34.316  23.870  25.043  1.00  0.00     0.042 A 
ATOM     18  C   UNL A   1      31.975  23.992  24.045  1.00  0.00     0.050 C 
ATOM     19  C   UNL A   1      35.206  23.455  26.064  1.00  0.00    -0.028 A 
ATOM     20  N   UNL A   1      34.755  24.725  24.037  1.00  0.00    -0.377 N 
ATOM     21  C   UNL A   1      30.849  24.902  24.478  1.00  0.00    -0.023 C 
ATOM     22  C   UNL A   1      32.608  24.840  22.922  1.00  0.00     0.031 C 
ATOM     23  C   UNL A   1      36.662  23.840  26.125  1.00  0.00     0.046 C 
ATOM     24  H   UNL A   1      35.697  24.707  23.753  1.00  0.00     0.161 HD
ATOM     25  C   UNL A   1      30.561  25.821  23.547  1.00  0.00    -0.030 C 
ATOM     26  C   UNL A   1      31.468  25.701  22.367  1.00  0.00     0.034 C 
BRANCH  13  27
ATOM     27  C   UNL A   1      31.075  22.342  26.366  1.00  0.00     0.338 C 
ATOM     28  O   UNL A   1      30.533  21.453  25.728  1.00  0.00    -0.246 OA
BRANCH  27  29
ATOM     29  O   UNL A   1      30.486  23.158  27.276  1.00  0.00    -0.465 OA
ATOM     30  C   UNL A   1      29.154  22.780  27.626  1.00  0.00     0.282 C 
ENDBRANCH  27  29
ENDBRANCH  13  27
ENDBRANCH   7  12
ENDBRANCH   4   6
ENDBRANCH   3   4
ENDBRANCH   2   3
ENDBRANCH   1   2
BRANCH   1  31
ATOM     31  O   UNL A   1      34.718  33.559  29.541  1.00  0.00    -0.374 OA
BRANCH  31  32
ATOM     32  C   UNL A   1      34.257  34.812  29.023  1.00  0.00     0.202 C 
BRANCH  32  33
ATOM     33  C   UNL A   1      32.918  35.323  29.571  1.00  0.00     0.261 C 
BRANCH  33  34
ATOM     34  O   UNL A   1      33.111  36.148  30.738  1.00  0.00    -0.460 OA
BRANCH  34  35
ATOM     35  C   UNL A   1      32.704  35.604  31.908  1.00  0.00     0.338 C 
ATOM     36  O   UNL A   1      31.562  35.490  32.325  1.00  0.00    -0.246 OA
BRANCH  35  37
ATOM     37  C   UNL A   1      33.853  34.963  32.571  1.00  0.00     0.060 A 
ATOM     38  C   UNL A   1      35.099  35.599  32.487  1.00  0.00     0.016 A 
ATOM     39  C   UNL A   1      33.728  33.715  33.184  1.00  0.00     0.016 A 
ATOM     40  C   UNL A   1      36.235  34.973  32.989  1.00  0.00     0.010 A 
ATOM     41  C   UNL A   1      34.874  33.077  33.665  1.00  0.00     0.010 A 
ATOM     42  C   UNL A   1      36.135  33.688  33.539  1.00  0.00    -0.014 A 
BRANCH  42  43
ATOM     43  C   UNL A   1      37.368  32.916  33.808  1.00  0.00     0.031 A 
ATOM     44  C   UNL A   1      38.129  33.196  35.074  1.00  0.00     0.074 A 
ATOM     45  C   UNL A   1      37.786  31.963  32.958  1.00  0.00     0.049 A 
ATOM     46  N   UNL A   1      39.246  32.670  35.503  1.00  0.00    -0.248 NA
ATOM     47  C   UNL A   1      37.550  34.203  35.978  1.00  0.00     0.031 C 
ATOM     48  C   UNL A   1      37.102  31.570  31.728  1.00  0.00     0.029 A 
ATOM     49  N   UNL A   1      38.896  31.157  33.001  1.00  0.00    -0.354 N 
ATOM     50  C   UNL A   1      39.499  33.276  36.727  1.00  0.00     0.074 A 
ATOM     51  C   UNL A   1      38.438  34.230  36.960  1.00  0.00     0.031 C 
ATOM     52  C   UNL A   1      37.817  30.604  31.125  1.00  0.00     0.029 A 
ATOM     53  C   UNL A   1      39.021  30.335  31.910  1.00  0.00     0.049 A 
ATOM     54  H   UNL A   1      39.542  31.168  33.745  1.00  0.00     0.167 HD
ATOM     55  C   UNL A   1      40.522  33.046  37.582  1.00  0.00     0.037 A 
ATOM     56  C   UNL A   1      40.007  29.478  31.578  1.00  0.00     0.037 A 
ATOM     57  C   UNL A   1      41.579  32.101  37.344  1.00  0.00     0.049 A 
ATOM     58  C   UNL A   1      41.183  29.309  32.505  1.00  0.00     0.074 A 
ATOM     59  C   UNL A   1      42.654  31.789  38.157  1.00  0.00     0.029 A 
ATOM     60  N   UNL A   1      41.697  31.321  36.203  1.00  0.00    -0.354 N 
ATOM     61  N   UNL A   1      41.405  29.869  33.669  1.00  0.00    -0.248 NA
ATOM     62  C   UNL A   1      42.244  28.389  32.072  1.00  0.00     0.031 C 
ATOM     63  C   UNL A   1      43.451  30.857  37.486  1.00  0.00     0.029 A 
ATOM     64  C   UNL A   1      42.845  30.550  36.279  1.00  0.00     0.049 A 
ATOM     65  H   UNL A   1      41.061  31.317  35.453  1.00  0.00     0.167 HD
ATOM     66  C   UNL A   1      42.615  29.354  34.118  1.00  0.00     0.074 A 
ATOM     67  C   UNL A   1      43.074  28.426  33.106  1.00  0.00     0.031 C 
ATOM     68  C   UNL A   1      43.285  29.626  35.265  1.00  0.00     0.037 A 
BRANCH  55  69
ATOM     69  C   UNL A   1      40.560  33.837  38.855  1.00  0.00     0.064 A 
ATOM     70  C   UNL A   1      39.870  33.415  40.000  1.00  0.00     0.173 A 
ATOM     71  C   UNL A   1      41.355  34.988  38.952  1.00  0.00     0.173 A 
ATOM     72  F   UNL A   1      39.084  32.328  39.952  1.00  0.00    -0.203 F 
ATOM     73  C   UNL A   1      39.969  34.120  41.196  1.00  0.00     0.198 A 
ATOM     74  C   UNL A   1      41.472  35.677  40.156  1.00  0.00     0.198 A 
ATOM     75  F   UNL A   1      42.036  35.432  37.884  1.00  0.00    -0.203 F 
ATOM     76  F   UNL A   1      39.282  33.713  42.272  1.00  0.00    -0.200 F 
ATOM     77  C   UNL A   1      40.778  35.244  41.276  1.00  0.00     0.200 A 
ATOM     78  F   UNL A   1      42.263  36.756  40.234  1.00  0.00    -0.200 F 
ATOM     79  F   UNL A   1      40.889  35.912  42.433  1.00  0.00    -0.200 F 
ENDBRANCH  55  69
BRANCH  56  80
ATOM     80  C   UNL A   1      39.928  28.720  30.302  1.00  0.00     0.064 A 
ATOM     81  C   UNL A   1      39.338  27.450  30.252  1.00  0.00     0.173 A 
ATOM     82  C   UNL A   1      40.445  29.247  29.109  1.00  0.00     0.173 A 
ATOM     83  F   UNL A   1      38.853  26.893  31.371  1.00  0.00    -0.203 F 
ATOM     84  C   UNL A   1      39.277  26.732  29.059  1.00  0.00     0.198 A 
ATOM     85  C   UNL A   1      40.360  28.540  27.912  1.00  0.00     0.198 A 
ATOM     86  F   UNL A   1      41.025  30.457  29.104  1.00  0.00    -0.203 F 
ATOM     87  F   UNL A   1      38.742  25.503  29.046  1.00  0.00    -0.200 F 
ATOM     88  C   UNL A   1      39.781  27.279  27.889  1.00  0.00     0.200 A 
ATOM     89  F   UNL A   1      40.839  29.078  26.783  1.00  0.00    -0.200 F 
ATOM     90  F   UNL A   1      39.716  26.591  26.741  1.00  0.00    -0.200 F 
ENDBRANCH  56  80
BRANCH  68  91
ATOM     91  C   UNL A   1      44.578  28.905  35.507  1.00  0.00     0.064 A 
ATOM     92  C   UNL A   1      45.809  29.461  35.128  1.00  0.00     0.173 A 
ATOM     93  C   UNL A   1      44.593  27.686  36.205  1.00  0.00     0.173 A 
ATOM     94  F   UNL A   1      45.846  30.617  34.449  1.00  0.00    -0.203 F 
ATOM     95  C   UNL A   1      47.006  28.817  35.428  1.00  0.00     0.198 A 
ATOM     96  C   UNL A   1      45.794  27.061  36.529  1.00  0.00     0.198 A 
ATOM     97  F   UNL A   1      43.443  27.119  36.600  1.00  0.00    -0.203 F 
ATOM     98  F   UNL A   1      48.169  29.350  35.030  1.00  0.00    -0.200 F 
ATOM     99  C   UNL A   1      46.999  27.624  36.137  1.00  0.00     0.200 A 
ATOM    100  F   UNL A   1      45.785  25.919  37.229  1.00  0.00    -0.200 F 
ATOM    101  F   UNL A   1      48.154  27.018  36.443  1.00  0.00    -0.200 F 
ENDBRANCH  68  91
ENDBRANCH  42  43
ENDBRANCH  35  37
ENDBRANCH  34  35
ENDBRANCH  33  34
ENDBRANCH  32  33
ENDBRANCH  31  32
ENDBRANCH   1  31
TORSDOF 17
ENDMDL
MODEL 3
REMARK VINA RESULT:     -12.2      5.420     10.434
REMARK SMILES COC(=O)c1ccc(C)c2c1[C@H]1C=CC[C@H]1[C@@H](c1ccc(C(=O)OCCOCCOC(=O)c3ccc(-c4c5nc(c(-c6c(F)c(F)c(F)c(F)c6F)c6ccc([nH]6)c(-c6c(F)c(F)c(F)c(F)c6F)c6nc(c(-c7c(F)c(F)c(F)c(F)c7F)c7ccc4[nH]7)C=C6)C=C5)cc3)cc1)N2
REMARK SMILES IDX 26 1 25 2 24 3 22 4 23 5 21 6 18 7 19 8 97 9 20 10 96 11
REMARK SMILES IDX 17 12 5 13 6 14 11 15 7 16 10 17 12 18 8 19 98 20 13 21
REMARK SMILES IDX 16 22 9 23 14 25 15 26 3 27 4 28 2 29 1 30 27 31 28 32 29 33
REMARK SMILES IDX 30 34 31 35 32 36 33 37 34 38 95 39 35 40 94 41 36 42 37 43
REMARK SMILES IDX 38 44 88 45 39 46 93 47 87 48 89 49 40 50 92 51 86 52 85 53
REMARK SMILES IDX 41 55 73 56 53 57 72 58 54 59 57 60 71 61 90 62 55 63 56 64
REMARK SMILES IDX 70 66 91 67 58 68 42 69 43 70 51 71 44 72 45 73 49 74 52 75
REMARK SMILES IDX 46 76 47 77 50 78 48 79 74 80 75 81 83 82 76 83 77 84 81 85
REMARK SMILES IDX 84 86 78 87 79 88 82 89 80 90 59 91 60 92 68 93 61 94 62 95
REMARK SMILES IDX 66 96 69 97 63 98 64 99 67 100 65 101
REMARK H PARENT 98 24 89 54 57 65
REMARK Flexibility Score: inf
ROOT
ATOM      1  C   UNL A   1      40.009  21.141  26.133  1.00  0.00     0.202 C 
ENDROOT
BRANCH   1   2
ATOM      2  C   UNL A   1      38.834  22.121  26.126  1.00  0.00     0.261 C 
BRANCH   2   3
ATOM      3  O   UNL A   1      37.614  21.463  25.748  1.00  0.00    -0.460 OA
BRANCH   3   4
ATOM      4  C   UNL A   1      36.985  22.030  24.691  1.00  0.00     0.338 C 
ATOM      5  O   UNL A   1      37.265  21.898  23.510  1.00  0.00    -0.246 OA
BRANCH   4   6
ATOM      6  C   UNL A   1      35.745  22.691  25.142  1.00  0.00     0.060 A 
ATOM      7  C   UNL A   1      33.471  24.153  25.966  1.00  0.00    -0.025 A 
ATOM      8  C   UNL A   1      34.401  24.685  25.057  1.00  0.00     0.007 A 
ATOM      9  C   UNL A   1      33.687  22.831  26.408  1.00  0.00     0.007 A 
ATOM     10  C   UNL A   1      35.531  23.978  24.661  1.00  0.00     0.016 A 
ATOM     11  C   UNL A   1      34.810  22.097  25.991  1.00  0.00     0.016 A 
BRANCH   7  12
ATOM     12  C   UNL A   1      32.301  24.979  26.521  1.00  0.00     0.114 C 
ATOM     13  C   UNL A   1      31.881  27.693  23.268  1.00  0.00     0.065 A 
ATOM     14  C   UNL A   1      32.778  28.764  23.185  1.00  0.00     0.016 A 
ATOM     15  C   UNL A   1      31.811  26.898  24.437  1.00  0.00    -0.003 A 
ATOM     16  C   UNL A   1      33.605  29.064  24.259  1.00  0.00     0.006 A 
ATOM     17  C   UNL A   1      32.657  27.215  25.535  1.00  0.00     0.042 A 
ATOM     18  C   UNL A   1      30.865  25.711  24.524  1.00  0.00     0.050 C 
ATOM     19  C   UNL A   1      33.558  28.303  25.438  1.00  0.00    -0.028 A 
ATOM     20  N   UNL A   1      32.688  26.378  26.646  1.00  0.00    -0.377 N 
ATOM     21  C   UNL A   1      31.074  24.589  23.535  1.00  0.00    -0.023 C 
ATOM     22  C   UNL A   1      30.914  24.930  25.854  1.00  0.00     0.031 C 
ATOM     23  C   UNL A   1      34.557  28.673  26.505  1.00  0.00     0.046 C 
ATOM     24  H   UNL A   1      32.973  26.731  27.520  1.00  0.00     0.161 HD
ATOM     25  C   UNL A   1      30.816  23.391  24.076  1.00  0.00    -0.030 C 
ATOM     26  C   UNL A   1      30.437  23.515  25.514  1.00  0.00     0.034 C 
BRANCH  13  27
ATOM     27  C   UNL A   1      31.029  27.428  22.086  1.00  0.00     0.338 C 
ATOM     28  O   UNL A   1      31.188  26.506  21.301  1.00  0.00    -0.246 OA
BRANCH  27  29
ATOM     29  O   UNL A   1      30.095  28.409  22.003  1.00  0.00    -0.465 OA
ATOM     30  C   UNL A   1      29.009  28.262  22.920  1.00  0.00     0.282 C 
ENDBRANCH  27  29
ENDBRANCH  13  27
ENDBRANCH   7  12
ENDBRANCH   4   6
ENDBRANCH   3   4
ENDBRANCH   2   3
ENDBRANCH   1   2
BRANCH   1  31
ATOM     31  O   UNL A   1      40.936  21.271  27.208  1.00  0.00    -0.374 OA
BRANCH  31  32
ATOM     32  C   UNL A   1      42.275  20.823  26.972  1.00  0.00     0.202 C 
BRANCH  32  33
ATOM     33  C   UNL A   1      43.127  21.692  26.037  1.00  0.00     0.261 C 
BRANCH  33  34
ATOM     34  O   UNL A   1      43.376  22.991  26.612  1.00  0.00    -0.460 OA
BRANCH  34  35
ATOM     35  C   UNL A   1      43.043  24.045  25.831  1.00  0.00     0.338 C 
ATOM     36  O   UNL A   1      43.097  24.121  24.613  1.00  0.00    -0.246 OA
BRANCH  35  37
ATOM     37  C   UNL A   1      42.399  25.078  26.659  1.00  0.00     0.060 A 
ATOM     38  C   UNL A   1      42.963  26.361  26.665  1.00  0.00     0.016 A 
ATOM     39  C   UNL A   1      41.316  24.771  27.483  1.00  0.00     0.016 A 
ATOM     40  C   UNL A   1      42.467  27.336  27.524  1.00  0.00     0.010 A 
ATOM     41  C   UNL A   1      40.835  25.744  28.364  1.00  0.00     0.010 A 
ATOM     42  C   UNL A   1      41.430  27.017  28.411  1.00  0.00    -0.014 A 
BRANCH  42  43
ATOM     43  C   UNL A   1      41.098  27.955  29.506  1.00  0.00     0.031 A 
ATOM     44  C   UNL A   1      41.914  27.904  30.768  1.00  0.00     0.074 A 
ATOM     45  C   UNL A   1      40.108  28.854  29.370  1.00  0.00     0.049 A 
ATOM     46  N   UNL A   1      41.787  28.601  31.867  1.00  0.00    -0.248 NA
ATOM     47  C   UNL A   1      43.024  26.937  30.792  1.00  0.00     0.031 C 
ATOM     48  C   UNL A   1      39.286  29.030  28.176  1.00  0.00     0.029 A 
ATOM     49  N   UNL A   1      39.626  29.785  30.255  1.00  0.00    -0.354 N 
ATOM     50  C   UNL A   1      42.802  28.164  32.706  1.00  0.00     0.074 A 
ATOM     51  C   UNL A   1      43.519  27.121  32.007  1.00  0.00     0.031 C 
ATOM     52  C   UNL A   1      38.388  30.003  28.408  1.00  0.00     0.029 A 
ATOM     53  C   UNL A   1      38.554  30.496  29.774  1.00  0.00     0.049 A 
ATOM     54  H   UNL A   1      40.012  29.931  31.150  1.00  0.00     0.167 HD
ATOM     55  C   UNL A   1      43.113  28.603  33.948  1.00  0.00     0.037 A 
ATOM     56  C   UNL A   1      37.786  31.422  30.380  1.00  0.00     0.037 A 
ATOM     57  C   UNL A   1      42.394  29.636  34.644  1.00  0.00     0.049 A 
ATOM     58  C   UNL A   1      38.097  31.828  31.798  1.00  0.00     0.074 A 
ATOM     59  C   UNL A   1      42.639  30.158  35.902  1.00  0.00     0.029 A 
ATOM     60  N   UNL A   1      41.283  30.298  34.143  1.00  0.00    -0.354 N 
ATOM     61  N   UNL A   1      39.070  31.426  32.579  1.00  0.00    -0.248 NA
ATOM     62  C   UNL A   1      37.202  32.815  32.419  1.00  0.00     0.031 C 
ATOM     63  C   UNL A   1      41.646  31.101  36.182  1.00  0.00     0.029 A 
ATOM     64  C   UNL A   1      40.813  31.203  35.080  1.00  0.00     0.049 A 
ATOM     65  H   UNL A   1      40.887  30.146  33.255  1.00  0.00     0.167 HD
ATOM     66  C   UNL A   1      38.920  32.125  33.770  1.00  0.00     0.074 A 
ATOM     67  C   UNL A   1      37.768  32.987  33.605  1.00  0.00     0.031 C 
ATOM     68  C   UNL A   1      39.669  32.058  34.898  1.00  0.00     0.037 A 
BRANCH  55  69
ATOM     69  C   UNL A   1      44.274  27.963  34.646  1.00  0.00     0.064 A 
ATOM     70  C   UNL A   1      45.568  28.495  34.553  1.00  0.00     0.173 A 
ATOM     71  C   UNL A   1      44.078  26.850  35.477  1.00  0.00     0.173 A 
ATOM     72  F   UNL A   1      45.808  29.551  33.760  1.00  0.00    -0.203 F 
ATOM     73  C   UNL A   1      46.625  27.933  35.262  1.00  0.00     0.198 A 
ATOM     74  C   UNL A   1      45.133  26.305  36.204  1.00  0.00     0.198 A 
ATOM     75  F   UNL A   1      42.858  26.305  35.600  1.00  0.00    -0.203 F 
ATOM     76  F   UNL A   1      47.859  28.442  35.140  1.00  0.00    -0.200 F 
ATOM     77  C   UNL A   1      46.405  26.846  36.095  1.00  0.00     0.200 A 
ATOM     78  F   UNL A   1      44.916  25.262  37.016  1.00  0.00    -0.200 F 
ATOM     79  F   UNL A   1      47.420  26.316  36.792  1.00  0.00    -0.200 F 
ENDBRANCH  55  69
BRANCH  56  80
ATOM     80  C   UNL A   1      36.641  32.025  29.649  1.00  0.00     0.064 A 
ATOM     81  C   UNL A   1      36.628  33.388  29.324  1.00  0.00     0.173 A 
ATOM     82  C   UNL A   1      35.535  31.253  29.266  1.00  0.00     0.173 A 
ATOM     83  F   UNL A   1      37.652  34.173  29.691  1.00  0.00    -0.203 F 
ATOM     84  C   UNL A   1      35.549  33.957  28.652  1.00  0.00     0.198 A 
ATOM     85  C   UNL A   1      34.467  31.817  28.572  1.00  0.00     0.198 A 
ATOM     86  F   UNL A   1      35.495  29.944  29.559  1.00  0.00    -0.203 F 
ATOM     87  F   UNL A   1      35.544  35.271  28.387  1.00  0.00    -0.200 F 
ATOM     88  C   UNL A   1      34.472  33.171  28.270  1.00  0.00     0.200 A 
ATOM     89  F   UNL A   1      33.435  31.050  28.196  1.00  0.00    -0.200 F 
ATOM     90  F   UNL A   1      33.437  33.717  27.618  1.00  0.00    -0.200 F 
ENDBRANCH  56  80
BRANCH  68  91
ATOM     91  C   UNL A   1      39.288  32.950  36.044  1.00  0.00     0.064 A 
ATOM     92  C   UNL A   1      38.435  32.505  37.065  1.00  0.00     0.173 A 
ATOM     93  C   UNL A   1      39.853  34.229  36.168  1.00  0.00     0.173 A 
ATOM     94  F   UNL A   1      37.863  31.295  36.986  1.00  0.00    -0.203 F 
ATOM     95  C   UNL A   1      38.152  33.314  38.162  1.00  0.00     0.198 A 
ATOM     96  C   UNL A   1      39.590  35.023  37.280  1.00  0.00     0.198 A 
ATOM     97  F   UNL A   1      40.684  34.696  35.223  1.00  0.00    -0.203 F 
ATOM     98  F   UNL A   1      37.311  32.883  39.110  1.00  0.00    -0.200 F 
ATOM     99  C   UNL A   1      38.738  34.568  38.274  1.00  0.00     0.200 A 
ATOM    100  F   UNL A   1      40.170  36.226  37.395  1.00  0.00    -0.200 F 
ATOM    101  F   UNL A   1      38.479  35.336  39.341  1.00  0.00    -0.200 F 
ENDBRANCH  68  91
ENDBRANCH  42  43
ENDBRANCH  35  37
ENDBRANCH  34  35
ENDBRANCH  33  34
ENDBRANCH  32  33
ENDBRANCH  31  32
ENDBRANCH   1  31
TORSDOF 17
ENDMDL
