MODEL 1
REMARK VINA RESULT:     -11.0      0.000      0.000
REMARK SMILES Cn1ccc(S(=O)(=O)N[C@H]2C=C[C@@H](C(=O)OCCOCCOC(=O)c3ccc(-c4c5nc(c(-c6c(F)c(F)c(F)c(F)c6F)c6ccc([nH]6)c(-c6c(F)c(F)c(F)c(F)c6F)c6nc(c(-c7c(F)c(F)c(F)c(F)c7F)c7ccc4[nH]7)C=C6)C=C5)cc3)C2)c1
REMARK SMILES IDX 18 1 17 2 16 3 14 4 15 5 13 6 10 7 11 8 88 9 12 10 9 11 6 13
REMARK SMILES IDX 7 14 8 15 5 16 1 17 2 18 3 19 89 20 4 21 19 22 20 23 21 24
REMARK SMILES IDX 22 25 23 26 24 27 25 28 26 29 87 30 27 31 86 32 28 33 29 34
REMARK SMILES IDX 30 35 80 36 31 37 85 38 79 39 81 40 32 41 84 42 78 43 77 44
REMARK SMILES IDX 33 46 65 47 45 48 64 49 46 50 49 51 63 52 82 53 47 54 48 55
REMARK SMILES IDX 62 57 83 58 50 59 34 60 35 61 43 62 36 63 37 64 41 65 44 66
REMARK SMILES IDX 38 67 39 68 42 69 40 70 66 71 67 72 75 73 68 74 69 75 73 76
REMARK SMILES IDX 76 77 70 78 71 79 74 80 72 81 51 82 52 83 60 84 53 85 54 86
REMARK SMILES IDX 58 87 61 88 55 89 56 90 59 91 57 92
REMARK H PARENT 9 12 81 45 49 56
REMARK Flexibility Score: inf
ROOT
ATOM      1  C   UNL A   1      32.785  30.007  25.625  1.00  0.00     0.202 C 
ENDROOT
BRANCH   1   2
ATOM      2  C   UNL A   1      32.409  28.855  24.692  1.00  0.00     0.261 C 
BRANCH   2   3
ATOM      3  O   UNL A   1      31.155  28.290  25.101  1.00  0.00    -0.463 OA
BRANCH   3   4
ATOM      4  C   UNL A   1      31.203  27.026  25.592  1.00  0.00     0.312 C 
ATOM      5  O   UNL A   1      30.833  26.698  26.713  1.00  0.00    -0.252 OA
BRANCH   4   6
ATOM      6  C   UNL A   1      31.735  26.018  24.578  1.00  0.00     0.123 C 
ATOM      7  C   UNL A   1      32.568  23.700  24.473  1.00  0.00     0.093 C 
ATOM      8  C   UNL A   1      31.100  23.780  24.249  1.00  0.00    -0.011 C 
ATOM      9  C   UNL A   1      32.904  25.110  24.995  1.00  0.00     0.043 C 
ATOM     10  C   UNL A   1      30.651  25.037  24.268  1.00  0.00    -0.015 C 
BRANCH   7  11
ATOM     11  N   UNL A   1      33.034  22.689  25.423  1.00  0.00    -0.204 NA
ATOM     12  H   UNL A   1      33.266  23.194  26.280  1.00  0.00     0.142 HD
BRANCH  11  13
ATOM     13  S   UNL A   1      34.337  21.677  25.115  1.00  0.00     0.242 S 
ATOM     14  O   UNL A   1      35.046  21.495  26.361  1.00  0.00    -0.207 OA
ATOM     15  O   UNL A   1      35.000  22.196  23.941  1.00  0.00    -0.207 OA
BRANCH  13  16
ATOM     16  C   UNL A   1      33.802  20.102  24.664  1.00  0.00     0.100 A 
ATOM     17  C   UNL A   1      34.155  16.600  23.824  1.00  0.00     0.149 C 
ATOM     18  N   UNL A   1      33.743  17.954  24.110  1.00  0.00    -0.356 N 
ATOM     19  C   UNL A   1      32.495  18.460  23.853  1.00  0.00     0.086 A 
ATOM     20  C   UNL A   1      34.541  18.935  24.638  1.00  0.00     0.106 A 
ATOM     21  C   UNL A   1      32.499  19.796  24.191  1.00  0.00     0.041 A 
ENDBRANCH  13  16
ENDBRANCH  11  13
ENDBRANCH   7  11
ENDBRANCH   4   6
ENDBRANCH   3   4
ENDBRANCH   2   3
ENDBRANCH   1   2
BRANCH   1  22
ATOM     22  O   UNL A   1      31.734  30.460  26.481  1.00  0.00    -0.374 OA
BRANCH  22  23
ATOM     23  C   UNL A   1      31.113  31.704  26.155  1.00  0.00     0.202 C 
BRANCH  23  24
ATOM     24  C   UNL A   1      31.769  32.954  26.752  1.00  0.00     0.261 C 
BRANCH  24  25
ATOM     25  O   UNL A   1      32.738  32.619  27.764  1.00  0.00    -0.460 OA
BRANCH  25  26
ATOM     26  C   UNL A   1      33.772  33.491  27.869  1.00  0.00     0.338 C 
ATOM     27  O   UNL A   1      33.722  34.708  27.813  1.00  0.00    -0.246 OA
BRANCH  26  28
ATOM     28  C   UNL A   1      35.007  32.775  28.238  1.00  0.00     0.060 A 
ATOM     29  C   UNL A   1      34.885  31.429  28.604  1.00  0.00     0.016 A 
ATOM     30  C   UNL A   1      36.242  33.422  28.315  1.00  0.00     0.016 A 
ATOM     31  C   UNL A   1      35.988  30.736  29.096  1.00  0.00     0.010 A 
ATOM     32  C   UNL A   1      37.348  32.727  28.820  1.00  0.00     0.010 A 
ATOM     33  C   UNL A   1      37.217  31.392  29.245  1.00  0.00    -0.014 A 
BRANCH  33  34
ATOM     34  C   UNL A   1      38.318  30.720  29.975  1.00  0.00     0.031 A 
ATOM     35  C   UNL A   1      38.565  31.076  31.414  1.00  0.00     0.074 A 
ATOM     36  C   UNL A   1      39.067  29.778  29.375  1.00  0.00     0.049 A 
ATOM     37  N   UNL A   1      39.476  30.623  32.239  1.00  0.00    -0.248 NA
ATOM     38  C   UNL A   1      37.663  32.077  32.005  1.00  0.00     0.031 C 
ATOM     39  C   UNL A   1      38.902  29.320  27.998  1.00  0.00     0.029 A 
ATOM     40  N   UNL A   1      40.121  29.042  29.854  1.00  0.00    -0.354 N 
ATOM     41  C   UNL A   1      39.258  31.281  33.442  1.00  0.00     0.074 A 
ATOM     42  C   UNL A   1      38.146  32.184  33.235  1.00  0.00     0.031 C 
ATOM     43  C   UNL A   1      39.833  28.387  27.736  1.00  0.00     0.029 A 
ATOM     44  C   UNL A   1      40.672  28.201  28.919  1.00  0.00     0.049 A 
ATOM     45  H   UNL A   1      40.452  29.110  30.779  1.00  0.00     0.167 HD
ATOM     46  C   UNL A   1      39.919  31.140  34.614  1.00  0.00     0.037 A 
ATOM     47  C   UNL A   1      41.745  27.390  29.005  1.00  0.00     0.037 A 
ATOM     48  C   UNL A   1      41.024  30.242  34.821  1.00  0.00     0.049 A 
ATOM     49  C   UNL A   1      42.507  27.303  30.301  1.00  0.00     0.074 A 
ATOM     50  C   UNL A   1      41.742  30.009  35.982  1.00  0.00     0.029 A 
ATOM     51  N   UNL A   1      41.577  29.435  33.840  1.00  0.00    -0.354 N 
ATOM     52  N   UNL A   1      42.274  27.904  31.442  1.00  0.00    -0.248 NA
ATOM     53  C   UNL A   1      43.684  26.420  30.319  1.00  0.00     0.031 C 
ATOM     54  C   UNL A   1      42.757  29.092  35.692  1.00  0.00     0.029 A 
ATOM     55  C   UNL A   1      42.646  28.722  34.361  1.00  0.00     0.049 A 
ATOM     56  H   UNL A   1      41.259  29.375  32.911  1.00  0.00     0.167 HD
ATOM     57  C   UNL A   1      43.256  27.460  32.317  1.00  0.00     0.074 A 
ATOM     58  C   UNL A   1      44.083  26.527  31.579  1.00  0.00     0.031 C 
ATOM     59  C   UNL A   1      43.456  27.794  33.615  1.00  0.00     0.037 A 
BRANCH  46  60
ATOM     60  C   UNL A   1      39.476  31.993  35.764  1.00  0.00     0.064 A 
ATOM     61  C   UNL A   1      40.055  33.245  36.016  1.00  0.00     0.173 A 
ATOM     62  C   UNL A   1      38.433  31.569  36.601  1.00  0.00     0.173 A 
ATOM     63  F   UNL A   1      41.064  33.687  35.250  1.00  0.00    -0.203 F 
ATOM     64  C   UNL A   1      39.620  34.034  37.078  1.00  0.00     0.198 A 
ATOM     65  C   UNL A   1      37.985  32.370  37.648  1.00  0.00     0.198 A 
ATOM     66  F   UNL A   1      37.843  30.381  36.399  1.00  0.00    -0.203 F 
ATOM     67  F   UNL A   1      40.214  35.209  37.324  1.00  0.00    -0.200 F 
ATOM     68  C   UNL A   1      38.583  33.598  37.889  1.00  0.00     0.200 A 
ATOM     69  F   UNL A   1      36.977  31.953  38.426  1.00  0.00    -0.200 F 
ATOM     70  F   UNL A   1      38.162  34.361  38.908  1.00  0.00    -0.200 F 
ENDBRANCH  46  60
BRANCH  47  71
ATOM     71  C   UNL A   1      42.172  26.602  27.822  1.00  0.00     0.064 A 
ATOM     72  C   UNL A   1      41.633  25.334  27.566  1.00  0.00     0.173 A 
ATOM     73  C   UNL A   1      43.138  27.094  26.934  1.00  0.00     0.173 A 
ATOM     74  F   UNL A   1      40.727  24.809  28.404  1.00  0.00    -0.203 F 
ATOM     75  C   UNL A   1      42.055  24.582  26.471  1.00  0.00     0.198 A 
ATOM     76  C   UNL A   1      43.542  26.352  25.826  1.00  0.00     0.198 A 
ATOM     77  F   UNL A   1      43.687  28.301  27.140  1.00  0.00    -0.203 F 
ATOM     78  F   UNL A   1      41.555  23.355  26.272  1.00  0.00    -0.200 F 
ATOM     79  C   UNL A   1      43.005  25.094  25.599  1.00  0.00     0.200 A 
ATOM     80  F   UNL A   1      44.455  26.852  24.983  1.00  0.00    -0.200 F 
ATOM     81  F   UNL A   1      43.410  24.370  24.546  1.00  0.00    -0.200 F 
ENDBRANCH  47  71
BRANCH  59  82
ATOM     82  C   UNL A   1      44.594  27.130  34.331  1.00  0.00     0.064 A 
ATOM     83  C   UNL A   1      44.465  25.848  34.884  1.00  0.00     0.173 A 
ATOM     84  C   UNL A   1      45.842  27.765  34.425  1.00  0.00     0.173 A 
ATOM     85  F   UNL A   1      43.288  25.207  34.832  1.00  0.00    -0.203 F 
ATOM     86  C   UNL A   1      45.540  25.233  35.521  1.00  0.00     0.198 A 
ATOM     87  C   UNL A   1      46.920  27.138  35.041  1.00  0.00     0.198 A 
ATOM     88  F   UNL A   1      46.018  28.990  33.907  1.00  0.00    -0.203 F 
ATOM     89  F   UNL A   1      45.384  24.023  36.076  1.00  0.00    -0.200 F 
ATOM     90  C   UNL A   1      46.768  25.874  35.593  1.00  0.00     0.200 A 
ATOM     91  F   UNL A   1      48.110  27.754  35.101  1.00  0.00    -0.200 F 
ATOM     92  F   UNL A   1      47.802  25.277  36.201  1.00  0.00    -0.200 F 
ENDBRANCH  59  82
ENDBRANCH  33  34
ENDBRANCH  26  28
ENDBRANCH  25  26
ENDBRANCH  24  25
ENDBRANCH  23  24
ENDBRANCH  22  23
ENDBRANCH   1  22
TORSDOF 17
ENDMDL
MODEL 2
REMARK VINA RESULT:     -10.9      1.201      7.630
REMARK SMILES Cn1ccc(S(=O)(=O)N[C@H]2C=C[C@@H](C(=O)OCCOCCOC(=O)c3ccc(-c4c5nc(c(-c6c(F)c(F)c(F)c(F)c6F)c6ccc([nH]6)c(-c6c(F)c(F)c(F)c(F)c6F)c6nc(c(-c7c(F)c(F)c(F)c(F)c7F)c7ccc4[nH]7)C=C6)C=C5)cc3)C2)c1
REMARK SMILES IDX 18 1 17 2 16 3 14 4 15 5 13 6 10 7 11 8 88 9 12 10 9 11 6 13
REMARK SMILES IDX 7 14 8 15 5 16 1 17 2 18 3 19 89 20 4 21 19 22 20 23 21 24
REMARK SMILES IDX 22 25 23 26 24 27 25 28 26 29 87 30 27 31 86 32 28 33 29 34
REMARK SMILES IDX 30 35 80 36 31 37 85 38 79 39 81 40 32 41 84 42 78 43 77 44
REMARK SMILES IDX 33 46 65 47 45 48 64 49 46 50 49 51 63 52 82 53 47 54 48 55
REMARK SMILES IDX 62 57 83 58 50 59 34 60 35 61 43 62 36 63 37 64 41 65 44 66
REMARK SMILES IDX 38 67 39 68 42 69 40 70 66 71 67 72 75 73 68 74 69 75 73 76
REMARK SMILES IDX 76 77 70 78 71 79 74 80 72 81 51 82 52 83 60 84 53 85 54 86
REMARK SMILES IDX 58 87 61 88 55 89 56 90 59 91 57 92
REMARK H PARENT 9 12 81 45 49 56
REMARK Flexibility Score: inf
ROOT
ATOM      1  C   UNL A   1      30.381  28.102  23.455  1.00  0.00     0.202 C 
ENDROOT
BRANCH   1   2
ATOM      2  C   UNL A   1      30.373  26.640  23.005  1.00  0.00     0.261 C 
BRANCH   2   3
ATOM      3  O   UNL A   1      30.004  25.797  24.106  1.00  0.00    -0.463 OA
BRANCH   3   4
ATOM      4  C   UNL A   1      30.618  24.589  24.162  1.00  0.00     0.312 C 
ATOM      5  O   UNL A   1      30.738  23.823  23.213  1.00  0.00    -0.252 OA
BRANCH   4   6
ATOM      6  C   UNL A   1      31.198  24.283  25.540  1.00  0.00     0.123 C 
ATOM      7  C   UNL A   1      32.468  22.524  26.710  1.00  0.00     0.093 C 
ATOM      8  C   UNL A   1      33.357  23.550  26.104  1.00  0.00    -0.011 C 
ATOM      9  C   UNL A   1      31.104  22.841  26.068  1.00  0.00     0.043 C 
ATOM     10  C   UNL A   1      32.672  24.525  25.501  1.00  0.00    -0.015 C 
BRANCH   7  11
ATOM     11  N   UNL A   1      32.821  21.124  26.471  1.00  0.00    -0.204 NA
ATOM     12  H   UNL A   1      33.457  20.862  27.225  1.00  0.00     0.142 HD
BRANCH  11  13
ATOM     13  S   UNL A   1      33.543  20.594  25.051  1.00  0.00     0.242 S 
ATOM     14  O   UNL A   1      34.946  20.935  25.126  1.00  0.00    -0.207 OA
ATOM     15  O   UNL A   1      32.713  21.057  23.962  1.00  0.00    -0.207 OA
BRANCH  13  16
ATOM     16  C   UNL A   1      33.500  18.874  24.942  1.00  0.00     0.100 A 
ATOM     17  C   UNL A   1      32.365  15.533  25.748  1.00  0.00     0.149 C 
ATOM     18  N   UNL A   1      32.996  16.736  25.256  1.00  0.00    -0.356 N 
ATOM     19  C   UNL A   1      34.136  16.763  24.495  1.00  0.00     0.086 A 
ATOM     20  C   UNL A   1      32.577  18.016  25.508  1.00  0.00     0.106 A 
ATOM     21  C   UNL A   1      34.474  18.082  24.280  1.00  0.00     0.041 A 
ENDBRANCH  13  16
ENDBRANCH  11  13
ENDBRANCH   7  11
ENDBRANCH   4   6
ENDBRANCH   3   4
ENDBRANCH   2   3
ENDBRANCH   1   2
BRANCH   1  22
ATOM     22  O   UNL A   1      31.089  28.358  24.669  1.00  0.00    -0.374 OA
BRANCH  22  23
ATOM     23  C   UNL A   1      31.955  29.494  24.696  1.00  0.00     0.202 C 
BRANCH  23  24
ATOM     24  C   UNL A   1      31.696  30.504  25.820  1.00  0.00     0.261 C 
BRANCH  24  25
ATOM     25  O   UNL A   1      32.632  30.350  26.904  1.00  0.00    -0.460 OA
BRANCH  25  26
ATOM     26  C   UNL A   1      33.288  31.485  27.250  1.00  0.00     0.338 C 
ATOM     27  O   UNL A   1      32.838  32.618  27.290  1.00  0.00    -0.246 OA
BRANCH  26  28
ATOM     28  C   UNL A   1      34.635  31.161  27.755  1.00  0.00     0.060 A 
ATOM     29  C   UNL A   1      34.901  29.821  28.062  1.00  0.00     0.016 A 
ATOM     30  C   UNL A   1      35.588  32.149  28.011  1.00  0.00     0.016 A 
ATOM     31  C   UNL A   1      36.103  29.469  28.673  1.00  0.00     0.010 A 
ATOM     32  C   UNL A   1      36.791  31.796  28.634  1.00  0.00     0.010 A 
ATOM     33  C   UNL A   1      37.038  30.460  28.998  1.00  0.00    -0.014 A 
BRANCH  33  34
ATOM     34  C   UNL A   1      38.204  30.111  29.845  1.00  0.00     0.031 A 
ATOM     35  C   UNL A   1      39.241  29.165  29.307  1.00  0.00     0.074 A 
ATOM     36  C   UNL A   1      38.357  30.658  31.064  1.00  0.00     0.049 A 
ATOM     37  N   UNL A   1      40.331  28.715  29.876  1.00  0.00    -0.248 NA
ATOM     38  C   UNL A   1      39.021  28.658  27.944  1.00  0.00     0.031 C 
ATOM     39  C   UNL A   1      37.442  31.614  31.680  1.00  0.00     0.029 A 
ATOM     40  N   UNL A   1      39.343  30.478  32.002  1.00  0.00    -0.354 N 
ATOM     41  C   UNL A   1      40.925  27.875  28.944  1.00  0.00     0.074 A 
ATOM     42  C   UNL A   1      40.063  27.855  27.781  1.00  0.00     0.031 C 
ATOM     43  C   UNL A   1      37.901  31.930  32.903  1.00  0.00     0.029 A 
ATOM     44  C   UNL A   1      39.129  31.179  33.162  1.00  0.00     0.049 A 
ATOM     45  H   UNL A   1      40.127  29.901  31.857  1.00  0.00     0.167 HD
ATOM     46  C   UNL A   1      42.087  27.188  29.045  1.00  0.00     0.037 A 
ATOM     47  C   UNL A   1      39.835  31.195  34.310  1.00  0.00     0.037 A 
ATOM     48  C   UNL A   1      42.946  27.207  30.199  1.00  0.00     0.049 A 
ATOM     49  C   UNL A   1      41.088  30.367  34.422  1.00  0.00     0.074 A 
ATOM     50  C   UNL A   1      44.158  26.564  30.384  1.00  0.00     0.029 A 
ATOM     51  N   UNL A   1      42.676  27.899  31.369  1.00  0.00    -0.354 N 
ATOM     52  N   UNL A   1      41.659  29.601  33.525  1.00  0.00    -0.248 NA
ATOM     53  C   UNL A   1      41.796  30.409  35.711  1.00  0.00     0.031 C 
ATOM     54  C   UNL A   1      44.601  26.834  31.684  1.00  0.00     0.029 A 
ATOM     55  C   UNL A   1      43.686  27.678  32.292  1.00  0.00     0.049 A 
ATOM     56  H   UNL A   1      41.885  28.465  31.523  1.00  0.00     0.167 HD
ATOM     57  C   UNL A   1      42.799  29.088  34.128  1.00  0.00     0.074 A 
ATOM     58  C   UNL A   1      42.848  29.639  35.467  1.00  0.00     0.031 C 
ATOM     59  C   UNL A   1      43.723  28.237  33.619  1.00  0.00     0.037 A 
BRANCH  46  60
ATOM     60  C   UNL A   1      42.490  26.339  27.877  1.00  0.00     0.064 A 
ATOM     61  C   UNL A   1      41.984  25.043  27.702  1.00  0.00     0.173 A 
ATOM     62  C   UNL A   1      43.364  26.843  26.902  1.00  0.00     0.173 A 
ATOM     63  F   UNL A   1      41.155  24.514  28.614  1.00  0.00    -0.203 F 
ATOM     64  C   UNL A   1      42.355  24.273  26.602  1.00  0.00     0.198 A 
ATOM     65  C   UNL A   1      43.716  26.078  25.792  1.00  0.00     0.198 A 
ATOM     66  F   UNL A   1      43.873  28.079  27.022  1.00  0.00    -0.203 F 
ATOM     67  F   UNL A   1      41.890  23.023  26.474  1.00  0.00    -0.200 F 
ATOM     68  C   UNL A   1      43.216  24.793  25.647  1.00  0.00     0.200 A 
ATOM     69  F   UNL A   1      44.539  26.585  24.865  1.00  0.00    -0.200 F 
ATOM     70  F   UNL A   1      43.567  24.052  24.587  1.00  0.00    -0.200 F 
ENDBRANCH  46  60
BRANCH  47  71
ATOM     71  C   UNL A   1      39.367  32.016  35.454  1.00  0.00     0.064 A 
ATOM     72  C   UNL A   1      39.799  33.339  35.620  1.00  0.00     0.173 A 
ATOM     73  C   UNL A   1      38.490  31.489  36.413  1.00  0.00     0.173 A 
ATOM     74  F   UNL A   1      40.660  33.876  34.744  1.00  0.00    -0.203 F 
ATOM     75  C   UNL A   1      39.381  34.100  36.710  1.00  0.00     0.198 A 
ATOM     76  C   UNL A   1      38.054  32.258  37.490  1.00  0.00     0.198 A 
ATOM     77  F   UNL A   1      38.052  30.226  36.301  1.00  0.00    -0.203 F 
ATOM     78  F   UNL A   1      39.842  35.348  36.869  1.00  0.00    -0.200 F 
ATOM     79  C   UNL A   1      38.504  33.561  37.641  1.00  0.00     0.200 A 
ATOM     80  F   UNL A   1      37.203  31.737  38.383  1.00  0.00    -0.200 F 
ATOM     81  F   UNL A   1      38.104  34.294  38.689  1.00  0.00    -0.200 F 
ENDBRANCH  47  71
BRANCH  59  82
ATOM     82  C   UNL A   1      44.880  27.868  34.499  1.00  0.00     0.064 A 
ATOM     83  C   UNL A   1      46.037  28.657  34.558  1.00  0.00     0.173 A 
ATOM     84  C   UNL A   1      44.810  26.737  35.327  1.00  0.00     0.173 A 
ATOM     85  F   UNL A   1      46.156  29.739  33.775  1.00  0.00    -0.203 F 
ATOM     86  C   UNL A   1      47.091  28.316  35.402  1.00  0.00     0.198 A 
ATOM     87  C   UNL A   1      45.856  26.413  36.186  1.00  0.00     0.198 A 
ATOM     88  F   UNL A   1      43.722  25.953  35.311  1.00  0.00    -0.203 F 
ATOM     89  F   UNL A   1      48.204  29.063  35.415  1.00  0.00    -0.200 F 
ATOM     90  C   UNL A   1      46.997  27.200  36.220  1.00  0.00     0.200 A 
ATOM     91  F   UNL A   1      45.759  25.341  36.985  1.00  0.00    -0.200 F 
ATOM     92  F   UNL A   1      48.011  26.879  37.036  1.00  0.00    -0.200 F 
ENDBRANCH  59  82
ENDBRANCH  33  34
ENDBRANCH  26  28
ENDBRANCH  25  26
ENDBRANCH  24  25
ENDBRANCH  23  24
ENDBRANCH  22  23
ENDBRANCH   1  22
TORSDOF 17
ENDMDL
MODEL 3
REMARK VINA RESULT:     -10.8      1.465      7.565
REMARK SMILES Cn1ccc(S(=O)(=O)N[C@H]2C=C[C@@H](C(=O)OCCOCCOC(=O)c3ccc(-c4c5nc(c(-c6c(F)c(F)c(F)c(F)c6F)c6ccc([nH]6)c(-c6c(F)c(F)c(F)c(F)c6F)c6nc(c(-c7c(F)c(F)c(F)c(F)c7F)c7ccc4[nH]7)C=C6)C=C5)cc3)C2)c1
REMARK SMILES IDX 18 1 17 2 16 3 14 4 15 5 13 6 10 7 11 8 88 9 12 10 9 11 6 13
REMARK SMILES IDX 7 14 8 15 5 16 1 17 2 18 3 19 89 20 4 21 19 22 20 23 21 24
REMARK SMILES IDX 22 25 23 26 24 27 25 28 26 29 87 30 27 31 86 32 28 33 29 34
REMARK SMILES IDX 30 35 80 36 31 37 85 38 79 39 81 40 32 41 84 42 78 43 77 44
REMARK SMILES IDX 33 46 65 47 45 48 64 49 46 50 49 51 63 52 82 53 47 54 48 55
REMARK SMILES IDX 62 57 83 58 50 59 34 60 35 61 43 62 36 63 37 64 41 65 44 66
REMARK SMILES IDX 38 67 39 68 42 69 40 70 66 71 67 72 75 73 68 74 69 75 73 76
REMARK SMILES IDX 76 77 70 78 71 79 74 80 72 81 51 82 52 83 60 84 53 85 54 86
REMARK SMILES IDX 58 87 61 88 55 89 56 90 59 91 57 92
REMARK H PARENT 9 12 81 45 49 56
REMARK Flexibility Score: inf
ROOT
ATOM      1  C   UNL A   1      33.222  29.176  23.489  1.00  0.00     0.202 C 
ENDROOT
BRANCH   1   2
ATOM      2  C   UNL A   1      33.273  27.915  22.624  1.00  0.00     0.261 C 
BRANCH   2   3
ATOM      3  O   UNL A   1      31.950  27.381  22.470  1.00  0.00    -0.463 OA
BRANCH   3   4
ATOM      4  C   UNL A   1      31.762  26.116  22.924  1.00  0.00     0.312 C 
ATOM      5  O   UNL A   1      30.695  25.673  23.334  1.00  0.00    -0.252 OA
BRANCH   4   6
ATOM      6  C   UNL A   1      33.022  25.261  22.833  1.00  0.00     0.123 C 
ATOM      7  C   UNL A   1      33.770  22.945  23.220  1.00  0.00     0.093 C 
ATOM      8  C   UNL A   1      33.313  23.161  21.821  1.00  0.00    -0.011 C 
ATOM      9  C   UNL A   1      33.278  24.218  23.934  1.00  0.00     0.043 C 
ATOM     10  C   UNL A   1      32.943  24.424  21.597  1.00  0.00    -0.015 C 
BRANCH   7  11
ATOM     11  N   UNL A   1      33.254  21.757  23.903  1.00  0.00    -0.204 NA
ATOM     12  H   UNL A   1      32.274  21.953  24.108  1.00  0.00     0.142 HD
BRANCH  11  13
ATOM     13  S   UNL A   1      33.915  21.162  25.327  1.00  0.00     0.242 S 
ATOM     14  O   UNL A   1      33.944  19.721  25.221  1.00  0.00    -0.207 OA
ATOM     15  O   UNL A   1      33.229  21.824  26.413  1.00  0.00    -0.207 OA
BRANCH  13  16
ATOM     16  C   UNL A   1      35.564  21.638  25.487  1.00  0.00     0.100 A 
ATOM     17  C   UNL A   1      38.305  23.867  26.270  1.00  0.00     0.149 C 
ATOM     18  N   UNL A   1      37.412  22.800  25.883  1.00  0.00    -0.356 N 
ATOM     19  C   UNL A   1      37.797  21.666  25.215  1.00  0.00     0.086 A 
ATOM     20  C   UNL A   1      36.058  22.781  26.087  1.00  0.00     0.106 A 
ATOM     21  C   UNL A   1      36.667  20.920  24.957  1.00  0.00     0.041 A 
ENDBRANCH  13  16
ENDBRANCH  11  13
ENDBRANCH   7  11
ENDBRANCH   4   6
ENDBRANCH   3   4
ENDBRANCH   2   3
ENDBRANCH   1   2
BRANCH   1  22
ATOM     22  O   UNL A   1      32.552  29.024  24.742  1.00  0.00    -0.374 OA
BRANCH  22  23
ATOM     23  C   UNL A   1      31.373  29.803  24.954  1.00  0.00     0.202 C 
BRANCH  23  24
ATOM     24  C   UNL A   1      31.443  30.821  26.098  1.00  0.00     0.261 C 
BRANCH  24  25
ATOM     25  O   UNL A   1      32.577  30.587  26.954  1.00  0.00    -0.460 OA
BRANCH  25  26
ATOM     26  C   UNL A   1      33.270  31.702  27.294  1.00  0.00     0.338 C 
ATOM     27  O   UNL A   1      32.853  32.848  27.336  1.00  0.00    -0.246 OA
BRANCH  26  28
ATOM     28  C   UNL A   1      34.610  31.339  27.790  1.00  0.00     0.060 A 
ATOM     29  C   UNL A   1      34.837  29.993  28.102  1.00  0.00     0.016 A 
ATOM     30  C   UNL A   1      35.595  32.299  28.032  1.00  0.00     0.016 A 
ATOM     31  C   UNL A   1      36.033  29.607  28.704  1.00  0.00     0.010 A 
ATOM     32  C   UNL A   1      36.792  31.912  28.646  1.00  0.00     0.010 A 
ATOM     33  C   UNL A   1      37.001  30.571  29.016  1.00  0.00    -0.014 A 
BRANCH  33  34
ATOM     34  C   UNL A   1      38.163  30.191  29.855  1.00  0.00     0.031 A 
ATOM     35  C   UNL A   1      39.179  29.231  29.304  1.00  0.00     0.074 A 
ATOM     36  C   UNL A   1      38.330  30.721  31.079  1.00  0.00     0.049 A 
ATOM     37  N   UNL A   1      40.263  28.754  29.864  1.00  0.00    -0.248 NA
ATOM     38  C   UNL A   1      38.945  28.743  27.935  1.00  0.00     0.031 C 
ATOM     39  C   UNL A   1      37.435  31.688  31.709  1.00  0.00     0.029 A 
ATOM     40  N   UNL A   1      39.315  30.512  32.012  1.00  0.00    -0.354 N 
ATOM     41  C   UNL A   1      40.837  27.913  28.921  1.00  0.00     0.074 A 
ATOM     42  C   UNL A   1      39.971  27.923  27.761  1.00  0.00     0.031 C 
ATOM     43  C   UNL A   1      37.904  31.981  32.934  1.00  0.00     0.029 A 
ATOM     44  C   UNL A   1      39.118  31.204  33.181  1.00  0.00     0.049 A 
ATOM     45  H   UNL A   1      40.088  29.922  31.859  1.00  0.00     0.167 HD
ATOM     46  C   UNL A   1      41.987  27.203  29.010  1.00  0.00     0.037 A 
ATOM     47  C   UNL A   1      39.828  31.194  34.326  1.00  0.00     0.037 A 
ATOM     48  C   UNL A   1      42.849  27.193  30.161  1.00  0.00     0.049 A 
ATOM     49  C   UNL A   1      41.066  30.342  34.425  1.00  0.00     0.074 A 
ATOM     50  C   UNL A   1      44.049  26.525  30.335  1.00  0.00     0.029 A 
ATOM     51  N   UNL A   1      42.597  27.877  31.340  1.00  0.00    -0.354 N 
ATOM     52  N   UNL A   1      41.618  29.575  33.517  1.00  0.00    -0.248 NA
ATOM     53  C   UNL A   1      41.778  30.355  35.712  1.00  0.00     0.031 C 
ATOM     54  C   UNL A   1      44.502  26.772  31.636  1.00  0.00     0.029 A 
ATOM     55  C   UNL A   1      43.605  27.627  32.257  1.00  0.00     0.049 A 
ATOM     56  H   UNL A   1      41.817  28.456  31.502  1.00  0.00     0.167 HD
ATOM     57  C   UNL A   1      42.750  29.033  34.111  1.00  0.00     0.074 A 
ATOM     58  C   UNL A   1      42.814  29.568  35.455  1.00  0.00     0.031 C 
ATOM     59  C   UNL A   1      43.656  28.170  33.589  1.00  0.00     0.037 A 
BRANCH  46  60
ATOM     60  C   UNL A   1      42.369  26.359  27.831  1.00  0.00     0.064 A 
ATOM     61  C   UNL A   1      43.280  26.814  26.867  1.00  0.00     0.173 A 
ATOM     62  C   UNL A   1      41.847  25.066  27.686  1.00  0.00     0.173 A 
ATOM     63  F   UNL A   1      43.797  28.049  26.957  1.00  0.00    -0.203 F 
ATOM     64  C   UNL A   1      43.639  26.012  25.787  1.00  0.00     0.198 A 
ATOM     65  C   UNL A   1      42.224  24.258  26.616  1.00  0.00     0.198 A 
ATOM     66  F   UNL A   1      40.974  24.583  28.584  1.00  0.00    -0.203 F 
ATOM     67  F   UNL A   1      44.481  26.480  24.856  1.00  0.00    -0.200 F 
ATOM     68  C   UNL A   1      43.115  24.733  25.666  1.00  0.00     0.200 A 
ATOM     69  F   UNL A   1      41.725  23.020  26.505  1.00  0.00    -0.200 F 
ATOM     70  F   UNL A   1      43.465  23.960  24.629  1.00  0.00    -0.200 F 
ENDBRANCH  46  60
BRANCH  47  71
ATOM     71  C   UNL A   1      39.379  32.012  35.481  1.00  0.00     0.064 A 
ATOM     72  C   UNL A   1      38.534  31.474  36.461  1.00  0.00     0.173 A 
ATOM     73  C   UNL A   1      39.772  33.351  35.617  1.00  0.00     0.173 A 
ATOM     74  F   UNL A   1      38.109  30.207  36.358  1.00  0.00    -0.203 F 
ATOM     75  C   UNL A   1      38.090  32.251  37.530  1.00  0.00     0.198 A 
ATOM     76  C   UNL A   1      39.346  34.119  36.698  1.00  0.00     0.198 A 
ATOM     77  F   UNL A   1      40.575  33.911  34.701  1.00  0.00    -0.203 F 
ATOM     78  F   UNL A   1      37.249  31.726  38.432  1.00  0.00    -0.200 F 
ATOM     79  C   UNL A   1      38.501  33.571  37.651  1.00  0.00     0.200 A 
ATOM     80  F   UNL A   1      39.750  35.391  36.815  1.00  0.00    -0.200 F 
ATOM     81  F   UNL A   1      38.072  34.316  38.679  1.00  0.00    -0.200 F 
ENDBRANCH  47  71
BRANCH  59  82
ATOM     82  C   UNL A   1      44.809  27.769  34.462  1.00  0.00     0.064 A 
ATOM     83  C   UNL A   1      45.986  28.529  34.516  1.00  0.00     0.173 A 
ATOM     84  C   UNL A   1      44.716  26.638  35.286  1.00  0.00     0.173 A 
ATOM     85  F   UNL A   1      46.127  29.610  33.737  1.00  0.00    -0.203 F 
ATOM     86  C   UNL A   1      47.036  28.159  35.353  1.00  0.00     0.198 A 
ATOM     87  C   UNL A   1      45.758  26.285  36.138  1.00  0.00     0.198 A 
ATOM     88  F   UNL A   1      43.608  25.881  35.274  1.00  0.00    -0.203 F 
ATOM     89  F   UNL A   1      48.167  28.879  35.362  1.00  0.00    -0.200 F 
ATOM     90  C   UNL A   1      46.919  27.043  36.168  1.00  0.00     0.200 A 
ATOM     91  F   UNL A   1      45.640  25.212  36.934  1.00  0.00    -0.200 F 
ATOM     92  F   UNL A   1      47.929  26.694  36.977  1.00  0.00    -0.200 F 
ENDBRANCH  59  82
ENDBRANCH  33  34
ENDBRANCH  26  28
ENDBRANCH  25  26
ENDBRANCH  24  25
ENDBRANCH  23  24
ENDBRANCH  22  23
ENDBRANCH   1  22
TORSDOF 17
ENDMDL
