MODEL 1
REMARK VINA RESULT:     -12.4      0.000      0.000
REMARK SMILES O=C(OCCOCCOC(=O)c1ccc(-c2c3nc(c(-c4c(F)c(F)c(F)c(F)c4F)c4ccc([nH]4)c(-c4c(F)c(F)c(F)c(F)c4F)c4nc(c(-c5c(F)c(F)c(F)c(F)c5F)c5ccc2[nH]5)C=C4)C=C3)cc1)C1=Cc2cc(Cl)cc(-c3ccc(CO)cc3)c2O[C@@H]1C(F)(F)F
REMARK SMILES IDX 5 1 4 2 3 3 2 4 1 5 75 6 76 7 93 8 77 9 92 10 78 11 91 12
REMARK SMILES IDX 79 13 82 14 80 15 81 16 94 17 95 18 96 19 97 20 83 21 84 22
REMARK SMILES IDX 90 23 85 24 89 25 86 26 87 27 88 28 6 30 7 31 8 32 9 33
REMARK SMILES IDX 10 34 11 35 12 36 13 37 74 38 14 39 73 40 15 41 16 42 17 43
REMARK SMILES IDX 67 44 18 45 72 46 66 47 68 48 19 49 71 50 65 51 64 52 20 54
REMARK SMILES IDX 52 55 32 56 51 57 33 58 36 59 50 60 69 61 34 62 35 63 49 65
REMARK SMILES IDX 70 66 37 67 21 68 22 69 30 70 23 71 24 72 28 73 31 74 25 75
REMARK SMILES IDX 26 76 29 77 27 78 53 79 54 80 62 81 55 82 56 83 60 84 63 85
REMARK SMILES IDX 57 86 58 87 61 88 59 89 38 90 39 91 47 92 40 93 41 94 45 95
REMARK SMILES IDX 48 96 42 97 43 98 46 99 44 100
REMARK H PARENT 88 29 68 53 36 64
REMARK Flexibility Score: inf
ROOT
ATOM      1  C   UNL A   1      42.851  18.708  25.881  1.00  0.00     0.202 C 
ENDROOT
BRANCH   1   2
ATOM      2  C   UNL A   1      41.949  19.707  27.591  1.00  0.00     0.261 C 
BRANCH   2   3
ATOM      3  O   UNL A   1      40.734  20.713  27.532  1.00  0.00    -0.460 OA
BRANCH   3   4
ATOM      4  C   UNL A   1      41.080  21.989  27.738  1.00  0.00     0.338 C 
ATOM      5  O   UNL A   1      41.417  22.577  28.732  1.00  0.00    -0.246 OA
BRANCH   4   6
ATOM      6  C   UNL A   1      40.701  22.420  26.423  1.00  0.00     0.087 C 
ATOM      7  C   UNL A   1      39.986  21.314  25.755  1.00  0.00     0.027 C 
ATOM      8  C   UNL A   1      39.912  24.129  26.885  1.00  0.00     0.316 C 
ATOM      9  C   UNL A   1      38.215  21.358  25.394  1.00  0.00     0.019 A 
ATOM     10  O   UNL A   1      38.003  24.174  26.501  1.00  0.00    -0.475 OA
ATOM     11  C   UNL A   1      37.693  20.156  24.995  1.00  0.00     0.032 A 
ATOM     12  C   UNL A   1      37.162  22.698  25.824  1.00  0.00     0.135 A 
ATOM     13  C   UNL A   1      36.307  20.092  25.024  1.00  0.00     0.042 A 
ATOM     14  C   UNL A   1      35.759  22.564  25.698  1.00  0.00     0.026 A 
ATOM     15  Cl  UNL A   1      35.567  18.584  24.596  1.00  0.00    -0.084 Cl
ATOM     16  C   UNL A   1      35.436  21.190  25.376  1.00  0.00     0.033 A 
BRANCH   8  17
ATOM     17  C   UNL A   1      41.152  25.044  26.478  1.00  0.00     0.430 C 
ATOM     18  F   UNL A   1      41.793  24.647  25.362  1.00  0.00    -0.167 F 
ATOM     19  F   UNL A   1      40.653  26.280  26.156  1.00  0.00    -0.167 F 
ATOM     20  F   UNL A   1      42.050  25.306  27.452  1.00  0.00    -0.167 F 
ENDBRANCH   8  17
BRANCH  14  21
ATOM     21  C   UNL A   1      34.458  23.523  25.722  1.00  0.00    -0.015 A 
ATOM     22  C   UNL A   1      34.711  24.825  24.476  1.00  0.00     0.009 A 
ATOM     23  C   UNL A   1      32.753  23.687  26.813  1.00  0.00     0.009 A 
ATOM     24  C   UNL A   1      33.481  26.103  24.288  1.00  0.00     0.007 A 
ATOM     25  C   UNL A   1      31.588  25.003  26.489  1.00  0.00     0.007 A 
ATOM     26  C   UNL A   1      31.975  26.168  25.245  1.00  0.00    -0.023 A 
BRANCH  26  27
ATOM     27  C   UNL A   1      30.832  27.069  24.845  1.00  0.00     0.191 C 
BRANCH  27  28
ATOM     28  O   UNL A   1      31.103  28.441  25.034  1.00  0.00    -0.392 OA
ATOM     29  H   UNL A   1      30.268  28.925  25.134  1.00  0.00     0.211 HD
ENDBRANCH  27  28
ENDBRANCH  26  27
ENDBRANCH  14  21
ENDBRANCH   4   6
ENDBRANCH   3   4
ENDBRANCH   2   3
ENDBRANCH   1   2
BRANCH   1  30
ATOM     30  O   UNL A   1      43.792  19.275  24.702  1.00  0.00    -0.374 OA
BRANCH  30  31
ATOM     31  C   UNL A   1      44.846  20.261  24.618  1.00  0.00     0.202 C 
BRANCH  31  32
ATOM     32  C   UNL A   1      44.647  21.579  25.367  1.00  0.00     0.261 C 
BRANCH  32  33
ATOM     33  O   UNL A   1      45.883  22.156  25.718  1.00  0.00    -0.460 OA
BRANCH  33  34
ATOM     34  C   UNL A   1      46.164  23.279  25.036  1.00  0.00     0.338 C 
ATOM     35  O   UNL A   1      46.721  23.403  23.966  1.00  0.00    -0.246 OA
BRANCH  34  36
ATOM     36  C   UNL A   1      45.664  24.347  25.894  1.00  0.00     0.060 A 
ATOM     37  C   UNL A   1      44.687  25.617  25.123  1.00  0.00     0.016 A 
ATOM     38  C   UNL A   1      46.368  24.481  27.508  1.00  0.00     0.016 A 
ATOM     39  C   UNL A   1      44.362  27.170  25.894  1.00  0.00     0.010 A 
ATOM     40  C   UNL A   1      46.137  26.022  28.386  1.00  0.00     0.010 A 
ATOM     41  C   UNL A   1      45.051  27.509  27.533  1.00  0.00    -0.014 A 
BRANCH  41  42
ATOM     42  C   UNL A   1      44.648  29.077  27.804  1.00  0.00     0.031 A 
ATOM     43  C   UNL A   1      45.621  30.198  27.437  1.00  0.00     0.074 A 
ATOM     44  C   UNL A   1      43.462  29.519  28.292  1.00  0.00     0.049 A 
ATOM     45  N   UNL A   1      45.769  31.388  27.983  1.00  0.00    -0.248 NA
ATOM     46  C   UNL A   1      46.586  29.923  26.372  1.00  0.00     0.031 C 
ATOM     47  C   UNL A   1      42.250  28.737  28.484  1.00  0.00     0.029 A 
ATOM     48  N   UNL A   1      43.113  30.765  28.798  1.00  0.00    -0.354 N 
ATOM     49  C   UNL A   1      46.923  31.935  27.416  1.00  0.00     0.074 A 
ATOM     50  C   UNL A   1      47.439  30.929  26.511  1.00  0.00     0.031 C 
ATOM     51  C   UNL A   1      41.354  29.451  29.183  1.00  0.00     0.029 A 
ATOM     52  C   UNL A   1      41.913  30.765  29.476  1.00  0.00     0.049 A 
ATOM     53  H   UNL A   1      43.669  31.569  28.682  1.00  0.00     0.167 HD
ATOM     54  C   UNL A   1      47.503  33.147  27.630  1.00  0.00     0.037 A 
ATOM     55  C   UNL A   1      41.324  31.684  30.270  1.00  0.00     0.037 A 
ATOM     56  C   UNL A   1      46.884  34.242  28.341  1.00  0.00     0.049 A 
ATOM     57  C   UNL A   1      41.945  33.040  30.477  1.00  0.00     0.074 A 
ATOM     58  C   UNL A   1      47.342  35.544  28.483  1.00  0.00     0.029 A 
ATOM     59  N   UNL A   1      45.655  34.191  28.978  1.00  0.00    -0.354 N 
ATOM     60  N   UNL A   1      43.091  33.498  30.044  1.00  0.00    -0.248 NA
ATOM     61  C   UNL A   1      41.166  34.020  31.251  1.00  0.00     0.031 C 
ATOM     62  C   UNL A   1      46.411  36.268  29.234  1.00  0.00     0.029 A 
ATOM     63  C   UNL A   1      45.342  35.434  29.509  1.00  0.00     0.049 A 
ATOM     64  H   UNL A   1      45.088  33.389  29.045  1.00  0.00     0.167 HD
ATOM     65  C   UNL A   1      43.142  34.831  30.435  1.00  0.00     0.074 A 
ATOM     66  C   UNL A   1      41.916  35.109  31.149  1.00  0.00     0.031 C 
ATOM     67  C   UNL A   1      44.116  35.743  30.199  1.00  0.00     0.037 A 
BRANCH  54  68
ATOM     68  C   UNL A   1      48.904  33.373  27.107  1.00  0.00     0.064 A 
ATOM     69  C   UNL A   1      49.179  34.036  25.904  1.00  0.00     0.173 A 
ATOM     70  C   UNL A   1      50.007  32.948  27.875  1.00  0.00     0.173 A 
ATOM     71  F   UNL A   1      48.176  34.495  25.139  1.00  0.00    -0.203 F 
ATOM     72  C   UNL A   1      50.487  34.198  25.451  1.00  0.00     0.198 A 
ATOM     73  C   UNL A   1      51.315  33.164  27.447  1.00  0.00     0.198 A 
ATOM     74  F   UNL A   1      49.819  32.347  29.059  1.00  0.00    -0.203 F 
ATOM     75  F   UNL A   1      50.714  34.759  24.255  1.00  0.00    -0.200 F 
ATOM     76  C   UNL A   1      51.555  33.768  26.225  1.00  0.00     0.200 A 
ATOM     77  F   UNL A   1      52.344  32.788  28.220  1.00  0.00    -0.200 F 
ATOM     78  F   UNL A   1      52.812  33.939  25.793  1.00  0.00    -0.200 F 
ENDBRANCH  54  68
BRANCH  55  79
ATOM     79  C   UNL A   1      40.024  31.368  30.926  1.00  0.00     0.064 A 
ATOM     80  C   UNL A   1      39.990  30.720  32.168  1.00  0.00     0.173 A 
ATOM     81  C   UNL A   1      38.799  31.679  30.317  1.00  0.00     0.173 A 
ATOM     82  F   UNL A   1      41.137  30.373  32.772  1.00  0.00    -0.203 F 
ATOM     83  C   UNL A   1      38.781  30.378  32.770  1.00  0.00     0.198 A 
ATOM     84  C   UNL A   1      37.590  31.359  30.933  1.00  0.00     0.198 A 
ATOM     85  F   UNL A   1      38.777  32.295  29.127  1.00  0.00    -0.203 F 
ATOM     86  F   UNL A   1      38.779  29.716  33.935  1.00  0.00    -0.200 F 
ATOM     87  C   UNL A   1      37.582  30.703  32.155  1.00  0.00     0.200 A 
ATOM     88  F   UNL A   1      36.431  31.680  30.339  1.00  0.00    -0.200 F 
ATOM     89  F   UNL A   1      36.419  30.375  32.735  1.00  0.00    -0.200 F 
ENDBRANCH  55  79
BRANCH  67  90
ATOM     90  C   UNL A   1      43.879  37.163  30.637  1.00  0.00     0.064 A 
ATOM     91  C   UNL A   1      43.449  38.160  29.748  1.00  0.00     0.173 A 
ATOM     92  C   UNL A   1      44.055  37.524  31.984  1.00  0.00     0.173 A 
ATOM     93  F   UNL A   1      43.279  37.878  28.448  1.00  0.00    -0.203 F 
ATOM     94  C   UNL A   1      43.233  39.467  30.184  1.00  0.00     0.198 A 
ATOM     95  C   UNL A   1      43.806  38.823  32.421  1.00  0.00     0.198 A 
ATOM     96  F   UNL A   1      44.462  36.614  32.880  1.00  0.00    -0.203 F 
ATOM     97  F   UNL A   1      42.873  40.413  29.305  1.00  0.00    -0.200 F 
ATOM     98  C   UNL A   1      43.403  39.795  31.520  1.00  0.00     0.200 A 
ATOM     99  F   UNL A   1      43.960  39.133  33.716  1.00  0.00    -0.200 F 
ATOM    100  F   UNL A   1      43.188  41.051  31.937  1.00  0.00    -0.200 F 
ENDBRANCH  67  90
ENDBRANCH  41  42
ENDBRANCH  34  36
ENDBRANCH  33  34
ENDBRANCH  32  33
ENDBRANCH  31  32
ENDBRANCH  30  31
ENDBRANCH   1  30
TORSDOF 18
ENDMDL
MODEL 2
REMARK VINA RESULT:     -12.2      5.748      7.700
REMARK SMILES O=C(OCCOCCOC(=O)c1ccc(-c2c3nc(c(-c4c(F)c(F)c(F)c(F)c4F)c4ccc([nH]4)c(-c4c(F)c(F)c(F)c(F)c4F)c4nc(c(-c5c(F)c(F)c(F)c(F)c5F)c5ccc2[nH]5)C=C4)C=C3)cc1)C1=Cc2cc(Cl)cc(-c3ccc(CO)cc3)c2O[C@@H]1C(F)(F)F
REMARK SMILES IDX 5 1 4 2 3 3 2 4 1 5 75 6 76 7 93 8 77 9 92 10 78 11 91 12
REMARK SMILES IDX 79 13 82 14 80 15 81 16 94 17 95 18 96 19 97 20 83 21 84 22
REMARK SMILES IDX 90 23 85 24 89 25 86 26 87 27 88 28 6 30 7 31 8 32 9 33
REMARK SMILES IDX 10 34 11 35 12 36 13 37 74 38 14 39 73 40 15 41 16 42 17 43
REMARK SMILES IDX 67 44 18 45 72 46 66 47 68 48 19 49 71 50 65 51 64 52 20 54
REMARK SMILES IDX 52 55 32 56 51 57 33 58 36 59 50 60 69 61 34 62 35 63 49 65
REMARK SMILES IDX 70 66 37 67 21 68 22 69 30 70 23 71 24 72 28 73 31 74 25 75
REMARK SMILES IDX 26 76 29 77 27 78 53 79 54 80 62 81 55 82 56 83 60 84 63 85
REMARK SMILES IDX 57 86 58 87 61 88 59 89 38 90 39 91 47 92 40 93 41 94 45 95
REMARK SMILES IDX 48 96 42 97 43 98 46 99 44 100
REMARK H PARENT 88 29 68 53 36 64
REMARK Flexibility Score: inf
ROOT
ATOM      1  C   UNL A   1      36.774  19.379  24.992  1.00  0.00     0.202 C 
ENDROOT
BRANCH   1   2
ATOM      2  C   UNL A   1      34.646  19.236  24.560  1.00  0.00     0.261 C 
BRANCH   2   3
ATOM      3  O   UNL A   1      33.488  19.868  25.427  1.00  0.00    -0.460 OA
BRANCH   3   4
ATOM      4  C   UNL A   1      32.722  20.735  24.754  1.00  0.00     0.338 C 
ATOM      5  O   UNL A   1      31.627  20.627  24.268  1.00  0.00    -0.246 OA
BRANCH   4   6
ATOM      6  C   UNL A   1      33.750  21.730  24.648  1.00  0.00     0.087 C 
ATOM      7  C   UNL A   1      33.854  22.149  23.237  1.00  0.00     0.027 C 
ATOM      8  C   UNL A   1      33.201  22.881  26.108  1.00  0.00     0.316 C 
ATOM      9  C   UNL A   1      33.345  23.783  22.652  1.00  0.00     0.019 A 
ATOM     10  O   UNL A   1      32.649  24.639  25.477  1.00  0.00    -0.475 OA
ATOM     11  C   UNL A   1      33.292  23.900  21.287  1.00  0.00     0.032 A 
ATOM     12  C   UNL A   1      32.652  25.021  23.689  1.00  0.00     0.135 A 
ATOM     13  C   UNL A   1      32.609  25.018  20.832  1.00  0.00     0.042 A 
ATOM     14  C   UNL A   1      32.088  26.187  23.118  1.00  0.00     0.026 A 
ATOM     15  Cl  UNL A   1      32.438  25.207  19.117  1.00  0.00    -0.084 Cl
ATOM     16  C   UNL A   1      32.037  26.040  21.679  1.00  0.00     0.033 A 
BRANCH   8  17
ATOM     17  C   UNL A   1      34.259  22.366  27.184  1.00  0.00     0.430 C 
ATOM     18  F   UNL A   1      35.516  22.250  26.716  1.00  0.00    -0.167 F 
ATOM     19  F   UNL A   1      34.349  23.331  28.155  1.00  0.00    -0.167 F 
ATOM     20  F   UNL A   1      33.922  21.254  27.871  1.00  0.00    -0.167 F 
ENDBRANCH   8  17
BRANCH  14  21
ATOM     21  C   UNL A   1      31.584  27.640  23.617  1.00  0.00    -0.015 A 
ATOM     22  C   UNL A   1      32.691  28.177  24.958  1.00  0.00     0.009 A 
ATOM     23  C   UNL A   1      30.041  28.897  23.210  1.00  0.00     0.009 A 
ATOM     24  C   UNL A   1      32.371  29.724  25.785  1.00  0.00     0.007 A 
ATOM     25  C   UNL A   1      29.865  30.438  24.098  1.00  0.00     0.007 A 
ATOM     26  C   UNL A   1      31.024  30.812  25.351  1.00  0.00    -0.023 A 
BRANCH  26  27
ATOM     27  C   UNL A   1      30.975  32.235  25.853  1.00  0.00     0.191 C 
BRANCH  27  28
ATOM     28  O   UNL A   1      31.068  32.341  27.257  1.00  0.00    -0.392 OA
ATOM     29  H   UNL A   1      31.199  31.459  27.640  1.00  0.00     0.211 HD
ENDBRANCH  27  28
ENDBRANCH  26  27
ENDBRANCH  14  21
ENDBRANCH   4   6
ENDBRANCH   3   4
ENDBRANCH   2   3
ENDBRANCH   1   2
BRANCH   1  30
ATOM     30  O   UNL A   1      37.804  20.607  24.832  1.00  0.00    -0.374 OA
BRANCH  30  31
ATOM     31  C   UNL A   1      38.534  21.456  25.746  1.00  0.00     0.202 C 
BRANCH  31  32
ATOM     32  C   UNL A   1      39.963  21.050  26.107  1.00  0.00     0.261 C 
BRANCH  32  33
ATOM     33  O   UNL A   1      40.905  21.799  25.376  1.00  0.00    -0.460 OA
BRANCH  33  34
ATOM     34  C   UNL A   1      42.170  21.627  25.794  1.00  0.00     0.338 C 
ATOM     35  O   UNL A   1      42.892  20.661  25.664  1.00  0.00    -0.246 OA
BRANCH  34  36
ATOM     36  C   UNL A   1      42.488  22.874  26.478  1.00  0.00     0.060 A 
ATOM     37  C   UNL A   1      42.010  23.008  28.186  1.00  0.00     0.016 A 
ATOM     38  C   UNL A   1      42.972  24.244  25.475  1.00  0.00     0.016 A 
ATOM     39  C   UNL A   1      41.930  24.552  29.035  1.00  0.00     0.010 A 
ATOM     40  C   UNL A   1      42.905  25.874  26.210  1.00  0.00     0.010 A 
ATOM     41  C   UNL A   1      42.339  26.076  28.148  1.00  0.00    -0.014 A 
BRANCH  41  42
ATOM     42  C   UNL A   1      41.994  27.258  29.234  1.00  0.00     0.031 A 
ATOM     43  C   UNL A   1      42.781  27.360  30.540  1.00  0.00     0.074 A 
ATOM     44  C   UNL A   1      41.075  28.243  29.069  1.00  0.00     0.049 A 
ATOM     45  N   UNL A   1      42.398  27.826  31.712  1.00  0.00    -0.248 NA
ATOM     46  C   UNL A   1      44.138  26.814  30.547  1.00  0.00     0.031 C 
ATOM     47  C   UNL A   1      40.362  28.577  27.846  1.00  0.00     0.029 A 
ATOM     48  N   UNL A   1      40.525  29.115  29.999  1.00  0.00    -0.354 N 
ATOM     49  C   UNL A   1      43.418  27.502  32.610  1.00  0.00     0.074 A 
ATOM     50  C   UNL A   1      44.411  26.779  31.844  1.00  0.00     0.031 C 
ATOM     51  C   UNL A   1      39.385  29.457  28.114  1.00  0.00     0.029 A 
ATOM     52  C   UNL A   1      39.409  29.778  29.536  1.00  0.00     0.049 A 
ATOM     53  H   UNL A   1      40.896  29.247  30.902  1.00  0.00     0.167 HD
ATOM     54  C   UNL A   1      43.518  27.769  33.941  1.00  0.00     0.037 A 
ATOM     55  C   UNL A   1      38.482  30.535  30.162  1.00  0.00     0.037 A 
ATOM     56  C   UNL A   1      42.662  28.682  34.664  1.00  0.00     0.049 A 
ATOM     57  C   UNL A   1      38.612  30.864  31.625  1.00  0.00     0.074 A 
ATOM     58  C   UNL A   1      42.780  29.115  35.977  1.00  0.00     0.029 A 
ATOM     59  N   UNL A   1      41.569  29.346  34.133  1.00  0.00    -0.354 N 
ATOM     60  N   UNL A   1      39.503  30.449  32.489  1.00  0.00    -0.248 NA
ATOM     61  C   UNL A   1      37.627  31.801  32.189  1.00  0.00     0.031 C 
ATOM     62  C   UNL A   1      41.742  30.009  36.250  1.00  0.00     0.029 A 
ATOM     63  C   UNL A   1      41.010  30.183  35.089  1.00  0.00     0.049 A 
ATOM     64  H   UNL A   1      41.237  29.239  33.212  1.00  0.00     0.167 HD
ATOM     65  C   UNL A   1      39.226  31.121  33.674  1.00  0.00     0.074 A 
ATOM     66  C   UNL A   1      38.079  31.964  33.424  1.00  0.00     0.031 C 
ATOM     67  C   UNL A   1      39.886  31.053  34.856  1.00  0.00     0.037 A 
BRANCH  54  68
ATOM     68  C   UNL A   1      44.586  27.054  34.737  1.00  0.00     0.064 A 
ATOM     69  C   UNL A   1      45.815  27.637  35.075  1.00  0.00     0.173 A 
ATOM     70  C   UNL A   1      44.338  25.752  35.217  1.00  0.00     0.173 A 
ATOM     71  F   UNL A   1      46.104  28.886  34.676  1.00  0.00    -0.203 F 
ATOM     72  C   UNL A   1      46.779  26.928  35.789  1.00  0.00     0.198 A 
ATOM     73  C   UNL A   1      45.281  25.068  35.981  1.00  0.00     0.198 A 
ATOM     74  F   UNL A   1      43.165  25.149  34.971  1.00  0.00    -0.203 F 
ATOM     75  F   UNL A   1      47.978  27.480  36.021  1.00  0.00    -0.200 F 
ATOM     76  C   UNL A   1      46.510  25.647  36.248  1.00  0.00     0.200 A 
ATOM     77  F   UNL A   1      44.998  23.848  36.461  1.00  0.00    -0.200 F 
ATOM     78  F   UNL A   1      47.434  24.973  36.947  1.00  0.00    -0.200 F 
ENDBRANCH  54  68
BRANCH  55  79
ATOM     79  C   UNL A   1      37.331  31.081  29.390  1.00  0.00     0.064 A 
ATOM     80  C   UNL A   1      37.304  32.428  29.005  1.00  0.00     0.173 A 
ATOM     81  C   UNL A   1      36.230  30.281  29.047  1.00  0.00     0.173 A 
ATOM     82  F   UNL A   1      38.319  33.239  29.340  1.00  0.00    -0.203 F 
ATOM     83  C   UNL A   1      36.213  32.962  28.323  1.00  0.00     0.198 A 
ATOM     84  C   UNL A   1      35.150  30.810  28.343  1.00  0.00     0.198 A 
ATOM     85  F   UNL A   1      36.205  28.987  29.396  1.00  0.00    -0.203 F 
ATOM     86  F   UNL A   1      36.193  34.264  28.010  1.00  0.00    -0.200 F 
ATOM     87  C   UNL A   1      35.139  32.151  27.987  1.00  0.00     0.200 A 
ATOM     88  F   UNL A   1      34.116  30.023  28.013  1.00  0.00    -0.200 F 
ATOM     89  F   UNL A   1      34.091  32.664  27.329  1.00  0.00    -0.200 F 
ENDBRANCH  55  79
BRANCH  67  90
ATOM     90  C   UNL A   1      39.451  31.973  35.964  1.00  0.00     0.064 A 
ATOM     91  C   UNL A   1      40.050  33.223  36.180  1.00  0.00     0.173 A 
ATOM     92  C   UNL A   1      38.389  31.607  36.809  1.00  0.00     0.173 A 
ATOM     93  F   UNL A   1      41.078  33.620  35.416  1.00  0.00    -0.203 F 
ATOM     94  C   UNL A   1      39.622  34.057  37.213  1.00  0.00     0.198 A 
ATOM     95  C   UNL A   1      37.943  32.456  37.819  1.00  0.00     0.198 A 
ATOM     96  F   UNL A   1      37.776  30.425  36.650  1.00  0.00    -0.203 F 
ATOM     97  F   UNL A   1      40.246  35.224  37.431  1.00  0.00    -0.200 F 
ATOM     98  C   UNL A   1      38.565  33.677  38.025  1.00  0.00     0.200 A 
ATOM     99  F   UNL A   1      36.913  32.091  38.594  1.00  0.00    -0.200 F 
ATOM    100  F   UNL A   1      38.152  34.483  39.013  1.00  0.00    -0.200 F 
ENDBRANCH  67  90
ENDBRANCH  41  42
ENDBRANCH  34  36
ENDBRANCH  33  34
ENDBRANCH  32  33
ENDBRANCH  31  32
ENDBRANCH  30  31
ENDBRANCH   1  30
TORSDOF 18
ENDMDL
MODEL 3
REMARK VINA RESULT:     -12.2      6.339     12.711
REMARK SMILES O=C(OCCOCCOC(=O)c1ccc(-c2c3nc(c(-c4c(F)c(F)c(F)c(F)c4F)c4ccc([nH]4)c(-c4c(F)c(F)c(F)c(F)c4F)c4nc(c(-c5c(F)c(F)c(F)c(F)c5F)c5ccc2[nH]5)C=C4)C=C3)cc1)C1=Cc2cc(Cl)cc(-c3ccc(CO)cc3)c2O[C@@H]1C(F)(F)F
REMARK SMILES IDX 5 1 4 2 3 3 2 4 1 5 75 6 76 7 93 8 77 9 92 10 78 11 91 12
REMARK SMILES IDX 79 13 82 14 80 15 81 16 94 17 95 18 96 19 97 20 83 21 84 22
REMARK SMILES IDX 90 23 85 24 89 25 86 26 87 27 88 28 6 30 7 31 8 32 9 33
REMARK SMILES IDX 10 34 11 35 12 36 13 37 74 38 14 39 73 40 15 41 16 42 17 43
REMARK SMILES IDX 67 44 18 45 72 46 66 47 68 48 19 49 71 50 65 51 64 52 20 54
REMARK SMILES IDX 52 55 32 56 51 57 33 58 36 59 50 60 69 61 34 62 35 63 49 65
REMARK SMILES IDX 70 66 37 67 21 68 22 69 30 70 23 71 24 72 28 73 31 74 25 75
REMARK SMILES IDX 26 76 29 77 27 78 53 79 54 80 62 81 55 82 56 83 60 84 63 85
REMARK SMILES IDX 57 86 58 87 61 88 59 89 38 90 39 91 47 92 40 93 41 94 45 95
REMARK SMILES IDX 48 96 42 97 43 98 46 99 44 100
REMARK H PARENT 88 29 68 53 36 64
REMARK Flexibility Score: inf
ROOT
ATOM      1  C   UNL A   1      34.474  36.089  32.988  1.00  0.00     0.202 C 
ENDROOT
BRANCH   1   2
ATOM      2  C   UNL A   1      33.168  35.320  31.426  1.00  0.00     0.261 C 
BRANCH   2   3
ATOM      3  O   UNL A   1      33.633  34.490  30.166  1.00  0.00    -0.460 OA
BRANCH   3   4
ATOM      4  C   UNL A   1      34.329  33.389  30.472  1.00  0.00     0.338 C 
ATOM      5  O   UNL A   1      34.428  32.762  31.494  1.00  0.00    -0.246 OA
BRANCH   4   6
ATOM      6  C   UNL A   1      35.051  33.367  29.233  1.00  0.00     0.087 C 
ATOM      7  C   UNL A   1      36.429  33.832  29.485  1.00  0.00     0.027 C 
ATOM      8  C   UNL A   1      34.576  31.583  28.643  1.00  0.00     0.316 C 
ATOM      9  C   UNL A   1      37.870  32.743  29.403  1.00  0.00     0.019 A 
ATOM     10  O   UNL A   1      36.127  30.409  28.560  1.00  0.00    -0.475 OA
ATOM     11  C   UNL A   1      39.022  33.296  29.899  1.00  0.00     0.032 A 
ATOM     12  C   UNL A   1      37.778  31.024  29.049  1.00  0.00     0.135 A 
ATOM     13  C   UNL A   1      40.041  32.386  30.139  1.00  0.00     0.042 A 
ATOM     14  C   UNL A   1      38.921  30.206  29.213  1.00  0.00     0.026 A 
ATOM     15  Cl  UNL A   1      41.511  32.994  30.828  1.00  0.00    -0.084 Cl
ATOM     16  C   UNL A   1      39.972  30.972  29.849  1.00  0.00     0.033 A 
BRANCH   8  17
ATOM     17  C   UNL A   1      33.443  32.006  27.603  1.00  0.00     0.430 C 
ATOM     18  F   UNL A   1      33.577  33.253  27.112  1.00  0.00    -0.167 F 
ATOM     19  F   UNL A   1      33.579  31.196  26.505  1.00  0.00    -0.167 F 
ATOM     20  F   UNL A   1      32.166  31.803  27.993  1.00  0.00    -0.167 F 
ENDBRANCH   8  17
BRANCH  14  21
ATOM     21  C   UNL A   1      39.393  28.713  28.808  1.00  0.00    -0.015 A 
ATOM     22  C   UNL A   1      40.354  28.839  27.268  1.00  0.00     0.009 A 
ATOM     23  C   UNL A   1      39.104  26.825  29.499  1.00  0.00     0.009 A 
ATOM     24  C   UNL A   1      40.972  27.351  26.503  1.00  0.00     0.007 A 
ATOM     25  C   UNL A   1      39.817  25.426  28.646  1.00  0.00     0.007 A 
ATOM     26  C   UNL A   1      40.727  25.719  27.183  1.00  0.00    -0.023 A 
BRANCH  26  27
ATOM     27  C   UNL A   1      41.521  24.536  26.685  1.00  0.00     0.191 C 
BRANCH  27  28
ATOM     28  O   UNL A   1      40.722  23.516  26.126  1.00  0.00    -0.392 OA
ATOM     29  H   UNL A   1      39.916  23.410  26.655  1.00  0.00     0.211 HD
ENDBRANCH  27  28
ENDBRANCH  26  27
ENDBRANCH  14  21
ENDBRANCH   4   6
ENDBRANCH   3   4
ENDBRANCH   2   3
ENDBRANCH   1   2
BRANCH   1  30
ATOM     30  O   UNL A   1      35.331  35.326  34.119  1.00  0.00    -0.374 OA
BRANCH  30  31
ATOM     31  C   UNL A   1      35.441  33.958  34.570  1.00  0.00     0.202 C 
BRANCH  31  32
ATOM     32  C   UNL A   1      36.757  33.525  35.216  1.00  0.00     0.261 C 
BRANCH  32  33
ATOM     33  O   UNL A   1      37.831  34.316  34.762  1.00  0.00    -0.460 OA
BRANCH  33  34
ATOM     34  C   UNL A   1      38.258  33.985  33.531  1.00  0.00     0.338 C 
ATOM     35  O   UNL A   1      38.142  34.600  32.493  1.00  0.00    -0.246 OA
BRANCH  34  36
ATOM     36  C   UNL A   1      38.886  32.682  33.715  1.00  0.00     0.060 A 
ATOM     37  C   UNL A   1      40.611  32.667  34.146  1.00  0.00     0.016 A 
ATOM     38  C   UNL A   1      37.995  31.270  33.142  1.00  0.00     0.016 A 
ATOM     39  C   UNL A   1      41.618  31.226  33.996  1.00  0.00     0.010 A 
ATOM     40  C   UNL A   1      38.911  29.749  32.917  1.00  0.00     0.010 A 
ATOM     41  C   UNL A   1      40.887  29.692  33.371  1.00  0.00    -0.014 A 
BRANCH  41  42
ATOM     42  C   UNL A   1      42.171  28.676  33.248  1.00  0.00     0.031 A 
ATOM     43  C   UNL A   1      42.852  28.138  34.506  1.00  0.00     0.074 A 
ATOM     44  C   UNL A   1      42.689  28.188  32.093  1.00  0.00     0.049 A 
ATOM     45  N   UNL A   1      44.106  27.776  34.687  1.00  0.00    -0.248 NA
ATOM     46  C   UNL A   1      42.043  28.058  35.723  1.00  0.00     0.031 C 
ATOM     47  C   UNL A   1      42.110  28.295  30.762  1.00  0.00     0.029 A 
ATOM     48  N   UNL A   1      43.901  27.552  31.857  1.00  0.00    -0.354 N 
ATOM     49  C   UNL A   1      44.254  27.561  36.060  1.00  0.00     0.074 A 
ATOM     50  C   UNL A   1      42.968  27.862  36.653  1.00  0.00     0.031 C 
ATOM     51  C   UNL A   1      43.001  27.888  29.844  1.00  0.00     0.029 A 
ATOM     52  C   UNL A   1      44.222  27.464  30.519  1.00  0.00     0.049 A 
ATOM     53  H   UNL A   1      44.474  27.198  32.575  1.00  0.00     0.167 HD
ATOM     54  C   UNL A   1      45.349  27.161  36.761  1.00  0.00     0.037 A 
ATOM     55  C   UNL A   1      45.362  27.117  29.885  1.00  0.00     0.037 A 
ATOM     56  C   UNL A   1      46.559  26.635  36.171  1.00  0.00     0.049 A 
ATOM     57  C   UNL A   1      46.562  26.638  30.657  1.00  0.00     0.074 A 
ATOM     58  C   UNL A   1      47.658  26.080  36.810  1.00  0.00     0.029 A 
ATOM     59  N   UNL A   1      46.812  26.542  34.812  1.00  0.00    -0.354 N 
ATOM     60  N   UNL A   1      46.734  26.561  31.952  1.00  0.00    -0.248 NA
ATOM     61  C   UNL A   1      47.712  26.158  29.874  1.00  0.00     0.031 C 
ATOM     62  C   UNL A   1      48.588  25.686  35.844  1.00  0.00     0.029 A 
ATOM     63  C   UNL A   1      48.043  25.939  34.597  1.00  0.00     0.049 A 
ATOM     64  H   UNL A   1      46.207  26.859  34.103  1.00  0.00     0.167 HD
ATOM     65  C   UNL A   1      47.978  25.967  32.136  1.00  0.00     0.074 A 
ATOM     66  C   UNL A   1      48.524  25.711  30.822  1.00  0.00     0.031 C 
ATOM     67  C   UNL A   1      48.595  25.647  33.299  1.00  0.00     0.037 A 
BRANCH  54  68
ATOM     68  C   UNL A   1      45.321  27.287  38.268  1.00  0.00     0.064 A 
ATOM     69  C   UNL A   1      45.757  28.428  38.954  1.00  0.00     0.173 A 
ATOM     70  C   UNL A   1      44.786  26.236  39.041  1.00  0.00     0.173 A 
ATOM     71  F   UNL A   1      46.249  29.478  38.278  1.00  0.00    -0.203 F 
ATOM     72  C   UNL A   1      45.735  28.486  40.347  1.00  0.00     0.198 A 
ATOM     73  C   UNL A   1      44.711  26.322  40.429  1.00  0.00     0.198 A 
ATOM     74  F   UNL A   1      44.307  25.132  38.448  1.00  0.00    -0.203 F 
ATOM     75  F   UNL A   1      46.240  29.556  40.978  1.00  0.00    -0.200 F 
ATOM     76  C   UNL A   1      45.206  27.437  41.083  1.00  0.00     0.200 A 
ATOM     77  F   UNL A   1      44.157  25.325  41.134  1.00  0.00    -0.200 F 
ATOM     78  F   UNL A   1      45.173  27.504  42.422  1.00  0.00    -0.200 F 
ENDBRANCH  54  68
BRANCH  55  79
ATOM     79  C   UNL A   1      45.427  27.176  28.397  1.00  0.00     0.064 A 
ATOM     80  C   UNL A   1      45.932  28.312  27.749  1.00  0.00     0.173 A 
ATOM     81  C   UNL A   1      44.962  26.120  27.599  1.00  0.00     0.173 A 
ATOM     82  F   UNL A   1      46.355  29.360  28.472  1.00  0.00    -0.203 F 
ATOM     83  C   UNL A   1      45.954  28.399  26.359  1.00  0.00     0.198 A 
ATOM     84  C   UNL A   1      45.009  26.198  26.208  1.00  0.00     0.198 A 
ATOM     85  F   UNL A   1      44.466  25.014  28.170  1.00  0.00    -0.203 F 
ATOM     86  F   UNL A   1      46.398  29.515  25.767  1.00  0.00    -0.200 F 
ATOM     87  C   UNL A   1      45.499  27.339  25.589  1.00  0.00     0.200 A 
ATOM     88  F   UNL A   1      44.574  25.170  25.465  1.00  0.00    -0.200 F 
ATOM     89  F   UNL A   1      45.522  27.422  24.252  1.00  0.00    -0.200 F 
ENDBRANCH  55  79
BRANCH  67  90
ATOM     90  C   UNL A   1      49.901  24.903  33.227  1.00  0.00     0.064 A 
ATOM     91  C   UNL A   1      51.121  25.552  32.984  1.00  0.00     0.173 A 
ATOM     92  C   UNL A   1      49.934  23.514  33.439  1.00  0.00     0.173 A 
ATOM     93  F   UNL A   1      51.151  26.874  32.759  1.00  0.00    -0.203 F 
ATOM     94  C   UNL A   1      52.317  24.836  32.928  1.00  0.00     0.198 A 
ATOM     95  C   UNL A   1      51.134  22.808  33.415  1.00  0.00     0.198 A 
ATOM     96  F   UNL A   1      48.800  22.840  33.679  1.00  0.00    -0.203 F 
ATOM     97  F   UNL A   1      53.463  25.471  32.642  1.00  0.00    -0.200 F 
ATOM     98  C   UNL A   1      52.324  23.468  33.151  1.00  0.00     0.200 A 
ATOM     99  F   UNL A   1      51.138  21.487  33.644  1.00  0.00    -0.200 F 
ATOM    100  F   UNL A   1      53.476  22.784  33.103  1.00  0.00    -0.200 F 
ENDBRANCH  67  90
ENDBRANCH  41  42
ENDBRANCH  34  36
ENDBRANCH  33  34
ENDBRANCH  32  33
ENDBRANCH  31  32
ENDBRANCH  30  31
ENDBRANCH   1  30
TORSDOF 18
ENDMDL
