MODEL 1
REMARK VINA RESULT:     -12.4      0.000      0.000
REMARK SMILES CC[C@@H]1[NH2+][C@@H](C(=O)OCCOCCOC(=O)c2ccc(-c3c4nc(c(-c5c(F)c(F)c(F)c(F)c5F)c5ccc([nH]5)c(-c5c(F)c(F)c(F)c(F)c5F)c5nc(c(-c6c(F)c(F)c(F)c(F)c6F)c6ccc3[nH]6)C=C5)C=C4)cc2)Cc2c1[nH]c1ccccc21
REMARK SMILES IDX 12 1 11 2 10 3 9 4 8 5 6 6 7 7 5 8 3 9 4 10 82 11 81 14
REMARK SMILES IDX 83 15 80 16 89 17 84 18 88 20 85 21 87 22 86 23 2 24 1 25
REMARK SMILES IDX 13 26 14 27 15 28 16 29 17 30 18 31 79 32 19 33 78 34 20 35
REMARK SMILES IDX 21 36 22 37 72 38 23 39 77 40 71 41 73 42 24 43 76 44 70 45
REMARK SMILES IDX 69 46 25 48 57 49 37 50 56 51 38 52 41 53 55 54 74 55 39 56
REMARK SMILES IDX 40 57 54 59 75 60 42 61 26 62 27 63 35 64 28 65 29 66 33 67
REMARK SMILES IDX 36 68 30 69 31 70 34 71 32 72 58 73 59 74 67 75 60 76 61 77
REMARK SMILES IDX 65 78 68 79 62 80 63 81 66 82 64 83 43 84 44 85 52 86 45 87
REMARK SMILES IDX 46 88 50 89 53 90 47 91 48 92 51 93 49 94
REMARK H PARENT 4 12 4 13 83 19 73 47 41 58
REMARK Flexibility Score: inf
ROOT
ATOM      1  C   UNL A   1      32.301  29.707  25.096  1.00  0.00     0.202 C 
ENDROOT
BRANCH   1   2
ATOM      2  O   UNL A   1      32.457  28.360  25.536  1.00  0.00    -0.374 OA
BRANCH   2   3
ATOM      3  C   UNL A   1      31.515  27.393  25.061  1.00  0.00     0.202 C 
BRANCH   3   4
ATOM      4  C   UNL A   1      30.962  26.422  26.105  1.00  0.00     0.261 C 
BRANCH   4   5
ATOM      5  O   UNL A   1      30.652  25.162  25.486  1.00  0.00    -0.459 OA
BRANCH   5   6
ATOM      6  C   UNL A   1      30.843  24.078  26.277  1.00  0.00     0.365 C 
ATOM      7  O   UNL A   1      30.138  23.791  27.242  1.00  0.00    -0.245 OA
BRANCH   6   8
ATOM      8  C   UNL A   1      32.044  23.221  25.874  1.00  0.00     0.298 C 
ATOM      9  C   UNL A   1      32.638  20.859  25.520  1.00  0.00     0.230 C 
ATOM     10  N   UNL A   1      31.728  21.800  26.197  1.00  0.00    -0.327 N 
ATOM     11  C   UNL A   1      34.049  21.345  25.705  1.00  0.00     0.078 A 
ATOM     12  H   UNL A   1      31.808  21.667  27.205  1.00  0.00     0.347 HD
ATOM     13  H   UNL A   1      30.780  21.608  25.871  1.00  0.00     0.347 HD
ATOM     14  C   UNL A   1      34.436  22.616  26.089  1.00  0.00    -0.007 A 
ATOM     15  N   UNL A   1      35.182  20.621  25.449  1.00  0.00    -0.353 N 
ATOM     16  C   UNL A   1      33.416  23.646  26.450  1.00  0.00     0.115 C 
ATOM     17  C   UNL A   1      35.852  22.689  25.995  1.00  0.00     0.003 A 
ATOM     18  C   UNL A   1      36.294  21.429  25.582  1.00  0.00     0.046 A 
ATOM     19  H   UNL A   1      35.201  19.667  25.207  1.00  0.00     0.166 HD
ATOM     20  C   UNL A   1      36.805  23.708  26.195  1.00  0.00     0.010 A 
ATOM     21  C   UNL A   1      37.646  21.140  25.359  1.00  0.00     0.026 A 
ATOM     22  C   UNL A   1      38.161  23.435  25.968  1.00  0.00     0.001 A 
ATOM     23  C   UNL A   1      38.571  22.170  25.556  1.00  0.00     0.002 A 
BRANCH   9  24
ATOM     24  C   UNL A   1      32.344  20.622  24.015  1.00  0.00     0.068 C 
ATOM     25  C   UNL A   1      32.531  19.204  23.487  1.00  0.00     0.011 C 
ENDBRANCH   9  24
ENDBRANCH   6   8
ENDBRANCH   5   6
ENDBRANCH   4   5
ENDBRANCH   3   4
ENDBRANCH   2   3
ENDBRANCH   1   2
BRANCH   1  26
ATOM     26  C   UNL A   1      31.778  30.714  26.128  1.00  0.00     0.261 C 
BRANCH  26  27
ATOM     27  O   UNL A   1      32.544  30.731  27.344  1.00  0.00    -0.460 OA
BRANCH  27  28
ATOM     28  C   UNL A   1      33.340  31.817  27.481  1.00  0.00     0.338 C 
ATOM     29  O   UNL A   1      32.996  32.996  27.469  1.00  0.00    -0.246 OA
BRANCH  28  30
ATOM     30  C   UNL A   1      34.716  31.425  27.829  1.00  0.00     0.060 A 
ATOM     31  C   UNL A   1      34.940  30.065  28.079  1.00  0.00     0.016 A 
ATOM     32  C   UNL A   1      35.743  32.356  28.002  1.00  0.00     0.016 A 
ATOM     33  C   UNL A   1      36.174  29.639  28.559  1.00  0.00     0.010 A 
ATOM     34  C   UNL A   1      36.984  31.924  28.490  1.00  0.00     0.010 A 
ATOM     35  C   UNL A   1      37.191  30.570  28.808  1.00  0.00    -0.014 A 
BRANCH  35  36
ATOM     36  C   UNL A   1      38.405  30.110  29.526  1.00  0.00     0.031 A 
ATOM     37  C   UNL A   1      38.650  30.573  30.934  1.00  0.00     0.074 A 
ATOM     38  C   UNL A   1      39.231  29.213  28.960  1.00  0.00     0.049 A 
ATOM     39  N   UNL A   1      39.576  30.203  31.783  1.00  0.00    -0.248 NA
ATOM     40  C   UNL A   1      37.724  31.588  31.461  1.00  0.00     0.031 C 
ATOM     41  C   UNL A   1      39.091  28.677  27.608  1.00  0.00     0.029 A 
ATOM     42  N   UNL A   1      40.344  28.584  29.460  1.00  0.00    -0.354 N 
ATOM     43  C   UNL A   1      39.341  30.931  32.942  1.00  0.00     0.074 A 
ATOM     44  C   UNL A   1      38.208  31.794  32.677  1.00  0.00     0.031 C 
ATOM     45  C   UNL A   1      40.080  27.793  27.387  1.00  0.00     0.029 A 
ATOM     46  C   UNL A   1      40.925  27.712  28.576  1.00  0.00     0.049 A 
ATOM     47  H   UNL A   1      40.692  28.745  30.368  1.00  0.00     0.167 HD
ATOM     48  C   UNL A   1      40.000  30.877  34.124  1.00  0.00     0.037 A 
ATOM     49  C   UNL A   1      42.018  26.934  28.712  1.00  0.00     0.037 A 
ATOM     50  C   UNL A   1      41.127  30.020  34.389  1.00  0.00     0.049 A 
ATOM     51  C   UNL A   1      42.753  26.915  30.025  1.00  0.00     0.074 A 
ATOM     52  C   UNL A   1      41.840  29.867  35.565  1.00  0.00     0.029 A 
ATOM     53  N   UNL A   1      41.712  29.177  33.455  1.00  0.00    -0.354 N 
ATOM     54  N   UNL A   1      42.489  27.566  31.132  1.00  0.00    -0.248 NA
ATOM     55  C   UNL A   1      43.930  26.039  30.112  1.00  0.00     0.031 C 
ATOM     56  C   UNL A   1      42.887  28.968  35.329  1.00  0.00     0.029 A 
ATOM     57  C   UNL A   1      42.797  28.524  34.020  1.00  0.00     0.049 A 
ATOM     58  H   UNL A   1      41.403  29.060  32.527  1.00  0.00     0.167 HD
ATOM     59  C   UNL A   1      43.456  27.171  32.048  1.00  0.00     0.074 A 
ATOM     60  C   UNL A   1      44.296  26.202  31.375  1.00  0.00     0.031 C 
ATOM     61  C   UNL A   1      43.633  27.574  33.331  1.00  0.00     0.037 A 
BRANCH  48  62
ATOM     62  C   UNL A   1      39.531  31.789  35.219  1.00  0.00     0.064 A 
ATOM     63  C   UNL A   1      38.638  31.353  36.211  1.00  0.00     0.173 A 
ATOM     64  C   UNL A   1      40.000  33.109  35.294  1.00  0.00     0.173 A 
ATOM     65  F   UNL A   1      38.149  30.104  36.176  1.00  0.00    -0.203 F 
ATOM     66  C   UNL A   1      38.215  32.213  37.222  1.00  0.00     0.198 A 
ATOM     67  C   UNL A   1      39.595  33.957  36.321  1.00  0.00     0.198 A 
ATOM     68  F   UNL A   1      40.859  33.574  34.374  1.00  0.00    -0.203 F 
ATOM     69  F   UNL A   1      37.328  31.788  38.132  1.00  0.00    -0.200 F 
ATOM     70  C   UNL A   1      38.698  33.511  37.279  1.00  0.00     0.200 A 
ATOM     71  F   UNL A   1      40.071  35.209  36.381  1.00  0.00    -0.200 F 
ATOM     72  F   UNL A   1      38.292  34.335  38.255  1.00  0.00    -0.200 F 
ENDBRANCH  48  62
BRANCH  49  73
ATOM     73  C   UNL A   1      42.475  26.103  27.570  1.00  0.00     0.064 A 
ATOM     74  C   UNL A   1      41.901  24.853  27.302  1.00  0.00     0.173 A 
ATOM     75  C   UNL A   1      43.503  26.545  26.722  1.00  0.00     0.173 A 
ATOM     76  F   UNL A   1      40.933  24.377  28.100  1.00  0.00    -0.203 F 
ATOM     77  C   UNL A   1      42.344  24.071  26.238  1.00  0.00     0.198 A 
ATOM     78  C   UNL A   1      43.928  25.774  25.644  1.00  0.00     0.198 A 
ATOM     79  F   UNL A   1      44.086  27.732  26.939  1.00  0.00    -0.203 F 
ATOM     80  F   UNL A   1      41.806  22.862  26.027  1.00  0.00    -0.200 F 
ATOM     81  C   UNL A   1      43.352  24.535  25.405  1.00  0.00     0.200 A 
ATOM     82  F   UNL A   1      44.894  26.230  24.836  1.00  0.00    -0.200 F 
ATOM     83  F   UNL A   1      43.774  23.785  24.378  1.00  0.00    -0.200 F 
ENDBRANCH  49  73
BRANCH  61  84
ATOM     84  C   UNL A   1      44.778  26.963  34.087  1.00  0.00     0.064 A 
ATOM     85  C   UNL A   1      44.636  25.746  34.771  1.00  0.00     0.173 A 
ATOM     86  C   UNL A   1      46.032  27.591  34.116  1.00  0.00     0.173 A 
ATOM     87  F   UNL A   1      43.453  25.113  34.786  1.00  0.00    -0.203 F 
ATOM     88  C   UNL A   1      45.700  25.198  35.484  1.00  0.00     0.198 A 
ATOM     89  C   UNL A   1      47.101  27.025  34.806  1.00  0.00     0.198 A 
ATOM     90  F   UNL A   1      46.223  28.752  33.471  1.00  0.00    -0.203 F 
ATOM     91  F   UNL A   1      45.526  24.064  36.176  1.00  0.00    -0.200 F 
ATOM     92  C   UNL A   1      46.931  25.835  35.497  1.00  0.00     0.200 A 
ATOM     93  F   UNL A   1      48.294  27.635  34.807  1.00  0.00    -0.200 F 
ATOM     94  F   UNL A   1      47.953  25.307  36.185  1.00  0.00    -0.200 F 
ENDBRANCH  61  84
ENDBRANCH  35  36
ENDBRANCH  28  30
ENDBRANCH  27  28
ENDBRANCH  26  27
ENDBRANCH   1  26
TORSDOF 15
ENDMDL
MODEL 2
REMARK VINA RESULT:     -12.1      4.406      9.874
REMARK SMILES CC[C@@H]1[NH2+][C@@H](C(=O)OCCOCCOC(=O)c2ccc(-c3c4nc(c(-c5c(F)c(F)c(F)c(F)c5F)c5ccc([nH]5)c(-c5c(F)c(F)c(F)c(F)c5F)c5nc(c(-c6c(F)c(F)c(F)c(F)c6F)c6ccc3[nH]6)C=C5)C=C4)cc2)Cc2c1[nH]c1ccccc21
REMARK SMILES IDX 12 1 11 2 10 3 9 4 8 5 6 6 7 7 5 8 3 9 4 10 82 11 81 14
REMARK SMILES IDX 83 15 80 16 89 17 84 18 88 20 85 21 87 22 86 23 2 24 1 25
REMARK SMILES IDX 13 26 14 27 15 28 16 29 17 30 18 31 79 32 19 33 78 34 20 35
REMARK SMILES IDX 21 36 22 37 72 38 23 39 77 40 71 41 73 42 24 43 76 44 70 45
REMARK SMILES IDX 69 46 25 48 57 49 37 50 56 51 38 52 41 53 55 54 74 55 39 56
REMARK SMILES IDX 40 57 54 59 75 60 42 61 26 62 27 63 35 64 28 65 29 66 33 67
REMARK SMILES IDX 36 68 30 69 31 70 34 71 32 72 58 73 59 74 67 75 60 76 61 77
REMARK SMILES IDX 65 78 68 79 62 80 63 81 66 82 64 83 43 84 44 85 52 86 45 87
REMARK SMILES IDX 46 88 50 89 53 90 47 91 48 92 51 93 49 94
REMARK H PARENT 4 12 4 13 83 19 73 47 41 58
REMARK Flexibility Score: inf
ROOT
ATOM      1  C   UNL A   1      35.897  21.292  25.553  1.00  0.00     0.202 C 
ENDROOT
BRANCH   1   2
ATOM      2  O   UNL A   1      34.852  21.424  24.592  1.00  0.00    -0.374 OA
BRANCH   2   3
ATOM      3  C   UNL A   1      33.777  22.318  24.899  1.00  0.00     0.202 C 
BRANCH   3   4
ATOM      4  C   UNL A   1      33.059  22.943  23.703  1.00  0.00     0.261 C 
BRANCH   4   5
ATOM      5  O   UNL A   1      33.897  23.942  23.097  1.00  0.00    -0.459 OA
BRANCH   5   6
ATOM      6  C   UNL A   1      33.244  24.829  22.306  1.00  0.00     0.365 C 
ATOM      7  O   UNL A   1      33.068  24.682  21.099  1.00  0.00    -0.245 OA
BRANCH   6   8
ATOM      8  C   UNL A   1      32.740  26.067  23.050  1.00  0.00     0.298 C 
ATOM      9  C   UNL A   1      31.293  28.024  22.685  1.00  0.00     0.230 C 
ATOM     10  N   UNL A   1      32.132  26.992  22.050  1.00  0.00    -0.327 N 
ATOM     11  C   UNL A   1      32.054  28.610  23.843  1.00  0.00     0.078 A 
ATOM     12  H   UNL A   1      32.880  27.450  21.530  1.00  0.00     0.347 HD
ATOM     13  H   UNL A   1      31.536  26.439  21.435  1.00  0.00     0.347 HD
ATOM     14  C   UNL A   1      33.158  28.058  24.463  1.00  0.00    -0.007 A 
ATOM     15  N   UNL A   1      31.725  29.756  24.515  1.00  0.00    -0.353 N 
ATOM     16  C   UNL A   1      33.769  26.795  23.949  1.00  0.00     0.115 C 
ATOM     17  C   UNL A   1      33.469  28.857  25.596  1.00  0.00     0.003 A 
ATOM     18  C   UNL A   1      32.550  29.909  25.611  1.00  0.00     0.046 A 
ATOM     19  H   UNL A   1      31.008  30.379  24.254  1.00  0.00     0.166 HD
ATOM     20  C   UNL A   1      34.426  28.781  26.629  1.00  0.00     0.010 A 
ATOM     21  C   UNL A   1      32.541  30.889  26.612  1.00  0.00     0.026 A 
ATOM     22  C   UNL A   1      34.424  29.750  27.640  1.00  0.00     0.001 A 
ATOM     23  C   UNL A   1      33.494  30.786  27.629  1.00  0.00     0.002 A 
BRANCH   9  24
ATOM     24  C   UNL A   1      29.893  27.544  23.150  1.00  0.00     0.068 C 
ATOM     25  C   UNL A   1      28.749  28.548  23.053  1.00  0.00     0.011 C 
ENDBRANCH   9  24
ENDBRANCH   6   8
ENDBRANCH   5   6
ENDBRANCH   4   5
ENDBRANCH   3   4
ENDBRANCH   2   3
ENDBRANCH   1   2
BRANCH   1  26
ATOM     26  C   UNL A   1      37.186  20.607  25.079  1.00  0.00     0.261 C 
BRANCH  26  27
ATOM     27  O   UNL A   1      38.325  21.483  25.067  1.00  0.00    -0.460 OA
BRANCH  27  28
ATOM     28  C   UNL A   1      39.274  21.172  25.981  1.00  0.00     0.338 C 
ATOM     29  O   UNL A   1      39.813  20.082  26.148  1.00  0.00    -0.246 OA
BRANCH  28  30
ATOM     30  C   UNL A   1      39.741  22.375  26.689  1.00  0.00     0.060 A 
ATOM     31  C   UNL A   1      39.097  23.579  26.382  1.00  0.00     0.016 A 
ATOM     32  C   UNL A   1      40.835  22.358  27.559  1.00  0.00     0.016 A 
ATOM     33  C   UNL A   1      39.579  24.779  26.893  1.00  0.00     0.010 A 
ATOM     34  C   UNL A   1      41.322  23.569  28.071  1.00  0.00     0.010 A 
ATOM     35  C   UNL A   1      40.721  24.787  27.707  1.00  0.00    -0.014 A 
BRANCH  35  36
ATOM     36  C   UNL A   1      41.332  26.096  28.047  1.00  0.00     0.031 A 
ATOM     37  C   UNL A   1      42.728  26.400  27.583  1.00  0.00     0.074 A 
ATOM     38  C   UNL A   1      40.613  27.038  28.683  1.00  0.00     0.049 A 
ATOM     39  N   UNL A   1      43.407  27.518  27.665  1.00  0.00    -0.248 NA
ATOM     40  C   UNL A   1      43.459  25.300  26.936  1.00  0.00     0.031 C 
ATOM     41  C   UNL A   1      39.246  26.868  29.168  1.00  0.00     0.029 A 
ATOM     42  N   UNL A   1      40.932  28.331  29.014  1.00  0.00    -0.354 N 
ATOM     43  C   UNL A   1      44.637  27.257  27.075  1.00  0.00     0.074 A 
ATOM     44  C   UNL A   1      44.628  25.866  26.674  1.00  0.00     0.031 C 
ATOM     45  C   UNL A   1      38.839  28.018  29.732  1.00  0.00     0.029 A 
ATOM     46  C   UNL A   1      39.920  28.998  29.656  1.00  0.00     0.049 A 
ATOM     47  H   UNL A   1      41.805  28.740  28.810  1.00  0.00     0.167 HD
ATOM     48  C   UNL A   1      45.675  28.104  26.874  1.00  0.00     0.037 A 
ATOM     49  C   UNL A   1      39.873  30.259  30.130  1.00  0.00     0.037 A 
ATOM     50  C   UNL A   1      45.685  29.488  27.272  1.00  0.00     0.049 A 
ATOM     51  C   UNL A   1      41.052  31.172  29.922  1.00  0.00     0.074 A 
ATOM     52  C   UNL A   1      46.675  30.436  27.081  1.00  0.00     0.029 A 
ATOM     53  N   UNL A   1      44.656  30.119  27.956  1.00  0.00    -0.354 N 
ATOM     54  N   UNL A   1      42.189  30.932  29.315  1.00  0.00    -0.248 NA
ATOM     55  C   UNL A   1      40.933  32.537  30.454  1.00  0.00     0.031 C 
ATOM     56  C   UNL A   1      46.265  31.627  27.692  1.00  0.00     0.029 A 
ATOM     57  C   UNL A   1      44.999  31.436  28.221  1.00  0.00     0.049 A 
ATOM     58  H   UNL A   1      43.806  29.694  28.215  1.00  0.00     0.167 HD
ATOM     59  C   UNL A   1      42.913  32.115  29.379  1.00  0.00     0.074 A 
ATOM     60  C   UNL A   1      42.077  33.080  30.062  1.00  0.00     0.031 C 
ATOM     61  C   UNL A   1      44.161  32.379  28.916  1.00  0.00     0.037 A 
BRANCH  48  62
ATOM     62  C   UNL A   1      46.900  27.549  26.208  1.00  0.00     0.064 A 
ATOM     63  C   UNL A   1      47.932  26.950  26.946  1.00  0.00     0.173 A 
ATOM     64  C   UNL A   1      47.031  27.593  24.812  1.00  0.00     0.173 A 
ATOM     65  F   UNL A   1      47.862  26.895  28.284  1.00  0.00    -0.203 F 
ATOM     66  C   UNL A   1      49.062  26.437  26.312  1.00  0.00     0.198 A 
ATOM     67  C   UNL A   1      48.150  27.056  24.180  1.00  0.00     0.198 A 
ATOM     68  F   UNL A   1      46.070  28.151  24.060  1.00  0.00    -0.203 F 
ATOM     69  F   UNL A   1      50.056  25.909  27.039  1.00  0.00    -0.200 F 
ATOM     70  C   UNL A   1      49.166  26.486  24.930  1.00  0.00     0.200 A 
ATOM     71  F   UNL A   1      48.244  27.094  22.843  1.00  0.00    -0.200 F 
ATOM     72  F   UNL A   1      50.252  25.988  24.321  1.00  0.00    -0.200 F 
ENDBRANCH  48  62
BRANCH  49  73
ATOM     73  C   UNL A   1      38.659  30.732  30.840  1.00  0.00     0.064 A 
ATOM     74  C   UNL A   1      37.543  31.208  30.140  1.00  0.00     0.173 A 
ATOM     75  C   UNL A   1      38.593  30.719  32.243  1.00  0.00     0.173 A 
ATOM     76  F   UNL A   1      37.568  31.264  28.799  1.00  0.00    -0.203 F 
ATOM     77  C   UNL A   1      36.411  31.665  30.812  1.00  0.00     0.198 A 
ATOM     78  C   UNL A   1      37.452  31.152  32.914  1.00  0.00     0.198 A 
ATOM     79  F   UNL A   1      39.636  30.276  32.958  1.00  0.00    -0.203 F 
ATOM     80  F   UNL A   1      35.373  32.152  30.120  1.00  0.00    -0.200 F 
ATOM     81  C   UNL A   1      36.364  31.629  32.199  1.00  0.00     0.200 A 
ATOM     82  F   UNL A   1      37.406  31.106  34.252  1.00  0.00    -0.200 F 
ATOM     83  F   UNL A   1      35.273  32.063  32.845  1.00  0.00    -0.200 F 
ENDBRANCH  49  73
BRANCH  61  84
ATOM     84  C   UNL A   1      44.690  33.768  29.131  1.00  0.00     0.064 A 
ATOM     85  C   UNL A   1      45.439  34.098  30.270  1.00  0.00     0.173 A 
ATOM     86  C   UNL A   1      44.457  34.776  28.184  1.00  0.00     0.173 A 
ATOM     87  F   UNL A   1      45.677  33.173  31.213  1.00  0.00    -0.203 F 
ATOM     88  C   UNL A   1      45.908  35.394  30.468  1.00  0.00     0.198 A 
ATOM     89  C   UNL A   1      44.953  36.064  28.371  1.00  0.00     0.198 A 
ATOM     90  F   UNL A   1      43.752  34.511  27.073  1.00  0.00    -0.203 F 
ATOM     91  F   UNL A   1      46.575  35.700  31.590  1.00  0.00    -0.200 F 
ATOM     92  C   UNL A   1      45.669  36.374  29.517  1.00  0.00     0.200 A 
ATOM     93  F   UNL A   1      44.731  37.007  27.444  1.00  0.00    -0.200 F 
ATOM     94  F   UNL A   1      46.119  37.622  29.709  1.00  0.00    -0.200 F 
ENDBRANCH  61  84
ENDBRANCH  35  36
ENDBRANCH  28  30
ENDBRANCH  27  28
ENDBRANCH  26  27
ENDBRANCH   1  26
TORSDOF 15
ENDMDL
MODEL 3
REMARK VINA RESULT:     -12.0      1.357      2.779
REMARK SMILES CC[C@@H]1[NH2+][C@@H](C(=O)OCCOCCOC(=O)c2ccc(-c3c4nc(c(-c5c(F)c(F)c(F)c(F)c5F)c5ccc([nH]5)c(-c5c(F)c(F)c(F)c(F)c5F)c5nc(c(-c6c(F)c(F)c(F)c(F)c6F)c6ccc3[nH]6)C=C5)C=C4)cc2)Cc2c1[nH]c1ccccc21
REMARK SMILES IDX 12 1 11 2 10 3 9 4 8 5 6 6 7 7 5 8 3 9 4 10 82 11 81 14
REMARK SMILES IDX 83 15 80 16 89 17 84 18 88 20 85 21 87 22 86 23 2 24 1 25
REMARK SMILES IDX 13 26 14 27 15 28 16 29 17 30 18 31 79 32 19 33 78 34 20 35
REMARK SMILES IDX 21 36 22 37 72 38 23 39 77 40 71 41 73 42 24 43 76 44 70 45
REMARK SMILES IDX 69 46 25 48 57 49 37 50 56 51 38 52 41 53 55 54 74 55 39 56
REMARK SMILES IDX 40 57 54 59 75 60 42 61 26 62 27 63 35 64 28 65 29 66 33 67
REMARK SMILES IDX 36 68 30 69 31 70 34 71 32 72 58 73 59 74 67 75 60 76 61 77
REMARK SMILES IDX 65 78 68 79 62 80 63 81 66 82 64 83 43 84 44 85 52 86 45 87
REMARK SMILES IDX 46 88 50 89 53 90 47 91 48 92 51 93 49 94
REMARK H PARENT 4 12 4 13 83 19 73 47 41 58
REMARK Flexibility Score: inf
ROOT
ATOM      1  C   UNL A   1      32.017  29.700  25.063  1.00  0.00     0.202 C 
ENDROOT
BRANCH   1   2
ATOM      2  O   UNL A   1      30.885  29.258  24.318  1.00  0.00    -0.374 OA
BRANCH   2   3
ATOM      3  C   UNL A   1      30.835  27.878  23.942  1.00  0.00     0.202 C 
BRANCH   3   4
ATOM      4  C   UNL A   1      31.921  27.404  22.975  1.00  0.00     0.261 C 
BRANCH   4   5
ATOM      5  O   UNL A   1      31.578  26.110  22.450  1.00  0.00    -0.459 OA
BRANCH   5   6
ATOM      6  C   UNL A   1      32.619  25.249  22.336  1.00  0.00     0.365 C 
ATOM      7  O   UNL A   1      33.525  25.361  21.515  1.00  0.00    -0.245 OA
BRANCH   6   8
ATOM      8  C   UNL A   1      32.569  24.085  23.329  1.00  0.00     0.298 C 
ATOM      9  C   UNL A   1      33.199  23.562  25.649  1.00  0.00     0.230 C 
ATOM     10  N   UNL A   1      33.455  24.422  24.480  1.00  0.00    -0.327 N 
ATOM     11  C   UNL A   1      33.130  22.134  25.184  1.00  0.00     0.078 A 
ATOM     12  H   UNL A   1      34.427  24.304  24.192  1.00  0.00     0.347 HD
ATOM     13  H   UNL A   1      33.262  25.386  24.752  1.00  0.00     0.347 HD
ATOM     14  C   UNL A   1      32.949  21.702  23.884  1.00  0.00    -0.007 A 
ATOM     15  N   UNL A   1      33.162  21.029  25.992  1.00  0.00    -0.353 N 
ATOM     16  C   UNL A   1      32.883  22.681  22.758  1.00  0.00     0.115 C 
ATOM     17  C   UNL A   1      32.795  20.289  23.909  1.00  0.00     0.003 A 
ATOM     18  C   UNL A   1      32.922  19.894  25.244  1.00  0.00     0.046 A 
ATOM     19  H   UNL A   1      33.332  21.043  26.962  1.00  0.00     0.166 HD
ATOM     20  C   UNL A   1      32.534  19.305  22.935  1.00  0.00     0.010 A 
ATOM     21  C   UNL A   1      32.800  18.560  25.650  1.00  0.00     0.026 A 
ATOM     22  C   UNL A   1      32.401  17.967  23.329  1.00  0.00     0.001 A 
ATOM     23  C   UNL A   1      32.533  17.603  24.666  1.00  0.00     0.002 A 
BRANCH   9  24
ATOM     24  C   UNL A   1      31.931  23.922  26.469  1.00  0.00     0.068 C 
ATOM     25  C   UNL A   1      31.519  25.390  26.499  1.00  0.00     0.011 C 
ENDBRANCH   9  24
ENDBRANCH   6   8
ENDBRANCH   5   6
ENDBRANCH   4   5
ENDBRANCH   3   4
ENDBRANCH   2   3
ENDBRANCH   1   2
BRANCH   1  26
ATOM     26  C   UNL A   1      31.775  30.817  26.087  1.00  0.00     0.261 C 
BRANCH  26  27
ATOM     27  O   UNL A   1      32.600  30.702  27.258  1.00  0.00    -0.460 OA
BRANCH  27  28
ATOM     28  C   UNL A   1      33.347  31.801  27.519  1.00  0.00     0.338 C 
ATOM     29  O   UNL A   1      32.954  32.961  27.605  1.00  0.00    -0.246 OA
BRANCH  28  30
ATOM     30  C   UNL A   1      34.728  31.431  27.873  1.00  0.00     0.060 A 
ATOM     31  C   UNL A   1      34.969  30.079  28.142  1.00  0.00     0.016 A 
ATOM     32  C   UNL A   1      35.743  32.379  28.030  1.00  0.00     0.016 A 
ATOM     33  C   UNL A   1      36.209  29.676  28.628  1.00  0.00     0.010 A 
ATOM     34  C   UNL A   1      36.989  31.970  28.524  1.00  0.00     0.010 A 
ATOM     35  C   UNL A   1      37.214  30.624  28.863  1.00  0.00    -0.014 A 
BRANCH  35  36
ATOM     36  C   UNL A   1      38.434  30.190  29.587  1.00  0.00     0.031 A 
ATOM     37  C   UNL A   1      38.654  30.647  31.002  1.00  0.00     0.074 A 
ATOM     38  C   UNL A   1      39.289  29.321  29.020  1.00  0.00     0.049 A 
ATOM     39  N   UNL A   1      39.583  30.294  31.855  1.00  0.00    -0.248 NA
ATOM     40  C   UNL A   1      37.696  31.631  31.530  1.00  0.00     0.031 C 
ATOM     41  C   UNL A   1      39.175  28.795  27.662  1.00  0.00     0.029 A 
ATOM     42  N   UNL A   1      40.415  28.719  29.524  1.00  0.00    -0.354 N 
ATOM     43  C   UNL A   1      39.318  31.005  33.018  1.00  0.00     0.074 A 
ATOM     44  C   UNL A   1      38.165  31.838  32.752  1.00  0.00     0.031 C 
ATOM     45  C   UNL A   1      40.190  27.940  27.441  1.00  0.00     0.029 A 
ATOM     46  C   UNL A   1      41.027  27.871  28.637  1.00  0.00     0.049 A 
ATOM     47  H   UNL A   1      40.750  28.881  30.436  1.00  0.00     0.167 HD
ATOM     48  C   UNL A   1      39.969  30.957  34.205  1.00  0.00     0.037 A 
ATOM     49  C   UNL A   1      42.139  27.122  28.776  1.00  0.00     0.037 A 
ATOM     50  C   UNL A   1      41.116  30.129  34.472  1.00  0.00     0.049 A 
ATOM     51  C   UNL A   1      42.863  27.110  30.095  1.00  0.00     0.074 A 
ATOM     52  C   UNL A   1      41.823  29.984  35.653  1.00  0.00     0.029 A 
ATOM     53  N   UNL A   1      41.732  29.311  33.536  1.00  0.00    -0.354 N 
ATOM     54  N   UNL A   1      42.573  27.744  31.206  1.00  0.00    -0.248 NA
ATOM     55  C   UNL A   1      44.063  26.266  30.183  1.00  0.00     0.031 C 
ATOM     56  C   UNL A   1      42.896  29.117  35.418  1.00  0.00     0.029 A 
ATOM     57  C   UNL A   1      42.829  28.683  34.104  1.00  0.00     0.049 A 
ATOM     58  H   UNL A   1      41.434  29.195  32.604  1.00  0.00     0.167 HD
ATOM     59  C   UNL A   1      43.542  27.366  32.125  1.00  0.00     0.074 A 
ATOM     60  C   UNL A   1      44.414  26.428  31.451  1.00  0.00     0.031 C 
ATOM     61  C   UNL A   1      43.698  27.763  33.414  1.00  0.00     0.037 A 
BRANCH  48  62
ATOM     62  C   UNL A   1      39.466  31.847  35.305  1.00  0.00     0.064 A 
ATOM     63  C   UNL A   1      39.853  33.192  35.401  1.00  0.00     0.173 A 
ATOM     64  C   UNL A   1      38.563  31.354  36.259  1.00  0.00     0.173 A 
ATOM     65  F   UNL A   1      40.725  33.708  34.521  1.00  0.00    -0.203 F 
ATOM     66  C   UNL A   1      39.374  34.004  36.427  1.00  0.00     0.198 A 
ATOM     67  C   UNL A   1      38.066  32.176  37.267  1.00  0.00     0.198 A 
ATOM     68  F   UNL A   1      38.157  30.076  36.209  1.00  0.00    -0.203 F 
ATOM     69  F   UNL A   1      39.792  35.274  36.525  1.00  0.00    -0.200 F 
ATOM     70  C   UNL A   1      38.477  33.497  37.355  1.00  0.00     0.200 A 
ATOM     71  F   UNL A   1      37.191  31.687  38.157  1.00  0.00    -0.200 F 
ATOM     72  F   UNL A   1      38.014  34.281  38.338  1.00  0.00    -0.200 F 
ENDBRANCH  48  62
BRANCH  49  73
ATOM     73  C   UNL A   1      42.628  26.314  27.630  1.00  0.00     0.064 A 
ATOM     74  C   UNL A   1      42.136  25.026  27.384  1.00  0.00     0.173 A 
ATOM     75  C   UNL A   1      43.605  26.819  26.757  1.00  0.00     0.173 A 
ATOM     76  F   UNL A   1      41.221  24.490  28.206  1.00  0.00    -0.203 F 
ATOM     77  C   UNL A   1      42.610  24.266  26.316  1.00  0.00     0.198 A 
ATOM     78  C   UNL A   1      44.059  26.069  25.675  1.00  0.00     0.198 A 
ATOM     79  F   UNL A   1      44.109  28.045  26.952  1.00  0.00    -0.203 F 
ATOM     80  F   UNL A   1      42.153  23.021  26.126  1.00  0.00    -0.200 F 
ATOM     81  C   UNL A   1      43.566  24.791  25.458  1.00  0.00     0.200 A 
ATOM     82  F   UNL A   1      44.974  26.584  24.843  1.00  0.00    -0.200 F 
ATOM     83  F   UNL A   1      44.017  24.063  24.428  1.00  0.00    -0.200 F 
ENDBRANCH  49  73
BRANCH  61  84
ATOM     84  C   UNL A   1      44.852  27.176  34.174  1.00  0.00     0.064 A 
ATOM     85  C   UNL A   1      46.099  27.817  34.220  1.00  0.00     0.173 A 
ATOM     86  C   UNL A   1      44.707  25.970  34.875  1.00  0.00     0.173 A 
ATOM     87  F   UNL A   1      46.294  28.965  33.554  1.00  0.00    -0.203 F 
ATOM     88  C   UNL A   1      47.168  27.253  34.913  1.00  0.00     0.198 A 
ATOM     89  C   UNL A   1      45.769  25.425  35.592  1.00  0.00     0.198 A 
ATOM     90  F   UNL A   1      43.532  25.321  34.871  1.00  0.00    -0.203 F 
ATOM     91  F   UNL A   1      48.366  27.854  34.896  1.00  0.00    -0.200 F 
ATOM     92  C   UNL A   1      47.001  26.061  35.601  1.00  0.00     0.200 A 
ATOM     93  F   UNL A   1      45.603  24.279  36.267  1.00  0.00    -0.200 F 
ATOM     94  F   UNL A   1      48.031  25.520  36.266  1.00  0.00    -0.200 F 
ENDBRANCH  61  84
ENDBRANCH  35  36
ENDBRANCH  28  30
ENDBRANCH  27  28
ENDBRANCH  26  27
ENDBRANCH   1  26
TORSDOF 15
ENDMDL
