MODEL 1
REMARK VINA RESULT:     -12.5      0.000      0.000
REMARK SMILES NS(=O)(=O)c1ccc(-n2nc(C(=O)NCCCC(=O)OCCOCCOC(=O)c3ccc(-c4c5nc(c(-c6c(F)c(F)c(F)c(F)c6F)c6ccc([nH]6)c(-c6c(F)c(F)c(F)c(F)c6F)c6nc(c(-c7c(F)c(F)c(F)c(F)c7F)c7ccc4[nH]7)C=C6)C=C5)cc3)cc2-c2ccccc2)cc1
REMARK SMILES IDX 21 1 20 2 18 3 19 4 17 5 16 6 15 7 14 8 12 9 13 10 11 12
REMARK SMILES IDX 9 13 10 14 93 15 92 16 8 17 5 18 6 19 101 20 7 21 100 22
REMARK SMILES IDX 2 23 3 24 4 25 1 26 94 29 95 30 99 31 96 32 98 33 97 34
REMARK SMILES IDX 22 35 23 36 24 37 25 38 26 39 27 40 28 41 29 42 30 43 91 44
REMARK SMILES IDX 31 45 90 46 32 47 33 48 34 49 84 50 35 51 89 52 83 53 85 54
REMARK SMILES IDX 36 55 88 56 82 57 81 58 37 60 69 61 49 62 68 63 50 64 53 65
REMARK SMILES IDX 67 66 86 67 51 68 52 69 66 71 87 72 54 73 38 74 39 75 47 76
REMARK SMILES IDX 40 77 41 78 45 79 48 80 42 81 43 82 46 83 44 84 70 85 71 86
REMARK SMILES IDX 79 87 72 88 73 89 77 90 80 91 74 92 75 93 78 94 76 95 55 96
REMARK SMILES IDX 56 97 64 98 57 99 58 100 62 101 65 102 59 103 60 104 63 105
REMARK SMILES IDX 61 106
REMARK H PARENT 14 11 1 27 1 28 85 59 53 70
REMARK Flexibility Score: inf
ROOT
ATOM      1  C   UNL A   1      38.764  21.687  25.767  1.00  0.00     0.261 C 
ENDROOT
BRANCH   1   2
ATOM      2  O   UNL A   1      38.039  22.920  25.599  1.00  0.00    -0.463 OA
BRANCH   2   3
ATOM      3  C   UNL A   1      36.871  22.856  24.918  1.00  0.00     0.305 C 
ATOM      4  O   UNL A   1      36.731  23.153  23.740  1.00  0.00    -0.252 OA
BRANCH   3   5
ATOM      5  C   UNL A   1      35.722  22.386  25.786  1.00  0.00     0.124 C 
BRANCH   5   6
ATOM      6  C   UNL A   1      34.823  21.278  25.235  1.00  0.00     0.033 C 
BRANCH   6   7
ATOM      7  C   UNL A   1      33.511  21.722  24.597  1.00  0.00     0.117 C 
BRANCH   7   8
ATOM      8  N   UNL A   1      33.669  22.170  23.231  1.00  0.00    -0.351 N 
ATOM      9  C   UNL A   1      33.362  23.329  22.553  1.00  0.00     0.271 C 
ATOM     10  O   UNL A   1      33.627  23.309  21.346  1.00  0.00    -0.267 OA
ATOM     11  H   UNL A   1      34.091  21.492  22.655  1.00  0.00     0.163 HD
BRANCH   9  12
ATOM     12  C   UNL A   1      32.798  24.531  23.210  1.00  0.00     0.151 A 
ATOM     13  N   UNL A   1      31.594  26.308  23.364  1.00  0.00    -0.232 N 
ATOM     14  N   UNL A   1      31.717  25.153  22.679  1.00  0.00    -0.162 NA
ATOM     15  C   UNL A   1      32.399  26.331  24.479  1.00  0.00     0.075 A 
ATOM     16  C   UNL A   1      33.218  25.236  24.363  1.00  0.00     0.065 A 
BRANCH  13  17
ATOM     17  C   UNL A   1      30.684  27.327  22.999  1.00  0.00     0.065 A 
ATOM     18  C   UNL A   1      29.094  29.582  22.799  1.00  0.00     0.082 A 
ATOM     19  C   UNL A   1      30.361  29.597  22.218  1.00  0.00     0.024 A 
ATOM     20  C   UNL A   1      28.598  28.432  23.434  1.00  0.00     0.024 A 
ATOM     21  C   UNL A   1      31.159  28.464  22.320  1.00  0.00     0.030 A 
ATOM     22  C   UNL A   1      29.388  27.284  23.511  1.00  0.00     0.030 A 
BRANCH  18  23
ATOM     23  S   UNL A   1      28.104  31.041  22.747  1.00  0.00     0.238 S 
ATOM     24  O   UNL A   1      27.038  30.931  23.717  1.00  0.00    -0.207 OA
ATOM     25  O   UNL A   1      27.865  31.384  21.365  1.00  0.00    -0.207 OA
BRANCH  23  26
ATOM     26  N   UNL A   1      29.154  32.194  23.360  1.00  0.00    -0.225 NA
ATOM     27  H   UNL A   1      28.638  33.049  23.565  1.00  0.00     0.137 HD
ATOM     28  H   UNL A   1      29.881  32.392  22.672  1.00  0.00     0.137 HD
ENDBRANCH  23  26
ENDBRANCH  18  23
ENDBRANCH  13  17
BRANCH  15  29
ATOM     29  C   UNL A   1      32.411  27.379  25.481  1.00  0.00     0.000 A 
ATOM     30  C   UNL A   1      31.609  27.329  26.623  1.00  0.00     0.010 A 
ATOM     31  C   UNL A   1      33.183  28.506  25.220  1.00  0.00     0.010 A 
ATOM     32  C   UNL A   1      31.573  28.421  27.484  1.00  0.00     0.001 A 
ATOM     33  C   UNL A   1      33.154  29.588  26.078  1.00  0.00     0.001 A 
ATOM     34  C   UNL A   1      32.336  29.549  27.198  1.00  0.00     0.000 A 
ENDBRANCH  15  29
ENDBRANCH   9  12
ENDBRANCH   7   8
ENDBRANCH   6   7
ENDBRANCH   5   6
ENDBRANCH   3   5
ENDBRANCH   2   3
ENDBRANCH   1   2
BRANCH   1  35
ATOM     35  C   UNL A   1      39.937  21.882  26.725  1.00  0.00     0.202 C 
BRANCH  35  36
ATOM     36  O   UNL A   1      40.468  20.697  27.324  1.00  0.00    -0.374 OA
BRANCH  36  37
ATOM     37  C   UNL A   1      41.881  20.545  27.408  1.00  0.00     0.202 C 
BRANCH  37  38
ATOM     38  C   UNL A   1      42.535  19.679  26.340  1.00  0.00     0.261 C 
BRANCH  38  39
ATOM     39  O   UNL A   1      42.854  20.457  25.198  1.00  0.00    -0.460 OA
BRANCH  39  40
ATOM     40  C   UNL A   1      44.156  20.408  24.810  1.00  0.00     0.338 C 
ATOM     41  O   UNL A   1      44.814  19.434  24.535  1.00  0.00    -0.246 OA
BRANCH  40  42
ATOM     42  C   UNL A   1      44.692  21.777  24.919  1.00  0.00     0.060 A 
ATOM     43  C   UNL A   1      45.704  21.968  25.862  1.00  0.00     0.016 A 
ATOM     44  C   UNL A   1      43.903  22.827  24.452  1.00  0.00     0.016 A 
ATOM     45  C   UNL A   1      45.697  23.141  26.587  1.00  0.00     0.010 A 
ATOM     46  C   UNL A   1      43.841  23.947  25.226  1.00  0.00     0.010 A 
ATOM     47  C   UNL A   1      44.673  24.051  26.338  1.00  0.00    -0.014 A 
BRANCH  47  48
ATOM     48  C   UNL A   1      44.487  25.199  27.201  1.00  0.00     0.031 A 
ATOM     49  C   UNL A   1      45.574  26.197  27.020  1.00  0.00     0.074 A 
ATOM     50  C   UNL A   1      43.333  25.352  27.892  1.00  0.00     0.049 A 
ATOM     51  N   UNL A   1      46.415  26.628  27.898  1.00  0.00    -0.248 NA
ATOM     52  C   UNL A   1      45.891  26.631  25.643  1.00  0.00     0.031 C 
ATOM     53  C   UNL A   1      42.136  24.504  27.838  1.00  0.00     0.029 A 
ATOM     54  N   UNL A   1      42.928  26.381  28.695  1.00  0.00    -0.354 N 
ATOM     55  C   UNL A   1      47.220  27.544  27.224  1.00  0.00     0.074 A 
ATOM     56  C   UNL A   1      47.002  27.340  25.823  1.00  0.00     0.031 C 
ATOM     57  C   UNL A   1      41.089  25.154  28.401  1.00  0.00     0.029 A 
ATOM     58  C   UNL A   1      41.547  26.415  28.951  1.00  0.00     0.049 A 
ATOM     59  H   UNL A   1      43.554  27.045  29.063  1.00  0.00     0.167 HD
ATOM     60  C   UNL A   1      47.777  28.597  27.873  1.00  0.00     0.037 A 
ATOM     61  C   UNL A   1      40.873  27.468  29.497  1.00  0.00     0.037 A 
ATOM     62  C   UNL A   1      47.800  28.362  29.292  1.00  0.00     0.049 A 
ATOM     63  C   UNL A   1      41.921  28.336  30.114  1.00  0.00     0.074 A 
ATOM     64  C   UNL A   1      48.425  27.434  30.098  1.00  0.00     0.029 A 
ATOM     65  N   UNL A   1      46.766  28.884  30.028  1.00  0.00    -0.354 N 
ATOM     66  N   UNL A   1      42.630  27.979  31.150  1.00  0.00    -0.248 NA
ATOM     67  C   UNL A   1      42.503  29.397  29.301  1.00  0.00     0.031 C 
ATOM     68  C   UNL A   1      47.473  27.123  31.108  1.00  0.00     0.029 A 
ATOM     69  C   UNL A   1      46.351  27.933  30.921  1.00  0.00     0.049 A 
ATOM     70  H   UNL A   1      46.386  29.788  29.929  1.00  0.00     0.167 HD
ATOM     71  C   UNL A   1      43.907  28.458  30.893  1.00  0.00     0.074 A 
ATOM     72  C   UNL A   1      43.751  29.388  29.779  1.00  0.00     0.031 C 
ATOM     73  C   UNL A   1      44.998  27.831  31.418  1.00  0.00     0.037 A 
BRANCH  60  74
ATOM     74  C   UNL A   1      47.919  29.973  27.273  1.00  0.00     0.064 A 
ATOM     75  C   UNL A   1      49.182  30.591  27.288  1.00  0.00     0.173 A 
ATOM     76  C   UNL A   1      46.831  30.819  26.954  1.00  0.00     0.173 A 
ATOM     77  F   UNL A   1      50.281  29.888  27.598  1.00  0.00    -0.203 F 
ATOM     78  C   UNL A   1      49.334  31.964  27.074  1.00  0.00     0.198 A 
ATOM     79  C   UNL A   1      46.993  32.175  26.684  1.00  0.00     0.198 A 
ATOM     80  F   UNL A   1      45.559  30.406  27.001  1.00  0.00    -0.203 F 
ATOM     81  F   UNL A   1      50.539  32.529  27.225  1.00  0.00    -0.200 F 
ATOM     82  C   UNL A   1      48.239  32.754  26.777  1.00  0.00     0.200 A 
ATOM     83  F   UNL A   1      45.915  32.925  26.415  1.00  0.00    -0.200 F 
ATOM     84  F   UNL A   1      48.374  34.078  26.628  1.00  0.00    -0.200 F 
ENDBRANCH  60  74
BRANCH  61  85
ATOM     85  C   UNL A   1      39.467  27.954  29.308  1.00  0.00     0.064 A 
ATOM     86  C   UNL A   1      38.609  28.113  30.417  1.00  0.00     0.173 A 
ATOM     87  C   UNL A   1      39.023  28.561  28.116  1.00  0.00     0.173 A 
ATOM     88  F   UNL A   1      38.926  27.565  31.599  1.00  0.00    -0.203 F 
ATOM     89  C   UNL A   1      37.452  28.904  30.362  1.00  0.00     0.198 A 
ATOM     90  C   UNL A   1      37.882  29.371  28.069  1.00  0.00     0.198 A 
ATOM     91  F   UNL A   1      39.751  28.498  26.995  1.00  0.00    -0.203 F 
ATOM     92  F   UNL A   1      36.712  29.085  31.466  1.00  0.00    -0.200 F 
ATOM     93  C   UNL A   1      37.109  29.563  29.197  1.00  0.00     0.200 A 
ATOM     94  F   UNL A   1      37.589  30.038  26.942  1.00  0.00    -0.200 F 
ATOM     95  F   UNL A   1      36.068  30.406  29.169  1.00  0.00    -0.200 F 
ENDBRANCH  61  85
BRANCH  73  96
ATOM     96  C   UNL A   1      44.756  26.781  32.468  1.00  0.00     0.064 A 
ATOM     97  C   UNL A   1      44.470  27.063  33.815  1.00  0.00     0.173 A 
ATOM     98  C   UNL A   1      44.635  25.450  32.050  1.00  0.00     0.173 A 
ATOM     99  F   UNL A   1      44.473  28.322  34.270  1.00  0.00    -0.203 F 
ATOM    100  C   UNL A   1      44.107  26.055  34.706  1.00  0.00     0.198 A 
ATOM    101  C   UNL A   1      44.232  24.452  32.930  1.00  0.00     0.198 A 
ATOM    102  F   UNL A   1      44.841  25.132  30.762  1.00  0.00    -0.203 F 
ATOM    103  F   UNL A   1      43.840  26.352  35.986  1.00  0.00    -0.200 F 
ATOM    104  C   UNL A   1      43.976  24.751  34.258  1.00  0.00     0.200 A 
ATOM    105  F   UNL A   1      44.055  23.202  32.479  1.00  0.00    -0.200 F 
ATOM    106  F   UNL A   1      43.572  23.789  35.099  1.00  0.00    -0.200 F 
ENDBRANCH  73  96
ENDBRANCH  47  48
ENDBRANCH  40  42
ENDBRANCH  39  40
ENDBRANCH  38  39
ENDBRANCH  37  38
ENDBRANCH  36  37
ENDBRANCH  35  36
ENDBRANCH   1  35
TORSDOF 22
ENDMDL
MODEL 2
REMARK VINA RESULT:     -12.0      1.216      2.038
REMARK SMILES NS(=O)(=O)c1ccc(-n2nc(C(=O)NCCCC(=O)OCCOCCOC(=O)c3ccc(-c4c5nc(c(-c6c(F)c(F)c(F)c(F)c6F)c6ccc([nH]6)c(-c6c(F)c(F)c(F)c(F)c6F)c6nc(c(-c7c(F)c(F)c(F)c(F)c7F)c7ccc4[nH]7)C=C6)C=C5)cc3)cc2-c2ccccc2)cc1
REMARK SMILES IDX 21 1 20 2 18 3 19 4 17 5 16 6 15 7 14 8 12 9 13 10 11 12
REMARK SMILES IDX 9 13 10 14 93 15 92 16 8 17 5 18 6 19 101 20 7 21 100 22
REMARK SMILES IDX 2 23 3 24 4 25 1 26 94 29 95 30 99 31 96 32 98 33 97 34
REMARK SMILES IDX 22 35 23 36 24 37 25 38 26 39 27 40 28 41 29 42 30 43 91 44
REMARK SMILES IDX 31 45 90 46 32 47 33 48 34 49 84 50 35 51 89 52 83 53 85 54
REMARK SMILES IDX 36 55 88 56 82 57 81 58 37 60 69 61 49 62 68 63 50 64 53 65
REMARK SMILES IDX 67 66 86 67 51 68 52 69 66 71 87 72 54 73 38 74 39 75 47 76
REMARK SMILES IDX 40 77 41 78 45 79 48 80 42 81 43 82 46 83 44 84 70 85 71 86
REMARK SMILES IDX 79 87 72 88 73 89 77 90 80 91 74 92 75 93 78 94 76 95 55 96
REMARK SMILES IDX 56 97 64 98 57 99 58 100 62 101 65 102 59 103 60 104 63 105
REMARK SMILES IDX 61 106
REMARK H PARENT 14 11 1 27 1 28 85 59 53 70
REMARK Flexibility Score: inf
ROOT
ATOM      1  C   UNL A   1      39.681  21.914  26.151  1.00  0.00     0.261 C 
ENDROOT
BRANCH   1   2
ATOM      2  O   UNL A   1      38.991  23.164  26.340  1.00  0.00    -0.463 OA
BRANCH   2   3
ATOM      3  C   UNL A   1      37.690  23.209  25.967  1.00  0.00     0.305 C 
ATOM      4  O   UNL A   1      36.961  24.183  26.089  1.00  0.00    -0.252 OA
BRANCH   3   5
ATOM      5  C   UNL A   1      37.211  21.895  25.386  1.00  0.00     0.124 C 
BRANCH   5   6
ATOM      6  C   UNL A   1      35.900  21.903  24.598  1.00  0.00     0.033 C 
BRANCH   6   7
ATOM      7  C   UNL A   1      34.745  21.105  25.194  1.00  0.00     0.117 C 
BRANCH   7   8
ATOM      8  N   UNL A   1      33.700  20.819  24.236  1.00  0.00    -0.351 N 
ATOM      9  C   UNL A   1      32.597  21.504  23.777  1.00  0.00     0.271 C 
ATOM     10  O   UNL A   1      31.906  20.886  22.960  1.00  0.00    -0.267 OA
ATOM     11  H   UNL A   1      33.800  19.933  23.817  1.00  0.00     0.163 HD
BRANCH   9  12
ATOM     12  C   UNL A   1      32.271  22.890  24.187  1.00  0.00     0.151 A 
ATOM     13  N   UNL A   1      31.387  24.843  23.996  1.00  0.00    -0.232 N 
ATOM     14  N   UNL A   1      31.284  23.572  23.556  1.00  0.00    -0.162 NA
ATOM     15  C   UNL A   1      32.237  24.945  25.072  1.00  0.00     0.075 A 
ATOM     16  C   UNL A   1      32.857  23.725  25.167  1.00  0.00     0.065 A 
BRANCH  13  17
ATOM     17  C   UNL A   1      30.641  25.911  23.446  1.00  0.00     0.065 A 
ATOM     18  C   UNL A   1      29.337  28.285  22.885  1.00  0.00     0.082 A 
ATOM     19  C   UNL A   1      30.659  28.127  22.469  1.00  0.00     0.024 A 
ATOM     20  C   UNL A   1      28.649  27.247  23.532  1.00  0.00     0.024 A 
ATOM     21  C   UNL A   1      31.313  26.935  22.753  1.00  0.00     0.030 A 
ATOM     22  C   UNL A   1      29.296  26.038  23.791  1.00  0.00     0.030 A 
BRANCH  18  23
ATOM     23  S   UNL A   1      28.522  29.824  22.603  1.00  0.00     0.238 S 
ATOM     24  O   UNL A   1      28.387  30.041  21.180  1.00  0.00    -0.207 OA
ATOM     25  O   UNL A   1      29.090  30.813  23.489  1.00  0.00    -0.207 OA
BRANCH  23  26
ATOM     26  N   UNL A   1      26.975  29.503  23.160  1.00  0.00    -0.225 NA
ATOM     27  H   UNL A   1      26.653  30.281  23.736  1.00  0.00     0.137 HD
ATOM     28  H   UNL A   1      26.984  28.648  23.715  1.00  0.00     0.137 HD
ENDBRANCH  23  26
ENDBRANCH  18  23
ENDBRANCH  13  17
BRANCH  15  29
ATOM     29  C   UNL A   1      32.470  26.151  25.842  1.00  0.00     0.000 A 
ATOM     30  C   UNL A   1      31.499  26.698  26.684  1.00  0.00     0.010 A 
ATOM     31  C   UNL A   1      33.674  26.819  25.640  1.00  0.00     0.010 A 
ATOM     32  C   UNL A   1      31.738  27.923  27.299  1.00  0.00     0.001 A 
ATOM     33  C   UNL A   1      33.915  28.030  26.257  1.00  0.00     0.001 A 
ATOM     34  C   UNL A   1      32.939  28.587  27.071  1.00  0.00     0.000 A 
ENDBRANCH  15  29
ENDBRANCH   9  12
ENDBRANCH   7   8
ENDBRANCH   6   7
ENDBRANCH   5   6
ENDBRANCH   3   5
ENDBRANCH   2   3
ENDBRANCH   1   2
BRANCH   1  35
ATOM     35  C   UNL A   1      40.543  21.589  27.369  1.00  0.00     0.202 C 
BRANCH  35  36
ATOM     36  O   UNL A   1      40.731  20.202  27.658  1.00  0.00    -0.374 OA
BRANCH  36  37
ATOM     37  C   UNL A   1      42.030  19.639  27.505  1.00  0.00     0.202 C 
BRANCH  37  38
ATOM     38  C   UNL A   1      42.324  18.962  26.172  1.00  0.00     0.261 C 
BRANCH  38  39
ATOM     39  O   UNL A   1      42.803  19.909  25.231  1.00  0.00    -0.460 OA
BRANCH  39  40
ATOM     40  C   UNL A   1      44.156  19.977  25.117  1.00  0.00     0.338 C 
ATOM     41  O   UNL A   1      44.953  19.072  25.173  1.00  0.00    -0.246 OA
BRANCH  40  42
ATOM     42  C   UNL A   1      44.514  21.405  25.049  1.00  0.00     0.060 A 
ATOM     43  C   UNL A   1      45.776  21.747  25.538  1.00  0.00     0.016 A 
ATOM     44  C   UNL A   1      43.479  22.334  24.947  1.00  0.00     0.016 A 
ATOM     45  C   UNL A   1      45.898  22.926  26.241  1.00  0.00     0.010 A 
ATOM     46  C   UNL A   1      43.576  23.455  25.716  1.00  0.00     0.010 A 
ATOM     47  C   UNL A   1      44.749  23.691  26.428  1.00  0.00    -0.014 A 
BRANCH  47  48
ATOM     48  C   UNL A   1      44.764  24.827  27.326  1.00  0.00     0.031 A 
ATOM     49  C   UNL A   1      46.034  25.591  27.217  1.00  0.00     0.074 A 
ATOM     50  C   UNL A   1      43.637  25.188  27.985  1.00  0.00     0.049 A 
ATOM     51  N   UNL A   1      46.909  25.818  28.137  1.00  0.00    -0.248 NA
ATOM     52  C   UNL A   1      46.485  25.994  25.868  1.00  0.00     0.031 C 
ATOM     53  C   UNL A   1      42.298  24.600  27.861  1.00  0.00     0.029 A 
ATOM     54  N   UNL A   1      43.415  26.253  28.813  1.00  0.00    -0.354 N 
ATOM     55  C   UNL A   1      47.907  26.573  27.524  1.00  0.00     0.074 A 
ATOM     56  C   UNL A   1      47.707  26.460  26.111  1.00  0.00     0.031 C 
ATOM     57  C   UNL A   1      41.381  25.430  28.414  1.00  0.00     0.029 A 
ATOM     58  C   UNL A   1      42.060  26.555  29.025  1.00  0.00     0.049 A 
ATOM     59  H   UNL A   1      44.147  26.766  29.225  1.00  0.00     0.167 HD
ATOM     60  C   UNL A   1      48.637  27.473  28.230  1.00  0.00     0.037 A 
ATOM     61  C   UNL A   1      41.589  27.705  29.588  1.00  0.00     0.037 A 
ATOM     62  C   UNL A   1      48.558  27.196  29.638  1.00  0.00     0.049 A 
ATOM     63  C   UNL A   1      42.764  28.327  30.271  1.00  0.00     0.074 A 
ATOM     64  C   UNL A   1      48.953  26.137  30.429  1.00  0.00     0.029 A 
ATOM     65  N   UNL A   1      47.621  27.893  30.360  1.00  0.00    -0.354 N 
ATOM     66  N   UNL A   1      43.347  27.804  31.315  1.00  0.00    -0.248 NA
ATOM     67  C   UNL A   1      43.578  29.273  29.517  1.00  0.00     0.031 C 
ATOM     68  C   UNL A   1      47.919  25.993  31.396  1.00  0.00     0.029 A 
ATOM     69  C   UNL A   1      46.990  27.018  31.204  1.00  0.00     0.049 A 
ATOM     70  H   UNL A   1      47.433  28.856  30.283  1.00  0.00     0.167 HD
ATOM     71  C   UNL A   1      44.703  28.024  31.117  1.00  0.00     0.074 A 
ATOM     72  C   UNL A   1      44.779  28.999  30.033  1.00  0.00     0.031 C 
ATOM     73  C   UNL A   1      45.626  27.175  31.653  1.00  0.00     0.037 A 
BRANCH  60  74
ATOM     74  C   UNL A   1      49.074  28.809  27.686  1.00  0.00     0.064 A 
ATOM     75  C   UNL A   1      50.445  29.123  27.681  1.00  0.00     0.173 A 
ATOM     76  C   UNL A   1      48.200  29.896  27.445  1.00  0.00     0.173 A 
ATOM     77  F   UNL A   1      51.362  28.173  27.919  1.00  0.00    -0.203 F 
ATOM     78  C   UNL A   1      50.901  30.434  27.523  1.00  0.00     0.198 A 
ATOM     79  C   UNL A   1      48.662  31.192  27.229  1.00  0.00     0.198 A 
ATOM     80  F   UNL A   1      46.869  29.781  27.521  1.00  0.00    -0.203 F 
ATOM     81  F   UNL A   1      52.207  30.703  27.653  1.00  0.00    -0.200 F 
ATOM     82  C   UNL A   1      50.009  31.467  27.301  1.00  0.00     0.200 A 
ATOM     83  F   UNL A   1      47.777  32.180  27.034  1.00  0.00    -0.200 F 
ATOM     84  F   UNL A   1      50.440  32.732  27.207  1.00  0.00    -0.200 F 
ENDBRANCH  60  74
BRANCH  61  85
ATOM     85  C   UNL A   1      40.317  28.470  29.373  1.00  0.00     0.064 A 
ATOM     86  C   UNL A   1      39.997  28.982  28.097  1.00  0.00     0.173 A 
ATOM     87  C   UNL A   1      39.253  28.458  30.297  1.00  0.00     0.173 A 
ATOM     88  F   UNL A   1      40.936  29.052  27.142  1.00  0.00    -0.203 F 
ATOM     89  C   UNL A   1      38.691  29.354  27.744  1.00  0.00     0.198 A 
ATOM     90  C   UNL A   1      37.945  28.806  29.937  1.00  0.00     0.198 A 
ATOM     91  F   UNL A   1      39.420  27.984  31.537  1.00  0.00    -0.203 F 
ATOM     92  F   UNL A   1      38.425  29.762  26.495  1.00  0.00    -0.200 F 
ATOM     93  C   UNL A   1      37.659  29.231  28.655  1.00  0.00     0.200 A 
ATOM     94  F   UNL A   1      36.949  28.638  30.820  1.00  0.00    -0.200 F 
ATOM     95  F   UNL A   1      36.393  29.481  28.291  1.00  0.00    -0.200 F 
ENDBRANCH  61  85
BRANCH  73  96
ATOM     96  C   UNL A   1      45.138  26.163  32.654  1.00  0.00     0.064 A 
ATOM     97  C   UNL A   1      44.657  24.887  32.315  1.00  0.00     0.173 A 
ATOM     98  C   UNL A   1      45.333  26.437  34.014  1.00  0.00     0.173 A 
ATOM     99  F   UNL A   1      44.531  24.516  31.035  1.00  0.00    -0.203 F 
ATOM    100  C   UNL A   1      44.360  23.940  33.294  1.00  0.00     0.198 A 
ATOM    101  C   UNL A   1      45.076  25.478  34.986  1.00  0.00     0.198 A 
ATOM    102  F   UNL A   1      45.842  27.620  34.391  1.00  0.00    -0.203 F 
ATOM    103  F   UNL A   1      43.902  22.730  32.943  1.00  0.00    -0.200 F 
ATOM    104  C   UNL A   1      44.583  24.233  34.629  1.00  0.00     0.200 A 
ATOM    105  F   UNL A   1      45.344  25.748  36.271  1.00  0.00    -0.200 F 
ATOM    106  F   UNL A   1      44.353  23.306  35.569  1.00  0.00    -0.200 F 
ENDBRANCH  73  96
ENDBRANCH  47  48
ENDBRANCH  40  42
ENDBRANCH  39  40
ENDBRANCH  38  39
ENDBRANCH  37  38
ENDBRANCH  36  37
ENDBRANCH  35  36
ENDBRANCH   1  35
TORSDOF 22
ENDMDL
MODEL 3
REMARK VINA RESULT:     -12.0      1.276      2.112
REMARK SMILES NS(=O)(=O)c1ccc(-n2nc(C(=O)NCCCC(=O)OCCOCCOC(=O)c3ccc(-c4c5nc(c(-c6c(F)c(F)c(F)c(F)c6F)c6ccc([nH]6)c(-c6c(F)c(F)c(F)c(F)c6F)c6nc(c(-c7c(F)c(F)c(F)c(F)c7F)c7ccc4[nH]7)C=C6)C=C5)cc3)cc2-c2ccccc2)cc1
REMARK SMILES IDX 21 1 20 2 18 3 19 4 17 5 16 6 15 7 14 8 12 9 13 10 11 12
REMARK SMILES IDX 9 13 10 14 93 15 92 16 8 17 5 18 6 19 101 20 7 21 100 22
REMARK SMILES IDX 2 23 3 24 4 25 1 26 94 29 95 30 99 31 96 32 98 33 97 34
REMARK SMILES IDX 22 35 23 36 24 37 25 38 26 39 27 40 28 41 29 42 30 43 91 44
REMARK SMILES IDX 31 45 90 46 32 47 33 48 34 49 84 50 35 51 89 52 83 53 85 54
REMARK SMILES IDX 36 55 88 56 82 57 81 58 37 60 69 61 49 62 68 63 50 64 53 65
REMARK SMILES IDX 67 66 86 67 51 68 52 69 66 71 87 72 54 73 38 74 39 75 47 76
REMARK SMILES IDX 40 77 41 78 45 79 48 80 42 81 43 82 46 83 44 84 70 85 71 86
REMARK SMILES IDX 79 87 72 88 73 89 77 90 80 91 74 92 75 93 78 94 76 95 55 96
REMARK SMILES IDX 56 97 64 98 57 99 58 100 62 101 65 102 59 103 60 104 63 105
REMARK SMILES IDX 61 106
REMARK H PARENT 14 11 1 27 1 28 85 59 53 70
REMARK Flexibility Score: inf
ROOT
ATOM      1  C   UNL A   1      38.339  21.808  26.042  1.00  0.00     0.261 C 
ENDROOT
BRANCH   1   2
ATOM      2  O   UNL A   1      38.273  22.972  25.197  1.00  0.00    -0.463 OA
BRANCH   2   3
ATOM      3  C   UNL A   1      37.070  23.585  25.090  1.00  0.00     0.305 C 
ATOM      4  O   UNL A   1      36.538  24.240  25.976  1.00  0.00    -0.252 OA
BRANCH   3   5
ATOM      5  C   UNL A   1      36.426  23.360  23.739  1.00  0.00     0.124 C 
BRANCH   5   6
ATOM      6  C   UNL A   1      35.187  22.464  23.682  1.00  0.00     0.033 C 
BRANCH   6   7
ATOM      7  C   UNL A   1      34.952  21.553  24.882  1.00  0.00     0.117 C 
BRANCH   7   8
ATOM      8  N   UNL A   1      33.609  21.020  24.934  1.00  0.00    -0.351 N 
ATOM      9  C   UNL A   1      32.359  21.568  25.119  1.00  0.00     0.271 C 
ATOM     10  O   UNL A   1      31.432  20.751  25.138  1.00  0.00    -0.267 OA
ATOM     11  H   UNL A   1      33.582  20.044  24.810  1.00  0.00     0.163 HD
BRANCH   9  12
ATOM     12  C   UNL A   1      32.120  23.025  25.245  1.00  0.00     0.151 A 
ATOM     13  N   UNL A   1      31.313  24.943  24.693  1.00  0.00    -0.232 N 
ATOM     14  N   UNL A   1      31.128  23.616  24.535  1.00  0.00    -0.162 NA
ATOM     15  C   UNL A   1      32.230  25.218  25.682  1.00  0.00     0.075 A 
ATOM     16  C   UNL A   1      32.798  24.010  26.000  1.00  0.00     0.065 A 
BRANCH  13  17
ATOM     17  C   UNL A   1      30.585  25.914  23.968  1.00  0.00     0.065 A 
ATOM     18  C   UNL A   1      29.308  28.176  23.018  1.00  0.00     0.082 A 
ATOM     19  C   UNL A   1      30.635  27.949  22.657  1.00  0.00     0.024 A 
ATOM     20  C   UNL A   1      28.601  27.255  23.807  1.00  0.00     0.024 A 
ATOM     21  C   UNL A   1      31.276  26.814  23.136  1.00  0.00     0.030 A 
ATOM     22  C   UNL A   1      29.235  26.099  24.264  1.00  0.00     0.030 A 
BRANCH  18  23
ATOM     23  S   UNL A   1      28.508  29.655  22.482  1.00  0.00     0.238 S 
ATOM     24  O   UNL A   1      28.759  29.851  21.073  1.00  0.00    -0.207 OA
ATOM     25  O   UNL A   1      28.746  30.685  23.465  1.00  0.00    -0.207 OA
BRANCH  23  26
ATOM     26  N   UNL A   1      26.890  29.235  22.599  1.00  0.00    -0.225 NA
ATOM     27  H   UNL A   1      26.812  28.272  22.927  1.00  0.00     0.137 HD
ATOM     28  H   UNL A   1      26.450  29.320  21.683  1.00  0.00     0.137 HD
ENDBRANCH  23  26
ENDBRANCH  18  23
ENDBRANCH  13  17
BRANCH  15  29
ATOM     29  C   UNL A   1      32.560  26.542  26.170  1.00  0.00     0.000 A 
ATOM     30  C   UNL A   1      33.807  27.129  25.948  1.00  0.00     0.010 A 
ATOM     31  C   UNL A   1      31.619  27.185  26.968  1.00  0.00     0.010 A 
ATOM     32  C   UNL A   1      34.107  28.349  26.547  1.00  0.00     0.001 A 
ATOM     33  C   UNL A   1      31.912  28.400  27.555  1.00  0.00     0.001 A 
ATOM     34  C   UNL A   1      33.161  28.969  27.358  1.00  0.00     0.000 A 
ENDBRANCH  15  29
ENDBRANCH   9  12
ENDBRANCH   7   8
ENDBRANCH   6   7
ENDBRANCH   5   6
ENDBRANCH   3   5
ENDBRANCH   2   3
ENDBRANCH   1   2
BRANCH   1  35
ATOM     35  C   UNL A   1      39.774  21.296  26.137  1.00  0.00     0.202 C 
BRANCH  35  36
ATOM     36  O   UNL A   1      40.459  21.556  27.364  1.00  0.00    -0.374 OA
BRANCH  36  37
ATOM     37  C   UNL A   1      41.882  21.518  27.377  1.00  0.00     0.202 C 
BRANCH  37  38
ATOM     38  C   UNL A   1      42.547  20.616  26.346  1.00  0.00     0.261 C 
BRANCH  38  39
ATOM     39  O   UNL A   1      42.963  21.372  25.220  1.00  0.00    -0.460 OA
BRANCH  39  40
ATOM     40  C   UNL A   1      44.296  21.333  24.957  1.00  0.00     0.338 C 
ATOM     41  O   UNL A   1      44.968  20.372  24.665  1.00  0.00    -0.246 OA
BRANCH  40  42
ATOM     42  C   UNL A   1      44.833  22.677  25.232  1.00  0.00     0.060 A 
ATOM     43  C   UNL A   1      45.666  22.791  26.347  1.00  0.00     0.016 A 
ATOM     44  C   UNL A   1      44.159  23.773  24.692  1.00  0.00     0.016 A 
ATOM     45  C   UNL A   1      45.556  23.926  27.121  1.00  0.00     0.010 A 
ATOM     46  C   UNL A   1      43.986  24.853  25.503  1.00  0.00     0.010 A 
ATOM     47  C   UNL A   1      44.610  24.877  26.747  1.00  0.00    -0.014 A 
BRANCH  47  48
ATOM     48  C   UNL A   1      44.299  25.986  27.625  1.00  0.00     0.031 A 
ATOM     49  C   UNL A   1      45.328  27.056  27.537  1.00  0.00     0.074 A 
ATOM     50  C   UNL A   1      43.099  26.046  28.247  1.00  0.00     0.049 A 
ATOM     51  N   UNL A   1      46.085  27.513  28.475  1.00  0.00    -0.248 NA
ATOM     52  C   UNL A   1      45.699  27.549  26.193  1.00  0.00     0.031 C 
ATOM     53  C   UNL A   1      41.964  25.126  28.098  1.00  0.00     0.029 A 
ATOM     54  N   UNL A   1      42.580  27.024  29.049  1.00  0.00    -0.354 N 
ATOM     55  C   UNL A   1      46.869  28.497  27.875  1.00  0.00     0.074 A 
ATOM     56  C   UNL A   1      46.749  28.321  26.459  1.00  0.00     0.031 C 
ATOM     57  C   UNL A   1      40.846  25.693  28.611  1.00  0.00     0.029 A 
ATOM     58  C   UNL A   1      41.188  26.963  29.220  1.00  0.00     0.049 A 
ATOM     59  H   UNL A   1      43.139  27.715  29.472  1.00  0.00     0.167 HD
ATOM     60  C   UNL A   1      47.316  29.564  28.584  1.00  0.00     0.037 A 
ATOM     61  C   UNL A   1      40.415  27.955  29.749  1.00  0.00     0.037 A 
ATOM     62  C   UNL A   1      47.269  29.291  29.995  1.00  0.00     0.049 A 
ATOM     63  C   UNL A   1      41.365  28.870  30.452  1.00  0.00     0.074 A 
ATOM     64  C   UNL A   1      47.904  28.381  30.815  1.00  0.00     0.029 A 
ATOM     65  N   UNL A   1      46.161  29.725  30.678  1.00  0.00    -0.354 N 
ATOM     66  N   UNL A   1      42.032  28.529  31.520  1.00  0.00    -0.248 NA
ATOM     67  C   UNL A   1      41.926  29.989  29.703  1.00  0.00     0.031 C 
ATOM     68  C   UNL A   1      46.914  27.981  31.756  1.00  0.00     0.029 A 
ATOM     69  C   UNL A   1      45.755  28.724  31.521  1.00  0.00     0.049 A 
ATOM     70  H   UNL A   1      45.730  30.605  30.579  1.00  0.00     0.167 HD
ATOM     71  C   UNL A   1      43.289  29.095  31.355  1.00  0.00     0.074 A 
ATOM     72  C   UNL A   1      43.140  30.044  30.256  1.00  0.00     0.031 C 
ATOM     73  C   UNL A   1      44.385  28.523  31.930  1.00  0.00     0.037 A 
BRANCH  60  74
ATOM     74  C   UNL A   1      47.404  30.963  28.028  1.00  0.00     0.064 A 
ATOM     75  C   UNL A   1      46.224  31.596  27.598  1.00  0.00     0.173 A 
ATOM     76  C   UNL A   1      48.610  31.587  27.630  1.00  0.00     0.173 A 
ATOM     77  F   UNL A   1      45.024  31.079  27.901  1.00  0.00    -0.203 F 
ATOM     78  C   UNL A   1      46.251  32.724  26.773  1.00  0.00     0.198 A 
ATOM     79  C   UNL A   1      48.632  32.744  26.856  1.00  0.00     0.198 A 
ATOM     80  F   UNL A   1      49.813  31.051  27.869  1.00  0.00    -0.203 F 
ATOM     81  F   UNL A   1      45.105  33.216  26.286  1.00  0.00    -0.200 F 
ATOM     82  C   UNL A   1      47.455  33.293  26.400  1.00  0.00     0.200 A 
ATOM     83  F   UNL A   1      49.811  33.268  26.491  1.00  0.00    -0.200 F 
ATOM     84  F   UNL A   1      47.484  34.338  25.563  1.00  0.00    -0.200 F 
ENDBRANCH  60  74
BRANCH  61  85
ATOM     85  C   UNL A   1      38.994  28.357  29.486  1.00  0.00     0.064 A 
ATOM     86  C   UNL A   1      38.104  28.584  30.557  1.00  0.00     0.173 A 
ATOM     87  C   UNL A   1      38.553  28.825  28.231  1.00  0.00     0.173 A 
ATOM     88  F   UNL A   1      38.415  28.168  31.793  1.00  0.00    -0.203 F 
ATOM     89  C   UNL A   1      36.916  29.314  30.403  1.00  0.00     0.198 A 
ATOM     90  C   UNL A   1      37.380  29.575  28.083  1.00  0.00     0.198 A 
ATOM     91  F   UNL A   1      39.310  28.687  27.137  1.00  0.00    -0.203 F 
ATOM     92  F   UNL A   1      36.142  29.567  31.468  1.00  0.00    -0.200 F 
ATOM     93  C   UNL A   1      36.573  29.840  29.172  1.00  0.00     0.200 A 
ATOM     94  F   UNL A   1      37.086  30.116  26.891  1.00  0.00    -0.200 F 
ATOM     95  F   UNL A   1      35.497  30.629  29.041  1.00  0.00    -0.200 F 
ENDBRANCH  61  85
BRANCH  73  96
ATOM     96  C   UNL A   1      44.148  27.429  32.936  1.00  0.00     0.064 A 
ATOM     97  C   UNL A   1      44.155  26.058  32.627  1.00  0.00     0.173 A 
ATOM     98  C   UNL A   1      44.089  27.783  34.290  1.00  0.00     0.173 A 
ATOM     99  F   UNL A   1      44.303  25.638  31.365  1.00  0.00    -0.203 F 
ATOM    100  C   UNL A   1      44.079  25.089  33.626  1.00  0.00     0.198 A 
ATOM    101  C   UNL A   1      44.055  26.815  35.287  1.00  0.00     0.198 A 
ATOM    102  F   UNL A   1      44.135  29.076  34.646  1.00  0.00    -0.203 F 
ATOM    103  F   UNL A   1      44.087  23.787  33.302  1.00  0.00    -0.200 F 
ATOM    104  C   UNL A   1      44.043  25.469  34.957  1.00  0.00     0.200 A 
ATOM    105  F   UNL A   1      44.074  27.187  36.574  1.00  0.00    -0.200 F 
ATOM    106  F   UNL A   1      44.027  24.539  35.922  1.00  0.00    -0.200 F 
ENDBRANCH  73  96
ENDBRANCH  47  48
ENDBRANCH  40  42
ENDBRANCH  39  40
ENDBRANCH  38  39
ENDBRANCH  37  38
ENDBRANCH  36  37
ENDBRANCH  35  36
ENDBRANCH   1  35
TORSDOF 22
ENDMDL
