MODEL 1
REMARK VINA RESULT:     -12.4      0.000      0.000
REMARK SMILES Cc1cc2c(cc1C(=O)c1ccccc1C(=O)OCCOCCOC(=O)c1ccc(-c3c4nc(c(-c5c(F)c(F)c(F)c(F)c5F)c5ccc([nH]5)c(-c5c(F)c(F)c(F)c(F)c5F)c5nc(c(-c6c(F)c(F)c(F)c(F)c6F)c6ccc3[nH]6)C=C5)C=C4)cc1)CCCC2
REMARK SMILES IDX 21 1 20 2 19 3 18 4 16 5 17 6 15 7 10 8 11 9 12 10 14 11
REMARK SMILES IDX 13 12 8 13 9 14 7 15 1 16 2 17 3 18 4 19 6 20 5 21 93 22
REMARK SMILES IDX 90 23 92 24 91 25 22 26 23 27 24 28 25 29 26 30 27 31 28 32
REMARK SMILES IDX 89 33 29 34 88 35 30 36 31 37 32 38 82 39 33 40 87 41 81 42
REMARK SMILES IDX 83 43 34 44 86 45 80 46 79 47 35 49 67 50 47 51 66 52 48 53
REMARK SMILES IDX 51 54 65 55 84 56 49 57 50 58 64 60 85 61 52 62 36 63 37 64
REMARK SMILES IDX 45 65 38 66 39 67 43 68 46 69 40 70 41 71 44 72 42 73 68 74
REMARK SMILES IDX 69 75 77 76 70 77 71 78 75 79 78 80 72 81 73 82 76 83 74 84
REMARK SMILES IDX 53 85 54 86 62 87 55 88 56 89 60 90 63 91 57 92 58 93 61 94
REMARK SMILES IDX 59 95
REMARK H PARENT 83 48 51 59
REMARK Flexibility Score: inf
ROOT
ATOM      1  O   UNL A   1      31.899  30.733  26.010  1.00  0.00    -0.374 OA
ENDROOT
BRANCH   1   2
ATOM      2  C   UNL A   1      31.805  29.493  26.709  1.00  0.00     0.202 C 
BRANCH   2   3
ATOM      3  C   UNL A   1      33.118  28.776  27.019  1.00  0.00     0.261 C 
BRANCH   3   4
ATOM      4  O   UNL A   1      33.134  27.455  26.455  1.00  0.00    -0.460 OA
BRANCH   4   5
ATOM      5  C   UNL A   1      33.704  27.377  25.233  1.00  0.00     0.338 C 
ATOM      6  O   UNL A   1      34.149  28.315  24.585  1.00  0.00    -0.246 OA
BRANCH   5   7
ATOM      7  C   UNL A   1      33.921  25.982  24.784  1.00  0.00     0.071 A 
ATOM      8  C   UNL A   1      33.660  25.470  23.507  1.00  0.00     0.037 A 
ATOM      9  C   UNL A   1      34.176  24.212  23.154  1.00  0.00     0.013 A 
ATOM     10  C   UNL A   1      34.773  23.393  24.117  1.00  0.00     0.001 A 
ATOM     11  C   UNL A   1      34.498  25.135  25.751  1.00  0.00     0.016 A 
ATOM     12  C   UNL A   1      34.890  23.838  25.428  1.00  0.00     0.001 A 
BRANCH   8  13
ATOM     13  C   UNL A   1      32.859  26.188  22.499  1.00  0.00     0.194 C 
ATOM     14  O   UNL A   1      33.348  26.291  21.376  1.00  0.00    -0.289 OA
BRANCH  13  15
ATOM     15  C   UNL A   1      31.465  26.718  22.786  1.00  0.00     0.026 A 
ATOM     16  C   UNL A   1      30.496  24.716  24.144  1.00  0.00     0.045 C 
ATOM     17  C   UNL A   1      30.424  26.067  23.488  1.00  0.00    -0.040 A 
ATOM     18  C   UNL A   1      29.163  26.698  23.581  1.00  0.00     0.008 A 
ATOM     19  C   UNL A   1      28.926  27.977  23.068  1.00  0.00    -0.044 A 
ATOM     20  C   UNL A   1      31.209  28.011  22.276  1.00  0.00     0.016 A 
ATOM     21  C   UNL A   1      29.955  28.642  22.399  1.00  0.00    -0.044 A 
ATOM     22  C   UNL A   1      27.555  28.584  23.211  1.00  0.00     0.036 C 
ATOM     23  C   UNL A   1      29.767  30.032  21.839  1.00  0.00     0.036 C 
ATOM     24  C   UNL A   1      27.602  30.106  23.166  1.00  0.00     0.005 C 
ATOM     25  C   UNL A   1      28.334  30.567  21.911  1.00  0.00     0.005 C 
ENDBRANCH  13  15
ENDBRANCH   8  13
ENDBRANCH   5   7
ENDBRANCH   4   5
ENDBRANCH   3   4
ENDBRANCH   2   3
ENDBRANCH   1   2
BRANCH   1  26
ATOM     26  C   UNL A   1      31.180  31.849  26.536  1.00  0.00     0.202 C 
BRANCH  26  27
ATOM     27  C   UNL A   1      31.954  33.162  26.709  1.00  0.00     0.261 C 
BRANCH  27  28
ATOM     28  O   UNL A   1      32.186  33.490  28.090  1.00  0.00    -0.460 OA
BRANCH  28  29
ATOM     29  C   UNL A   1      33.188  34.374  28.312  1.00  0.00     0.338 C 
ATOM     30  O   UNL A   1      33.117  35.598  28.297  1.00  0.00    -0.246 OA
BRANCH  29  31
ATOM     31  C   UNL A   1      34.390  33.659  28.768  1.00  0.00     0.060 A 
ATOM     32  C   UNL A   1      35.641  34.269  28.726  1.00  0.00     0.016 A 
ATOM     33  C   UNL A   1      34.244  32.374  29.311  1.00  0.00     0.016 A 
ATOM     34  C   UNL A   1      36.738  33.592  29.264  1.00  0.00     0.010 A 
ATOM     35  C   UNL A   1      35.350  31.696  29.830  1.00  0.00     0.010 A 
ATOM     36  C   UNL A   1      36.609  32.306  29.824  1.00  0.00    -0.014 A 
BRANCH  36  37
ATOM     37  C   UNL A   1      37.767  31.685  30.521  1.00  0.00     0.031 A 
ATOM     38  C   UNL A   1      38.099  31.993  31.953  1.00  0.00     0.074 A 
ATOM     39  C   UNL A   1      38.530  30.815  29.833  1.00  0.00     0.049 A 
ATOM     40  N   UNL A   1      39.039  31.476  32.707  1.00  0.00    -0.248 NA
ATOM     41  C   UNL A   1      37.285  33.013  32.624  1.00  0.00     0.031 C 
ATOM     42  C   UNL A   1      38.330  30.464  28.427  1.00  0.00     0.029 A 
ATOM     43  N   UNL A   1      39.608  30.057  30.217  1.00  0.00    -0.354 N 
ATOM     44  C   UNL A   1      38.929  32.103  33.940  1.00  0.00     0.074 A 
ATOM     45  C   UNL A   1      37.856  33.070  33.821  1.00  0.00     0.031 C 
ATOM     46  C   UNL A   1      39.211  29.514  28.083  1.00  0.00     0.029 A 
ATOM     47  C   UNL A   1      40.070  29.225  29.227  1.00  0.00     0.049 A 
ATOM     48  H   UNL A   1      40.008  30.104  31.114  1.00  0.00     0.167 HD
ATOM     49  C   UNL A   1      39.647  31.880  35.069  1.00  0.00     0.037 A 
ATOM     50  C   UNL A   1      41.072  28.325  29.234  1.00  0.00     0.037 A 
ATOM     51  C   UNL A   1      40.716  30.916  35.183  1.00  0.00     0.049 A 
ATOM     52  C   UNL A   1      41.870  28.116  30.488  1.00  0.00     0.074 A 
ATOM     53  C   UNL A   1      41.471  30.595  36.299  1.00  0.00     0.029 A 
ATOM     54  N   UNL A   1      41.187  30.125  34.144  1.00  0.00    -0.354 N 
ATOM     55  N   UNL A   1      41.720  28.677  31.662  1.00  0.00    -0.248 NA
ATOM     56  C   UNL A   1      42.979  27.155  30.417  1.00  0.00     0.031 C 
ATOM     57  C   UNL A   1      42.431  29.650  35.924  1.00  0.00     0.029 A 
ATOM     58  C   UNL A   1      42.240  29.338  34.589  1.00  0.00     0.049 A 
ATOM     59  H   UNL A   1      40.827  30.123  33.229  1.00  0.00     0.167 HD
ATOM     60  C   UNL A   1      42.702  28.127  32.475  1.00  0.00     0.074 A 
ATOM     61  C   UNL A   1      43.433  27.176  31.663  1.00  0.00     0.031 C 
ATOM     62  C   UNL A   1      42.967  28.394  33.777  1.00  0.00     0.037 A 
BRANCH  49  63
ATOM     63  C   UNL A   1      39.306  32.688  36.290  1.00  0.00     0.064 A 
ATOM     64  C   UNL A   1      38.401  32.213  37.251  1.00  0.00     0.173 A 
ATOM     65  C   UNL A   1      39.953  33.907  36.546  1.00  0.00     0.173 A 
ATOM     66  F   UNL A   1      37.758  31.052  37.058  1.00  0.00    -0.203 F 
ATOM     67  C   UNL A   1      38.140  32.940  38.411  1.00  0.00     0.198 A 
ATOM     68  C   UNL A   1      39.712  34.617  37.720  1.00  0.00     0.198 A 
ATOM     69  F   UNL A   1      40.842  34.399  35.669  1.00  0.00    -0.203 F 
ATOM     70  F   UNL A   1      37.248  32.481  39.301  1.00  0.00    -0.200 F 
ATOM     71  C   UNL A   1      38.801  34.135  38.649  1.00  0.00     0.200 A 
ATOM     72  F   UNL A   1      40.368  35.761  37.957  1.00  0.00    -0.200 F 
ATOM     73  F   UNL A   1      38.562  34.824  39.774  1.00  0.00    -0.200 F 
ENDBRANCH  49  63
BRANCH  50  74
ATOM     74  C   UNL A   1      41.326  27.523  28.012  1.00  0.00     0.064 A 
ATOM     75  C   UNL A   1      42.203  27.987  27.023  1.00  0.00     0.173 A 
ATOM     76  C   UNL A   1      40.763  26.249  27.843  1.00  0.00     0.173 A 
ATOM     77  F   UNL A   1      42.754  29.206  27.135  1.00  0.00    -0.203 F 
ATOM     78  C   UNL A   1      42.515  27.204  25.914  1.00  0.00     0.198 A 
ATOM     79  C   UNL A   1      41.096  25.456  26.748  1.00  0.00     0.198 A 
ATOM     80  F   UNL A   1      39.925  25.758  28.767  1.00  0.00    -0.203 F 
ATOM     81  F   UNL A   1      43.346  27.676  24.975  1.00  0.00    -0.200 F 
ATOM     82  C   UNL A   1      41.971  25.935  25.784  1.00  0.00     0.200 A 
ATOM     83  F   UNL A   1      40.586  24.223  26.638  1.00  0.00    -0.200 F 
ATOM     84  F   UNL A   1      42.293  25.171  24.731  1.00  0.00    -0.200 F 
ENDBRANCH  50  74
BRANCH  62  85
ATOM     85  C   UNL A   1      44.092  27.641  34.426  1.00  0.00     0.064 A 
ATOM     86  C   UNL A   1      45.384  28.182  34.513  1.00  0.00     0.173 A 
ATOM     87  C   UNL A   1      43.859  26.399  35.037  1.00  0.00     0.173 A 
ATOM     88  F   UNL A   1      45.663  29.359  33.933  1.00  0.00    -0.203 F 
ATOM     89  C   UNL A   1      46.401  27.504  35.181  1.00  0.00     0.198 A 
ATOM     90  C   UNL A   1      44.871  25.737  35.726  1.00  0.00     0.198 A 
ATOM     91  F   UNL A   1      42.641  25.840  34.986  1.00  0.00    -0.203 F 
ATOM     92  F   UNL A   1      47.634  28.026  35.226  1.00  0.00    -0.200 F 
ATOM     93  C   UNL A   1      46.141  26.288  35.796  1.00  0.00     0.200 A 
ATOM     94  F   UNL A   1      44.614  24.569  36.332  1.00  0.00    -0.200 F 
ATOM     95  F   UNL A   1      47.117  25.646  36.454  1.00  0.00    -0.200 F 
ENDBRANCH  62  85
ENDBRANCH  36  37
ENDBRANCH  29  31
ENDBRANCH  28  29
ENDBRANCH  27  28
ENDBRANCH  26  27
ENDBRANCH   1  26
TORSDOF 16
ENDMDL
MODEL 2
REMARK VINA RESULT:     -12.3      4.990      8.727
REMARK SMILES Cc1cc2c(cc1C(=O)c1ccccc1C(=O)OCCOCCOC(=O)c1ccc(-c3c4nc(c(-c5c(F)c(F)c(F)c(F)c5F)c5ccc([nH]5)c(-c5c(F)c(F)c(F)c(F)c5F)c5nc(c(-c6c(F)c(F)c(F)c(F)c6F)c6ccc3[nH]6)C=C5)C=C4)cc1)CCCC2
REMARK SMILES IDX 21 1 20 2 19 3 18 4 16 5 17 6 15 7 10 8 11 9 12 10 14 11
REMARK SMILES IDX 13 12 8 13 9 14 7 15 1 16 2 17 3 18 4 19 6 20 5 21 93 22
REMARK SMILES IDX 90 23 92 24 91 25 22 26 23 27 24 28 25 29 26 30 27 31 28 32
REMARK SMILES IDX 89 33 29 34 88 35 30 36 31 37 32 38 82 39 33 40 87 41 81 42
REMARK SMILES IDX 83 43 34 44 86 45 80 46 79 47 35 49 67 50 47 51 66 52 48 53
REMARK SMILES IDX 51 54 65 55 84 56 49 57 50 58 64 60 85 61 52 62 36 63 37 64
REMARK SMILES IDX 45 65 38 66 39 67 43 68 46 69 40 70 41 71 44 72 42 73 68 74
REMARK SMILES IDX 69 75 77 76 70 77 71 78 75 79 78 80 72 81 73 82 76 83 74 84
REMARK SMILES IDX 53 85 54 86 62 87 55 88 56 89 60 90 63 91 57 92 58 93 61 94
REMARK SMILES IDX 59 95
REMARK H PARENT 83 48 51 59
REMARK Flexibility Score: inf
ROOT
ATOM      1  O   UNL A   1      37.493  20.921  25.010  1.00  0.00    -0.374 OA
ENDROOT
BRANCH   1   2
ATOM      2  C   UNL A   1      36.113  21.141  24.722  1.00  0.00     0.202 C 
BRANCH   2   3
ATOM      3  C   UNL A   1      35.728  22.530  24.217  1.00  0.00     0.261 C 
BRANCH   3   4
ATOM      4  O   UNL A   1      35.942  23.529  25.228  1.00  0.00    -0.460 OA
BRANCH   4   5
ATOM      5  C   UNL A   1      35.012  23.542  26.207  1.00  0.00     0.338 C 
ATOM      6  O   UNL A   1      35.083  22.950  27.276  1.00  0.00    -0.246 OA
BRANCH   5   7
ATOM      7  C   UNL A   1      33.922  24.513  25.956  1.00  0.00     0.071 A 
ATOM      8  C   UNL A   1      32.549  24.277  26.103  1.00  0.00     0.037 A 
ATOM      9  C   UNL A   1      31.662  25.366  26.100  1.00  0.00     0.013 A 
ATOM     10  C   UNL A   1      32.109  26.646  25.762  1.00  0.00     0.001 A 
ATOM     11  C   UNL A   1      34.354  25.801  25.587  1.00  0.00     0.016 A 
ATOM     12  C   UNL A   1      33.449  26.853  25.458  1.00  0.00     0.001 A 
BRANCH   8  13
ATOM     13  C   UNL A   1      31.975  22.928  26.260  1.00  0.00     0.194 C 
ATOM     14  O   UNL A   1      31.279  22.736  27.254  1.00  0.00    -0.289 OA
BRANCH  13  15
ATOM     15  C   UNL A   1      32.157  21.834  25.222  1.00  0.00     0.026 A 
ATOM     16  C   UNL A   1      31.826  23.225  23.043  1.00  0.00     0.045 C 
ATOM     17  C   UNL A   1      32.072  21.959  23.816  1.00  0.00    -0.040 A 
ATOM     18  C   UNL A   1      32.195  20.799  23.018  1.00  0.00     0.008 A 
ATOM     19  C   UNL A   1      32.470  19.541  23.562  1.00  0.00    -0.044 A 
ATOM     20  C   UNL A   1      32.439  20.555  25.755  1.00  0.00     0.016 A 
ATOM     21  C   UNL A   1      32.586  19.411  24.947  1.00  0.00    -0.044 A 
ATOM     22  C   UNL A   1      32.590  18.353  22.644  1.00  0.00     0.036 C 
ATOM     23  C   UNL A   1      32.902  18.083  25.594  1.00  0.00     0.036 C 
ATOM     24  C   UNL A   1      33.441  17.248  23.256  1.00  0.00     0.005 C 
ATOM     25  C   UNL A   1      32.909  16.887  24.638  1.00  0.00     0.005 C 
ENDBRANCH  13  15
ENDBRANCH   8  13
ENDBRANCH   5   7
ENDBRANCH   4   5
ENDBRANCH   3   4
ENDBRANCH   2   3
ENDBRANCH   1   2
BRANCH   1  26
ATOM     26  C   UNL A   1      37.978  19.579  24.958  1.00  0.00     0.202 C 
BRANCH  26  27
ATOM     27  C   UNL A   1      39.281  19.276  25.709  1.00  0.00     0.261 C 
BRANCH  27  28
ATOM     28  O   UNL A   1      40.077  20.454  25.934  1.00  0.00    -0.460 OA
BRANCH  28  29
ATOM     29  C   UNL A   1      40.587  20.575  27.182  1.00  0.00     0.338 C 
ATOM     30  O   UNL A   1      40.915  19.670  27.943  1.00  0.00    -0.246 OA
BRANCH  29  31
ATOM     31  C   UNL A   1      40.881  21.988  27.465  1.00  0.00     0.060 A 
ATOM     32  C   UNL A   1      41.808  22.343  28.441  1.00  0.00     0.016 A 
ATOM     33  C   UNL A   1      40.260  22.975  26.684  1.00  0.00     0.016 A 
ATOM     34  C   UNL A   1      42.131  23.692  28.605  1.00  0.00     0.010 A 
ATOM     35  C   UNL A   1      40.574  24.323  26.868  1.00  0.00     0.010 A 
ATOM     36  C   UNL A   1      41.526  24.694  27.823  1.00  0.00    -0.014 A 
BRANCH  36  37
ATOM     37  C   UNL A   1      42.008  26.098  27.922  1.00  0.00     0.031 A 
ATOM     38  C   UNL A   1      41.235  27.161  28.650  1.00  0.00     0.074 A 
ATOM     39  C   UNL A   1      43.180  26.410  27.339  1.00  0.00     0.049 A 
ATOM     40  N   UNL A   1      41.565  28.410  28.871  1.00  0.00    -0.248 NA
ATOM     41  C   UNL A   1      39.923  26.783  29.189  1.00  0.00     0.031 C 
ATOM     42  C   UNL A   1      44.004  25.474  26.573  1.00  0.00     0.029 A 
ATOM     43  N   UNL A   1      43.893  27.583  27.311  1.00  0.00    -0.354 N 
ATOM     44  C   UNL A   1      40.508  28.967  29.577  1.00  0.00     0.074 A 
ATOM     45  C   UNL A   1      39.505  27.929  29.712  1.00  0.00     0.031 C 
ATOM     46  C   UNL A   1      45.137  26.088  26.205  1.00  0.00     0.029 A 
ATOM     47  C   UNL A   1      45.099  27.473  26.664  1.00  0.00     0.049 A 
ATOM     48  H   UNL A   1      43.571  28.420  27.716  1.00  0.00     0.167 HD
ATOM     49  C   UNL A   1      40.394  30.222  30.079  1.00  0.00     0.037 A 
ATOM     50  C   UNL A   1      46.072  28.381  26.462  1.00  0.00     0.037 A 
ATOM     51  C   UNL A   1      41.395  31.252  29.942  1.00  0.00     0.049 A 
ATOM     52  C   UNL A   1      45.910  29.772  27.003  1.00  0.00     0.074 A 
ATOM     53  C   UNL A   1      41.381  32.540  30.452  1.00  0.00     0.029 A 
ATOM     54  N   UNL A   1      42.584  31.118  29.238  1.00  0.00    -0.354 N 
ATOM     55  N   UNL A   1      44.930  30.269  27.715  1.00  0.00    -0.248 NA
ATOM     56  C   UNL A   1      46.986  30.729  26.708  1.00  0.00     0.031 C 
ATOM     57  C   UNL A   1      42.534  33.200  30.015  1.00  0.00     0.029 A 
ATOM     58  C   UNL A   1      43.296  32.308  29.279  1.00  0.00     0.049 A 
ATOM     59  H   UNL A   1      42.878  30.299  28.779  1.00  0.00     0.167 HD
ATOM     60  C   UNL A   1      45.274  31.590  27.969  1.00  0.00     0.074 A 
ATOM     61  C   UNL A   1      46.563  31.813  27.346  1.00  0.00     0.031 C 
ATOM     62  C   UNL A   1      44.578  32.527  28.656  1.00  0.00     0.037 A 
BRANCH  49  63
ATOM     63  C   UNL A   1      39.141  30.566  30.835  1.00  0.00     0.064 A 
ATOM     64  C   UNL A   1      39.051  30.383  32.223  1.00  0.00     0.173 A 
ATOM     65  C   UNL A   1      38.051  31.162  30.181  1.00  0.00     0.173 A 
ATOM     66  F   UNL A   1      40.065  29.820  32.897  1.00  0.00    -0.203 F 
ATOM     67  C   UNL A   1      37.909  30.764  32.924  1.00  0.00     0.198 A 
ATOM     68  C   UNL A   1      36.923  31.569  30.889  1.00  0.00     0.198 A 
ATOM     69  F   UNL A   1      38.091  31.377  28.857  1.00  0.00    -0.203 F 
ATOM     70  F   UNL A   1      37.834  30.551  34.245  1.00  0.00    -0.200 F 
ATOM     71  C   UNL A   1      36.850  31.365  32.259  1.00  0.00     0.200 A 
ATOM     72  F   UNL A   1      35.910  32.169  30.248  1.00  0.00    -0.200 F 
ATOM     73  F   UNL A   1      35.760  31.747  32.938  1.00  0.00    -0.200 F 
ENDBRANCH  49  63
BRANCH  50  74
ATOM     74  C   UNL A   1      47.307  27.966  25.752  1.00  0.00     0.064 A 
ATOM     75  C   UNL A   1      48.451  27.590  26.469  1.00  0.00     0.173 A 
ATOM     76  C   UNL A   1      47.347  27.861  24.353  1.00  0.00     0.173 A 
ATOM     77  F   UNL A   1      48.464  27.687  27.807  1.00  0.00    -0.203 F 
ATOM     78  C   UNL A   1      49.586  27.117  25.814  1.00  0.00     0.198 A 
ATOM     79  C   UNL A   1      48.471  27.363  23.702  1.00  0.00     0.198 A 
ATOM     80  F   UNL A   1      46.273  28.201  23.625  1.00  0.00    -0.203 F 
ATOM     81  F   UNL A   1      50.671  26.776  26.522  1.00  0.00    -0.200 F 
ATOM     82  C   UNL A   1      49.590  26.991  24.433  1.00  0.00     0.200 A 
ATOM     83  F   UNL A   1      48.464  27.222  22.369  1.00  0.00    -0.200 F 
ATOM     84  F   UNL A   1      50.672  26.510  23.805  1.00  0.00    -0.200 F 
ENDBRANCH  50  74
BRANCH  62  85
ATOM     85  C   UNL A   1      45.193  33.891  28.792  1.00  0.00     0.064 A 
ATOM     86  C   UNL A   1      44.905  34.919  27.882  1.00  0.00     0.173 A 
ATOM     87  C   UNL A   1      46.017  34.195  29.886  1.00  0.00     0.173 A 
ATOM     88  F   UNL A   1      44.135  34.676  26.811  1.00  0.00    -0.203 F 
ATOM     89  C   UNL A   1      45.425  36.199  28.060  1.00  0.00     0.198 A 
ATOM     90  C   UNL A   1      46.513  35.482  30.075  1.00  0.00     0.198 A 
ATOM     91  F   UNL A   1      46.320  33.248  30.787  1.00  0.00    -0.203 F 
ATOM     92  F   UNL A   1      45.160  37.158  27.162  1.00  0.00    -0.200 F 
ATOM     93  C   UNL A   1      46.219  36.481  29.161  1.00  0.00     0.200 A 
ATOM     94  F   UNL A   1      47.269  35.756  31.147  1.00  0.00    -0.200 F 
ATOM     95  F   UNL A   1      46.704  37.719  29.340  1.00  0.00    -0.200 F 
ENDBRANCH  62  85
ENDBRANCH  36  37
ENDBRANCH  29  31
ENDBRANCH  28  29
ENDBRANCH  27  28
ENDBRANCH  26  27
ENDBRANCH   1  26
TORSDOF 16
ENDMDL
MODEL 3
REMARK VINA RESULT:     -12.3      4.952     10.600
REMARK SMILES Cc1cc2c(cc1C(=O)c1ccccc1C(=O)OCCOCCOC(=O)c1ccc(-c3c4nc(c(-c5c(F)c(F)c(F)c(F)c5F)c5ccc([nH]5)c(-c5c(F)c(F)c(F)c(F)c5F)c5nc(c(-c6c(F)c(F)c(F)c(F)c6F)c6ccc3[nH]6)C=C5)C=C4)cc1)CCCC2
REMARK SMILES IDX 21 1 20 2 19 3 18 4 16 5 17 6 15 7 10 8 11 9 12 10 14 11
REMARK SMILES IDX 13 12 8 13 9 14 7 15 1 16 2 17 3 18 4 19 6 20 5 21 93 22
REMARK SMILES IDX 90 23 92 24 91 25 22 26 23 27 24 28 25 29 26 30 27 31 28 32
REMARK SMILES IDX 89 33 29 34 88 35 30 36 31 37 32 38 82 39 33 40 87 41 81 42
REMARK SMILES IDX 83 43 34 44 86 45 80 46 79 47 35 49 67 50 47 51 66 52 48 53
REMARK SMILES IDX 51 54 65 55 84 56 49 57 50 58 64 60 85 61 52 62 36 63 37 64
REMARK SMILES IDX 45 65 38 66 39 67 43 68 46 69 40 70 41 71 44 72 42 73 68 74
REMARK SMILES IDX 69 75 77 76 70 77 71 78 75 79 78 80 72 81 73 82 76 83 74 84
REMARK SMILES IDX 53 85 54 86 62 87 55 88 56 89 60 90 63 91 57 92 58 93 61 94
REMARK SMILES IDX 59 95
REMARK H PARENT 83 48 51 59
REMARK Flexibility Score: inf
ROOT
ATOM      1  O   UNL A   1      37.400  21.151  24.760  1.00  0.00    -0.374 OA
ENDROOT
BRANCH   1   2
ATOM      2  C   UNL A   1      35.999  21.389  24.633  1.00  0.00     0.202 C 
BRANCH   2   3
ATOM      3  C   UNL A   1      35.577  22.767  24.129  1.00  0.00     0.261 C 
BRANCH   3   4
ATOM      4  O   UNL A   1      35.766  23.770  25.140  1.00  0.00    -0.460 OA
BRANCH   4   5
ATOM      5  C   UNL A   1      34.856  23.737  26.137  1.00  0.00     0.338 C 
ATOM      6  O   UNL A   1      34.956  23.107  27.182  1.00  0.00    -0.246 OA
BRANCH   5   7
ATOM      7  C   UNL A   1      33.749  24.703  25.944  1.00  0.00     0.071 A 
ATOM      8  C   UNL A   1      32.384  24.448  26.123  1.00  0.00     0.037 A 
ATOM      9  C   UNL A   1      31.486  25.528  26.176  1.00  0.00     0.013 A 
ATOM     10  C   UNL A   1      31.912  26.821  25.860  1.00  0.00     0.001 A 
ATOM     11  C   UNL A   1      34.159  26.005  25.599  1.00  0.00     0.016 A 
ATOM     12  C   UNL A   1      33.240  27.050  25.524  1.00  0.00     0.001 A 
BRANCH   8  13
ATOM     13  C   UNL A   1      31.827  23.090  26.259  1.00  0.00     0.194 C 
ATOM     14  O   UNL A   1      31.129  22.875  27.247  1.00  0.00    -0.289 OA
BRANCH  13  15
ATOM     15  C   UNL A   1      32.030  22.013  25.207  1.00  0.00     0.026 A 
ATOM     16  C   UNL A   1      31.648  23.420  23.047  1.00  0.00     0.045 C 
ATOM     17  C   UNL A   1      31.932  22.152  23.803  1.00  0.00    -0.040 A 
ATOM     18  C   UNL A   1      32.078  21.004  22.991  1.00  0.00     0.008 A 
ATOM     19  C   UNL A   1      32.389  19.747  23.518  1.00  0.00    -0.044 A 
ATOM     20  C   UNL A   1      32.347  20.736  25.723  1.00  0.00     0.016 A 
ATOM     21  C   UNL A   1      32.517  19.605  24.901  1.00  0.00    -0.044 A 
ATOM     22  C   UNL A   1      32.532  18.573  22.586  1.00  0.00     0.036 C 
ATOM     23  C   UNL A   1      32.871  18.278  25.530  1.00  0.00     0.036 C 
ATOM     24  C   UNL A   1      33.415  17.483  23.179  1.00  0.00     0.005 C 
ATOM     25  C   UNL A   1      32.902  17.093  24.560  1.00  0.00     0.005 C 
ENDBRANCH  13  15
ENDBRANCH   8  13
ENDBRANCH   5   7
ENDBRANCH   4   5
ENDBRANCH   3   4
ENDBRANCH   2   3
ENDBRANCH   1   2
BRANCH   1  26
ATOM     26  C   UNL A   1      37.845  19.794  24.775  1.00  0.00     0.202 C 
BRANCH  26  27
ATOM     27  C   UNL A   1      39.063  19.467  25.648  1.00  0.00     0.261 C 
BRANCH  27  28
ATOM     28  O   UNL A   1      39.913  20.608  25.863  1.00  0.00    -0.460 OA
BRANCH  28  29
ATOM     29  C   UNL A   1      40.548  20.637  27.058  1.00  0.00     0.338 C 
ATOM     30  O   UNL A   1      40.938  19.679  27.717  1.00  0.00    -0.246 OA
BRANCH  29  31
ATOM     31  C   UNL A   1      40.887  22.025  27.409  1.00  0.00     0.060 A 
ATOM     32  C   UNL A   1      41.759  22.304  28.457  1.00  0.00     0.016 A 
ATOM     33  C   UNL A   1      40.369  23.064  26.621  1.00  0.00     0.016 A 
ATOM     34  C   UNL A   1      42.133  23.629  28.689  1.00  0.00     0.010 A 
ATOM     35  C   UNL A   1      40.733  24.389  26.870  1.00  0.00     0.010 A 
ATOM     36  C   UNL A   1      41.632  24.684  27.901  1.00  0.00    -0.014 A 
BRANCH  36  37
ATOM     37  C   UNL A   1      42.171  26.059  28.080  1.00  0.00     0.031 A 
ATOM     38  C   UNL A   1      43.495  26.482  27.512  1.00  0.00     0.074 A 
ATOM     39  C   UNL A   1      41.431  26.945  28.774  1.00  0.00     0.049 A 
ATOM     40  N   UNL A   1      44.059  27.665  27.535  1.00  0.00    -0.248 NA
ATOM     41  C   UNL A   1      44.295  25.449  26.842  1.00  0.00     0.031 C 
ATOM     42  C   UNL A   1      40.146  26.643  29.405  1.00  0.00     0.029 A 
ATOM     43  N   UNL A   1      41.635  28.274  29.050  1.00  0.00    -0.354 N 
ATOM     44  C   UNL A   1      45.275  27.523  26.882  1.00  0.00     0.074 A 
ATOM     45  C   UNL A   1      45.387  26.127  26.509  1.00  0.00     0.031 C 
ATOM     46  C   UNL A   1      39.646  27.766  29.939  1.00  0.00     0.029 A 
ATOM     47  C   UNL A   1      40.596  28.855  29.733  1.00  0.00     0.049 A 
ATOM     48  H   UNL A   1      42.447  28.762  28.782  1.00  0.00     0.167 HD
ATOM     49  C   UNL A   1      46.203  28.474  26.606  1.00  0.00     0.037 A 
ATOM     50  C   UNL A   1      40.419  30.124  30.147  1.00  0.00     0.037 A 
ATOM     51  C   UNL A   1      46.087  29.863  26.980  1.00  0.00     0.049 A 
ATOM     52  C   UNL A   1      41.472  31.152  29.854  1.00  0.00     0.074 A 
ATOM     53  C   UNL A   1      46.959  30.904  26.707  1.00  0.00     0.029 A 
ATOM     54  N   UNL A   1      45.040  30.405  27.713  1.00  0.00    -0.354 N 
ATOM     55  N   UNL A   1      42.592  31.016  29.188  1.00  0.00    -0.248 NA
ATOM     56  C   UNL A   1      41.241  32.507  30.373  1.00  0.00     0.031 C 
ATOM     57  C   UNL A   1      46.468  32.062  27.318  1.00  0.00     0.029 A 
ATOM     58  C   UNL A   1      45.261  31.759  27.924  1.00  0.00     0.049 A 
ATOM     59  H   UNL A   1      44.258  29.903  28.035  1.00  0.00     0.167 HD
ATOM     60  C   UNL A   1      43.193  32.268  29.193  1.00  0.00     0.074 A 
ATOM     61  C   UNL A   1      42.305  33.155  29.916  1.00  0.00     0.031 C 
ATOM     62  C   UNL A   1      44.376  32.639  28.646  1.00  0.00     0.037 A 
BRANCH  49  63
ATOM     63  C   UNL A   1      47.436  28.056  25.856  1.00  0.00     0.064 A 
ATOM     64  C   UNL A   1      48.632  27.754  26.525  1.00  0.00     0.173 A 
ATOM     65  C   UNL A   1      47.400  27.872  24.465  1.00  0.00     0.173 A 
ATOM     66  F   UNL A   1      48.720  27.908  27.854  1.00  0.00    -0.203 F 
ATOM     67  C   UNL A   1      49.751  27.305  25.827  1.00  0.00     0.198 A 
ATOM     68  C   UNL A   1      48.512  27.395  23.774  1.00  0.00     0.198 A 
ATOM     69  F   UNL A   1      46.277  28.128  23.777  1.00  0.00    -0.203 F 
ATOM     70  F   UNL A   1      50.892  27.052  26.484  1.00  0.00    -0.200 F 
ATOM     71  C   UNL A   1      49.688  27.118  24.454  1.00  0.00     0.200 A 
ATOM     72  F   UNL A   1      48.442  27.195  22.451  1.00  0.00    -0.200 F 
ATOM     73  F   UNL A   1      50.760  26.669  23.787  1.00  0.00    -0.200 F 
ENDBRANCH  49  63
BRANCH  50  74
ATOM     74  C   UNL A   1      39.157  30.485  30.838  1.00  0.00     0.064 A 
ATOM     75  C   UNL A   1      39.069  30.437  32.236  1.00  0.00     0.173 A 
ATOM     76  C   UNL A   1      38.042  30.958  30.129  1.00  0.00     0.173 A 
ATOM     77  F   UNL A   1      40.105  29.978  32.956  1.00  0.00    -0.203 F 
ATOM     78  C   UNL A   1      37.918  30.856  32.899  1.00  0.00     0.198 A 
ATOM     79  C   UNL A   1      36.903  31.401  30.793  1.00  0.00     0.198 A 
ATOM     80  F   UNL A   1      38.082  31.030  28.790  1.00  0.00    -0.203 F 
ATOM     81  F   UNL A   1      37.855  30.788  34.236  1.00  0.00    -0.200 F 
ATOM     82  C   UNL A   1      36.841  31.349  32.178  1.00  0.00     0.200 A 
ATOM     83  F   UNL A   1      35.873  31.898  30.094  1.00  0.00    -0.200 F 
ATOM     84  F   UNL A   1      35.744  31.778  32.817  1.00  0.00    -0.200 F 
ENDBRANCH  50  74
BRANCH  62  85
ATOM     85  C   UNL A   1      44.789  34.076  28.790  1.00  0.00     0.064 A 
ATOM     86  C   UNL A   1      44.388  35.051  27.864  1.00  0.00     0.173 A 
ATOM     87  C   UNL A   1      45.528  34.496  29.906  1.00  0.00     0.173 A 
ATOM     88  F   UNL A   1      43.693  34.699  26.772  1.00  0.00    -0.203 F 
ATOM     89  C   UNL A   1      44.717  36.391  28.048  1.00  0.00     0.198 A 
ATOM     90  C   UNL A   1      45.832  35.840  30.101  1.00  0.00     0.198 A 
ATOM     91  F   UNL A   1      45.932  33.604  30.823  1.00  0.00    -0.203 F 
ATOM     92  F   UNL A   1      44.349  37.301  27.136  1.00  0.00    -0.200 F 
ATOM     93  C   UNL A   1      45.430  36.786  29.171  1.00  0.00     0.200 A 
ATOM     94  F   UNL A   1      46.509  36.221  31.194  1.00  0.00    -0.200 F 
ATOM     95  F   UNL A   1      45.730  38.080  29.355  1.00  0.00    -0.200 F 
ENDBRANCH  62  85
ENDBRANCH  36  37
ENDBRANCH  29  31
ENDBRANCH  28  29
ENDBRANCH  27  28
ENDBRANCH  26  27
ENDBRANCH   1  26
TORSDOF 16
ENDMDL
