MODEL 1
REMARK VINA RESULT:     -11.0      0.000      0.000
REMARK SMILES CC[NH2+][C@]1(C(=O)OCCOCCOC(=O)c2ccc(-c3c4nc(c(-c5c(F)c(F)c(F)c(F)c5F)c5ccc([nH]5)c(-c5c(F)c(F)c(F)c(F)c5F)c5nc(c(-c6c(F)c(F)c(F)c(F)c6F)c6ccc3[nH]6)C=C5)C=C4)cc2)CCC[C@H]1CC[N@H+]1CCC[C@@H](CC)C1
REMARK SMILES IDX 9 1 8 2 7 3 5 4 6 5 4 6 79 7 82 8 80 9 81 10 3 11 2 14 1 15
REMARK SMILES IDX 83 16 84 17 85 18 86 19 92 20 87 22 89 23 88 24 90 25 91 26
REMARK SMILES IDX 10 27 11 28 12 29 13 30 14 31 15 32 16 33 17 34 78 35 18 36
REMARK SMILES IDX 77 37 19 38 20 39 21 40 71 41 22 42 76 43 70 44 72 45 23 46
REMARK SMILES IDX 75 47 69 48 68 49 24 51 56 52 36 53 55 54 37 55 40 56 54 57
REMARK SMILES IDX 73 58 38 59 39 60 53 62 74 63 41 64 25 65 26 66 34 67 27 68
REMARK SMILES IDX 28 69 32 70 35 71 29 72 30 73 33 74 31 75 57 76 58 77 66 78
REMARK SMILES IDX 59 79 60 80 64 81 67 82 61 83 62 84 65 85 63 86 42 87 43 88
REMARK SMILES IDX 51 89 44 90 45 91 49 92 52 93 46 94 47 95 50 96 48 97
REMARK H PARENT 3 12 3 13 85 21 72 50 40 61
REMARK Flexibility Score: inf
ROOT
ATOM      1  C   UNL A   1      33.031  27.511  26.136  1.00  0.00     0.202 C 
ENDROOT
BRANCH   1   2
ATOM      2  C   UNL A   1      33.997  26.498  25.499  1.00  0.00     0.261 C 
BRANCH   2   3
ATOM      3  O   UNL A   1      33.845  25.151  25.995  1.00  0.00    -0.459 OA
BRANCH   3   4
ATOM      4  C   UNL A   1      34.614  24.274  25.287  1.00  0.00     0.368 C 
ATOM      5  O   UNL A   1      35.146  24.630  24.251  1.00  0.00    -0.245 OA
BRANCH   4   6
ATOM      6  C   UNL A   1      34.776  22.875  25.901  1.00  0.00     0.197 C 
ATOM      7  C   UNL A   1      34.087  22.904  27.282  1.00  0.00     0.081 C 
ATOM      8  C   UNL A   1      33.979  21.750  25.152  1.00  0.00     0.068 C 
ATOM      9  C   UNL A   1      33.815  21.454  27.624  1.00  0.00     0.008 C 
ATOM     10  C   UNL A   1      33.655  20.738  26.285  1.00  0.00     0.011 C 
BRANCH   6  11
ATOM     11  N   UNL A   1      36.229  22.533  26.130  1.00  0.00    -0.332 N 
ATOM     12  H   UNL A   1      36.408  22.580  27.133  1.00  0.00     0.347 HD
ATOM     13  H   UNL A   1      36.366  21.605  25.731  1.00  0.00     0.347 HD
BRANCH  11  14
ATOM     14  C   UNL A   1      37.194  23.409  25.456  1.00  0.00     0.257 C 
ATOM     15  C   UNL A   1      38.142  24.072  26.450  1.00  0.00     0.071 C 
ENDBRANCH  11  14
ENDBRANCH   6  11
BRANCH   8  16
ATOM     16  C   UNL A   1      32.694  22.113  24.352  1.00  0.00     0.072 C 
BRANCH  16  17
ATOM     17  C   UNL A   1      32.818  22.807  22.952  1.00  0.00     0.262 C 
BRANCH  17  18
ATOM     18  N   UNL A   1      32.602  24.273  22.935  1.00  0.00    -0.335 N 
ATOM     19  C   UNL A   1      32.904  24.808  21.599  1.00  0.00     0.262 C 
ATOM     20  C   UNL A   1      31.208  24.650  23.296  1.00  0.00     0.265 C 
ATOM     21  H   UNL A   1      33.227  24.672  23.634  1.00  0.00     0.348 HD
ATOM     22  C   UNL A   1      32.769  26.329  21.561  1.00  0.00     0.062 C 
ATOM     23  C   UNL A   1      31.041  26.185  23.379  1.00  0.00     0.044 C 
ATOM     24  C   UNL A   1      31.390  26.792  22.017  1.00  0.00     0.015 C 
BRANCH  23  25
ATOM     25  C   UNL A   1      29.614  26.604  23.810  1.00  0.00     0.006 C 
ATOM     26  C   UNL A   1      29.248  28.004  23.328  1.00  0.00     0.004 C 
ENDBRANCH  23  25
ENDBRANCH  17  18
ENDBRANCH  16  17
ENDBRANCH   8  16
ENDBRANCH   4   6
ENDBRANCH   3   4
ENDBRANCH   2   3
ENDBRANCH   1   2
BRANCH   1  27
ATOM     27  O   UNL A   1      32.878  28.804  25.547  1.00  0.00    -0.374 OA
BRANCH  27  28
ATOM     28  C   UNL A   1      31.734  29.547  25.971  1.00  0.00     0.202 C 
BRANCH  28  29
ATOM     29  C   UNL A   1      31.996  30.961  26.480  1.00  0.00     0.261 C 
BRANCH  29  30
ATOM     30  O   UNL A   1      32.905  30.886  27.576  1.00  0.00    -0.460 OA
BRANCH  30  31
ATOM     31  C   UNL A   1      33.656  32.001  27.705  1.00  0.00     0.338 C 
ATOM     32  O   UNL A   1      33.278  33.151  27.769  1.00  0.00    -0.246 OA
BRANCH  31  33
ATOM     33  C   UNL A   1      35.039  31.581  27.977  1.00  0.00     0.060 A 
ATOM     34  C   UNL A   1      35.267  30.201  28.011  1.00  0.00     0.016 A 
ATOM     35  C   UNL A   1      36.085  32.497  28.147  1.00  0.00     0.016 A 
ATOM     36  C   UNL A   1      36.521  29.730  28.343  1.00  0.00     0.010 A 
ATOM     37  C   UNL A   1      37.349  32.023  28.474  1.00  0.00     0.010 A 
ATOM     38  C   UNL A   1      37.538  30.644  28.646  1.00  0.00    -0.014 A 
BRANCH  38  39
ATOM     39  C   UNL A   1      38.701  30.140  29.390  1.00  0.00     0.031 A 
ATOM     40  C   UNL A   1      38.865  30.586  30.813  1.00  0.00     0.074 A 
ATOM     41  C   UNL A   1      39.500  29.220  28.829  1.00  0.00     0.049 A 
ATOM     42  N   UNL A   1      39.746  30.215  31.704  1.00  0.00    -0.248 NA
ATOM     43  C   UNL A   1      37.902  31.589  31.305  1.00  0.00     0.031 C 
ATOM     44  C   UNL A   1      39.367  28.713  27.464  1.00  0.00     0.029 A 
ATOM     45  N   UNL A   1      40.563  28.537  29.347  1.00  0.00    -0.354 N 
ATOM     46  C   UNL A   1      39.442  30.936  32.852  1.00  0.00     0.074 A 
ATOM     47  C   UNL A   1      38.330  31.801  32.538  1.00  0.00     0.031 C 
ATOM     48  C   UNL A   1      40.312  27.781  27.255  1.00  0.00     0.029 A 
ATOM     49  C   UNL A   1      41.126  27.656  28.461  1.00  0.00     0.049 A 
ATOM     50  H   UNL A   1      40.891  28.665  30.266  1.00  0.00     0.167 HD
ATOM     51  C   UNL A   1      40.038  30.863  34.063  1.00  0.00     0.037 A 
ATOM     52  C   UNL A   1      42.188  26.848  28.622  1.00  0.00     0.037 A 
ATOM     53  C   UNL A   1      41.145  29.989  34.342  1.00  0.00     0.049 A 
ATOM     54  C   UNL A   1      42.866  26.826  29.966  1.00  0.00     0.074 A 
ATOM     55  C   UNL A   1      41.837  29.818  35.524  1.00  0.00     0.029 A 
ATOM     56  N   UNL A   1      41.726  29.140  33.407  1.00  0.00    -0.354 N 
ATOM     57  N   UNL A   1      42.567  27.494  31.056  1.00  0.00    -0.248 NA
ATOM     58  C   UNL A   1      44.018  25.931  30.106  1.00  0.00     0.031 C 
ATOM     59  C   UNL A   1      42.877  28.912  35.289  1.00  0.00     0.029 A 
ATOM     60  C   UNL A   1      42.787  28.462  33.979  1.00  0.00     0.049 A 
ATOM     61  H   UNL A   1      41.427  29.037  32.475  1.00  0.00     0.167 HD
ATOM     62  C   UNL A   1      43.476  27.081  32.020  1.00  0.00     0.074 A 
ATOM     63  C   UNL A   1      44.320  26.086  31.387  1.00  0.00     0.031 C 
ATOM     64  C   UNL A   1      43.607  27.482  33.311  1.00  0.00     0.037 A 
BRANCH  51  65
ATOM     65  C   UNL A   1      39.530  31.772  35.146  1.00  0.00     0.064 A 
ATOM     66  C   UNL A   1      38.624  31.334  36.125  1.00  0.00     0.173 A 
ATOM     67  C   UNL A   1      39.964  33.105  35.210  1.00  0.00     0.173 A 
ATOM     68  F   UNL A   1      38.158  30.076  36.100  1.00  0.00    -0.203 F 
ATOM     69  C   UNL A   1      38.153  32.201  37.109  1.00  0.00     0.198 A 
ATOM     70  C   UNL A   1      39.517  33.960  36.214  1.00  0.00     0.198 A 
ATOM     71  F   UNL A   1      40.823  33.581  34.297  1.00  0.00    -0.203 F 
ATOM     72  F   UNL A   1      37.246  31.775  37.999  1.00  0.00    -0.200 F 
ATOM     73  C   UNL A   1      38.607  33.511  37.157  1.00  0.00     0.200 A 
ATOM     74  F   UNL A   1      39.965  35.222  36.265  1.00  0.00    -0.200 F 
ATOM     75  F   UNL A   1      38.159  34.342  38.109  1.00  0.00    -0.200 F 
ENDBRANCH  51  65
BRANCH  52  76
ATOM     76  C   UNL A   1      42.658  26.007  27.492  1.00  0.00     0.064 A 
ATOM     77  C   UNL A   1      42.099  24.749  27.236  1.00  0.00     0.173 A 
ATOM     78  C   UNL A   1      43.677  26.453  26.634  1.00  0.00     0.173 A 
ATOM     79  F   UNL A   1      41.132  24.270  28.032  1.00  0.00    -0.203 F 
ATOM     80  C   UNL A   1      42.556  23.958  26.183  1.00  0.00     0.198 A 
ATOM     81  C   UNL A   1      44.110  25.677  25.561  1.00  0.00     0.198 A 
ATOM     82  F   UNL A   1      44.241  27.655  26.827  1.00  0.00    -0.203 F 
ATOM     83  F   UNL A   1      42.036  22.738  25.990  1.00  0.00    -0.200 F 
ATOM     84  C   UNL A   1      43.556  24.425  25.343  1.00  0.00     0.200 A 
ATOM     85  F   UNL A   1      45.061  26.143  24.742  1.00  0.00    -0.200 F 
ATOM     86  F   UNL A   1      43.990  23.667  24.327  1.00  0.00    -0.200 F 
ENDBRANCH  52  76
BRANCH  64  87
ATOM     87  C   UNL A   1      44.680  26.811  34.120  1.00  0.00     0.064 A 
ATOM     88  C   UNL A   1      44.443  25.619  34.819  1.00  0.00     0.173 A 
ATOM     89  C   UNL A   1      45.968  27.364  34.181  1.00  0.00     0.173 A 
ATOM     90  F   UNL A   1      43.224  25.056  34.801  1.00  0.00    -0.203 F 
ATOM     91  C   UNL A   1      45.442  25.032  35.589  1.00  0.00     0.198 A 
ATOM     92  C   UNL A   1      46.976  26.752  34.918  1.00  0.00     0.198 A 
ATOM     93  F   UNL A   1      46.251  28.498  33.519  1.00  0.00    -0.203 F 
ATOM     94  F   UNL A   1      45.172  23.934  36.308  1.00  0.00    -0.200 F 
ATOM     95  C   UNL A   1      46.708  25.594  35.632  1.00  0.00     0.200 A 
ATOM     96  F   UNL A   1      48.205  27.286  34.942  1.00  0.00    -0.200 F 
ATOM     97  F   UNL A   1      47.669  25.028  36.375  1.00  0.00    -0.200 F 
ENDBRANCH  64  87
ENDBRANCH  38  39
ENDBRANCH  31  33
ENDBRANCH  30  31
ENDBRANCH  29  30
ENDBRANCH  28  29
ENDBRANCH  27  28
ENDBRANCH   1  27
TORSDOF 20
ENDMDL
MODEL 2
REMARK VINA RESULT:     -10.6      1.887      4.056
REMARK SMILES CC[NH2+][C@]1(C(=O)OCCOCCOC(=O)c2ccc(-c3c4nc(c(-c5c(F)c(F)c(F)c(F)c5F)c5ccc([nH]5)c(-c5c(F)c(F)c(F)c(F)c5F)c5nc(c(-c6c(F)c(F)c(F)c(F)c6F)c6ccc3[nH]6)C=C5)C=C4)cc2)CCC[C@H]1CC[N@H+]1CCC[C@@H](CC)C1
REMARK SMILES IDX 9 1 8 2 7 3 5 4 6 5 4 6 79 7 82 8 80 9 81 10 3 11 2 14 1 15
REMARK SMILES IDX 83 16 84 17 85 18 86 19 92 20 87 22 89 23 88 24 90 25 91 26
REMARK SMILES IDX 10 27 11 28 12 29 13 30 14 31 15 32 16 33 17 34 78 35 18 36
REMARK SMILES IDX 77 37 19 38 20 39 21 40 71 41 22 42 76 43 70 44 72 45 23 46
REMARK SMILES IDX 75 47 69 48 68 49 24 51 56 52 36 53 55 54 37 55 40 56 54 57
REMARK SMILES IDX 73 58 38 59 39 60 53 62 74 63 41 64 25 65 26 66 34 67 27 68
REMARK SMILES IDX 28 69 32 70 35 71 29 72 30 73 33 74 31 75 57 76 58 77 66 78
REMARK SMILES IDX 59 79 60 80 64 81 67 82 61 83 62 84 65 85 63 86 42 87 43 88
REMARK SMILES IDX 51 89 44 90 45 91 49 92 52 93 46 94 47 95 50 96 48 97
REMARK H PARENT 3 12 3 13 85 21 72 50 40 61
REMARK Flexibility Score: inf
ROOT
ATOM      1  C   UNL A   1      32.930  29.143  27.087  1.00  0.00     0.202 C 
ENDROOT
BRANCH   1   2
ATOM      2  C   UNL A   1      33.943  28.424  26.179  1.00  0.00     0.261 C 
BRANCH   2   3
ATOM      3  O   UNL A   1      33.357  27.834  25.000  1.00  0.00    -0.459 OA
BRANCH   3   4
ATOM      4  C   UNL A   1      33.144  26.498  25.170  1.00  0.00     0.368 C 
ATOM      5  O   UNL A   1      34.080  25.757  25.407  1.00  0.00    -0.245 OA
BRANCH   4   6
ATOM      6  C   UNL A   1      31.682  26.034  25.079  1.00  0.00     0.197 C 
ATOM      7  C   UNL A   1      30.836  27.273  24.714  1.00  0.00     0.081 C 
ATOM      8  C   UNL A   1      31.389  25.064  23.881  1.00  0.00     0.068 C 
ATOM      9  C   UNL A   1      29.544  26.723  24.146  1.00  0.00     0.008 C 
ATOM     10  C   UNL A   1      29.906  25.369  23.538  1.00  0.00     0.011 C 
BRANCH   6  11
ATOM     11  N   UNL A   1      31.178  25.520  26.407  1.00  0.00    -0.332 N 
ATOM     12  H   UNL A   1      31.849  25.794  27.125  1.00  0.00     0.347 HD
ATOM     13  H   UNL A   1      30.252  25.928  26.534  1.00  0.00     0.347 HD
BRANCH  11  14
ATOM     14  C   UNL A   1      30.994  24.067  26.489  1.00  0.00     0.257 C 
ATOM     15  C   UNL A   1      32.220  23.376  27.076  1.00  0.00     0.071 C 
ENDBRANCH  11  14
ENDBRANCH   6  11
BRANCH   8  16
ATOM     16  C   UNL A   1      32.275  25.124  22.602  1.00  0.00     0.072 C 
BRANCH  16  17
ATOM     17  C   UNL A   1      33.236  23.932  22.263  1.00  0.00     0.262 C 
BRANCH  17  18
ATOM     18  N   UNL A   1      33.755  23.169  23.423  1.00  0.00    -0.335 N 
ATOM     19  C   UNL A   1      33.103  21.852  23.487  1.00  0.00     0.262 C 
ATOM     20  C   UNL A   1      35.229  22.971  23.363  1.00  0.00     0.265 C 
ATOM     21  H   UNL A   1      33.544  23.718  24.256  1.00  0.00     0.348 HD
ATOM     22  C   UNL A   1      33.554  21.064  24.715  1.00  0.00     0.062 C 
ATOM     23  C   UNL A   1      35.756  22.271  24.636  1.00  0.00     0.044 C 
ATOM     24  C   UNL A   1      35.070  20.908  24.769  1.00  0.00     0.015 C 
BRANCH  23  25
ATOM     25  C   UNL A   1      37.296  22.103  24.627  1.00  0.00     0.006 C 
ATOM     26  C   UNL A   1      37.729  20.675  24.939  1.00  0.00     0.004 C 
ENDBRANCH  23  25
ENDBRANCH  17  18
ENDBRANCH  16  17
ENDBRANCH   8  16
ENDBRANCH   4   6
ENDBRANCH   3   4
ENDBRANCH   2   3
ENDBRANCH   1   2
BRANCH   1  27
ATOM     27  O   UNL A   1      32.876  30.571  27.088  1.00  0.00    -0.374 OA
BRANCH  27  28
ATOM     28  C   UNL A   1      33.855  31.229  27.894  1.00  0.00     0.202 C 
BRANCH  28  29
ATOM     29  C   UNL A   1      34.122  32.695  27.571  1.00  0.00     0.261 C 
BRANCH  29  30
ATOM     30  O   UNL A   1      32.962  33.452  27.910  1.00  0.00    -0.460 OA
BRANCH  30  31
ATOM     31  C   UNL A   1      33.250  34.532  28.668  1.00  0.00     0.338 C 
ATOM     32  O   UNL A   1      32.608  35.553  28.786  1.00  0.00    -0.246 OA
BRANCH  31  33
ATOM     33  C   UNL A   1      34.397  34.188  29.522  1.00  0.00     0.060 A 
ATOM     34  C   UNL A   1      35.658  34.540  29.029  1.00  0.00     0.016 A 
ATOM     35  C   UNL A   1      34.248  33.587  30.778  1.00  0.00     0.016 A 
ATOM     36  C   UNL A   1      36.788  34.174  29.734  1.00  0.00     0.010 A 
ATOM     37  C   UNL A   1      35.384  33.225  31.492  1.00  0.00     0.010 A 
ATOM     38  C   UNL A   1      36.647  33.453  30.926  1.00  0.00    -0.014 A 
BRANCH  38  39
ATOM     39  C   UNL A   1      37.825  32.725  31.419  1.00  0.00     0.031 A 
ATOM     40  C   UNL A   1      38.336  33.069  32.787  1.00  0.00     0.074 A 
ATOM     41  C   UNL A   1      38.327  31.711  30.698  1.00  0.00     0.049 A 
ATOM     42  N   UNL A   1      39.293  32.514  33.480  1.00  0.00    -0.248 NA
ATOM     43  C   UNL A   1      37.675  34.196  33.473  1.00  0.00     0.031 C 
ATOM     44  C   UNL A   1      37.848  31.299  29.380  1.00  0.00     0.029 A 
ATOM     45  N   UNL A   1      39.335  30.835  30.987  1.00  0.00    -0.354 N 
ATOM     46  C   UNL A   1      39.347  33.220  34.675  1.00  0.00     0.074 A 
ATOM     47  C   UNL A   1      38.363  34.274  34.599  1.00  0.00     0.031 C 
ATOM     48  C   UNL A   1      38.558  30.232  28.975  1.00  0.00     0.029 A 
ATOM     49  C   UNL A   1      39.554  29.915  29.995  1.00  0.00     0.049 A 
ATOM     50  H   UNL A   1      39.851  30.862  31.824  1.00  0.00     0.167 HD
ATOM     51  C   UNL A   1      40.143  32.991  35.744  1.00  0.00     0.037 A 
ATOM     52  C   UNL A   1      40.470  28.933  29.931  1.00  0.00     0.037 A 
ATOM     53  C   UNL A   1      41.114  31.931  35.785  1.00  0.00     0.049 A 
ATOM     54  C   UNL A   1      41.380  28.734  31.114  1.00  0.00     0.074 A 
ATOM     55  C   UNL A   1      41.979  31.590  36.806  1.00  0.00     0.029 A 
ATOM     56  N   UNL A   1      41.346  31.042  34.743  1.00  0.00    -0.354 N 
ATOM     57  N   UNL A   1      41.418  29.390  32.251  1.00  0.00    -0.248 NA
ATOM     58  C   UNL A   1      42.363  27.652  31.012  1.00  0.00     0.031 C 
ATOM     59  C   UNL A   1      42.780  30.534  36.356  1.00  0.00     0.029 A 
ATOM     60  C   UNL A   1      42.363  30.168  35.085  1.00  0.00     0.049 A 
ATOM     61  H   UNL A   1      40.859  31.035  33.888  1.00  0.00     0.167 HD
ATOM     62  C   UNL A   1      42.409  28.785  33.010  1.00  0.00     0.074 A 
ATOM     63  C   UNL A   1      42.928  27.693  32.210  1.00  0.00     0.031 C 
ATOM     64  C   UNL A   1      42.854  29.096  34.255  1.00  0.00     0.037 A 
BRANCH  51  65
ATOM     65  C   UNL A   1      40.020  33.920  36.917  1.00  0.00     0.064 A 
ATOM     66  C   UNL A   1      40.777  35.099  37.019  1.00  0.00     0.173 A 
ATOM     67  C   UNL A   1      39.122  33.632  37.955  1.00  0.00     0.173 A 
ATOM     68  F   UNL A   1      41.668  35.414  36.066  1.00  0.00    -0.203 F 
ATOM     69  C   UNL A   1      40.659  35.937  38.126  1.00  0.00     0.198 A 
ATOM     70  C   UNL A   1      38.982  34.487  39.045  1.00  0.00     0.198 A 
ATOM     71  F   UNL A   1      38.378  32.516  37.916  1.00  0.00    -0.203 F 
ATOM     72  F   UNL A   1      41.432  37.027  38.227  1.00  0.00    -0.200 F 
ATOM     73  C   UNL A   1      39.754  35.635  39.134  1.00  0.00     0.200 A 
ATOM     74  F   UNL A   1      38.100  34.199  40.012  1.00  0.00    -0.200 F 
ATOM     75  F   UNL A   1      39.635  36.445  40.194  1.00  0.00    -0.200 F 
ENDBRANCH  51  65
BRANCH  52  76
ATOM     76  C   UNL A   1      40.559  28.079  28.720  1.00  0.00     0.064 A 
ATOM     77  C   UNL A   1      41.346  28.449  27.622  1.00  0.00     0.173 A 
ATOM     78  C   UNL A   1      39.860  26.864  28.640  1.00  0.00     0.173 A 
ATOM     79  F   UNL A   1      42.024  29.606  27.642  1.00  0.00    -0.203 F 
ATOM     80  C   UNL A   1      41.413  27.650  26.481  1.00  0.00     0.198 A 
ATOM     81  C   UNL A   1      39.954  26.049  27.513  1.00  0.00     0.198 A 
ATOM     82  F   UNL A   1      39.099  26.457  29.666  1.00  0.00    -0.203 F 
ATOM     83  F   UNL A   1      42.135  28.051  25.427  1.00  0.00    -0.200 F 
ATOM     84  C   UNL A   1      40.721  26.448  26.431  1.00  0.00     0.200 A 
ATOM     85  F   UNL A   1      39.301  24.880  27.480  1.00  0.00    -0.200 F 
ATOM     86  F   UNL A   1      40.792  25.678  25.337  1.00  0.00    -0.200 F 
ENDBRANCH  52  76
BRANCH  64  87
ATOM     87  C   UNL A   1      43.929  28.217  34.826  1.00  0.00     0.064 A 
ATOM     88  C   UNL A   1      43.627  27.051  35.544  1.00  0.00     0.173 A 
ATOM     89  C   UNL A   1      45.281  28.541  34.637  1.00  0.00     0.173 A 
ATOM     90  F   UNL A   1      42.349  26.704  35.762  1.00  0.00    -0.203 F 
ATOM     91  C   UNL A   1      44.638  26.268  36.093  1.00  0.00     0.198 A 
ATOM     92  C   UNL A   1      46.290  27.733  35.152  1.00  0.00     0.198 A 
ATOM     93  F   UNL A   1      45.625  29.640  33.946  1.00  0.00    -0.203 F 
ATOM     94  F   UNL A   1      44.324  25.200  36.838  1.00  0.00    -0.200 F 
ATOM     95  C   UNL A   1      45.967  26.606  35.891  1.00  0.00     0.200 A 
ATOM     96  F   UNL A   1      47.575  28.051  34.937  1.00  0.00    -0.200 F 
ATOM     97  F   UNL A   1      46.940  25.851  36.420  1.00  0.00    -0.200 F 
ENDBRANCH  64  87
ENDBRANCH  38  39
ENDBRANCH  31  33
ENDBRANCH  30  31
ENDBRANCH  29  30
ENDBRANCH  28  29
ENDBRANCH  27  28
ENDBRANCH   1  27
TORSDOF 20
ENDMDL
MODEL 3
REMARK VINA RESULT:     -10.5      1.380      3.616
REMARK SMILES CC[NH2+][C@]1(C(=O)OCCOCCOC(=O)c2ccc(-c3c4nc(c(-c5c(F)c(F)c(F)c(F)c5F)c5ccc([nH]5)c(-c5c(F)c(F)c(F)c(F)c5F)c5nc(c(-c6c(F)c(F)c(F)c(F)c6F)c6ccc3[nH]6)C=C5)C=C4)cc2)CCC[C@H]1CC[N@H+]1CCC[C@@H](CC)C1
REMARK SMILES IDX 9 1 8 2 7 3 5 4 6 5 4 6 79 7 82 8 80 9 81 10 3 11 2 14 1 15
REMARK SMILES IDX 83 16 84 17 85 18 86 19 92 20 87 22 89 23 88 24 90 25 91 26
REMARK SMILES IDX 10 27 11 28 12 29 13 30 14 31 15 32 16 33 17 34 78 35 18 36
REMARK SMILES IDX 77 37 19 38 20 39 21 40 71 41 22 42 76 43 70 44 72 45 23 46
REMARK SMILES IDX 75 47 69 48 68 49 24 51 56 52 36 53 55 54 37 55 40 56 54 57
REMARK SMILES IDX 73 58 38 59 39 60 53 62 74 63 41 64 25 65 26 66 34 67 27 68
REMARK SMILES IDX 28 69 32 70 35 71 29 72 30 73 33 74 31 75 57 76 58 77 66 78
REMARK SMILES IDX 59 79 60 80 64 81 67 82 61 83 62 84 65 85 63 86 42 87 43 88
REMARK SMILES IDX 51 89 44 90 45 91 49 92 52 93 46 94 47 95 50 96 48 97
REMARK H PARENT 3 12 3 13 85 21 72 50 40 61
REMARK Flexibility Score: inf
ROOT
ATOM      1  C   UNL A   1      32.699  29.357  27.218  1.00  0.00     0.202 C 
ENDROOT
BRANCH   1   2
ATOM      2  C   UNL A   1      32.164  28.135  26.452  1.00  0.00     0.261 C 
BRANCH   2   3
ATOM      3  O   UNL A   1      31.804  28.413  25.083  1.00  0.00    -0.459 OA
BRANCH   3   4
ATOM      4  C   UNL A   1      31.199  27.336  24.504  1.00  0.00     0.368 C 
ATOM      5  O   UNL A   1      30.423  26.654  25.147  1.00  0.00    -0.245 OA
BRANCH   4   6
ATOM      6  C   UNL A   1      31.537  27.090  23.025  1.00  0.00     0.197 C 
ATOM      7  C   UNL A   1      33.059  27.297  22.868  1.00  0.00     0.081 C 
ATOM      8  C   UNL A   1      31.350  25.603  22.562  1.00  0.00     0.068 C 
ATOM      9  C   UNL A   1      33.430  26.578  21.587  1.00  0.00     0.008 C 
ATOM     10  C   UNL A   1      32.410  25.451  21.437  1.00  0.00     0.011 C 
BRANCH   6  11
ATOM     11  N   UNL A   1      30.852  28.091  22.125  1.00  0.00    -0.332 N 
ATOM     12  H   UNL A   1      31.437  28.926  22.081  1.00  0.00     0.347 HD
ATOM     13  H   UNL A   1      30.733  27.626  21.226  1.00  0.00     0.347 HD
BRANCH  11  14
ATOM     14  C   UNL A   1      29.508  28.501  22.549  1.00  0.00     0.257 C 
ATOM     15  C   UNL A   1      29.189  29.925  22.108  1.00  0.00     0.071 C 
ENDBRANCH  11  14
ENDBRANCH   6  11
BRANCH   8  16
ATOM     16  C   UNL A   1      31.477  24.448  23.599  1.00  0.00     0.072 C 
BRANCH  16  17
ATOM     17  C   UNL A   1      31.921  23.021  23.125  1.00  0.00     0.262 C 
BRANCH  17  18
ATOM     18  N   UNL A   1      33.169  22.498  23.728  1.00  0.00    -0.335 N 
ATOM     19  C   UNL A   1      34.312  23.320  23.302  1.00  0.00     0.262 C 
ATOM     20  C   UNL A   1      33.122  22.479  25.215  1.00  0.00     0.265 C 
ATOM     21  H   UNL A   1      33.274  21.538  23.404  1.00  0.00     0.348 HD
ATOM     22  C   UNL A   1      35.630  22.767  23.840  1.00  0.00     0.062 C 
ATOM     23  C   UNL A   1      34.391  21.828  25.812  1.00  0.00     0.044 C 
ATOM     24  C   UNL A   1      35.615  22.627  25.358  1.00  0.00     0.015 C 
BRANCH  23  25
ATOM     25  C   UNL A   1      34.342  21.742  27.358  1.00  0.00     0.006 C 
ATOM     26  C   UNL A   1      33.077  22.365  27.937  1.00  0.00     0.004 C 
ENDBRANCH  23  25
ENDBRANCH  17  18
ENDBRANCH  16  17
ENDBRANCH   8  16
ENDBRANCH   4   6
ENDBRANCH   3   4
ENDBRANCH   2   3
ENDBRANCH   1   2
BRANCH   1  27
ATOM     27  O   UNL A   1      31.906  30.544  27.292  1.00  0.00    -0.374 OA
BRANCH  27  28
ATOM     28  C   UNL A   1      32.507  31.727  26.763  1.00  0.00     0.202 C 
BRANCH  28  29
ATOM     29  C   UNL A   1      32.164  33.034  27.469  1.00  0.00     0.261 C 
BRANCH  29  30
ATOM     30  O   UNL A   1      33.349  33.821  27.568  1.00  0.00    -0.460 OA
BRANCH  30  31
ATOM     31  C   UNL A   1      33.760  33.983  28.844  1.00  0.00     0.338 C 
ATOM     32  O   UNL A   1      33.156  34.494  29.763  1.00  0.00    -0.246 OA
BRANCH  31  33
ATOM     33  C   UNL A   1      35.014  33.232  29.010  1.00  0.00     0.060 A 
ATOM     34  C   UNL A   1      34.888  31.920  29.477  1.00  0.00     0.016 A 
ATOM     35  C   UNL A   1      36.264  33.769  28.678  1.00  0.00     0.016 A 
ATOM     36  C   UNL A   1      36.024  31.181  29.738  1.00  0.00     0.010 A 
ATOM     37  C   UNL A   1      37.408  33.024  28.934  1.00  0.00     0.010 A 
ATOM     38  C   UNL A   1      37.281  31.763  29.535  1.00  0.00    -0.014 A 
BRANCH  38  39
ATOM     39  C   UNL A   1      38.432  31.138  30.203  1.00  0.00     0.031 A 
ATOM     40  C   UNL A   1      38.652  31.455  31.654  1.00  0.00     0.074 A 
ATOM     41  C   UNL A   1      39.166  30.229  29.547  1.00  0.00     0.049 A 
ATOM     42  N   UNL A   1      39.531  30.966  32.486  1.00  0.00    -0.248 NA
ATOM     43  C   UNL A   1      37.756  32.462  32.252  1.00  0.00     0.031 C 
ATOM     44  C   UNL A   1      38.975  29.845  28.149  1.00  0.00     0.029 A 
ATOM     45  N   UNL A   1      40.202  29.450  29.978  1.00  0.00    -0.354 N 
ATOM     46  C   UNL A   1      39.293  31.603  33.697  1.00  0.00     0.074 A 
ATOM     47  C   UNL A   1      38.223  32.548  33.486  1.00  0.00     0.031 C 
ATOM     48  C   UNL A   1      39.864  28.886  27.838  1.00  0.00     0.029 A 
ATOM     49  C   UNL A   1      40.696  28.618  29.008  1.00  0.00     0.049 A 
ATOM     50  H   UNL A   1      40.558  29.484  30.895  1.00  0.00     0.167 HD
ATOM     51  C   UNL A   1      39.912  31.398  34.882  1.00  0.00     0.037 A 
ATOM     52  C   UNL A   1      41.717  27.746  29.072  1.00  0.00     0.037 A 
ATOM     53  C   UNL A   1      40.976  30.448  35.057  1.00  0.00     0.049 A 
ATOM     54  C   UNL A   1      42.423  27.577  30.391  1.00  0.00     0.074 A 
ATOM     55  C   UNL A   1      41.684  30.142  36.203  1.00  0.00     0.029 A 
ATOM     56  N   UNL A   1      41.489  29.651  34.040  1.00  0.00    -0.354 N 
ATOM     57  N   UNL A   1      42.186  28.166  31.541  1.00  0.00    -0.248 NA
ATOM     58  C   UNL A   1      43.528  26.614  30.426  1.00  0.00     0.031 C 
ATOM     59  C   UNL A   1      42.668  29.207  35.865  1.00  0.00     0.029 A 
ATOM     60  C   UNL A   1      42.525  28.873  34.526  1.00  0.00     0.049 A 
ATOM     61  H   UNL A   1      41.163  29.642  33.112  1.00  0.00     0.167 HD
ATOM     62  C   UNL A   1      43.092  27.626  32.442  1.00  0.00     0.074 A 
ATOM     63  C   UNL A   1      43.867  26.645  31.707  1.00  0.00     0.031 C 
ATOM     64  C   UNL A   1      43.274  27.911  33.758  1.00  0.00     0.037 A 
BRANCH  51  65
ATOM     65  C   UNL A   1      39.479  32.239  36.049  1.00  0.00     0.064 A 
ATOM     66  C   UNL A   1      38.453  31.836  36.921  1.00  0.00     0.173 A 
ATOM     67  C   UNL A   1      40.105  33.467  36.305  1.00  0.00     0.173 A 
ATOM     68  F   UNL A   1      37.803  30.681  36.710  1.00  0.00    -0.203 F 
ATOM     69  C   UNL A   1      38.057  32.641  37.986  1.00  0.00     0.198 A 
ATOM     70  C   UNL A   1      39.730  34.255  37.391  1.00  0.00     0.198 A 
ATOM     71  F   UNL A   1      41.086  33.907  35.503  1.00  0.00    -0.203 F 
ATOM     72  F   UNL A   1      37.039  32.261  38.770  1.00  0.00    -0.200 F 
ATOM     73  C   UNL A   1      38.701  33.846  38.225  1.00  0.00     0.200 A 
ATOM     74  F   UNL A   1      40.360  35.414  37.626  1.00  0.00    -0.200 F 
ATOM     75  F   UNL A   1      38.324  34.617  39.255  1.00  0.00    -0.200 F 
ENDBRANCH  51  65
BRANCH  52  76
ATOM     76  C   UNL A   1      42.115  26.979  27.865  1.00  0.00     0.064 A 
ATOM     77  C   UNL A   1      43.042  27.489  26.948  1.00  0.00     0.173 A 
ATOM     78  C   UNL A   1      41.577  25.708  27.606  1.00  0.00     0.173 A 
ATOM     79  F   UNL A   1      43.577  28.704  27.141  1.00  0.00    -0.203 F 
ATOM     80  C   UNL A   1      43.400  26.770  25.808  1.00  0.00     0.198 A 
ATOM     81  C   UNL A   1      41.959  24.975  26.485  1.00  0.00     0.198 A 
ATOM     82  F   UNL A   1      40.691  25.167  28.456  1.00  0.00    -0.203 F 
ATOM     83  F   UNL A   1      44.253  27.303  24.924  1.00  0.00    -0.200 F 
ATOM     84  C   UNL A   1      42.862  25.512  25.581  1.00  0.00     0.200 A 
ATOM     85  F   UNL A   1      41.453  23.751  26.283  1.00  0.00    -0.200 F 
ATOM     86  F   UNL A   1      43.212  24.818  24.489  1.00  0.00    -0.200 F 
ENDBRANCH  52  76
BRANCH  64  87
ATOM     87  C   UNL A   1      44.328  27.120  34.479  1.00  0.00     0.064 A 
ATOM     88  C   UNL A   1      45.641  27.593  34.619  1.00  0.00     0.173 A 
ATOM     89  C   UNL A   1      44.011  25.878  35.050  1.00  0.00     0.173 A 
ATOM     90  F   UNL A   1      45.996  28.770  34.080  1.00  0.00    -0.203 F 
ATOM     91  C   UNL A   1      46.609  26.829  35.262  1.00  0.00     0.198 A 
ATOM     92  C   UNL A   1      44.972  25.136  35.730  1.00  0.00     0.198 A 
ATOM     93  F   UNL A   1      42.766  25.386  34.956  1.00  0.00    -0.203 F 
ATOM     94  F   UNL A   1      47.875  27.267  35.320  1.00  0.00    -0.200 F 
ATOM     95  C   UNL A   1      46.274  25.606  35.823  1.00  0.00     0.200 A 
ATOM     96  F   UNL A   1      44.640  23.964  36.288  1.00  0.00    -0.200 F 
ATOM     97  F   UNL A   1      47.208  24.872  36.442  1.00  0.00    -0.200 F 
ENDBRANCH  64  87
ENDBRANCH  38  39
ENDBRANCH  31  33
ENDBRANCH  30  31
ENDBRANCH  29  30
ENDBRANCH  28  29
ENDBRANCH  27  28
ENDBRANCH   1  27
TORSDOF 20
ENDMDL
