MODEL 1
REMARK VINA RESULT:     -10.4      0.000      0.000
REMARK SMILES CC(C)(C#N)Nc1ccccc1C(=O)OCCOCCOC(=O)c1ccc(-c2c3nc(c(-c4c(F)c(F)c(F)c(F)c4F)c4ccc([nH]4)c(-c4c(F)c(F)c(F)c(F)c4F)c4nc(c(-c5c(F)c(F)c(F)c(F)c5F)c5ccc2[nH]5)C=C4)C=C3)cc1
REMARK SMILES IDX 17 1 16 2 15 3 13 4 14 5 12 6 7 7 8 8 9 9 11 10 10 11 6 12
REMARK SMILES IDX 2 14 1 15 3 16 4 17 5 18 18 19 19 20 20 21 21 22 22 23 23 24
REMARK SMILES IDX 24 25 25 26 86 27 26 28 85 29 27 30 28 31 29 32 79 33 30 34
REMARK SMILES IDX 84 35 78 36 80 37 31 38 83 39 77 40 76 41 32 43 64 44 44 45
REMARK SMILES IDX 63 46 45 47 48 48 62 49 81 50 46 51 47 52 61 54 82 55 49 56
REMARK SMILES IDX 33 57 34 58 42 59 35 60 36 61 40 62 43 63 37 64 38 65 41 66
REMARK SMILES IDX 39 67 65 68 66 69 74 70 67 71 68 72 72 73 75 74 69 75 70 76
REMARK SMILES IDX 73 77 71 78 50 79 51 80 59 81 52 82 53 83 57 84 60 85 54 86
REMARK SMILES IDX 55 87 58 88 56 89
REMARK H PARENT 6 13 80 42 48 53
REMARK Flexibility Score: inf
ROOT
ATOM      1  C   UNL A   1      34.466  22.600  27.324  1.00  0.00     0.202 C 
ENDROOT
BRANCH   1   2
ATOM      2  C   UNL A   1      33.055  22.412  27.875  1.00  0.00     0.261 C 
BRANCH   2   3
ATOM      3  O   UNL A   1      32.088  22.316  26.814  1.00  0.00    -0.460 OA
BRANCH   3   4
ATOM      4  C   UNL A   1      31.669  23.493  26.299  1.00  0.00     0.340 C 
ATOM      5  O   UNL A   1      31.025  24.342  26.899  1.00  0.00    -0.246 OA
BRANCH   4   6
ATOM      6  C   UNL A   1      32.186  23.717  24.929  1.00  0.00     0.083 A 
ATOM      7  C   UNL A   1      32.530  24.941  24.323  1.00  0.00     0.050 A 
ATOM      8  C   UNL A   1      33.039  24.841  22.998  1.00  0.00     0.026 A 
ATOM      9  C   UNL A   1      33.173  23.634  22.303  1.00  0.00     0.002 A 
ATOM     10  C   UNL A   1      32.297  22.499  24.207  1.00  0.00     0.018 A 
ATOM     11  C   UNL A   1      32.786  22.455  22.906  1.00  0.00     0.001 A 
BRANCH   7  12
ATOM     12  N   UNL A   1      32.527  26.231  24.813  1.00  0.00    -0.367 N 
ATOM     13  H   UNL A   1      33.425  26.507  25.106  1.00  0.00     0.162 HD
BRANCH  12  14
ATOM     14  C   UNL A   1      31.537  27.302  25.015  1.00  0.00     0.119 C 
ATOM     15  C   UNL A   1      32.072  28.595  24.370  1.00  0.00     0.051 C 
ATOM     16  C   UNL A   1      30.111  26.936  24.590  1.00  0.00     0.051 C 
BRANCH  14  17
ATOM     17  C   UNL A   1      31.441  27.583  26.490  1.00  0.00     0.090 C 
ATOM     18  N   UNL A   1      31.389  27.808  27.626  1.00  0.00    -0.196 NA
ENDBRANCH  14  17
ENDBRANCH  12  14
ENDBRANCH   7  12
ENDBRANCH   4   6
ENDBRANCH   3   4
ENDBRANCH   2   3
ENDBRANCH   1   2
BRANCH   1  19
ATOM     19  O   UNL A   1      35.120  21.458  26.782  1.00  0.00    -0.374 OA
BRANCH  19  20
ATOM     20  C   UNL A   1      35.679  21.549  25.476  1.00  0.00     0.202 C 
BRANCH  20  21
ATOM     21  C   UNL A   1      36.961  20.761  25.168  1.00  0.00     0.261 C 
BRANCH  21  22
ATOM     22  O   UNL A   1      38.151  21.550  25.011  1.00  0.00    -0.460 OA
BRANCH  22  23
ATOM     23  C   UNL A   1      39.108  21.294  25.937  1.00  0.00     0.338 C 
ATOM     24  O   UNL A   1      39.636  20.225  26.188  1.00  0.00    -0.246 OA
BRANCH  23  25
ATOM     25  C   UNL A   1      39.543  22.547  26.578  1.00  0.00     0.060 A 
ATOM     26  C   UNL A   1      39.001  23.755  26.125  1.00  0.00     0.016 A 
ATOM     27  C   UNL A   1      40.584  22.536  27.507  1.00  0.00     0.016 A 
ATOM     28  C   UNL A   1      39.537  24.965  26.563  1.00  0.00     0.010 A 
ATOM     29  C   UNL A   1      41.120  23.751  27.944  1.00  0.00     0.010 A 
ATOM     30  C   UNL A   1      40.628  24.970  27.442  1.00  0.00    -0.014 A 
BRANCH  30  31
ATOM     31  C   UNL A   1      41.350  26.238  27.725  1.00  0.00     0.031 A 
ATOM     32  C   UNL A   1      40.640  27.339  28.467  1.00  0.00     0.074 A 
ATOM     33  C   UNL A   1      42.627  26.401  27.339  1.00  0.00     0.049 A 
ATOM     34  N   UNL A   1      41.053  28.547  28.762  1.00  0.00    -0.248 NA
ATOM     35  C   UNL A   1      39.277  27.041  28.937  1.00  0.00     0.031 C 
ATOM     36  C   UNL A   1      43.435  25.399  26.650  1.00  0.00     0.029 A 
ATOM     37  N   UNL A   1      43.466  27.481  27.468  1.00  0.00    -0.354 N 
ATOM     38  C   UNL A   1      40.003  29.151  29.442  1.00  0.00     0.074 A 
ATOM     39  C   UNL A   1      38.918  28.195  29.477  1.00  0.00     0.031 C 
ATOM     40  C   UNL A   1      44.654  25.911  26.411  1.00  0.00     0.029 A 
ATOM     41  C   UNL A   1      44.697  27.291  26.892  1.00  0.00     0.049 A 
ATOM     42  H   UNL A   1      43.209  28.312  27.929  1.00  0.00     0.167 HD
ATOM     43  C   UNL A   1      39.954  30.386  30.001  1.00  0.00     0.037 A 
ATOM     44  C   UNL A   1      45.730  28.144  26.746  1.00  0.00     0.037 A 
ATOM     45  C   UNL A   1      41.035  31.337  29.959  1.00  0.00     0.049 A 
ATOM     46  C   UNL A   1      45.613  29.546  27.292  1.00  0.00     0.074 A 
ATOM     47  C   UNL A   1      41.086  32.610  30.498  1.00  0.00     0.029 A 
ATOM     48  N   UNL A   1      42.255  31.119  29.335  1.00  0.00    -0.354 N 
ATOM     49  N   UNL A   1      44.626  30.103  27.952  1.00  0.00    -0.248 NA
ATOM     50  C   UNL A   1      46.761  30.438  27.072  1.00  0.00     0.031 C 
ATOM     51  C   UNL A   1      42.308  33.188  30.143  1.00  0.00     0.029 A 
ATOM     52  C   UNL A   1      43.053  32.247  29.453  1.00  0.00     0.049 A 
ATOM     53  H   UNL A   1      42.516  30.289  28.876  1.00  0.00     0.167 HD
ATOM     54  C   UNL A   1      45.052  31.387  28.266  1.00  0.00     0.074 A 
ATOM     55  C   UNL A   1      46.391  31.524  27.734  1.00  0.00     0.031 C 
ATOM     56  C   UNL A   1      44.395  32.365  28.938  1.00  0.00     0.037 A 
BRANCH  43  57
ATOM     57  C   UNL A   1      38.679  30.791  30.687  1.00  0.00     0.064 A 
ATOM     58  C   UNL A   1      38.534  30.716  32.081  1.00  0.00     0.173 A 
ATOM     59  C   UNL A   1      37.602  31.303  29.945  1.00  0.00     0.173 A 
ATOM     60  F   UNL A   1      39.527  30.228  32.838  1.00  0.00    -0.203 F 
ATOM     61  C   UNL A   1      37.350  31.107  32.701  1.00  0.00     0.198 A 
ATOM     62  C   UNL A   1      36.434  31.728  30.573  1.00  0.00     0.198 A 
ATOM     63  F   UNL A   1      37.688  31.405  28.610  1.00  0.00    -0.203 F 
ATOM     64  F   UNL A   1      37.216  30.975  34.028  1.00  0.00    -0.200 F 
ATOM     65  C   UNL A   1      36.304  31.620  31.948  1.00  0.00     0.200 A 
ATOM     66  F   UNL A   1      35.433  32.242  29.844  1.00  0.00    -0.200 F 
ATOM     67  F   UNL A   1      35.170  32.006  32.548  1.00  0.00    -0.200 F 
ENDBRANCH  43  57
BRANCH  44  68
ATOM     68  C   UNL A   1      46.970  27.710  26.046  1.00  0.00     0.064 A 
ATOM     69  C   UNL A   1      47.061  27.751  24.647  1.00  0.00     0.173 A 
ATOM     70  C   UNL A   1      48.069  27.199  26.754  1.00  0.00     0.173 A 
ATOM     71  F   UNL A   1      46.029  28.207  23.923  1.00  0.00    -0.203 F 
ATOM     72  C   UNL A   1      48.186  27.267  23.983  1.00  0.00     0.198 A 
ATOM     73  C   UNL A   1      49.210  26.753  26.091  1.00  0.00     0.198 A 
ATOM     74  F   UNL A   1      48.035  27.136  28.093  1.00  0.00    -0.203 F 
ATOM     75  F   UNL A   1      48.216  27.255  22.644  1.00  0.00    -0.200 F 
ATOM     76  C   UNL A   1      49.261  26.773  24.705  1.00  0.00     0.200 A 
ATOM     77  F   UNL A   1      50.251  26.288  26.792  1.00  0.00    -0.200 F 
ATOM     78  F   UNL A   1      50.342  26.303  24.066  1.00  0.00    -0.200 F 
ENDBRANCH  44  68
BRANCH  56  79
ATOM     79  C   UNL A   1      45.135  33.650  29.201  1.00  0.00     0.064 A 
ATOM     80  C   UNL A   1      45.119  34.721  28.296  1.00  0.00     0.173 A 
ATOM     81  C   UNL A   1      45.844  33.820  30.401  1.00  0.00     0.173 A 
ATOM     82  F   UNL A   1      44.467  34.610  27.128  1.00  0.00    -0.203 F 
ATOM     83  C   UNL A   1      45.814  35.898  28.565  1.00  0.00     0.198 A 
ATOM     84  C   UNL A   1      46.503  35.013  30.686  1.00  0.00     0.198 A 
ATOM     85  F   UNL A   1      45.886  32.832  31.309  1.00  0.00    -0.203 F 
ATOM     86  F   UNL A   1      45.835  36.884  27.657  1.00  0.00    -0.200 F 
ATOM     87  C   UNL A   1      46.498  36.046  29.762  1.00  0.00     0.200 A 
ATOM     88  F   UNL A   1      47.145  35.161  31.853  1.00  0.00    -0.200 F 
ATOM     89  F   UNL A   1      47.157  37.183  30.023  1.00  0.00    -0.200 F 
ENDBRANCH  56  79
ENDBRANCH  30  31
ENDBRANCH  23  25
ENDBRANCH  22  23
ENDBRANCH  21  22
ENDBRANCH  20  21
ENDBRANCH  19  20
ENDBRANCH   1  19
TORSDOF 17
ENDMDL
MODEL 2
REMARK VINA RESULT:     -10.2      1.038      7.673
REMARK SMILES CC(C)(C#N)Nc1ccccc1C(=O)OCCOCCOC(=O)c1ccc(-c2c3nc(c(-c4c(F)c(F)c(F)c(F)c4F)c4ccc([nH]4)c(-c4c(F)c(F)c(F)c(F)c4F)c4nc(c(-c5c(F)c(F)c(F)c(F)c5F)c5ccc2[nH]5)C=C4)C=C3)cc1
REMARK SMILES IDX 17 1 16 2 15 3 13 4 14 5 12 6 7 7 8 8 9 9 11 10 10 11 6 12
REMARK SMILES IDX 2 14 1 15 3 16 4 17 5 18 18 19 19 20 20 21 21 22 22 23 23 24
REMARK SMILES IDX 24 25 25 26 86 27 26 28 85 29 27 30 28 31 29 32 79 33 30 34
REMARK SMILES IDX 84 35 78 36 80 37 31 38 83 39 77 40 76 41 32 43 64 44 44 45
REMARK SMILES IDX 63 46 45 47 48 48 62 49 81 50 46 51 47 52 61 54 82 55 49 56
REMARK SMILES IDX 33 57 34 58 42 59 35 60 36 61 40 62 43 63 37 64 38 65 41 66
REMARK SMILES IDX 39 67 65 68 66 69 74 70 67 71 68 72 72 73 75 74 69 75 70 76
REMARK SMILES IDX 73 77 71 78 50 79 51 80 59 81 52 82 53 83 57 84 60 85 54 86
REMARK SMILES IDX 55 87 58 88 56 89
REMARK H PARENT 6 13 80 42 48 53
REMARK Flexibility Score: inf
ROOT
ATOM      1  C   UNL A   1      34.958  22.924  26.335  1.00  0.00     0.202 C 
ENDROOT
BRANCH   1   2
ATOM      2  C   UNL A   1      33.531  23.412  26.568  1.00  0.00     0.261 C 
BRANCH   2   3
ATOM      3  O   UNL A   1      33.370  24.778  26.143  1.00  0.00    -0.460 OA
BRANCH   3   4
ATOM      4  C   UNL A   1      32.211  25.369  26.509  1.00  0.00     0.340 C 
ATOM      5  O   UNL A   1      31.307  24.833  27.133  1.00  0.00    -0.246 OA
BRANCH   4   6
ATOM      6  C   UNL A   1      32.192  26.812  26.177  1.00  0.00     0.083 A 
ATOM      7  C   UNL A   1      32.440  27.416  24.928  1.00  0.00     0.050 A 
ATOM      8  C   UNL A   1      32.312  28.833  24.904  1.00  0.00     0.026 A 
ATOM      9  C   UNL A   1      31.995  29.607  26.025  1.00  0.00     0.002 A 
ATOM     10  C   UNL A   1      31.900  27.606  27.317  1.00  0.00     0.018 A 
ATOM     11  C   UNL A   1      31.801  28.991  27.245  1.00  0.00     0.001 A 
BRANCH   7  12
ATOM     12  N   UNL A   1      32.721  26.869  23.693  1.00  0.00    -0.367 N 
ATOM     13  H   UNL A   1      33.685  26.895  23.498  1.00  0.00     0.162 HD
BRANCH  12  14
ATOM     14  C   UNL A   1      31.959  26.257  22.590  1.00  0.00     0.119 C 
ATOM     15  C   UNL A   1      30.681  27.084  22.357  1.00  0.00     0.051 C 
ATOM     16  C   UNL A   1      32.777  26.000  21.321  1.00  0.00     0.051 C 
BRANCH  14  17
ATOM     17  C   UNL A   1      31.498  24.896  23.035  1.00  0.00     0.090 C 
ATOM     18  N   UNL A   1      31.128  23.857  23.393  1.00  0.00    -0.196 NA
ENDBRANCH  14  17
ENDBRANCH  12  14
ENDBRANCH   7  12
ENDBRANCH   4   6
ENDBRANCH   3   4
ENDBRANCH   2   3
ENDBRANCH   1   2
BRANCH   1  19
ATOM     19  O   UNL A   1      35.237  22.267  25.103  1.00  0.00    -0.374 OA
BRANCH  19  20
ATOM     20  C   UNL A   1      35.606  20.892  25.134  1.00  0.00     0.202 C 
BRANCH  20  21
ATOM     21  C   UNL A   1      37.092  20.527  24.997  1.00  0.00     0.261 C 
BRANCH  21  22
ATOM     22  O   UNL A   1      38.012  21.625  25.097  1.00  0.00    -0.460 OA
BRANCH  22  23
ATOM     23  C   UNL A   1      39.040  21.408  25.955  1.00  0.00     0.338 C 
ATOM     24  O   UNL A   1      39.662  20.374  26.127  1.00  0.00    -0.246 OA
BRANCH  23  25
ATOM     25  C   UNL A   1      39.415  22.663  26.627  1.00  0.00     0.060 A 
ATOM     26  C   UNL A   1      38.762  23.843  26.255  1.00  0.00     0.016 A 
ATOM     27  C   UNL A   1      40.502  22.695  27.501  1.00  0.00     0.016 A 
ATOM     28  C   UNL A   1      39.230  25.073  26.717  1.00  0.00     0.010 A 
ATOM     29  C   UNL A   1      40.969  23.929  27.962  1.00  0.00     0.010 A 
ATOM     30  C   UNL A   1      40.363  25.126  27.539  1.00  0.00    -0.014 A 
BRANCH  30  31
ATOM     31  C   UNL A   1      41.003  26.433  27.839  1.00  0.00     0.031 A 
ATOM     32  C   UNL A   1      42.439  26.657  27.447  1.00  0.00     0.074 A 
ATOM     33  C   UNL A   1      40.309  27.415  28.440  1.00  0.00     0.049 A 
ATOM     34  N   UNL A   1      43.214  27.690  27.670  1.00  0.00    -0.248 NA
ATOM     35  C   UNL A   1      43.095  25.566  26.707  1.00  0.00     0.031 C 
ATOM     36  C   UNL A   1      38.905  27.337  28.833  1.00  0.00     0.029 A 
ATOM     37  N   UNL A   1      40.700  28.671  28.833  1.00  0.00    -0.354 N 
ATOM     38  C   UNL A   1      44.443  27.371  27.106  1.00  0.00     0.074 A 
ATOM     39  C   UNL A   1      44.327  26.032  26.572  1.00  0.00     0.031 C 
ATOM     40  C   UNL A   1      38.550  28.494  29.417  1.00  0.00     0.029 A 
ATOM     41  C   UNL A   1      39.713  29.377  29.475  1.00  0.00     0.049 A 
ATOM     42  H   UNL A   1      41.601  29.032  28.669  1.00  0.00     0.167 HD
ATOM     43  C   UNL A   1      45.562  28.132  27.029  1.00  0.00     0.037 A 
ATOM     44  C   UNL A   1      39.755  30.587  30.068  1.00  0.00     0.037 A 
ATOM     45  C   UNL A   1      45.675  29.464  27.567  1.00  0.00     0.049 A 
ATOM     46  C   UNL A   1      41.043  31.373  30.052  1.00  0.00     0.074 A 
ATOM     47  C   UNL A   1      46.763  30.318  27.535  1.00  0.00     0.029 A 
ATOM     48  N   UNL A   1      44.663  30.131  28.243  1.00  0.00    -0.354 N 
ATOM     49  N   UNL A   1      42.194  31.075  29.499  1.00  0.00    -0.248 NA
ATOM     50  C   UNL A   1      41.032  32.671  30.743  1.00  0.00     0.031 C 
ATOM     51  C   UNL A   1      46.433  31.474  28.250  1.00  0.00     0.029 A 
ATOM     52  C   UNL A   1      45.114  31.376  28.657  1.00  0.00     0.049 A 
ATOM     53  H   UNL A   1      43.761  29.775  28.406  1.00  0.00     0.167 HD
ATOM     54  C   UNL A   1      43.025  32.164  29.734  1.00  0.00     0.074 A 
ATOM     55  C   UNL A   1      42.243  33.134  30.469  1.00  0.00     0.031 C 
ATOM     56  C   UNL A   1      44.319  32.344  29.370  1.00  0.00     0.037 A 
BRANCH  43  57
ATOM     57  C   UNL A   1      46.767  27.536  26.355  1.00  0.00     0.064 A 
ATOM     58  C   UNL A   1      46.957  27.623  24.968  1.00  0.00     0.173 A 
ATOM     59  C   UNL A   1      47.767  26.905  27.113  1.00  0.00     0.173 A 
ATOM     60  F   UNL A   1      46.030  28.207  24.194  1.00  0.00    -0.203 F 
ATOM     61  C   UNL A   1      48.085  27.074  24.361  1.00  0.00     0.198 A 
ATOM     62  C   UNL A   1      48.911  26.391  26.508  1.00  0.00     0.198 A 
ATOM     63  F   UNL A   1      47.642  26.799  28.445  1.00  0.00    -0.203 F 
ATOM     64  F   UNL A   1      48.217  27.123  23.029  1.00  0.00    -0.200 F 
ATOM     65  C   UNL A   1      49.064  26.467  25.132  1.00  0.00     0.200 A 
ATOM     66  F   UNL A   1      49.865  25.823  27.258  1.00  0.00    -0.200 F 
ATOM     67  F   UNL A   1      50.154  25.950  24.548  1.00  0.00    -0.200 F 
ENDBRANCH  43  57
BRANCH  44  68
ATOM     68  C   UNL A   1      38.545  31.137  30.739  1.00  0.00     0.064 A 
ATOM     69  C   UNL A   1      37.601  31.886  30.022  1.00  0.00     0.173 A 
ATOM     70  C   UNL A   1      38.332  30.969  32.115  1.00  0.00     0.173 A 
ATOM     71  F   UNL A   1      37.771  32.097  28.709  1.00  0.00    -0.203 F 
ATOM     72  C   UNL A   1      36.511  32.474  30.661  1.00  0.00     0.198 A 
ATOM     73  C   UNL A   1      37.221  31.524  32.746  1.00  0.00     0.198 A 
ATOM     74  F   UNL A   1      39.205  30.262  32.849  1.00  0.00    -0.203 F 
ATOM     75  F   UNL A   1      35.665  33.243  29.964  1.00  0.00    -0.200 F 
ATOM     76  C   UNL A   1      36.320  32.289  32.022  1.00  0.00     0.200 A 
ATOM     77  F   UNL A   1      37.033  31.332  34.058  1.00  0.00    -0.200 F 
ATOM     78  F   UNL A   1      35.275  32.859  32.637  1.00  0.00    -0.200 F 
ENDBRANCH  44  68
BRANCH  56  79
ATOM     79  C   UNL A   1      44.957  33.669  29.698  1.00  0.00     0.064 A 
ATOM     80  C   UNL A   1      44.925  34.754  28.810  1.00  0.00     0.173 A 
ATOM     81  C   UNL A   1      45.580  33.861  30.941  1.00  0.00     0.173 A 
ATOM     82  F   UNL A   1      44.353  34.623  27.603  1.00  0.00    -0.203 F 
ATOM     83  C   UNL A   1      45.524  35.968  29.139  1.00  0.00     0.198 A 
ATOM     84  C   UNL A   1      46.140  35.088  31.284  1.00  0.00     0.198 A 
ATOM     85  F   UNL A   1      45.631  32.862  31.835  1.00  0.00    -0.203 F 
ATOM     86  F   UNL A   1      45.535  36.971  28.249  1.00  0.00    -0.200 F 
ATOM     87  C   UNL A   1      46.123  36.137  30.378  1.00  0.00     0.200 A 
ATOM     88  F   UNL A   1      46.700  35.255  32.491  1.00  0.00    -0.200 F 
ATOM     89  F   UNL A   1      46.689  37.309  30.696  1.00  0.00    -0.200 F 
ENDBRANCH  56  79
ENDBRANCH  30  31
ENDBRANCH  23  25
ENDBRANCH  22  23
ENDBRANCH  21  22
ENDBRANCH  20  21
ENDBRANCH  19  20
ENDBRANCH   1  19
TORSDOF 17
ENDMDL
MODEL 3
REMARK VINA RESULT:     -10.2      5.311      9.460
REMARK SMILES CC(C)(C#N)Nc1ccccc1C(=O)OCCOCCOC(=O)c1ccc(-c2c3nc(c(-c4c(F)c(F)c(F)c(F)c4F)c4ccc([nH]4)c(-c4c(F)c(F)c(F)c(F)c4F)c4nc(c(-c5c(F)c(F)c(F)c(F)c5F)c5ccc2[nH]5)C=C4)C=C3)cc1
REMARK SMILES IDX 17 1 16 2 15 3 13 4 14 5 12 6 7 7 8 8 9 9 11 10 10 11 6 12
REMARK SMILES IDX 2 14 1 15 3 16 4 17 5 18 18 19 19 20 20 21 21 22 22 23 23 24
REMARK SMILES IDX 24 25 25 26 86 27 26 28 85 29 27 30 28 31 29 32 79 33 30 34
REMARK SMILES IDX 84 35 78 36 80 37 31 38 83 39 77 40 76 41 32 43 64 44 44 45
REMARK SMILES IDX 63 46 45 47 48 48 62 49 81 50 46 51 47 52 61 54 82 55 49 56
REMARK SMILES IDX 33 57 34 58 42 59 35 60 36 61 40 62 43 63 37 64 38 65 41 66
REMARK SMILES IDX 39 67 65 68 66 69 74 70 67 71 68 72 72 73 75 74 69 75 70 76
REMARK SMILES IDX 73 77 71 78 50 79 51 80 59 81 52 82 53 83 57 84 60 85 54 86
REMARK SMILES IDX 55 87 58 88 56 89
REMARK H PARENT 6 13 80 42 48 53
REMARK Flexibility Score: inf
ROOT
ATOM      1  C   UNL A   1      34.474  32.721  32.175  1.00  0.00     0.202 C 
ENDROOT
BRANCH   1   2
ATOM      2  C   UNL A   1      34.554  33.592  33.425  1.00  0.00     0.261 C 
BRANCH   2   3
ATOM      3  O   UNL A   1      35.522  33.079  34.358  1.00  0.00    -0.460 OA
BRANCH   3   4
ATOM      4  C   UNL A   1      36.788  33.519  34.186  1.00  0.00     0.340 C 
ATOM      5  O   UNL A   1      37.121  34.687  34.053  1.00  0.00    -0.246 OA
BRANCH   4   6
ATOM      6  C   UNL A   1      37.778  32.424  34.300  1.00  0.00     0.083 A 
ATOM      7  C   UNL A   1      38.988  32.422  35.022  1.00  0.00     0.050 A 
ATOM      8  C   UNL A   1      39.721  31.204  34.976  1.00  0.00     0.026 A 
ATOM      9  C   UNL A   1      39.316  30.077  34.253  1.00  0.00     0.002 A 
ATOM     10  C   UNL A   1      37.388  31.287  33.544  1.00  0.00     0.018 A 
ATOM     11  C   UNL A   1      38.148  30.122  33.519  1.00  0.00     0.001 A 
BRANCH   7  12
ATOM     12  N   UNL A   1      39.565  33.379  35.832  1.00  0.00    -0.367 N 
ATOM     13  H   UNL A   1      40.286  33.859  35.366  1.00  0.00     0.162 HD
BRANCH  12  14
ATOM     14  C   UNL A   1      39.387  33.871  37.209  1.00  0.00     0.119 C 
ATOM     15  C   UNL A   1      39.886  35.327  37.279  1.00  0.00     0.051 C 
ATOM     16  C   UNL A   1      37.980  33.665  37.779  1.00  0.00     0.051 C 
BRANCH  14  17
ATOM     17  C   UNL A   1      40.290  33.078  38.113  1.00  0.00     0.090 C 
ATOM     18  N   UNL A   1      40.972  32.447  38.806  1.00  0.00    -0.196 NA
ENDBRANCH  14  17
ENDBRANCH  12  14
ENDBRANCH   7  12
ENDBRANCH   4   6
ENDBRANCH   3   4
ENDBRANCH   2   3
ENDBRANCH   1   2
BRANCH   1  19
ATOM     19  O   UNL A   1      34.029  33.336  30.970  1.00  0.00    -0.374 OA
BRANCH  19  20
ATOM     20  C   UNL A   1      34.983  33.595  29.946  1.00  0.00     0.202 C 
BRANCH  20  21
ATOM     21  C   UNL A   1      34.518  33.560  28.482  1.00  0.00     0.261 C 
BRANCH  21  22
ATOM     22  O   UNL A   1      35.128  32.551  27.662  1.00  0.00    -0.460 OA
BRANCH  22  23
ATOM     23  C   UNL A   1      34.765  31.284  27.985  1.00  0.00     0.338 C 
ATOM     24  O   UNL A   1      33.641  30.814  28.004  1.00  0.00    -0.246 OA
BRANCH  23  25
ATOM     25  C   UNL A   1      35.960  30.458  28.225  1.00  0.00     0.060 A 
ATOM     26  C   UNL A   1      36.181  29.958  29.513  1.00  0.00     0.016 A 
ATOM     27  C   UNL A   1      36.924  30.311  27.228  1.00  0.00     0.016 A 
ATOM     28  C   UNL A   1      37.396  29.351  29.825  1.00  0.00     0.010 A 
ATOM     29  C   UNL A   1      38.142  29.702  27.543  1.00  0.00     0.010 A 
ATOM     30  C   UNL A   1      38.401  29.258  28.853  1.00  0.00    -0.014 A 
BRANCH  30  31
ATOM     31  C   UNL A   1      39.772  28.831  29.238  1.00  0.00     0.031 A 
ATOM     32  C   UNL A   1      40.602  29.727  30.118  1.00  0.00     0.074 A 
ATOM     33  C   UNL A   1      40.265  27.652  28.823  1.00  0.00     0.049 A 
ATOM     34  N   UNL A   1      41.841  29.585  30.521  1.00  0.00    -0.248 NA
ATOM     35  C   UNL A   1      39.950  30.953  30.607  1.00  0.00     0.031 C 
ATOM     36  C   UNL A   1      39.548  26.680  28.002  1.00  0.00     0.029 A 
ATOM     37  N   UNL A   1      41.494  27.077  29.030  1.00  0.00    -0.354 N 
ATOM     38  C   UNL A   1      42.116  30.702  31.301  1.00  0.00     0.074 A 
ATOM     39  C   UNL A   1      40.933  31.534  31.278  1.00  0.00     0.031 C 
ATOM     40  C   UNL A   1      40.352  25.628  27.770  1.00  0.00     0.029 A 
ATOM     41  C   UNL A   1      41.653  25.873  28.390  1.00  0.00     0.049 A 
ATOM     42  H   UNL A   1      42.196  27.488  29.585  1.00  0.00     0.167 HD
ATOM     43  C   UNL A   1      43.248  30.999  31.986  1.00  0.00     0.037 A 
ATOM     44  C   UNL A   1      42.734  25.075  28.293  1.00  0.00     0.037 A 
ATOM     45  C   UNL A   1      44.426  30.169  32.001  1.00  0.00     0.049 A 
ATOM     46  C   UNL A   1      44.013  25.477  28.986  1.00  0.00     0.074 A 
ATOM     47  C   UNL A   1      45.620  30.379  32.668  1.00  0.00     0.029 A 
ATOM     48  N   UNL A   1      44.559  28.973  31.311  1.00  0.00    -0.354 N 
ATOM     49  N   UNL A   1      44.259  26.522  29.739  1.00  0.00    -0.248 NA
ATOM     50  C   UNL A   1      45.165  24.580  28.816  1.00  0.00     0.031 C 
ATOM     51  C   UNL A   1      46.499  29.346  32.327  1.00  0.00     0.029 A 
ATOM     52  C   UNL A   1      45.827  28.449  31.514  1.00  0.00     0.049 A 
ATOM     53  H   UNL A   1      43.859  28.558  30.758  1.00  0.00     0.167 HD
ATOM     54  C   UNL A   1      45.574  26.384  30.168  1.00  0.00     0.074 A 
ATOM     55  C   UNL A   1      46.069  25.148  29.602  1.00  0.00     0.031 C 
ATOM     56  C   UNL A   1      46.303  27.206  30.963  1.00  0.00     0.037 A 
BRANCH  43  57
ATOM     57  C   UNL A   1      43.278  32.287  32.760  1.00  0.00     0.064 A 
ATOM     58  C   UNL A   1      43.092  32.319  34.151  1.00  0.00     0.173 A 
ATOM     59  C   UNL A   1      43.539  33.503  32.108  1.00  0.00     0.173 A 
ATOM     60  F   UNL A   1      42.831  31.188  34.823  1.00  0.00    -0.203 F 
ATOM     61  C   UNL A   1      43.134  33.520  34.854  1.00  0.00     0.198 A 
ATOM     62  C   UNL A   1      43.618  34.698  32.820  1.00  0.00     0.198 A 
ATOM     63  F   UNL A   1      43.733  33.532  30.781  1.00  0.00    -0.203 F 
ATOM     64  F   UNL A   1      42.899  33.531  36.173  1.00  0.00    -0.200 F 
ATOM     65  C   UNL A   1      43.405  34.707  34.189  1.00  0.00     0.200 A 
ATOM     66  F   UNL A   1      43.900  35.840  32.178  1.00  0.00    -0.200 F 
ATOM     67  F   UNL A   1      43.457  35.861  34.869  1.00  0.00    -0.200 F 
ENDBRANCH  43  57
BRANCH  44  68
ATOM     68  C   UNL A   1      42.669  23.814  27.504  1.00  0.00     0.064 A 
ATOM     69  C   UNL A   1      42.261  22.612  28.098  1.00  0.00     0.173 A 
ATOM     70  C   UNL A   1      43.060  23.774  26.157  1.00  0.00     0.173 A 
ATOM     71  F   UNL A   1      41.901  22.591  29.389  1.00  0.00    -0.203 F 
ATOM     72  C   UNL A   1      42.280  21.413  27.387  1.00  0.00     0.198 A 
ATOM     73  C   UNL A   1      43.041  22.583  25.436  1.00  0.00     0.198 A 
ATOM     74  F   UNL A   1      43.461  24.896  25.540  1.00  0.00    -0.203 F 
ATOM     75  F   UNL A   1      41.952  20.269  28.001  1.00  0.00    -0.200 F 
ATOM     76  C   UNL A   1      42.665  21.401  26.056  1.00  0.00     0.200 A 
ATOM     77  F   UNL A   1      43.401  22.577  24.146  1.00  0.00    -0.200 F 
ATOM     78  F   UNL A   1      42.688  20.247  25.373  1.00  0.00    -0.200 F 
ENDBRANCH  44  68
BRANCH  56  79
ATOM     79  C   UNL A   1      47.696  26.765  31.329  1.00  0.00     0.064 A 
ATOM     80  C   UNL A   1      48.827  27.197  30.622  1.00  0.00     0.173 A 
ATOM     81  C   UNL A   1      47.900  25.922  32.434  1.00  0.00     0.173 A 
ATOM     82  F   UNL A   1      48.691  27.995  29.551  1.00  0.00    -0.203 F 
ATOM     83  C   UNL A   1      50.105  26.773  30.983  1.00  0.00     0.198 A 
ATOM     84  C   UNL A   1      49.180  25.534  32.818  1.00  0.00     0.198 A 
ATOM     85  F   UNL A   1      46.855  25.485  33.154  1.00  0.00    -0.203 F 
ATOM     86  F   UNL A   1      51.164  27.149  30.254  1.00  0.00    -0.200 F 
ATOM     87  C   UNL A   1      50.280  25.949  32.084  1.00  0.00     0.200 A 
ATOM     88  F   UNL A   1      49.349  24.755  33.895  1.00  0.00    -0.200 F 
ATOM     89  F   UNL A   1      51.510  25.551  32.435  1.00  0.00    -0.200 F 
ENDBRANCH  56  79
ENDBRANCH  30  31
ENDBRANCH  23  25
ENDBRANCH  22  23
ENDBRANCH  21  22
ENDBRANCH  20  21
ENDBRANCH  19  20
ENDBRANCH   1  19
TORSDOF 17
ENDMDL
