MODEL 1
REMARK VINA RESULT:     -11.4      0.000      0.000
REMARK SMILES O=C(CC1(NC(=O)C2(c3ccccc3)CC2)CCC1)OCCOCCOC(=O)c1ccc(-c2c3nc(c(-c4c(F)c(F)c(F)c(F)c4F)c4ccc([nH]4)c(-c4c(F)c(F)c(F)c(F)c4F)c4nc(c(-c5c(F)c(F)c(F)c(F)c5F)c5ccc2[nH]5)C=C4)C=C3)cc1
REMARK SMILES IDX 22 1 21 2 20 3 2 4 1 5 3 6 4 7 17 8 19 9 18 10 5 11 6 12
REMARK SMILES IDX 7 14 8 15 15 16 16 17 9 18 10 19 14 20 11 21 13 22 12 23
REMARK SMILES IDX 23 24 24 25 25 26 26 27 27 28 28 29 29 30 30 31 91 32 31 33
REMARK SMILES IDX 90 34 32 35 33 36 34 37 84 38 35 39 89 40 83 41 85 42 36 43
REMARK SMILES IDX 88 44 82 45 81 46 37 48 69 49 49 50 68 51 50 52 53 53 67 54
REMARK SMILES IDX 86 55 51 56 52 57 66 59 87 60 54 61 38 62 39 63 47 64 40 65
REMARK SMILES IDX 41 66 45 67 48 68 42 69 43 70 46 71 44 72 70 73 71 74 79 75
REMARK SMILES IDX 72 76 73 77 77 78 80 79 74 80 75 81 78 82 76 83 55 84 56 85
REMARK SMILES IDX 64 86 57 87 58 88 62 89 65 90 59 91 60 92 63 93 61 94
REMARK H PARENT 5 13 85 47 53 58
REMARK Flexibility Score: inf
ROOT
ATOM      1  C   UNL A   1      32.788  28.840  23.403  1.00  0.00     0.202 C 
ENDROOT
BRANCH   1   2
ATOM      2  C   UNL A   1      32.560  27.379  23.020  1.00  0.00     0.261 C 
BRANCH   2   3
ATOM      3  O   UNL A   1      33.362  26.494  23.824  1.00  0.00    -0.463 OA
BRANCH   3   4
ATOM      4  C   UNL A   1      34.065  25.463  23.304  1.00  0.00     0.308 C 
ATOM      5  O   UNL A   1      34.027  25.228  22.101  1.00  0.00    -0.252 OA
BRANCH   4   6
ATOM      6  C   UNL A   1      34.740  24.559  24.292  1.00  0.00     0.151 C 
BRANCH   6   7
ATOM      7  C   UNL A   1      35.125  23.176  23.795  1.00  0.00     0.051 C 
ATOM      8  C   UNL A   1      36.546  23.266  23.158  1.00  0.00     0.029 C 
ATOM      9  C   UNL A   1      35.712  22.116  24.783  1.00  0.00     0.029 C 
ATOM     10  C   UNL A   1      37.086  22.223  24.131  1.00  0.00     0.005 C 
BRANCH   7  11
ATOM     11  N   UNL A   1      34.069  22.568  22.951  1.00  0.00    -0.349 N 
ATOM     12  C   UNL A   1      32.818  22.062  23.270  1.00  0.00     0.231 C 
ATOM     13  H   UNL A   1      34.296  22.515  21.994  1.00  0.00     0.164 HD
ATOM     14  O   UNL A   1      32.187  21.489  22.382  1.00  0.00    -0.274 OA
BRANCH  12  15
ATOM     15  C   UNL A   1      32.153  22.277  24.638  1.00  0.00     0.074 C 
ATOM     16  C   UNL A   1      31.768  20.960  25.352  1.00  0.00     0.023 C 
ATOM     17  C   UNL A   1      32.903  21.763  25.879  1.00  0.00     0.023 C 
BRANCH  15  18
ATOM     18  C   UNL A   1      31.314  23.555  24.870  1.00  0.00    -0.032 A 
ATOM     19  C   UNL A   1      30.485  24.072  23.865  1.00  0.00     0.005 A 
ATOM     20  C   UNL A   1      31.373  24.317  26.040  1.00  0.00     0.005 A 
ATOM     21  C   UNL A   1      29.905  25.339  23.898  1.00  0.00     0.000 A 
ATOM     22  C   UNL A   1      30.755  25.580  26.119  1.00  0.00     0.000 A 
ATOM     23  C   UNL A   1      30.060  26.110  25.031  1.00  0.00     0.000 A 
ENDBRANCH  15  18
ENDBRANCH  12  15
ENDBRANCH   7  11
ENDBRANCH   6   7
ENDBRANCH   4   6
ENDBRANCH   3   4
ENDBRANCH   2   3
ENDBRANCH   1   2
BRANCH   1  24
ATOM     24  O   UNL A   1      31.710  29.560  23.983  1.00  0.00    -0.374 OA
BRANCH  24  25
ATOM     25  C   UNL A   1      31.620  29.484  25.422  1.00  0.00     0.202 C 
BRANCH  25  26
ATOM     26  C   UNL A   1      31.820  30.714  26.320  1.00  0.00     0.261 C 
BRANCH  26  27
ATOM     27  O   UNL A   1      32.915  30.572  27.216  1.00  0.00    -0.460 OA
BRANCH  27  28
ATOM     28  C   UNL A   1      33.543  31.735  27.525  1.00  0.00     0.338 C 
ATOM     29  O   UNL A   1      33.048  32.830  27.677  1.00  0.00    -0.246 OA
BRANCH  28  30
ATOM     30  C   UNL A   1      34.903  31.366  27.974  1.00  0.00     0.060 A 
ATOM     31  C   UNL A   1      35.175  29.999  28.161  1.00  0.00     0.016 A 
ATOM     32  C   UNL A   1      35.916  32.323  28.061  1.00  0.00     0.016 A 
ATOM     33  C   UNL A   1      36.462  29.584  28.458  1.00  0.00     0.010 A 
ATOM     34  C   UNL A   1      37.193  31.919  28.418  1.00  0.00     0.010 A 
ATOM     35  C   UNL A   1      37.439  30.558  28.671  1.00  0.00    -0.014 A 
BRANCH  35  36
ATOM     36  C   UNL A   1      38.554  30.222  29.565  1.00  0.00     0.031 A 
ATOM     37  C   UNL A   1      39.537  29.219  29.032  1.00  0.00     0.074 A 
ATOM     38  C   UNL A   1      38.660  30.772  30.781  1.00  0.00     0.049 A 
ATOM     39  N   UNL A   1      40.534  28.630  29.629  1.00  0.00    -0.248 NA
ATOM     40  C   UNL A   1      39.353  28.807  27.626  1.00  0.00     0.031 C 
ATOM     41  C   UNL A   1      37.770  31.788  31.335  1.00  0.00     0.029 A 
ATOM     42  N   UNL A   1      39.564  30.525  31.775  1.00  0.00    -0.354 N 
ATOM     43  C   UNL A   1      41.079  27.776  28.679  1.00  0.00     0.074 A 
ATOM     44  C   UNL A   1      40.291  27.891  27.479  1.00  0.00     0.031 C 
ATOM     45  C   UNL A   1      38.157  32.059  32.594  1.00  0.00     0.029 A 
ATOM     46  C   UNL A   1      39.292  31.204  32.934  1.00  0.00     0.049 A 
ATOM     47  H   UNL A   1      40.334  29.919  31.669  1.00  0.00     0.167 HD
ATOM     48  C   UNL A   1      42.151  26.967  28.807  1.00  0.00     0.037 A 
ATOM     49  C   UNL A   1      39.887  31.097  34.135  1.00  0.00     0.037 A 
ATOM     50  C   UNL A   1      42.899  26.860  30.026  1.00  0.00     0.049 A 
ATOM     51  C   UNL A   1      41.035  30.131  34.277  1.00  0.00     0.074 A 
ATOM     52  C   UNL A   1      44.006  26.083  30.297  1.00  0.00     0.029 A 
ATOM     53  N   UNL A   1      42.595  27.559  31.188  1.00  0.00    -0.354 N 
ATOM     54  N   UNL A   1      41.567  29.333  33.379  1.00  0.00    -0.248 NA
ATOM     55  C   UNL A   1      41.669  30.050  35.599  1.00  0.00     0.031 C 
ATOM     56  C   UNL A   1      44.336  26.265  31.643  1.00  0.00     0.029 A 
ATOM     57  C   UNL A   1      43.479  27.210  32.191  1.00  0.00     0.049 A 
ATOM     58  H   UNL A   1      41.858  28.205  31.284  1.00  0.00     0.167 HD
ATOM     59  C   UNL A   1      42.616  28.682  34.013  1.00  0.00     0.074 A 
ATOM     60  C   UNL A   1      42.651  29.189  35.371  1.00  0.00     0.031 C 
ATOM     61  C   UNL A   1      43.478  27.753  33.528  1.00  0.00     0.037 A 
BRANCH  48  62
ATOM     62  C   UNL A   1      42.523  26.117  27.627  1.00  0.00     0.064 A 
ATOM     63  C   UNL A   1      41.937  24.860  27.402  1.00  0.00     0.173 A 
ATOM     64  C   UNL A   1      43.492  26.559  26.716  1.00  0.00     0.173 A 
ATOM     65  F   UNL A   1      41.030  24.372  28.262  1.00  0.00    -0.203 F 
ATOM     66  C   UNL A   1      42.328  24.069  26.325  1.00  0.00     0.198 A 
ATOM     67  C   UNL A   1      43.855  25.781  25.620  1.00  0.00     0.198 A 
ATOM     68  F   UNL A   1      44.096  27.744  26.892  1.00  0.00    -0.203 F 
ATOM     69  F   UNL A   1      41.802  22.846  26.167  1.00  0.00    -0.200 F 
ATOM     70  C   UNL A   1      43.279  24.534  25.430  1.00  0.00     0.200 A 
ATOM     71  F   UNL A   1      44.770  26.235  24.752  1.00  0.00    -0.200 F 
ATOM     72  F   UNL A   1      43.651  23.775  24.389  1.00  0.00    -0.200 F 
ENDBRANCH  48  62
BRANCH  49  73
ATOM     73  C   UNL A   1      39.404  31.912  35.279  1.00  0.00     0.064 A 
ATOM     74  C   UNL A   1      39.774  33.257  35.414  1.00  0.00     0.173 A 
ATOM     75  C   UNL A   1      38.558  31.368  36.259  1.00  0.00     0.173 A 
ATOM     76  F   UNL A   1      40.594  33.819  34.513  1.00  0.00    -0.203 F 
ATOM     77  C   UNL A   1      39.335  34.020  36.495  1.00  0.00     0.198 A 
ATOM     78  C   UNL A   1      38.096  32.141  37.323  1.00  0.00     0.198 A 
ATOM     79  F   UNL A   1      38.171  30.088  36.177  1.00  0.00    -0.203 F 
ATOM     80  F   UNL A   1      39.744  35.290  36.622  1.00  0.00    -0.200 F 
ATOM     81  C   UNL A   1      38.493  33.465  37.444  1.00  0.00     0.200 A 
ATOM     82  F   UNL A   1      37.269  31.604  38.229  1.00  0.00    -0.200 F 
ATOM     83  F   UNL A   1      38.068  34.201  38.480  1.00  0.00    -0.200 F 
ENDBRANCH  49  73
BRANCH  61  84
ATOM     84  C   UNL A   1      44.554  27.269  34.454  1.00  0.00     0.064 A 
ATOM     85  C   UNL A   1      44.391  26.121  35.241  1.00  0.00     0.173 A 
ATOM     86  C   UNL A   1      45.787  27.939  34.508  1.00  0.00     0.173 A 
ATOM     87  F   UNL A   1      43.228  25.453  35.230  1.00  0.00    -0.203 F 
ATOM     88  C   UNL A   1      45.413  25.681  36.076  1.00  0.00     0.198 A 
ATOM     89  C   UNL A   1      46.819  27.472  35.314  1.00  0.00     0.198 A 
ATOM     90  F   UNL A   1      45.996  29.034  33.762  1.00  0.00    -0.203 F 
ATOM     91  F   UNL A   1      45.218  24.614  36.863  1.00  0.00    -0.200 F 
ATOM     92  C   UNL A   1      46.628  26.350  36.105  1.00  0.00     0.200 A 
ATOM     93  F   UNL A   1      47.999  28.107  35.322  1.00  0.00    -0.200 F 
ATOM     94  F   UNL A   1      47.614  25.916  36.901  1.00  0.00    -0.200 F 
ENDBRANCH  61  84
ENDBRANCH  35  36
ENDBRANCH  28  30
ENDBRANCH  27  28
ENDBRANCH  26  27
ENDBRANCH  25  26
ENDBRANCH  24  25
ENDBRANCH   1  24
TORSDOF 18
ENDMDL
MODEL 2
REMARK VINA RESULT:     -11.3      1.749      3.098
REMARK SMILES O=C(CC1(NC(=O)C2(c3ccccc3)CC2)CCC1)OCCOCCOC(=O)c1ccc(-c2c3nc(c(-c4c(F)c(F)c(F)c(F)c4F)c4ccc([nH]4)c(-c4c(F)c(F)c(F)c(F)c4F)c4nc(c(-c5c(F)c(F)c(F)c(F)c5F)c5ccc2[nH]5)C=C4)C=C3)cc1
REMARK SMILES IDX 22 1 21 2 20 3 2 4 1 5 3 6 4 7 17 8 19 9 18 10 5 11 6 12
REMARK SMILES IDX 7 14 8 15 15 16 16 17 9 18 10 19 14 20 11 21 13 22 12 23
REMARK SMILES IDX 23 24 24 25 25 26 26 27 27 28 28 29 29 30 30 31 91 32 31 33
REMARK SMILES IDX 90 34 32 35 33 36 34 37 84 38 35 39 89 40 83 41 85 42 36 43
REMARK SMILES IDX 88 44 82 45 81 46 37 48 69 49 49 50 68 51 50 52 53 53 67 54
REMARK SMILES IDX 86 55 51 56 52 57 66 59 87 60 54 61 38 62 39 63 47 64 40 65
REMARK SMILES IDX 41 66 45 67 48 68 42 69 43 70 46 71 44 72 70 73 71 74 79 75
REMARK SMILES IDX 72 76 73 77 77 78 80 79 74 80 75 81 78 82 76 83 55 84 56 85
REMARK SMILES IDX 64 86 57 87 58 88 62 89 65 90 59 91 60 92 63 93 61 94
REMARK H PARENT 5 13 85 47 53 58
REMARK Flexibility Score: inf
ROOT
ATOM      1  C   UNL A   1      32.394  28.718  24.740  1.00  0.00     0.202 C 
ENDROOT
BRANCH   1   2
ATOM      2  C   UNL A   1      32.531  28.524  23.231  1.00  0.00     0.261 C 
BRANCH   2   3
ATOM      3  O   UNL A   1      33.648  27.676  22.910  1.00  0.00    -0.463 OA
BRANCH   3   4
ATOM      4  C   UNL A   1      33.507  26.389  22.522  1.00  0.00     0.308 C 
ATOM      5  O   UNL A   1      33.469  26.098  21.331  1.00  0.00    -0.252 OA
BRANCH   4   6
ATOM      6  C   UNL A   1      33.241  25.395  23.613  1.00  0.00     0.151 C 
BRANCH   6   7
ATOM      7  C   UNL A   1      31.856  24.769  23.641  1.00  0.00     0.051 C 
ATOM      8  C   UNL A   1      31.443  24.569  25.132  1.00  0.00     0.029 C 
ATOM      9  C   UNL A   1      30.583  25.662  23.481  1.00  0.00     0.029 C 
ATOM     10  C   UNL A   1      30.204  25.438  24.942  1.00  0.00     0.005 C 
BRANCH   7  11
ATOM     11  N   UNL A   1      31.762  23.572  22.772  1.00  0.00    -0.349 N 
ATOM     12  C   UNL A   1      32.341  22.317  22.876  1.00  0.00     0.231 C 
ATOM     13  H   UNL A   1      31.186  23.689  21.982  1.00  0.00     0.164 HD
ATOM     14  O   UNL A   1      32.197  21.538  21.934  1.00  0.00    -0.274 OA
BRANCH  12  15
ATOM     15  C   UNL A   1      33.055  21.827  24.145  1.00  0.00     0.074 C 
ATOM     16  C   UNL A   1      32.089  21.484  25.304  1.00  0.00     0.023 C 
ATOM     17  C   UNL A   1      32.787  20.380  24.594  1.00  0.00     0.023 C 
BRANCH  15  18
ATOM     18  C   UNL A   1      34.478  22.348  24.454  1.00  0.00    -0.032 A 
ATOM     19  C   UNL A   1      34.858  22.688  25.759  1.00  0.00     0.005 A 
ATOM     20  C   UNL A   1      35.444  22.587  23.473  1.00  0.00     0.005 A 
ATOM     21  C   UNL A   1      36.014  23.398  26.082  1.00  0.00     0.000 A 
ATOM     22  C   UNL A   1      36.643  23.258  23.780  1.00  0.00     0.000 A 
ATOM     23  C   UNL A   1      36.906  23.704  25.076  1.00  0.00     0.000 A 
ENDBRANCH  15  18
ENDBRANCH  12  15
ENDBRANCH   7  11
ENDBRANCH   6   7
ENDBRANCH   4   6
ENDBRANCH   3   4
ENDBRANCH   2   3
ENDBRANCH   1   2
BRANCH   1  24
ATOM     24  O   UNL A   1      31.686  29.856  25.211  1.00  0.00    -0.374 OA
BRANCH  24  25
ATOM     25  C   UNL A   1      32.059  30.312  26.529  1.00  0.00     0.202 C 
BRANCH  25  26
ATOM     26  C   UNL A   1      32.068  31.801  26.907  1.00  0.00     0.261 C 
BRANCH  26  27
ATOM     27  O   UNL A   1      33.362  32.275  27.254  1.00  0.00    -0.460 OA
BRANCH  27  28
ATOM     28  C   UNL A   1      33.365  33.423  27.979  1.00  0.00     0.338 C 
ATOM     29  O   UNL A   1      32.502  34.272  28.031  1.00  0.00    -0.246 OA
BRANCH  28  30
ATOM     30  C   UNL A   1      34.467  33.295  28.957  1.00  0.00     0.060 A 
ATOM     31  C   UNL A   1      35.692  33.906  28.636  1.00  0.00     0.016 A 
ATOM     32  C   UNL A   1      34.252  32.720  30.211  1.00  0.00     0.016 A 
ATOM     33  C   UNL A   1      36.719  33.927  29.565  1.00  0.00     0.010 A 
ATOM     34  C   UNL A   1      35.297  32.685  31.122  1.00  0.00     0.010 A 
ATOM     35  C   UNL A   1      36.539  33.238  30.766  1.00  0.00    -0.014 A 
BRANCH  35  36
ATOM     36  C   UNL A   1      37.735  32.714  31.436  1.00  0.00     0.031 A 
ATOM     37  C   UNL A   1      38.440  31.592  30.729  1.00  0.00     0.074 A 
ATOM     38  C   UNL A   1      38.145  33.206  32.611  1.00  0.00     0.049 A 
ATOM     39  N   UNL A   1      39.429  30.844  31.128  1.00  0.00    -0.248 NA
ATOM     40  C   UNL A   1      37.941  31.254  29.380  1.00  0.00     0.031 C 
ATOM     41  C   UNL A   1      37.536  34.326  33.323  1.00  0.00     0.029 A 
ATOM     42  N   UNL A   1      39.168  32.798  33.419  1.00  0.00    -0.354 N 
ATOM     43  C   UNL A   1      39.655  29.947  30.092  1.00  0.00     0.074 A 
ATOM     44  C   UNL A   1      38.686  30.213  29.060  1.00  0.00     0.031 C 
ATOM     45  C   UNL A   1      38.184  34.499  34.488  1.00  0.00     0.029 A 
ATOM     46  C   UNL A   1      39.221  33.475  34.610  1.00  0.00     0.049 A 
ATOM     47  H   UNL A   1      39.805  32.089  33.172  1.00  0.00     0.167 HD
ATOM     48  C   UNL A   1      40.597  28.984  30.017  1.00  0.00     0.037 A 
ATOM     49  C   UNL A   1      40.003  33.247  35.679  1.00  0.00     0.037 A 
ATOM     50  C   UNL A   1      41.532  28.732  31.076  1.00  0.00     0.049 A 
ATOM     51  C   UNL A   1      40.998  32.117  35.603  1.00  0.00     0.074 A 
ATOM     52  C   UNL A   1      42.539  27.792  31.135  1.00  0.00     0.029 A 
ATOM     53  N   UNL A   1      41.555  29.434  32.275  1.00  0.00    -0.354 N 
ATOM     54  N   UNL A   1      41.229  31.276  34.621  1.00  0.00    -0.248 NA
ATOM     55  C   UNL A   1      41.845  31.904  36.784  1.00  0.00     0.031 C 
ATOM     56  C   UNL A   1      43.134  27.883  32.396  1.00  0.00     0.029 A 
ATOM     57  C   UNL A   1      42.546  28.929  33.094  1.00  0.00     0.049 A 
ATOM     58  H   UNL A   1      40.955  30.178  32.507  1.00  0.00     0.167 HD
ATOM     59  C   UNL A   1      42.266  30.457  35.048  1.00  0.00     0.074 A 
ATOM     60  C   UNL A   1      42.626  30.914  36.376  1.00  0.00     0.031 C 
ATOM     61  C   UNL A   1      42.873  29.426  34.409  1.00  0.00     0.037 A 
BRANCH  48  62
ATOM     62  C   UNL A   1      40.612  28.124  28.788  1.00  0.00     0.064 A 
ATOM     63  C   UNL A   1      39.895  26.918  28.715  1.00  0.00     0.173 A 
ATOM     64  C   UNL A   1      41.370  28.502  27.670  1.00  0.00     0.173 A 
ATOM     65  F   UNL A   1      39.182  26.490  29.768  1.00  0.00    -0.203 F 
ATOM     66  C   UNL A   1      39.958  26.114  27.581  1.00  0.00     0.198 A 
ATOM     67  C   UNL A   1      41.402  27.712  26.524  1.00  0.00     0.198 A 
ATOM     68  F   UNL A   1      42.088  29.635  27.692  1.00  0.00    -0.203 F 
ATOM     69  F   UNL A   1      39.316  24.937  27.558  1.00  0.00    -0.200 F 
ATOM     70  C   UNL A   1      40.704  26.516  26.483  1.00  0.00     0.200 A 
ATOM     71  F   UNL A   1      42.119  28.107  25.462  1.00  0.00    -0.200 F 
ATOM     72  F   UNL A   1      40.759  25.744  25.388  1.00  0.00    -0.200 F 
ENDBRANCH  48  62
BRANCH  49  73
ATOM     73  C   UNL A   1      39.868  34.091  36.894  1.00  0.00     0.064 A 
ATOM     74  C   UNL A   1      40.576  35.293  37.020  1.00  0.00     0.173 A 
ATOM     75  C   UNL A   1      39.025  33.718  37.953  1.00  0.00     0.173 A 
ATOM     76  F   UNL A   1      41.407  35.685  36.042  1.00  0.00    -0.203 F 
ATOM     77  C   UNL A   1      40.463  36.079  38.165  1.00  0.00     0.198 A 
ATOM     78  C   UNL A   1      38.890  34.520  39.084  1.00  0.00     0.198 A 
ATOM     79  F   UNL A   1      38.321  32.579  37.883  1.00  0.00    -0.203 F 
ATOM     80  F   UNL A   1      41.189  37.201  38.277  1.00  0.00    -0.200 F 
ATOM     81  C   UNL A   1      39.617  35.696  39.193  1.00  0.00     0.200 A 
ATOM     82  F   UNL A   1      38.059  34.153  40.069  1.00  0.00    -0.200 F 
ATOM     83  F   UNL A   1      39.505  36.456  40.291  1.00  0.00    -0.200 F 
ENDBRANCH  49  73
BRANCH  61  84
ATOM     84  C   UNL A   1      44.016  28.761  35.118  1.00  0.00     0.064 A 
ATOM     85  C   UNL A   1      43.818  27.680  35.988  1.00  0.00     0.173 A 
ATOM     86  C   UNL A   1      45.333  29.182  34.876  1.00  0.00     0.173 A 
ATOM     87  F   UNL A   1      42.577  27.247  36.257  1.00  0.00    -0.203 F 
ATOM     88  C   UNL A   1      44.896  27.066  36.616  1.00  0.00     0.198 A 
ATOM     89  C   UNL A   1      46.410  28.540  35.476  1.00  0.00     0.198 A 
ATOM     90  F   UNL A   1      45.574  30.203  34.040  1.00  0.00    -0.203 F 
ATOM     91  F   UNL A   1      44.682  26.070  37.488  1.00  0.00    -0.200 F 
ATOM     92  C   UNL A   1      46.191  27.489  36.353  1.00  0.00     0.200 A 
ATOM     93  F   UNL A   1      47.660  28.936  35.201  1.00  0.00    -0.200 F 
ATOM     94  F   UNL A   1      47.228  26.888  36.950  1.00  0.00    -0.200 F 
ENDBRANCH  61  84
ENDBRANCH  35  36
ENDBRANCH  28  30
ENDBRANCH  27  28
ENDBRANCH  26  27
ENDBRANCH  25  26
ENDBRANCH  24  25
ENDBRANCH   1  24
TORSDOF 18
ENDMDL
MODEL 3
REMARK VINA RESULT:     -11.2      1.703      7.647
REMARK SMILES O=C(CC1(NC(=O)C2(c3ccccc3)CC2)CCC1)OCCOCCOC(=O)c1ccc(-c2c3nc(c(-c4c(F)c(F)c(F)c(F)c4F)c4ccc([nH]4)c(-c4c(F)c(F)c(F)c(F)c4F)c4nc(c(-c5c(F)c(F)c(F)c(F)c5F)c5ccc2[nH]5)C=C4)C=C3)cc1
REMARK SMILES IDX 22 1 21 2 20 3 2 4 1 5 3 6 4 7 17 8 19 9 18 10 5 11 6 12
REMARK SMILES IDX 7 14 8 15 15 16 16 17 9 18 10 19 14 20 11 21 13 22 12 23
REMARK SMILES IDX 23 24 24 25 25 26 26 27 27 28 28 29 29 30 30 31 91 32 31 33
REMARK SMILES IDX 90 34 32 35 33 36 34 37 84 38 35 39 89 40 83 41 85 42 36 43
REMARK SMILES IDX 88 44 82 45 81 46 37 48 69 49 49 50 68 51 50 52 53 53 67 54
REMARK SMILES IDX 86 55 51 56 52 57 66 59 87 60 54 61 38 62 39 63 47 64 40 65
REMARK SMILES IDX 41 66 45 67 48 68 42 69 43 70 46 71 44 72 70 73 71 74 79 75
REMARK SMILES IDX 72 76 73 77 77 78 80 79 74 80 75 81 78 82 76 83 55 84 56 85
REMARK SMILES IDX 64 86 57 87 58 88 62 89 65 90 59 91 60 92 63 93 61 94
REMARK H PARENT 5 13 85 47 53 58
REMARK Flexibility Score: inf
ROOT
ATOM      1  C   UNL A   1      32.930  28.858  27.399  1.00  0.00     0.202 C 
ENDROOT
BRANCH   1   2
ATOM      2  C   UNL A   1      32.866  28.074  26.090  1.00  0.00     0.261 C 
BRANCH   2   3
ATOM      3  O   UNL A   1      33.130  26.675  26.302  1.00  0.00    -0.463 OA
BRANCH   3   4
ATOM      4  C   UNL A   1      33.788  25.906  25.406  1.00  0.00     0.308 C 
ATOM      5  O   UNL A   1      34.030  26.331  24.280  1.00  0.00    -0.252 OA
BRANCH   4   6
ATOM      6  C   UNL A   1      34.045  24.486  25.815  1.00  0.00     0.151 C 
BRANCH   6   7
ATOM      7  C   UNL A   1      34.996  23.688  24.939  1.00  0.00     0.051 C 
ATOM      8  C   UNL A   1      36.457  24.071  25.333  1.00  0.00     0.029 C 
ATOM      9  C   UNL A   1      35.359  22.212  25.307  1.00  0.00     0.029 C 
ATOM     10  C   UNL A   1      36.782  22.621  25.675  1.00  0.00     0.005 C 
BRANCH   7  11
ATOM     11  N   UNL A   1      34.659  23.795  23.500  1.00  0.00    -0.349 N 
ATOM     12  C   UNL A   1      33.624  23.249  22.758  1.00  0.00     0.231 C 
ATOM     13  H   UNL A   1      35.281  24.354  22.978  1.00  0.00     0.164 HD
ATOM     14  O   UNL A   1      33.653  23.395  21.536  1.00  0.00    -0.274 OA
BRANCH  12  15
ATOM     15  C   UNL A   1      32.403  22.571  23.398  1.00  0.00     0.074 C 
ATOM     16  C   UNL A   1      31.900  21.335  22.614  1.00  0.00     0.023 C 
ATOM     17  C   UNL A   1      32.583  21.135  23.920  1.00  0.00     0.023 C 
BRANCH  15  18
ATOM     18  C   UNL A   1      31.403  23.432  24.204  1.00  0.00    -0.032 A 
ATOM     19  C   UNL A   1      30.871  24.614  23.672  1.00  0.00     0.005 A 
ATOM     20  C   UNL A   1      31.023  23.150  25.519  1.00  0.00     0.005 A 
ATOM     21  C   UNL A   1      30.178  25.569  24.415  1.00  0.00     0.000 A 
ATOM     22  C   UNL A   1      30.282  24.075  26.277  1.00  0.00     0.000 A 
ATOM     23  C   UNL A   1      29.899  25.304  25.739  1.00  0.00     0.000 A 
ENDBRANCH  15  18
ENDBRANCH  12  15
ENDBRANCH   7  11
ENDBRANCH   6   7
ENDBRANCH   4   6
ENDBRANCH   3   4
ENDBRANCH   2   3
ENDBRANCH   1   2
BRANCH   1  24
ATOM     24  O   UNL A   1      33.262  30.238  27.342  1.00  0.00    -0.374 OA
BRANCH  24  25
ATOM     25  C   UNL A   1      32.254  31.091  26.761  1.00  0.00     0.202 C 
BRANCH  25  26
ATOM     26  C   UNL A   1      32.021  32.530  27.249  1.00  0.00     0.261 C 
BRANCH  26  27
ATOM     27  O   UNL A   1      33.206  33.317  27.233  1.00  0.00    -0.460 OA
BRANCH  27  28
ATOM     28  C   UNL A   1      33.304  34.205  28.255  1.00  0.00     0.338 C 
ATOM     29  O   UNL A   1      32.532  35.092  28.547  1.00  0.00    -0.246 OA
BRANCH  28  30
ATOM     30  C   UNL A   1      34.356  33.686  29.156  1.00  0.00     0.060 A 
ATOM     31  C   UNL A   1      35.671  34.135  28.941  1.00  0.00     0.016 A 
ATOM     32  C   UNL A   1      34.031  32.903  30.266  1.00  0.00     0.016 A 
ATOM     33  C   UNL A   1      36.675  33.784  29.827  1.00  0.00     0.010 A 
ATOM     34  C   UNL A   1      35.044  32.500  31.122  1.00  0.00     0.010 A 
ATOM     35  C   UNL A   1      36.366  32.896  30.860  1.00  0.00    -0.014 A 
BRANCH  35  36
ATOM     36  C   UNL A   1      37.447  32.046  31.375  1.00  0.00     0.031 A 
ATOM     37  C   UNL A   1      37.939  32.382  32.754  1.00  0.00     0.074 A 
ATOM     38  C   UNL A   1      37.960  31.052  30.640  1.00  0.00     0.049 A 
ATOM     39  N   UNL A   1      38.955  31.907  33.415  1.00  0.00    -0.248 NA
ATOM     40  C   UNL A   1      37.181  33.419  33.484  1.00  0.00     0.031 C 
ATOM     41  C   UNL A   1      37.493  30.644  29.318  1.00  0.00     0.029 A 
ATOM     42  N   UNL A   1      39.010  30.221  30.908  1.00  0.00    -0.354 N 
ATOM     43  C   UNL A   1      38.964  32.596  34.622  1.00  0.00     0.074 A 
ATOM     44  C   UNL A   1      37.879  33.543  34.596  1.00  0.00     0.031 C 
ATOM     45  C   UNL A   1      38.281  29.650  28.871  1.00  0.00     0.029 A 
ATOM     46  C   UNL A   1      39.322  29.390  29.863  1.00  0.00     0.049 A 
ATOM     47  H   UNL A   1      39.495  30.218  31.765  1.00  0.00     0.167 HD
ATOM     48  C   UNL A   1      39.812  32.442  35.660  1.00  0.00     0.037 A 
ATOM     49  C   UNL A   1      40.364  28.550  29.733  1.00  0.00     0.037 A 
ATOM     50  C   UNL A   1      40.896  31.503  35.642  1.00  0.00     0.049 A 
ATOM     51  C   UNL A   1      41.343  28.449  30.876  1.00  0.00     0.074 A 
ATOM     52  C   UNL A   1      41.830  31.241  36.622  1.00  0.00     0.029 A 
ATOM     53  N   UNL A   1      41.191  30.677  34.563  1.00  0.00    -0.354 N 
ATOM     54  N   UNL A   1      41.347  29.084  32.026  1.00  0.00    -0.248 NA
ATOM     55  C   UNL A   1      42.460  27.513  30.705  1.00  0.00     0.031 C 
ATOM     56  C   UNL A   1      42.729  30.298  36.113  1.00  0.00     0.029 A 
ATOM     57  C   UNL A   1      42.311  29.920  34.845  1.00  0.00     0.049 A 
ATOM     58  H   UNL A   1      40.678  30.638  33.724  1.00  0.00     0.167 HD
ATOM     59  C   UNL A   1      42.444  28.602  32.728  1.00  0.00     0.074 A 
ATOM     60  C   UNL A   1      43.072  27.612  31.876  1.00  0.00     0.031 C 
ATOM     61  C   UNL A   1      42.895  28.938  33.964  1.00  0.00     0.037 A 
BRANCH  48  62
ATOM     62  C   UNL A   1      39.620  33.336  36.849  1.00  0.00     0.064 A 
ATOM     63  C   UNL A   1      38.737  33.008  37.892  1.00  0.00     0.173 A 
ATOM     64  C   UNL A   1      40.317  34.549  36.942  1.00  0.00     0.173 A 
ATOM     65  F   UNL A   1      38.017  31.877  37.838  1.00  0.00    -0.203 F 
ATOM     66  C   UNL A   1      38.541  33.873  38.965  1.00  0.00     0.198 A 
ATOM     67  C   UNL A   1      40.146  35.395  38.034  1.00  0.00     0.198 A 
ATOM     68  F   UNL A   1      41.161  34.921  35.966  1.00  0.00    -0.203 F 
ATOM     69  F   UNL A   1      37.646  33.569  39.916  1.00  0.00    -0.200 F 
ATOM     70  C   UNL A   1      39.253  35.061  39.040  1.00  0.00     0.200 A 
ATOM     71  F   UNL A   1      40.839  36.540  38.107  1.00  0.00    -0.200 F 
ATOM     72  F   UNL A   1      39.069  35.890  40.077  1.00  0.00    -0.200 F 
ENDBRANCH  48  62
BRANCH  49  73
ATOM     73  C   UNL A   1      40.532  27.760  28.487  1.00  0.00     0.064 A 
ATOM     74  C   UNL A   1      39.961  26.486  28.357  1.00  0.00     0.173 A 
ATOM     75  C   UNL A   1      41.260  28.261  27.396  1.00  0.00     0.173 A 
ATOM     76  F   UNL A   1      39.270  25.957  29.378  1.00  0.00    -0.203 F 
ATOM     77  C   UNL A   1      40.130  25.736  27.195  1.00  0.00     0.198 A 
ATOM     78  C   UNL A   1      41.402  27.522  26.223  1.00  0.00     0.198 A 
ATOM     79  F   UNL A   1      41.824  29.475  27.465  1.00  0.00    -0.203 F 
ATOM     80  F   UNL A   1      39.612  24.502  27.118  1.00  0.00    -0.200 F 
ATOM     81  C   UNL A   1      40.844  26.256  26.127  1.00  0.00     0.200 A 
ATOM     82  F   UNL A   1      42.081  28.035  25.188  1.00  0.00    -0.200 F 
ATOM     83  F   UNL A   1      41.001  25.536  25.009  1.00  0.00    -0.200 F 
ENDBRANCH  49  73
BRANCH  61  84
ATOM     84  C   UNL A   1      44.091  28.193  34.480  1.00  0.00     0.064 A 
ATOM     85  C   UNL A   1      45.393  28.687  34.325  1.00  0.00     0.173 A 
ATOM     86  C   UNL A   1      43.918  26.993  35.188  1.00  0.00     0.173 A 
ATOM     87  F   UNL A   1      45.608  29.825  33.648  1.00  0.00    -0.203 F 
ATOM     88  C   UNL A   1      46.484  27.988  34.832  1.00  0.00     0.198 A 
ATOM     89  C   UNL A   1      45.008  26.319  35.727  1.00  0.00     0.198 A 
ATOM     90  F   UNL A   1      42.690  26.488  35.375  1.00  0.00    -0.203 F 
ATOM     91  F   UNL A   1      47.725  28.448  34.625  1.00  0.00    -0.200 F 
ATOM     92  C   UNL A   1      46.290  26.811  35.540  1.00  0.00     0.200 A 
ATOM     93  F   UNL A   1      44.816  25.195  36.430  1.00  0.00    -0.200 F 
ATOM     94  F   UNL A   1      47.342  26.147  36.037  1.00  0.00    -0.200 F 
ENDBRANCH  61  84
ENDBRANCH  35  36
ENDBRANCH  28  30
ENDBRANCH  27  28
ENDBRANCH  26  27
ENDBRANCH  25  26
ENDBRANCH  24  25
ENDBRANCH   1  24
TORSDOF 18
ENDMDL
