MODEL 1
REMARK VINA RESULT:     -10.8      0.000      0.000
REMARK SMILES C[C@@H](C(=O)OCCOCCOC(=O)c1ccc(-c2c3nc(c(-c4c(F)c(F)c(F)c(F)c4F)c4ccc([nH]4)c(-c4c(F)c(F)c(F)c(F)c4F)c4nc(c(-c5c(F)c(F)c(F)c(F)c5F)c5ccc2[nH]5)C=C4)C=C3)cc1)c1ccn(C(F)F)c(=O)c1
REMARK SMILES IDX 8 1 7 2 6 3 5 4 3 5 4 6 2 7 1 8 77 9 78 10 86 11 79 12 84 13
REMARK SMILES IDX 80 14 85 15 81 16 82 17 83 18 9 19 10 20 11 21 12 22 13 23
REMARK SMILES IDX 14 24 15 25 76 26 16 27 75 28 17 29 18 30 19 31 69 32 20 33
REMARK SMILES IDX 74 34 68 35 70 36 21 37 73 38 67 39 66 40 22 42 54 43 34 44
REMARK SMILES IDX 53 45 35 46 38 47 52 48 71 49 36 50 37 51 51 53 72 54 39 55
REMARK SMILES IDX 23 56 24 57 32 58 25 59 26 60 30 61 33 62 27 63 28 64 31 65
REMARK SMILES IDX 29 66 55 67 56 68 64 69 57 70 58 71 62 72 65 73 59 74 60 75
REMARK SMILES IDX 63 76 61 77 40 78 41 79 49 80 42 81 43 82 47 83 50 84 44 85
REMARK SMILES IDX 45 86 48 87 46 88
REMARK H PARENT 70 41 38 52
REMARK Flexibility Score: inf
ROOT
ATOM      1  O   UNL A   1      34.788  20.309  24.811  1.00  0.00    -0.374 OA
ENDROOT
BRANCH   1   2
ATOM      2  C   UNL A   1      33.712  21.106  24.321  1.00  0.00     0.202 C 
BRANCH   2   3
ATOM      3  C   UNL A   1      32.665  21.539  25.350  1.00  0.00     0.261 C 
BRANCH   3   4
ATOM      4  O   UNL A   1      32.918  22.871  25.827  1.00  0.00    -0.463 OA
BRANCH   4   5
ATOM      5  C   UNL A   1      32.606  23.874  24.962  1.00  0.00     0.313 C 
ATOM      6  O   UNL A   1      31.574  23.906  24.298  1.00  0.00    -0.252 OA
BRANCH   5   7
ATOM      7  C   UNL A   1      33.682  24.978  24.898  1.00  0.00     0.126 C 
ATOM      8  C   UNL A   1      35.027  24.529  25.494  1.00  0.00     0.025 C 
BRANCH   7   9
ATOM      9  C   UNL A   1      33.160  26.317  25.436  1.00  0.00    -0.027 A 
ATOM     10  C   UNL A   1      33.653  27.538  24.814  1.00  0.00     0.023 A 
ATOM     11  C   UNL A   1      32.322  26.452  26.484  1.00  0.00     0.076 A 
ATOM     12  C   UNL A   1      33.275  28.745  25.250  1.00  0.00     0.095 A 
ATOM     13  C   UNL A   1      31.921  27.793  27.013  1.00  0.00     0.255 A 
ATOM     14  N   UNL A   1      32.424  28.883  26.327  1.00  0.00    -0.258 N 
ATOM     15  O   UNL A   1      31.197  27.835  28.001  1.00  0.00    -0.269 OA
BRANCH  14  16
ATOM     16  C   UNL A   1      32.104  30.194  26.836  1.00  0.00     0.451 C 
ATOM     17  F   UNL A   1      33.172  30.773  27.434  1.00  0.00    -0.185 F 
ATOM     18  F   UNL A   1      31.693  31.007  25.831  1.00  0.00    -0.185 F 
ENDBRANCH  14  16
ENDBRANCH   7   9
ENDBRANCH   5   7
ENDBRANCH   4   5
ENDBRANCH   3   4
ENDBRANCH   2   3
ENDBRANCH   1   2
BRANCH   1  19
ATOM     19  C   UNL A   1      35.914  20.985  25.374  1.00  0.00     0.202 C 
BRANCH  19  20
ATOM     20  C   UNL A   1      37.300  20.412  25.045  1.00  0.00     0.261 C 
BRANCH  20  21
ATOM     21  O   UNL A   1      38.335  21.413  25.097  1.00  0.00    -0.460 OA
BRANCH  21  22
ATOM     22  C   UNL A   1      39.289  21.194  26.034  1.00  0.00     0.338 C 
ATOM     23  O   UNL A   1      39.891  20.150  26.251  1.00  0.00    -0.246 OA
BRANCH  22  24
ATOM     24  C   UNL A   1      39.672  22.457  26.690  1.00  0.00     0.060 A 
ATOM     25  C   UNL A   1      39.016  23.624  26.274  1.00  0.00     0.016 A 
ATOM     26  C   UNL A   1      40.718  22.523  27.611  1.00  0.00     0.016 A 
ATOM     27  C   UNL A   1      39.439  24.867  26.739  1.00  0.00     0.010 A 
ATOM     28  C   UNL A   1      41.149  23.775  28.069  1.00  0.00     0.010 A 
ATOM     29  C   UNL A   1      40.535  24.953  27.606  1.00  0.00    -0.014 A 
BRANCH  29  30
ATOM     30  C   UNL A   1      41.127  26.282  27.900  1.00  0.00     0.031 A 
ATOM     31  C   UNL A   1      42.550  26.553  27.500  1.00  0.00     0.074 A 
ATOM     32  C   UNL A   1      40.393  27.252  28.475  1.00  0.00     0.049 A 
ATOM     33  N   UNL A   1      43.272  27.633  27.666  1.00  0.00    -0.248 NA
ATOM     34  C   UNL A   1      43.257  25.458  26.817  1.00  0.00     0.031 C 
ATOM     35  C   UNL A   1      38.993  27.128  28.871  1.00  0.00     0.029 A 
ATOM     36  N   UNL A   1      40.732  28.535  28.827  1.00  0.00    -0.354 N 
ATOM     37  C   UNL A   1      44.512  27.348  27.111  1.00  0.00     0.074 A 
ATOM     38  C   UNL A   1      44.459  25.984  26.631  1.00  0.00     0.031 C 
ATOM     39  C   UNL A   1      38.594  28.285  29.426  1.00  0.00     0.029 A 
ATOM     40  C   UNL A   1      39.717  29.221  29.446  1.00  0.00     0.049 A 
ATOM     41  H   UNL A   1      41.620  28.925  28.653  1.00  0.00     0.167 HD
ATOM     42  C   UNL A   1      45.595  28.155  27.002  1.00  0.00     0.037 A 
ATOM     43  C   UNL A   1      39.705  30.456  29.983  1.00  0.00     0.037 A 
ATOM     44  C   UNL A   1      45.650  29.511  27.480  1.00  0.00     0.049 A 
ATOM     45  C   UNL A   1      40.944  31.310  29.911  1.00  0.00     0.074 A 
ATOM     46  C   UNL A   1      46.699  30.411  27.406  1.00  0.00     0.029 A 
ATOM     47  N   UNL A   1      44.612  30.160  28.131  1.00  0.00    -0.354 N 
ATOM     48  N   UNL A   1      42.104  31.040  29.365  1.00  0.00    -0.248 NA
ATOM     49  C   UNL A   1      40.867  32.644  30.526  1.00  0.00     0.031 C 
ATOM     50  C   UNL A   1      46.310  31.590  28.051  1.00  0.00     0.029 A 
ATOM     51  C   UNL A   1      45.003  31.442  28.484  1.00  0.00     0.049 A 
ATOM     52  H   UNL A   1      43.728  29.768  28.314  1.00  0.00     0.167 HD
ATOM     53  C   UNL A   1      42.886  32.174  29.549  1.00  0.00     0.074 A 
ATOM     54  C   UNL A   1      42.063  33.141  30.244  1.00  0.00     0.031 C 
ATOM     55  C   UNL A   1      44.170  32.394  29.173  1.00  0.00     0.037 A 
BRANCH  42  56
ATOM     56  C   UNL A   1      46.820  27.580  26.354  1.00  0.00     0.064 A 
ATOM     57  C   UNL A   1      47.825  26.955  27.108  1.00  0.00     0.173 A 
ATOM     58  C   UNL A   1      46.977  27.627  24.962  1.00  0.00     0.173 A 
ATOM     59  F   UNL A   1      47.729  26.896  28.444  1.00  0.00    -0.203 F 
ATOM     60  C   UNL A   1      48.954  26.420  26.491  1.00  0.00     0.198 A 
ATOM     61  C   UNL A   1      48.093  27.068  24.346  1.00  0.00     0.198 A 
ATOM     62  F   UNL A   1      46.043  28.211  24.195  1.00  0.00    -0.203 F 
ATOM     63  F   UNL A   1      49.922  25.866  27.235  1.00  0.00    -0.200 F 
ATOM     64  C   UNL A   1      49.084  26.471  25.111  1.00  0.00     0.200 A 
ATOM     65  F   UNL A   1      48.213  27.110  23.012  1.00  0.00    -0.200 F 
ATOM     66  F   UNL A   1      50.169  25.952  24.519  1.00  0.00    -0.200 F 
ENDBRANCH  42  56
BRANCH  43  67
ATOM     67  C   UNL A   1      38.476  30.957  30.654  1.00  0.00     0.064 A 
ATOM     68  C   UNL A   1      38.326  30.881  32.045  1.00  0.00     0.173 A 
ATOM     69  C   UNL A   1      37.421  31.507  29.911  1.00  0.00     0.173 A 
ATOM     70  F   UNL A   1      39.296  30.337  32.794  1.00  0.00    -0.203 F 
ATOM     71  C   UNL A   1      37.162  31.325  32.667  1.00  0.00     0.198 A 
ATOM     72  C   UNL A   1      36.268  31.975  30.537  1.00  0.00     0.198 A 
ATOM     73  F   UNL A   1      37.514  31.599  28.577  1.00  0.00    -0.203 F 
ATOM     74  F   UNL A   1      37.025  31.203  33.995  1.00  0.00    -0.200 F 
ATOM     75  C   UNL A   1      36.136  31.878  31.913  1.00  0.00     0.200 A 
ATOM     76  F   UNL A   1      35.285  32.518  29.806  1.00  0.00    -0.200 F 
ATOM     77  F   UNL A   1      35.018  32.308  32.514  1.00  0.00    -0.200 F 
ENDBRANCH  43  67
BRANCH  55  78
ATOM     78  C   UNL A   1      44.758  33.742  29.478  1.00  0.00     0.064 A 
ATOM     79  C   UNL A   1      45.465  33.984  30.664  1.00  0.00     0.173 A 
ATOM     80  C   UNL A   1      44.648  34.791  28.552  1.00  0.00     0.173 A 
ATOM     81  F   UNL A   1      45.586  33.018  31.587  1.00  0.00    -0.203 F 
ATOM     82  C   UNL A   1      46.023  35.233  30.921  1.00  0.00     0.198 A 
ATOM     83  C   UNL A   1      45.229  36.031  28.801  1.00  0.00     0.198 A 
ATOM     84  F   UNL A   1      43.985  34.608  27.400  1.00  0.00    -0.203 F 
ATOM     85  F   UNL A   1      46.659  35.455  32.080  1.00  0.00    -0.200 F 
ATOM     86  C   UNL A   1      45.911  36.253  29.988  1.00  0.00     0.200 A 
ATOM     87  F   UNL A   1      45.131  37.010  27.892  1.00  0.00    -0.200 F 
ATOM     88  F   UNL A   1      46.454  37.453  30.235  1.00  0.00    -0.200 F 
ENDBRANCH  55  78
ENDBRANCH  29  30
ENDBRANCH  22  24
ENDBRANCH  21  22
ENDBRANCH  20  21
ENDBRANCH  19  20
ENDBRANCH   1  19
TORSDOF 16
ENDMDL
MODEL 2
REMARK VINA RESULT:     -10.8      3.787      6.850
REMARK SMILES C[C@@H](C(=O)OCCOCCOC(=O)c1ccc(-c2c3nc(c(-c4c(F)c(F)c(F)c(F)c4F)c4ccc([nH]4)c(-c4c(F)c(F)c(F)c(F)c4F)c4nc(c(-c5c(F)c(F)c(F)c(F)c5F)c5ccc2[nH]5)C=C4)C=C3)cc1)c1ccn(C(F)F)c(=O)c1
REMARK SMILES IDX 8 1 7 2 6 3 5 4 3 5 4 6 2 7 1 8 77 9 78 10 86 11 79 12 84 13
REMARK SMILES IDX 80 14 85 15 81 16 82 17 83 18 9 19 10 20 11 21 12 22 13 23
REMARK SMILES IDX 14 24 15 25 76 26 16 27 75 28 17 29 18 30 19 31 69 32 20 33
REMARK SMILES IDX 74 34 68 35 70 36 21 37 73 38 67 39 66 40 22 42 54 43 34 44
REMARK SMILES IDX 53 45 35 46 38 47 52 48 71 49 36 50 37 51 51 53 72 54 39 55
REMARK SMILES IDX 23 56 24 57 32 58 25 59 26 60 30 61 33 62 27 63 28 64 31 65
REMARK SMILES IDX 29 66 55 67 56 68 64 69 57 70 58 71 62 72 65 73 59 74 60 75
REMARK SMILES IDX 63 76 61 77 40 78 41 79 49 80 42 81 43 82 47 83 50 84 44 85
REMARK SMILES IDX 45 86 48 87 46 88
REMARK H PARENT 70 41 38 52
REMARK Flexibility Score: inf
ROOT
ATOM      1  O   UNL A   1      40.920  20.111  27.771  1.00  0.00    -0.374 OA
ENDROOT
BRANCH   1   2
ATOM      2  C   UNL A   1      42.086  19.377  27.402  1.00  0.00     0.202 C 
BRANCH   2   3
ATOM      3  C   UNL A   1      42.054  18.696  26.032  1.00  0.00     0.261 C 
BRANCH   3   4
ATOM      4  O   UNL A   1      42.865  19.402  25.077  1.00  0.00    -0.463 OA
BRANCH   4   5
ATOM      5  C   UNL A   1      44.189  19.089  25.086  1.00  0.00     0.313 C 
ATOM      6  O   UNL A   1      44.638  18.032  25.518  1.00  0.00    -0.252 OA
BRANCH   5   7
ATOM      7  C   UNL A   1      45.079  20.201  24.492  1.00  0.00     0.126 C 
ATOM      8  C   UNL A   1      46.577  19.861  24.562  1.00  0.00     0.025 C 
BRANCH   7   9
ATOM      9  C   UNL A   1      44.712  21.584  25.048  1.00  0.00    -0.027 A 
ATOM     10  C   UNL A   1      44.578  22.682  24.101  1.00  0.00     0.023 A 
ATOM     11  C   UNL A   1      44.563  21.874  26.356  1.00  0.00     0.076 A 
ATOM     12  C   UNL A   1      44.297  23.925  24.509  1.00  0.00     0.095 A 
ATOM     13  C   UNL A   1      44.291  23.265  26.835  1.00  0.00     0.255 A 
ATOM     14  N   UNL A   1      44.152  24.224  25.848  1.00  0.00    -0.258 N 
ATOM     15  O   UNL A   1      44.219  23.459  28.044  1.00  0.00    -0.269 OA
BRANCH  14  16
ATOM     16  C   UNL A   1      43.941  25.586  26.270  1.00  0.00     0.451 C 
ATOM     17  F   UNL A   1      45.083  26.151  26.730  1.00  0.00    -0.185 F 
ATOM     18  F   UNL A   1      43.487  26.339  25.238  1.00  0.00    -0.185 F 
ENDBRANCH  14  16
ENDBRANCH   7   9
ENDBRANCH   5   7
ENDBRANCH   4   5
ENDBRANCH   3   4
ENDBRANCH   2   3
ENDBRANCH   1   2
BRANCH   1  19
ATOM     19  C   UNL A   1      40.961  21.533  27.641  1.00  0.00     0.202 C 
BRANCH  19  20
ATOM     20  C   UNL A   1      40.354  22.128  26.362  1.00  0.00     0.261 C 
BRANCH  20  21
ATOM     21  O   UNL A   1      38.942  22.386  26.492  1.00  0.00    -0.460 OA
BRANCH  21  22
ATOM     22  C   UNL A   1      38.554  23.625  26.104  1.00  0.00     0.338 C 
ATOM     23  O   UNL A   1      37.642  23.912  25.340  1.00  0.00    -0.246 OA
BRANCH  22  24
ATOM     24  C   UNL A   1      39.272  24.657  26.873  1.00  0.00     0.060 A 
ATOM     25  C   UNL A   1      39.008  24.738  28.247  1.00  0.00     0.016 A 
ATOM     26  C   UNL A   1      40.102  25.593  26.255  1.00  0.00     0.016 A 
ATOM     27  C   UNL A   1      39.532  25.787  28.999  1.00  0.00     0.010 A 
ATOM     28  C   UNL A   1      40.620  26.654  27.010  1.00  0.00     0.010 A 
ATOM     29  C   UNL A   1      40.307  26.774  28.377  1.00  0.00    -0.014 A 
BRANCH  29  30
ATOM     30  C   UNL A   1      40.653  28.006  29.128  1.00  0.00     0.031 A 
ATOM     31  C   UNL A   1      42.042  28.159  29.682  1.00  0.00     0.074 A 
ATOM     32  C   UNL A   1      39.757  28.998  29.277  1.00  0.00     0.049 A 
ATOM     33  N   UNL A   1      42.559  29.141  30.377  1.00  0.00    -0.248 NA
ATOM     34  C   UNL A   1      42.977  27.054  29.416  1.00  0.00     0.031 C 
ATOM     35  C   UNL A   1      38.394  28.989  28.752  1.00  0.00     0.029 A 
ATOM     36  N   UNL A   1      39.863  30.206  29.920  1.00  0.00    -0.354 N 
ATOM     37  C   UNL A   1      43.874  28.774  30.630  1.00  0.00     0.074 A 
ATOM     38  C   UNL A   1      44.069  27.466  30.043  1.00  0.00     0.031 C 
ATOM     39  C   UNL A   1      37.784  30.134  29.105  1.00  0.00     0.029 A 
ATOM     40  C   UNL A   1      38.705  30.943  29.902  1.00  0.00     0.049 A 
ATOM     41  H   UNL A   1      40.692  30.515  30.354  1.00  0.00     0.167 HD
ATOM     42  C   UNL A   1      44.836  29.470  31.283  1.00  0.00     0.037 A 
ATOM     43  C   UNL A   1      38.418  32.125  30.480  1.00  0.00     0.037 A 
ATOM     44  C   UNL A   1      44.642  30.770  31.869  1.00  0.00     0.049 A 
ATOM     45  C   UNL A   1      39.484  32.849  31.260  1.00  0.00     0.074 A 
ATOM     46  C   UNL A   1      45.559  31.559  32.541  1.00  0.00     0.029 A 
ATOM     47  N   UNL A   1      43.445  31.469  31.857  1.00  0.00    -0.354 N 
ATOM     48  N   UNL A   1      40.730  32.504  31.475  1.00  0.00    -0.248 NA
ATOM     49  C   UNL A   1      39.103  34.129  31.875  1.00  0.00     0.031 C 
ATOM     50  C   UNL A   1      44.904  32.717  32.976  1.00  0.00     0.029 A 
ATOM     51  C   UNL A   1      43.593  32.671  32.532  1.00  0.00     0.049 A 
ATOM     52  H   UNL A   1      42.613  31.158  31.432  1.00  0.00     0.167 HD
ATOM     53  C   UNL A   1      41.288  33.532  32.226  1.00  0.00     0.074 A 
ATOM     54  C   UNL A   1      40.247  34.520  32.418  1.00  0.00     0.031 C 
ATOM     55  C   UNL A   1      42.548  33.647  32.711  1.00  0.00     0.037 A 
BRANCH  42  56
ATOM     56  C   UNL A   1      46.183  28.824  31.416  1.00  0.00     0.064 A 
ATOM     57  C   UNL A   1      47.181  29.001  30.446  1.00  0.00     0.173 A 
ATOM     58  C   UNL A   1      46.491  28.047  32.541  1.00  0.00     0.173 A 
ATOM     59  F   UNL A   1      46.933  29.725  29.345  1.00  0.00    -0.203 F 
ATOM     60  C   UNL A   1      48.431  28.401  30.588  1.00  0.00     0.198 A 
ATOM     61  C   UNL A   1      47.749  27.470  32.693  1.00  0.00     0.198 A 
ATOM     62  F   UNL A   1      45.572  27.850  33.499  1.00  0.00    -0.203 F 
ATOM     63  F   UNL A   1      49.355  28.547  29.628  1.00  0.00    -0.200 F 
ATOM     64  C   UNL A   1      48.716  27.641  31.713  1.00  0.00     0.200 A 
ATOM     65  F   UNL A   1      48.025  26.745  33.786  1.00  0.00    -0.200 F 
ATOM     66  F   UNL A   1      49.919  27.069  31.850  1.00  0.00    -0.200 F 
ENDBRANCH  42  56
BRANCH  43  67
ATOM     67  C   UNL A   1      37.051  32.695  30.353  1.00  0.00     0.064 A 
ATOM     68  C   UNL A   1      36.692  33.480  29.250  1.00  0.00     0.173 A 
ATOM     69  C   UNL A   1      36.082  32.478  31.344  1.00  0.00     0.173 A 
ATOM     70  F   UNL A   1      37.592  33.738  28.290  1.00  0.00    -0.203 F 
ATOM     71  C   UNL A   1      35.419  34.037  29.148  1.00  0.00     0.198 A 
ATOM     72  C   UNL A   1      34.802  33.014  31.229  1.00  0.00     0.198 A 
ATOM     73  F   UNL A   1      36.378  31.737  32.422  1.00  0.00    -0.203 F 
ATOM     74  F   UNL A   1      35.113  34.819  28.103  1.00  0.00    -0.200 F 
ATOM     75  C   UNL A   1      34.473  33.799  30.135  1.00  0.00     0.200 A 
ATOM     76  F   UNL A   1      33.889  32.772  32.179  1.00  0.00    -0.200 F 
ATOM     77  F   UNL A   1      33.248  34.332  30.034  1.00  0.00    -0.200 F 
ENDBRANCH  43  67
BRANCH  55  78
ATOM     78  C   UNL A   1      42.885  34.897  33.471  1.00  0.00     0.064 A 
ATOM     79  C   UNL A   1      42.820  34.947  34.871  1.00  0.00     0.173 A 
ATOM     80  C   UNL A   1      43.319  36.046  32.792  1.00  0.00     0.173 A 
ATOM     81  F   UNL A   1      42.397  33.879  35.565  1.00  0.00    -0.203 F 
ATOM     82  C   UNL A   1      43.157  36.107  35.562  1.00  0.00     0.198 A 
ATOM     83  C   UNL A   1      43.680  37.196  33.488  1.00  0.00     0.198 A 
ATOM     84  F   UNL A   1      43.404  36.048  31.453  1.00  0.00    -0.203 F 
ATOM     85  F   UNL A   1      43.047  36.145  36.897  1.00  0.00    -0.200 F 
ATOM     86  C   UNL A   1      43.593  37.228  34.871  1.00  0.00     0.200 A 
ATOM     87  F   UNL A   1      44.114  38.274  32.819  1.00  0.00    -0.200 F 
ATOM     88  F   UNL A   1      43.923  38.342  35.538  1.00  0.00    -0.200 F 
ENDBRANCH  55  78
ENDBRANCH  29  30
ENDBRANCH  22  24
ENDBRANCH  21  22
ENDBRANCH  20  21
ENDBRANCH  19  20
ENDBRANCH   1  19
TORSDOF 16
ENDMDL
MODEL 3
REMARK VINA RESULT:     -10.7      3.393      8.517
REMARK SMILES C[C@@H](C(=O)OCCOCCOC(=O)c1ccc(-c2c3nc(c(-c4c(F)c(F)c(F)c(F)c4F)c4ccc([nH]4)c(-c4c(F)c(F)c(F)c(F)c4F)c4nc(c(-c5c(F)c(F)c(F)c(F)c5F)c5ccc2[nH]5)C=C4)C=C3)cc1)c1ccn(C(F)F)c(=O)c1
REMARK SMILES IDX 8 1 7 2 6 3 5 4 3 5 4 6 2 7 1 8 77 9 78 10 86 11 79 12 84 13
REMARK SMILES IDX 80 14 85 15 81 16 82 17 83 18 9 19 10 20 11 21 12 22 13 23
REMARK SMILES IDX 14 24 15 25 76 26 16 27 75 28 17 29 18 30 19 31 69 32 20 33
REMARK SMILES IDX 74 34 68 35 70 36 21 37 73 38 67 39 66 40 22 42 54 43 34 44
REMARK SMILES IDX 53 45 35 46 38 47 52 48 71 49 36 50 37 51 51 53 72 54 39 55
REMARK SMILES IDX 23 56 24 57 32 58 25 59 26 60 30 61 33 62 27 63 28 64 31 65
REMARK SMILES IDX 29 66 55 67 56 68 64 69 57 70 58 71 62 72 65 73 59 74 60 75
REMARK SMILES IDX 63 76 61 77 40 78 41 79 49 80 42 81 43 82 47 83 50 84 44 85
REMARK SMILES IDX 45 86 48 87 46 88
REMARK H PARENT 70 41 38 52
REMARK Flexibility Score: inf
ROOT
ATOM      1  O   UNL A   1      38.001  22.644  25.087  1.00  0.00    -0.374 OA
ENDROOT
BRANCH   1   2
ATOM      2  C   UNL A   1      36.583  22.499  25.035  1.00  0.00     0.202 C 
BRANCH   2   3
ATOM      3  C   UNL A   1      35.918  22.811  23.693  1.00  0.00     0.261 C 
BRANCH   3   4
ATOM      4  O   UNL A   1      34.636  23.437  23.876  1.00  0.00    -0.463 OA
BRANCH   4   5
ATOM      5  C   UNL A   1      33.648  23.005  23.046  1.00  0.00     0.313 C 
ATOM      6  O   UNL A   1      33.639  23.203  21.835  1.00  0.00    -0.252 OA
BRANCH   5   7
ATOM      7  C   UNL A   1      32.532  22.233  23.781  1.00  0.00     0.126 C 
ATOM      8  C   UNL A   1      32.213  22.827  25.163  1.00  0.00     0.025 C 
BRANCH   7   9
ATOM      9  C   UNL A   1      32.788  20.720  23.779  1.00  0.00    -0.027 A 
ATOM     10  C   UNL A   1      33.704  20.185  24.777  1.00  0.00     0.023 A 
ATOM     11  C   UNL A   1      32.275  19.853  22.883  1.00  0.00     0.076 A 
ATOM     12  C   UNL A   1      34.009  18.883  24.818  1.00  0.00     0.095 A 
ATOM     13  C   UNL A   1      32.637  18.401  22.886  1.00  0.00     0.255 A 
ATOM     14  N   UNL A   1      33.490  17.997  23.897  1.00  0.00    -0.258 N 
ATOM     15  O   UNL A   1      32.169  17.684  22.008  1.00  0.00    -0.269 OA
BRANCH  14  16
ATOM     16  C   UNL A   1      33.904  16.616  23.904  1.00  0.00     0.451 C 
ATOM     17  F   UNL A   1      32.873  15.786  24.199  1.00  0.00    -0.185 F 
ATOM     18  F   UNL A   1      34.395  16.259  22.692  1.00  0.00    -0.185 F 
ENDBRANCH  14  16
ENDBRANCH   7   9
ENDBRANCH   5   7
ENDBRANCH   4   5
ENDBRANCH   3   4
ENDBRANCH   2   3
ENDBRANCH   1   2
BRANCH   1  19
ATOM     19  C   UNL A   1      38.718  21.844  26.029  1.00  0.00     0.202 C 
BRANCH  19  20
ATOM     20  C   UNL A   1      39.384  20.571  25.490  1.00  0.00     0.261 C 
BRANCH  20  21
ATOM     21  O   UNL A   1      40.151  19.882  26.497  1.00  0.00    -0.460 OA
BRANCH  21  22
ATOM     22  C   UNL A   1      41.457  19.698  26.188  1.00  0.00     0.338 C 
ATOM     23  O   UNL A   1      41.949  18.765  25.568  1.00  0.00    -0.246 OA
BRANCH  22  24
ATOM     24  C   UNL A   1      42.247  20.890  26.547  1.00  0.00     0.060 A 
ATOM     25  C   UNL A   1      42.254  21.277  27.893  1.00  0.00     0.016 A 
ATOM     26  C   UNL A   1      42.878  21.674  25.580  1.00  0.00     0.016 A 
ATOM     27  C   UNL A   1      42.850  22.479  28.272  1.00  0.00     0.010 A 
ATOM     28  C   UNL A   1      43.468  22.888  25.961  1.00  0.00     0.010 A 
ATOM     29  C   UNL A   1      43.423  23.311  27.303  1.00  0.00    -0.014 A 
BRANCH  29  30
ATOM     30  C   UNL A   1      43.832  24.687  27.677  1.00  0.00     0.031 A 
ATOM     31  C   UNL A   1      42.772  25.703  28.000  1.00  0.00     0.074 A 
ATOM     32  C   UNL A   1      45.132  25.019  27.771  1.00  0.00     0.049 A 
ATOM     33  N   UNL A   1      42.899  26.961  28.339  1.00  0.00    -0.248 NA
ATOM     34  C   UNL A   1      41.378  25.236  27.935  1.00  0.00     0.031 C 
ATOM     35  C   UNL A   1      46.253  24.116  27.523  1.00  0.00     0.029 A 
ATOM     36  N   UNL A   1      45.726  26.212  28.099  1.00  0.00    -0.354 N 
ATOM     37  C   UNL A   1      41.608  27.435  28.527  1.00  0.00     0.074 A 
ATOM     38  C   UNL A   1      40.709  26.340  28.234  1.00  0.00     0.031 C 
ATOM     39  C   UNL A   1      47.403  24.791  27.696  1.00  0.00     0.029 A 
ATOM     40  C   UNL A   1      47.097  26.179  28.040  1.00  0.00     0.049 A 
ATOM     41  H   UNL A   1      45.217  27.017  28.351  1.00  0.00     0.167 HD
ATOM     42  C   UNL A   1      41.207  28.668  28.919  1.00  0.00     0.037 A 
ATOM     43  C   UNL A   1      47.999  27.161  28.224  1.00  0.00     0.037 A 
ATOM     44  C   UNL A   1      42.101  29.759  29.209  1.00  0.00     0.049 A 
ATOM     45  C   UNL A   1      47.527  28.544  28.592  1.00  0.00     0.074 A 
ATOM     46  C   UNL A   1      41.791  31.043  29.624  1.00  0.00     0.029 A 
ATOM     47  N   UNL A   1      43.482  29.694  29.106  1.00  0.00    -0.354 N 
ATOM     48  N   UNL A   1      46.305  28.976  28.789  1.00  0.00    -0.248 NA
ATOM     49  C   UNL A   1      48.562  29.574  28.769  1.00  0.00     0.031 C 
ATOM     50  C   UNL A   1      42.982  31.768  29.729  1.00  0.00     0.029 A 
ATOM     51  C   UNL A   1      44.038  30.923  29.427  1.00  0.00     0.049 A 
ATOM     52  H   UNL A   1      43.992  28.894  28.845  1.00  0.00     0.167 HD
ATOM     53  C   UNL A   1      46.424  30.317  29.135  1.00  0.00     0.074 A 
ATOM     54  C   UNL A   1      47.839  30.623  29.135  1.00  0.00     0.031 C 
ATOM     55  C   UNL A   1      45.449  31.212  29.427  1.00  0.00     0.037 A 
BRANCH  42  56
ATOM     56  C   UNL A   1      39.731  28.909  29.037  1.00  0.00     0.064 A 
ATOM     57  C   UNL A   1      39.056  28.749  30.256  1.00  0.00     0.173 A 
ATOM     58  C   UNL A   1      38.990  29.336  27.926  1.00  0.00     0.173 A 
ATOM     59  F   UNL A   1      39.717  28.331  31.345  1.00  0.00    -0.203 F 
ATOM     60  C   UNL A   1      37.686  28.983  30.351  1.00  0.00     0.198 A 
ATOM     61  C   UNL A   1      37.626  29.595  28.030  1.00  0.00     0.198 A 
ATOM     62  F   UNL A   1      39.589  29.507  26.738  1.00  0.00    -0.203 F 
ATOM     63  F   UNL A   1      37.053  28.782  31.515  1.00  0.00    -0.200 F 
ATOM     64  C   UNL A   1      36.973  29.412  29.240  1.00  0.00     0.200 A 
ATOM     65  F   UNL A   1      36.942  30.018  26.959  1.00  0.00    -0.200 F 
ATOM     66  F   UNL A   1      35.657  29.642  29.335  1.00  0.00    -0.200 F 
ENDBRANCH  42  56
BRANCH  43  67
ATOM     67  C   UNL A   1      49.448  26.877  28.049  1.00  0.00     0.064 A 
ATOM     68  C   UNL A   1      50.250  26.503  29.135  1.00  0.00     0.173 A 
ATOM     69  C   UNL A   1      50.060  26.989  26.792  1.00  0.00     0.173 A 
ATOM     70  F   UNL A   1      49.716  26.408  30.361  1.00  0.00    -0.203 F 
ATOM     71  C   UNL A   1      51.613  26.264  28.973  1.00  0.00     0.198 A 
ATOM     72  C   UNL A   1      51.417  26.725  26.626  1.00  0.00     0.198 A 
ATOM     73  F   UNL A   1      49.336  27.348  25.722  1.00  0.00    -0.203 F 
ATOM     74  F   UNL A   1      52.367  25.948  30.035  1.00  0.00    -0.200 F 
ATOM     75  C   UNL A   1      52.194  26.369  27.717  1.00  0.00     0.200 A 
ATOM     76  F   UNL A   1      51.972  26.816  25.410  1.00  0.00    -0.200 F 
ATOM     77  F   UNL A   1      53.505  26.136  27.562  1.00  0.00    -0.200 F 
ENDBRANCH  43  67
BRANCH  55  78
ATOM     78  C   UNL A   1      45.876  32.602  29.801  1.00  0.00     0.064 A 
ATOM     79  C   UNL A   1      46.171  32.949  31.127  1.00  0.00     0.173 A 
ATOM     80  C   UNL A   1      46.035  33.586  28.813  1.00  0.00     0.173 A 
ATOM     81  F   UNL A   1      46.022  32.047  32.110  1.00  0.00    -0.203 F 
ATOM     82  C   UNL A   1      46.588  34.236  31.454  1.00  0.00     0.198 A 
ATOM     83  C   UNL A   1      46.476  34.865  29.140  1.00  0.00     0.198 A 
ATOM     84  F   UNL A   1      45.771  33.302  27.528  1.00  0.00    -0.203 F 
ATOM     85  F   UNL A   1      46.822  34.558  32.733  1.00  0.00    -0.200 F 
ATOM     86  C   UNL A   1      46.746  35.191  30.460  1.00  0.00     0.200 A 
ATOM     87  F   UNL A   1      46.642  35.781  28.176  1.00  0.00    -0.200 F 
ATOM     88  F   UNL A   1      47.153  36.428  30.775  1.00  0.00    -0.200 F 
ENDBRANCH  55  78
ENDBRANCH  29  30
ENDBRANCH  22  24
ENDBRANCH  21  22
ENDBRANCH  20  21
ENDBRANCH  19  20
ENDBRANCH   1  19
TORSDOF 16
ENDMDL
