MODEL 1
REMARK VINA RESULT:     -11.1      0.000      0.000
REMARK SMILES Cc1cc(/C=C2\C(=O)N(Cc3ccco3)C(=O)N=C2OCCOCCOC(=O)c2ccc(-c3c4nc(c(-c5c(F)c(F)c(F)c(F)c5F)c5ccc([nH]5)c(-c5c(F)c(F)c(F)c(F)c5F)c5nc(c(-c6c(F)c(F)c(F)c(F)c6F)c6ccc3[nH]6)C=C5)C=C4)cc2)c(C)n1-c1ccc(Cl)c(C(=O)[O-])c1
REMARK SMILES IDX 23 1 22 2 21 3 20 4 19 5 5 6 6 7 7 8 8 9 9 10 18 11 16 12
REMARK SMILES IDX 17 13 4 14 1 15 2 16 3 17 94 18 92 19 93 20 95 21 96 22
REMARK SMILES IDX 104 23 97 24 100 25 98 26 99 27 101 28 102 29 103 30 10 31
REMARK SMILES IDX 11 32 12 33 15 34 13 35 14 36 24 37 25 38 26 39 27 40 28 41
REMARK SMILES IDX 29 42 30 43 91 44 31 45 90 46 32 47 33 48 34 49 84 50 35 51
REMARK SMILES IDX 89 52 83 53 85 54 36 55 88 56 82 57 81 58 37 60 69 61 49 62
REMARK SMILES IDX 68 63 50 64 53 65 67 66 86 67 51 68 52 69 66 71 87 72 54 73
REMARK SMILES IDX 38 74 39 75 47 76 40 77 41 78 45 79 48 80 42 81 43 82 46 83
REMARK SMILES IDX 44 84 70 85 71 86 79 87 72 88 73 89 77 90 80 91 74 92 75 93
REMARK SMILES IDX 78 94 76 95 55 96 56 97 64 98 57 99 58 100 62 101 65 102
REMARK SMILES IDX 59 103 60 104 63 105 61 106
REMARK H PARENT 85 59 53 70
REMARK Flexibility Score: inf
ROOT
ATOM      1  O   UNL A   1      43.545  40.192  25.693  1.00  0.00    -0.374 OA
ENDROOT
BRANCH   1   2
ATOM      2  C   UNL A   1      42.724  41.361  25.697  1.00  0.00     0.202 C 
BRANCH   2   3
ATOM      3  C   UNL A   1      41.999  41.645  24.369  1.00  0.00     0.260 C 
BRANCH   3   4
ATOM      4  O   UNL A   1      42.190  42.996  23.892  1.00  0.00    -0.475 OA
BRANCH   4   5
ATOM      5  C   UNL A   1      42.342  43.148  22.551  1.00  0.00     0.231 C 
ATOM      6  C   UNL A   1      44.569  44.159  22.912  1.00  0.00     0.029 C 
ATOM      7  C   UNL A   1      43.717  43.460  22.132  1.00  0.00     0.103 C 
ATOM      8  C   UNL A   1      43.957  43.103  20.718  1.00  0.00     0.267 C 
ATOM      9  O   UNL A   1      45.028  42.656  20.323  1.00  0.00    -0.268 OA
ATOM     10  N   UNL A   1      42.856  43.363  19.927  1.00  0.00    -0.250 N 
ATOM     11  N   UNL A   1      41.358  43.028  21.733  1.00  0.00    -0.156 NA
ATOM     12  C   UNL A   1      41.558  43.333  20.414  1.00  0.00     0.354 C 
ATOM     13  O   UNL A   1      40.600  43.587  19.688  1.00  0.00    -0.245 OA
BRANCH   6  14
ATOM     14  C   UNL A   1      45.837  44.772  22.607  1.00  0.00    -0.003 A 
ATOM     15  C   UNL A   1      47.953  47.585  21.367  1.00  0.00     0.065 C 
ATOM     16  C   UNL A   1      47.326  46.356  21.935  1.00  0.00     0.020 A 
ATOM     17  C   UNL A   1      45.980  46.100  22.131  1.00  0.00     0.031 A 
ATOM     18  N   UNL A   1      48.025  45.210  22.273  1.00  0.00    -0.318 N 
ATOM     19  C   UNL A   1      47.105  44.204  22.585  1.00  0.00     0.027 A 
ATOM     20  C   UNL A   1      47.555  42.829  22.941  1.00  0.00     0.065 C 
BRANCH  18  21
ATOM     21  C   UNL A   1      49.437  45.077  22.383  1.00  0.00     0.046 A 
ATOM     22  C   UNL A   1      50.165  44.492  21.347  1.00  0.00     0.028 A 
ATOM     23  C   UNL A   1      50.059  45.373  23.602  1.00  0.00     0.038 A 
ATOM     24  C   UNL A   1      51.490  44.117  21.560  1.00  0.00     0.023 A 
ATOM     25  C   UNL A   1      51.409  45.016  23.818  1.00  0.00     0.018 A 
ATOM     26  C   UNL A   1      52.110  44.358  22.794  1.00  0.00     0.050 A 
ATOM     27  Cl  UNL A   1      53.730  43.774  22.942  1.00  0.00    -0.084 Cl
BRANCH  25  28
ATOM     28  C   UNL A   1      52.041  45.309  25.136  1.00  0.00     0.073 C 
ATOM     29  O   UNL A   1      52.041  44.627  26.142  1.00  0.00    -0.545 OA
ATOM     30  O   UNL A   1      52.694  46.487  25.137  1.00  0.00    -0.545 OA
ENDBRANCH  25  28
ENDBRANCH  18  21
ENDBRANCH   6  14
BRANCH  10  31
ATOM     31  C   UNL A   1      43.060  43.735  18.539  1.00  0.00     0.206 C 
BRANCH  31  32
ATOM     32  C   UNL A   1      43.261  45.189  18.372  1.00  0.00     0.123 A 
ATOM     33  C   UNL A   1      44.340  46.024  18.558  1.00  0.00     0.047 A 
ATOM     34  O   UNL A   1      42.207  45.887  17.863  1.00  0.00    -0.467 OA
ATOM     35  C   UNL A   1      43.918  47.311  18.149  1.00  0.00     0.042 A 
ATOM     36  C   UNL A   1      42.613  47.174  17.735  1.00  0.00     0.195 A 
ENDBRANCH  31  32
ENDBRANCH  10  31
ENDBRANCH   4   5
ENDBRANCH   3   4
ENDBRANCH   2   3
ENDBRANCH   1   2
BRANCH   1  37
ATOM     37  C   UNL A   1      43.586  39.472  26.937  1.00  0.00     0.202 C 
BRANCH  37  38
ATOM     38  C   UNL A   1      42.951  38.063  26.873  1.00  0.00     0.261 C 
BRANCH  38  39
ATOM     39  O   UNL A   1      43.913  36.948  26.839  1.00  0.00    -0.460 OA
BRANCH  39  40
ATOM     40  C   UNL A   1      43.889  36.098  27.913  1.00  0.00     0.338 C 
ATOM     41  O   UNL A   1      43.986  36.462  29.078  1.00  0.00    -0.246 OA
BRANCH  40  42
ATOM     42  C   UNL A   1      43.672  34.628  27.600  1.00  0.00     0.060 A 
ATOM     43  C   UNL A   1      43.727  33.725  28.652  1.00  0.00     0.016 A 
ATOM     44  C   UNL A   1      43.728  34.064  26.307  1.00  0.00     0.016 A 
ATOM     45  C   UNL A   1      43.824  32.321  28.412  1.00  0.00     0.010 A 
ATOM     46  C   UNL A   1      43.904  32.631  26.072  1.00  0.00     0.010 A 
ATOM     47  C   UNL A   1      43.997  31.703  27.123  1.00  0.00    -0.014 A 
BRANCH  47  48
ATOM     48  C   UNL A   1      44.683  30.254  27.114  1.00  0.00     0.031 A 
ATOM     49  C   UNL A   1      43.547  29.319  26.854  1.00  0.00     0.074 A 
ATOM     50  C   UNL A   1      45.882  29.574  27.324  1.00  0.00     0.049 A 
ATOM     51  N   UNL A   1      42.487  29.295  27.616  1.00  0.00    -0.248 NA
ATOM     52  C   UNL A   1      43.396  28.648  25.560  1.00  0.00     0.031 C 
ATOM     53  C   UNL A   1      47.189  30.117  27.722  1.00  0.00     0.029 A 
ATOM     54  N   UNL A   1      46.220  28.183  27.219  1.00  0.00    -0.354 N 
ATOM     55  C   UNL A   1      41.660  28.360  27.051  1.00  0.00     0.074 A 
ATOM     56  C   UNL A   1      42.149  28.192  25.692  1.00  0.00     0.031 C 
ATOM     57  C   UNL A   1      48.156  29.152  27.731  1.00  0.00     0.029 A 
ATOM     58  C   UNL A   1      47.602  27.840  27.398  1.00  0.00     0.049 A 
ATOM     59  H   UNL A   1      45.537  27.497  27.035  1.00  0.00     0.167 HD
ATOM     60  C   UNL A   1      41.109  27.428  27.876  1.00  0.00     0.037 A 
ATOM     61  C   UNL A   1      48.259  26.616  27.361  1.00  0.00     0.037 A 
ATOM     62  C   UNL A   1      41.607  26.104  27.642  1.00  0.00     0.049 A 
ATOM     63  C   UNL A   1      47.277  25.530  27.513  1.00  0.00     0.074 A 
ATOM     64  C   UNL A   1      41.913  25.375  26.511  1.00  0.00     0.029 A 
ATOM     65  N   UNL A   1      42.308  25.515  28.675  1.00  0.00    -0.354 N 
ATOM     66  N   UNL A   1      46.845  25.176  28.683  1.00  0.00    -0.248 NA
ATOM     67  C   UNL A   1      46.867  24.658  26.415  1.00  0.00     0.031 C 
ATOM     68  C   UNL A   1      43.176  24.799  26.792  1.00  0.00     0.029 A 
ATOM     69  C   UNL A   1      43.443  24.944  28.149  1.00  0.00     0.049 A 
ATOM     70  H   UNL A   1      42.043  25.506  29.622  1.00  0.00     0.167 HD
ATOM     71  C   UNL A   1      45.753  24.428  28.400  1.00  0.00     0.074 A 
ATOM     72  C   UNL A   1      45.985  23.899  27.072  1.00  0.00     0.031 C 
ATOM     73  C   UNL A   1      44.603  24.826  28.993  1.00  0.00     0.037 A 
BRANCH  60  74
ATOM     74  C   UNL A   1      40.712  27.935  29.229  1.00  0.00     0.064 A 
ATOM     75  C   UNL A   1      41.699  28.163  30.190  1.00  0.00     0.173 A 
ATOM     76  C   UNL A   1      39.369  28.121  29.614  1.00  0.00     0.173 A 
ATOM     77  F   UNL A   1      42.996  28.079  29.855  1.00  0.00    -0.203 F 
ATOM     78  C   UNL A   1      41.356  28.492  31.500  1.00  0.00     0.198 A 
ATOM     79  C   UNL A   1      39.028  28.387  30.934  1.00  0.00     0.198 A 
ATOM     80  F   UNL A   1      38.383  28.079  28.703  1.00  0.00    -0.203 F 
ATOM     81  F   UNL A   1      42.319  28.739  32.398  1.00  0.00    -0.200 F 
ATOM     82  C   UNL A   1      40.023  28.566  31.879  1.00  0.00     0.200 A 
ATOM     83  F   UNL A   1      37.738  28.488  31.282  1.00  0.00    -0.200 F 
ATOM     84  F   UNL A   1      39.697  28.842  33.149  1.00  0.00    -0.200 F 
ENDBRANCH  60  74
BRANCH  61  85
ATOM     85  C   UNL A   1      49.664  25.973  27.379  1.00  0.00     0.064 A 
ATOM     86  C   UNL A   1      50.394  25.787  26.158  1.00  0.00     0.173 A 
ATOM     87  C   UNL A   1      50.472  26.015  28.523  1.00  0.00     0.173 A 
ATOM     88  F   UNL A   1      49.758  25.651  24.986  1.00  0.00    -0.203 F 
ATOM     89  C   UNL A   1      51.794  25.809  26.077  1.00  0.00     0.198 A 
ATOM     90  C   UNL A   1      51.885  25.971  28.446  1.00  0.00     0.198 A 
ATOM     91  F   UNL A   1      49.915  26.205  29.726  1.00  0.00    -0.203 F 
ATOM     92  F   UNL A   1      52.404  25.799  24.881  1.00  0.00    -0.200 F 
ATOM     93  C   UNL A   1      52.543  25.918  27.225  1.00  0.00     0.200 A 
ATOM     94  F   UNL A   1      52.618  26.064  29.565  1.00  0.00    -0.200 F 
ATOM     95  F   UNL A   1      53.881  25.998  27.156  1.00  0.00    -0.200 F 
ENDBRANCH  61  85
BRANCH  73  96
ATOM     96  C   UNL A   1      44.734  25.360  30.417  1.00  0.00     0.064 A 
ATOM     97  C   UNL A   1      45.248  26.626  30.800  1.00  0.00     0.173 A 
ATOM     98  C   UNL A   1      44.409  24.493  31.467  1.00  0.00     0.173 A 
ATOM     99  F   UNL A   1      45.461  27.603  29.910  1.00  0.00    -0.203 F 
ATOM    100  C   UNL A   1      45.537  26.938  32.131  1.00  0.00     0.198 A 
ATOM    101  C   UNL A   1      44.638  24.833  32.802  1.00  0.00     0.198 A 
ATOM    102  F   UNL A   1      43.845  23.307  31.199  1.00  0.00    -0.203 F 
ATOM    103  F   UNL A   1      46.110  28.111  32.439  1.00  0.00    -0.200 F 
ATOM    104  C   UNL A   1      45.233  26.038  33.132  1.00  0.00     0.200 A 
ATOM    105  F   UNL A   1      44.276  23.981  33.771  1.00  0.00    -0.200 F 
ATOM    106  F   UNL A   1      45.488  26.339  34.413  1.00  0.00    -0.200 F 
ENDBRANCH  73  96
ENDBRANCH  47  48
ENDBRANCH  40  42
ENDBRANCH  39  40
ENDBRANCH  38  39
ENDBRANCH  37  38
ENDBRANCH   1  37
TORSDOF 18
ENDMDL
MODEL 2
REMARK VINA RESULT:     -11.1      9.594     16.018
REMARK SMILES Cc1cc(/C=C2\C(=O)N(Cc3ccco3)C(=O)N=C2OCCOCCOC(=O)c2ccc(-c3c4nc(c(-c5c(F)c(F)c(F)c(F)c5F)c5ccc([nH]5)c(-c5c(F)c(F)c(F)c(F)c5F)c5nc(c(-c6c(F)c(F)c(F)c(F)c6F)c6ccc3[nH]6)C=C5)C=C4)cc2)c(C)n1-c1ccc(Cl)c(C(=O)[O-])c1
REMARK SMILES IDX 23 1 22 2 21 3 20 4 19 5 5 6 6 7 7 8 8 9 9 10 18 11 16 12
REMARK SMILES IDX 17 13 4 14 1 15 2 16 3 17 94 18 92 19 93 20 95 21 96 22
REMARK SMILES IDX 104 23 97 24 100 25 98 26 99 27 101 28 102 29 103 30 10 31
REMARK SMILES IDX 11 32 12 33 15 34 13 35 14 36 24 37 25 38 26 39 27 40 28 41
REMARK SMILES IDX 29 42 30 43 91 44 31 45 90 46 32 47 33 48 34 49 84 50 35 51
REMARK SMILES IDX 89 52 83 53 85 54 36 55 88 56 82 57 81 58 37 60 69 61 49 62
REMARK SMILES IDX 68 63 50 64 53 65 67 66 86 67 51 68 52 69 66 71 87 72 54 73
REMARK SMILES IDX 38 74 39 75 47 76 40 77 41 78 45 79 48 80 42 81 43 82 46 83
REMARK SMILES IDX 44 84 70 85 71 86 79 87 72 88 73 89 77 90 80 91 74 92 75 93
REMARK SMILES IDX 78 94 76 95 55 96 56 97 64 98 57 99 58 100 62 101 65 102
REMARK SMILES IDX 59 103 60 104 63 105 61 106
REMARK H PARENT 85 59 53 70
REMARK Flexibility Score: inf
ROOT
ATOM      1  O   UNL A   1      49.857  26.117  34.188  1.00  0.00    -0.374 OA
ENDROOT
BRANCH   1   2
ATOM      2  C   UNL A   1      49.658  26.816  32.958  1.00  0.00     0.202 C 
BRANCH   2   3
ATOM      3  C   UNL A   1      49.628  25.922  31.705  1.00  0.00     0.260 C 
BRANCH   3   4
ATOM      4  O   UNL A   1      48.339  25.900  31.051  1.00  0.00    -0.475 OA
BRANCH   4   5
ATOM      5  C   UNL A   1      48.187  26.727  29.985  1.00  0.00     0.231 C 
ATOM      6  C   UNL A   1      47.008  24.937  28.755  1.00  0.00     0.029 C 
ATOM      7  C   UNL A   1      47.221  26.250  28.985  1.00  0.00     0.103 C 
ATOM      8  C   UNL A   1      46.696  27.354  28.155  1.00  0.00     0.267 C 
ATOM      9  O   UNL A   1      45.535  27.390  27.761  1.00  0.00    -0.268 OA
ATOM     10  N   UNL A   1      47.668  28.292  27.869  1.00  0.00    -0.250 N 
ATOM     11  N   UNL A   1      48.842  27.828  29.875  1.00  0.00    -0.156 NA
ATOM     12  C   UNL A   1      48.742  28.539  28.710  1.00  0.00     0.354 C 
ATOM     13  O   UNL A   1      49.601  29.367  28.419  1.00  0.00    -0.245 OA
BRANCH   6  14
ATOM     14  C   UNL A   1      46.312  24.270  27.684  1.00  0.00    -0.003 A 
ATOM     15  C   UNL A   1      45.919  23.228  24.121  1.00  0.00     0.065 C 
ATOM     16  C   UNL A   1      45.880  23.490  25.589  1.00  0.00     0.020 A 
ATOM     17  C   UNL A   1      46.799  24.188  26.354  1.00  0.00     0.031 A 
ATOM     18  N   UNL A   1      44.827  23.140  26.416  1.00  0.00    -0.318 N 
ATOM     19  C   UNL A   1      45.041  23.707  27.676  1.00  0.00     0.027 A 
ATOM     20  C   UNL A   1      44.047  23.550  28.774  1.00  0.00     0.065 C 
BRANCH  18  21
ATOM     21  C   UNL A   1      43.745  22.274  26.093  1.00  0.00     0.046 A 
ATOM     22  C   UNL A   1      42.433  22.742  26.162  1.00  0.00     0.028 A 
ATOM     23  C   UNL A   1      43.996  20.913  25.880  1.00  0.00     0.038 A 
ATOM     24  C   UNL A   1      41.373  21.839  26.112  1.00  0.00     0.023 A 
ATOM     25  C   UNL A   1      42.927  19.993  25.807  1.00  0.00     0.018 A 
ATOM     26  C   UNL A   1      41.613  20.467  25.955  1.00  0.00     0.050 A 
ATOM     27  Cl  UNL A   1      40.211  19.456  25.985  1.00  0.00    -0.084 Cl
BRANCH  25  28
ATOM     28  C   UNL A   1      43.220  18.544  25.616  1.00  0.00     0.073 C 
ATOM     29  O   UNL A   1      42.628  17.588  26.075  1.00  0.00    -0.545 OA
ATOM     30  O   UNL A   1      44.277  18.340  24.806  1.00  0.00    -0.545 OA
ENDBRANCH  25  28
ENDBRANCH  18  21
ENDBRANCH   6  14
BRANCH  10  31
ATOM     31  C   UNL A   1      47.599  29.016  26.613  1.00  0.00     0.206 C 
BRANCH  31  32
ATOM     32  C   UNL A   1      48.001  28.183  25.463  1.00  0.00     0.123 A 
ATOM     33  C   UNL A   1      47.298  27.449  24.532  1.00  0.00     0.047 A 
ATOM     34  O   UNL A   1      49.332  28.157  25.174  1.00  0.00    -0.467 OA
ATOM     35  C   UNL A   1      48.258  26.935  23.629  1.00  0.00     0.042 A 
ATOM     36  C   UNL A   1      49.480  27.394  24.064  1.00  0.00     0.195 A 
ENDBRANCH  31  32
ENDBRANCH  10  31
ENDBRANCH   4   5
ENDBRANCH   3   4
ENDBRANCH   2   3
ENDBRANCH   1   2
BRANCH   1  37
ATOM     37  C   UNL A   1      49.465  24.734  34.173  1.00  0.00     0.202 C 
BRANCH  37  38
ATOM     38  C   UNL A   1      48.139  24.446  34.915  1.00  0.00     0.261 C 
BRANCH  38  39
ATOM     39  O   UNL A   1      46.940  25.042  34.301  1.00  0.00    -0.460 OA
BRANCH  39  40
ATOM     40  C   UNL A   1      45.746  24.757  34.910  1.00  0.00     0.338 C 
ATOM     41  O   UNL A   1      45.634  24.042  35.898  1.00  0.00    -0.246 OA
BRANCH  40  42
ATOM     42  C   UNL A   1      44.518  25.433  34.327  1.00  0.00     0.060 A 
ATOM     43  C   UNL A   1      44.687  26.659  33.701  1.00  0.00     0.016 A 
ATOM     44  C   UNL A   1      43.186  25.080  34.630  1.00  0.00     0.016 A 
ATOM     45  C   UNL A   1      43.566  27.486  33.389  1.00  0.00     0.010 A 
ATOM     46  C   UNL A   1      42.050  25.968  34.376  1.00  0.00     0.010 A 
ATOM     47  C   UNL A   1      42.203  27.229  33.775  1.00  0.00    -0.014 A 
BRANCH  47  48
ATOM     48  C   UNL A   1      41.239  28.505  33.882  1.00  0.00     0.031 A 
ATOM     49  C   UNL A   1      40.267  28.317  32.763  1.00  0.00     0.074 A 
ATOM     50  C   UNL A   1      41.032  29.707  34.558  1.00  0.00     0.049 A 
ATOM     51  N   UNL A   1      40.660  28.170  31.527  1.00  0.00    -0.248 NA
ATOM     52  C   UNL A   1      38.876  27.935  33.022  1.00  0.00     0.031 C 
ATOM     53  C   UNL A   1      41.839  30.310  35.628  1.00  0.00     0.029 A 
ATOM     54  N   UNL A   1      40.004  30.702  34.439  1.00  0.00    -0.354 N 
ATOM     55  C   UNL A   1      39.510  27.983  30.805  1.00  0.00     0.074 A 
ATOM     56  C   UNL A   1      38.504  27.604  31.783  1.00  0.00     0.031 C 
ATOM     57  C   UNL A   1      41.264  31.450  36.114  1.00  0.00     0.029 A 
ATOM     58  C   UNL A   1      40.036  31.777  35.389  1.00  0.00     0.049 A 
ATOM     59  H   UNL A   1      39.312  30.650  33.741  1.00  0.00     0.167 HD
ATOM     60  C   UNL A   1      39.356  28.717  29.669  1.00  0.00     0.037 A 
ATOM     61  C   UNL A   1      39.210  32.882  35.558  1.00  0.00     0.037 A 
ATOM     62  C   UNL A   1      38.305  29.687  29.764  1.00  0.00     0.049 A 
ATOM     63  C   UNL A   1      38.432  33.102  34.327  1.00  0.00     0.074 A 
ATOM     64  C   UNL A   1      37.035  29.683  30.306  1.00  0.00     0.029 A 
ATOM     65  N   UNL A   1      38.677  31.013  29.677  1.00  0.00    -0.354 N 
ATOM     66  N   UNL A   1      38.942  33.732  33.315  1.00  0.00    -0.248 NA
ATOM     67  C   UNL A   1      37.005  32.810  34.216  1.00  0.00     0.031 C 
ATOM     68  C   UNL A   1      36.958  30.895  31.036  1.00  0.00     0.029 A 
ATOM     69  C   UNL A   1      38.031  31.704  30.676  1.00  0.00     0.049 A 
ATOM     70  H   UNL A   1      39.297  31.397  29.017  1.00  0.00     0.167 HD
ATOM     71  C   UNL A   1      38.092  33.439  32.303  1.00  0.00     0.074 A 
ATOM     72  C   UNL A   1      36.821  33.161  32.940  1.00  0.00     0.031 C 
ATOM     73  C   UNL A   1      38.659  32.885  31.207  1.00  0.00     0.037 A 
BRANCH  60  74
ATOM     74  C   UNL A   1      40.610  28.931  28.878  1.00  0.00     0.064 A 
ATOM     75  C   UNL A   1      41.575  29.821  29.355  1.00  0.00     0.173 A 
ATOM     76  C   UNL A   1      40.835  28.335  27.621  1.00  0.00     0.173 A 
ATOM     77  F   UNL A   1      41.451  30.353  30.580  1.00  0.00    -0.203 F 
ATOM     78  C   UNL A   1      42.682  30.156  28.577  1.00  0.00     0.198 A 
ATOM     79  C   UNL A   1      41.905  28.718  26.822  1.00  0.00     0.198 A 
ATOM     80  F   UNL A   1      40.034  27.353  27.176  1.00  0.00    -0.203 F 
ATOM     81  F   UNL A   1      43.613  30.985  29.068  1.00  0.00    -0.200 F 
ATOM     82  C   UNL A   1      42.826  29.635  27.299  1.00  0.00     0.200 A 
ATOM     83  F   UNL A   1      42.050  28.185  25.601  1.00  0.00    -0.200 F 
ATOM     84  F   UNL A   1      43.870  29.992  26.538  1.00  0.00    -0.200 F 
ENDBRANCH  60  74
BRANCH  61  85
ATOM     85  C   UNL A   1      38.919  34.068  36.504  1.00  0.00     0.064 A 
ATOM     86  C   UNL A   1      38.221  33.858  37.739  1.00  0.00     0.173 A 
ATOM     87  C   UNL A   1      39.707  35.226  36.487  1.00  0.00     0.173 A 
ATOM     88  F   UNL A   1      37.368  32.834  37.887  1.00  0.00    -0.203 F 
ATOM     89  C   UNL A   1      38.423  34.634  38.890  1.00  0.00     0.198 A 
ATOM     90  C   UNL A   1      39.860  36.047  37.632  1.00  0.00     0.198 A 
ATOM     91  F   UNL A   1      40.428  35.528  35.399  1.00  0.00    -0.203 F 
ATOM     92  F   UNL A   1      37.864  34.275  40.057  1.00  0.00    -0.200 F 
ATOM     93  C   UNL A   1      39.259  35.725  38.840  1.00  0.00     0.200 A 
ATOM     94  F   UNL A   1      40.664  37.119  37.582  1.00  0.00    -0.200 F 
ATOM     95  F   UNL A   1      39.505  36.441  39.949  1.00  0.00    -0.200 F 
ENDBRANCH  61  85
BRANCH  73  96
ATOM     96  C   UNL A   1      40.040  33.413  30.827  1.00  0.00     0.064 A 
ATOM     97  C   UNL A   1      41.263  33.132  31.490  1.00  0.00     0.173 A 
ATOM     98  C   UNL A   1      40.114  34.346  29.785  1.00  0.00     0.173 A 
ATOM     99  F   UNL A   1      41.366  32.158  32.402  1.00  0.00    -0.203 F 
ATOM    100  C   UNL A   1      42.437  33.835  31.210  1.00  0.00     0.198 A 
ATOM    101  C   UNL A   1      41.305  35.000  29.464  1.00  0.00     0.198 A 
ATOM    102  F   UNL A   1      39.022  34.613  29.055  1.00  0.00    -0.203 F 
ATOM    103  F   UNL A   1      43.549  33.602  31.925  1.00  0.00    -0.200 F 
ATOM    104  C   UNL A   1      42.457  34.772  30.197  1.00  0.00     0.200 A 
ATOM    105  F   UNL A   1      41.330  35.857  28.434  1.00  0.00    -0.200 F 
ATOM    106  F   UNL A   1      43.585  35.435  29.909  1.00  0.00    -0.200 F 
ENDBRANCH  73  96
ENDBRANCH  47  48
ENDBRANCH  40  42
ENDBRANCH  39  40
ENDBRANCH  38  39
ENDBRANCH  37  38
ENDBRANCH   1  37
TORSDOF 18
ENDMDL
MODEL 3
REMARK VINA RESULT:     -10.8      1.783      2.734
REMARK SMILES Cc1cc(/C=C2\C(=O)N(Cc3ccco3)C(=O)N=C2OCCOCCOC(=O)c2ccc(-c3c4nc(c(-c5c(F)c(F)c(F)c(F)c5F)c5ccc([nH]5)c(-c5c(F)c(F)c(F)c(F)c5F)c5nc(c(-c6c(F)c(F)c(F)c(F)c6F)c6ccc3[nH]6)C=C5)C=C4)cc2)c(C)n1-c1ccc(Cl)c(C(=O)[O-])c1
REMARK SMILES IDX 23 1 22 2 21 3 20 4 19 5 5 6 6 7 7 8 8 9 9 10 18 11 16 12
REMARK SMILES IDX 17 13 4 14 1 15 2 16 3 17 94 18 92 19 93 20 95 21 96 22
REMARK SMILES IDX 104 23 97 24 100 25 98 26 99 27 101 28 102 29 103 30 10 31
REMARK SMILES IDX 11 32 12 33 15 34 13 35 14 36 24 37 25 38 26 39 27 40 28 41
REMARK SMILES IDX 29 42 30 43 91 44 31 45 90 46 32 47 33 48 34 49 84 50 35 51
REMARK SMILES IDX 89 52 83 53 85 54 36 55 88 56 82 57 81 58 37 60 69 61 49 62
REMARK SMILES IDX 68 63 50 64 53 65 67 66 86 67 51 68 52 69 66 71 87 72 54 73
REMARK SMILES IDX 38 74 39 75 47 76 40 77 41 78 45 79 48 80 42 81 43 82 46 83
REMARK SMILES IDX 44 84 70 85 71 86 79 87 72 88 73 89 77 90 80 91 74 92 75 93
REMARK SMILES IDX 78 94 76 95 55 96 56 97 64 98 57 99 58 100 62 101 65 102
REMARK SMILES IDX 59 103 60 104 63 105 61 106
REMARK H PARENT 85 59 53 70
REMARK Flexibility Score: inf
ROOT
ATOM      1  O   UNL A   1      43.694  40.166  25.735  1.00  0.00    -0.374 OA
ENDROOT
BRANCH   1   2
ATOM      2  C   UNL A   1      42.995  41.412  25.752  1.00  0.00     0.202 C 
BRANCH   2   3
ATOM      3  C   UNL A   1      42.233  41.742  24.456  1.00  0.00     0.260 C 
BRANCH   3   4
ATOM      4  O   UNL A   1      42.568  43.038  23.911  1.00  0.00    -0.475 OA
BRANCH   4   5
ATOM      5  C   UNL A   1      42.613  43.131  22.557  1.00  0.00     0.231 C 
ATOM      6  C   UNL A   1      44.838  44.199  22.696  1.00  0.00     0.029 C 
ATOM      7  C   UNL A   1      43.944  43.449  22.018  1.00  0.00     0.103 C 
ATOM      8  C   UNL A   1      44.081  43.031  20.607  1.00  0.00     0.267 C 
ATOM      9  O   UNL A   1      45.128  42.586  20.149  1.00  0.00    -0.268 OA
ATOM     10  N   UNL A   1      42.917  43.234  19.893  1.00  0.00    -0.250 N 
ATOM     11  N   UNL A   1      41.571  42.955  21.824  1.00  0.00    -0.156 NA
ATOM     12  C   UNL A   1      41.661  43.202  20.481  1.00  0.00     0.354 C 
ATOM     13  O   UNL A   1      40.645  43.405  19.822  1.00  0.00    -0.245 OA
BRANCH   6  14
ATOM     14  C   UNL A   1      46.065  44.820  22.266  1.00  0.00    -0.003 A 
ATOM     15  C   UNL A   1      49.785  45.016  22.037  1.00  0.00     0.065 C 
ATOM     16  C   UNL A   1      48.299  45.130  21.963  1.00  0.00     0.020 A 
ATOM     17  C   UNL A   1      47.353  44.273  22.498  1.00  0.00     0.031 A 
ATOM     18  N   UNL A   1      47.626  46.203  21.406  1.00  0.00    -0.318 N 
ATOM     19  C   UNL A   1      46.262  46.067  21.683  1.00  0.00     0.027 A 
ATOM     20  C   UNL A   1      45.279  47.100  21.256  1.00  0.00     0.065 C 
BRANCH  18  21
ATOM     21  C   UNL A   1      48.189  47.235  20.604  1.00  0.00     0.046 A 
ATOM     22  C   UNL A   1      48.685  48.392  21.204  1.00  0.00     0.028 A 
ATOM     23  C   UNL A   1      48.079  47.155  19.210  1.00  0.00     0.038 A 
ATOM     24  C   UNL A   1      48.982  49.504  20.419  1.00  0.00     0.023 A 
ATOM     25  C   UNL A   1      48.399  48.270  18.405  1.00  0.00     0.018 A 
ATOM     26  C   UNL A   1      48.825  49.457  19.027  1.00  0.00     0.050 A 
ATOM     27  Cl  UNL A   1      49.160  50.930  18.187  1.00  0.00    -0.084 Cl
BRANCH  25  28
ATOM     28  C   UNL A   1      48.241  48.176  16.926  1.00  0.00     0.073 C 
ATOM     29  O   UNL A   1      48.889  47.516  16.138  1.00  0.00    -0.545 OA
ATOM     30  O   UNL A   1      47.220  48.930  16.474  1.00  0.00    -0.545 OA
ENDBRANCH  25  28
ENDBRANCH  18  21
ENDBRANCH   6  14
BRANCH  10  31
ATOM     31  C   UNL A   1      43.004  43.545  18.478  1.00  0.00     0.206 C 
BRANCH  31  32
ATOM     32  C   UNL A   1      43.432  44.938  18.237  1.00  0.00     0.123 A 
ATOM     33  C   UNL A   1      44.648  45.521  17.954  1.00  0.00     0.047 A 
ATOM     34  O   UNL A   1      42.443  45.875  18.206  1.00  0.00    -0.467 OA
ATOM     35  C   UNL A   1      44.388  46.896  17.751  1.00  0.00     0.042 A 
ATOM     36  C   UNL A   1      43.032  47.060  17.915  1.00  0.00     0.195 A 
ENDBRANCH  31  32
ENDBRANCH  10  31
ENDBRANCH   4   5
ENDBRANCH   3   4
ENDBRANCH   2   3
ENDBRANCH   1   2
BRANCH   1  37
ATOM     37  C   UNL A   1      43.741  39.477  26.996  1.00  0.00     0.202 C 
BRANCH  37  38
ATOM     38  C   UNL A   1      42.981  38.130  27.008  1.00  0.00     0.261 C 
BRANCH  38  39
ATOM     39  O   UNL A   1      43.829  36.935  26.857  1.00  0.00    -0.460 OA
BRANCH  39  40
ATOM     40  C   UNL A   1      43.847  36.071  27.921  1.00  0.00     0.338 C 
ATOM     41  O   UNL A   1      43.991  36.421  29.086  1.00  0.00    -0.246 OA
BRANCH  40  42
ATOM     42  C   UNL A   1      43.616  34.605  27.598  1.00  0.00     0.060 A 
ATOM     43  C   UNL A   1      43.716  33.689  28.635  1.00  0.00     0.016 A 
ATOM     44  C   UNL A   1      43.615  34.058  26.297  1.00  0.00     0.016 A 
ATOM     45  C   UNL A   1      43.802  32.288  28.373  1.00  0.00     0.010 A 
ATOM     46  C   UNL A   1      43.781  32.628  26.036  1.00  0.00     0.010 A 
ATOM     47  C   UNL A   1      43.918  31.686  27.070  1.00  0.00    -0.014 A 
BRANCH  47  48
ATOM     48  C   UNL A   1      44.603  30.238  27.012  1.00  0.00     0.031 A 
ATOM     49  C   UNL A   1      43.468  29.316  26.708  1.00  0.00     0.074 A 
ATOM     50  C   UNL A   1      45.799  29.548  27.207  1.00  0.00     0.049 A 
ATOM     51  N   UNL A   1      42.401  29.264  27.459  1.00  0.00    -0.248 NA
ATOM     52  C   UNL A   1      43.327  28.694  25.388  1.00  0.00     0.031 C 
ATOM     53  C   UNL A   1      47.103  30.074  27.636  1.00  0.00     0.029 A 
ATOM     54  N   UNL A   1      46.136  28.162  27.052  1.00  0.00    -0.354 N 
ATOM     55  C   UNL A   1      41.578  28.352  26.852  1.00  0.00     0.074 A 
ATOM     56  C   UNL A   1      42.078  28.235  25.492  1.00  0.00     0.031 C 
ATOM     57  C   UNL A   1      48.069  29.108  27.617  1.00  0.00     0.029 A 
ATOM     58  C   UNL A   1      47.516  27.810  27.230  1.00  0.00     0.049 A 
ATOM     59  H   UNL A   1      45.454  27.485  26.836  1.00  0.00     0.167 HD
ATOM     60  C   UNL A   1      41.019  27.391  27.637  1.00  0.00     0.037 A 
ATOM     61  C   UNL A   1      48.172  26.588  27.152  1.00  0.00     0.037 A 
ATOM     62  C   UNL A   1      41.517  26.076  27.358  1.00  0.00     0.049 A 
ATOM     63  C   UNL A   1      47.187  25.498  27.255  1.00  0.00     0.074 A 
ATOM     64  C   UNL A   1      41.831  25.390  26.202  1.00  0.00     0.029 A 
ATOM     65  N   UNL A   1      42.208  25.448  28.373  1.00  0.00    -0.354 N 
ATOM     66  N   UNL A   1      46.745  25.102  28.408  1.00  0.00    -0.248 NA
ATOM     67  C   UNL A   1      46.785  24.669  26.121  1.00  0.00     0.031 C 
ATOM     68  C   UNL A   1      43.092  24.801  26.472  1.00  0.00     0.029 A 
ATOM     69  C   UNL A   1      43.347  24.895  27.836  1.00  0.00     0.049 A 
ATOM     70  H   UNL A   1      41.935  25.404  29.317  1.00  0.00     0.167 HD
ATOM     71  C   UNL A   1      45.654  24.366  28.087  1.00  0.00     0.074 A 
ATOM     72  C   UNL A   1      45.897  23.887  26.742  1.00  0.00     0.031 C 
ATOM     73  C   UNL A   1      44.499  24.744  28.684  1.00  0.00     0.037 A 
BRANCH  60  74
ATOM     74  C   UNL A   1      40.610  27.847  29.004  1.00  0.00     0.064 A 
ATOM     75  C   UNL A   1      39.252  27.981  29.302  1.00  0.00     0.173 A 
ATOM     76  C   UNL A   1      41.538  28.229  29.994  1.00  0.00     0.173 A 
ATOM     77  F   UNL A   1      38.328  27.557  28.427  1.00  0.00    -0.203 F 
ATOM     78  C   UNL A   1      38.840  28.541  30.509  1.00  0.00     0.198 A 
ATOM     79  C   UNL A   1      41.125  28.844  31.169  1.00  0.00     0.198 A 
ATOM     80  F   UNL A   1      42.848  27.977  29.839  1.00  0.00    -0.203 F 
ATOM     81  F   UNL A   1      37.532  28.630  30.789  1.00  0.00    -0.200 F 
ATOM     82  C   UNL A   1      39.775  29.007  31.424  1.00  0.00     0.200 A 
ATOM     83  F   UNL A   1      42.036  29.261  32.059  1.00  0.00    -0.200 F 
ATOM     84  F   UNL A   1      39.373  29.582  32.566  1.00  0.00    -0.200 F 
ENDBRANCH  60  74
BRANCH  61  85
ATOM     85  C   UNL A   1      49.575  25.942  27.158  1.00  0.00     0.064 A 
ATOM     86  C   UNL A   1      50.315  25.799  25.937  1.00  0.00     0.173 A 
ATOM     87  C   UNL A   1      50.374  25.941  28.309  1.00  0.00     0.173 A 
ATOM     88  F   UNL A   1      49.689  25.708  24.755  1.00  0.00    -0.203 F 
ATOM     89  C   UNL A   1      51.717  25.823  25.869  1.00  0.00     0.198 A 
ATOM     90  C   UNL A   1      51.788  25.898  28.242  1.00  0.00     0.198 A 
ATOM     91  F   UNL A   1      49.808  26.088  29.514  1.00  0.00    -0.203 F 
ATOM     92  F   UNL A   1      52.336  25.856  24.677  1.00  0.00    -0.200 F 
ATOM     93  C   UNL A   1      52.456  25.888  27.025  1.00  0.00     0.200 A 
ATOM     94  F   UNL A   1      52.512  25.948  29.370  1.00  0.00    -0.200 F 
ATOM     95  F   UNL A   1      53.795  25.969  26.970  1.00  0.00    -0.200 F 
ENDBRANCH  61  85
BRANCH  73  96
ATOM     96  C   UNL A   1      44.619  25.224  30.129  1.00  0.00     0.064 A 
ATOM     97  C   UNL A   1      45.111  26.482  30.562  1.00  0.00     0.173 A 
ATOM     98  C   UNL A   1      44.308  24.310  31.143  1.00  0.00     0.173 A 
ATOM     99  F   UNL A   1      45.308  27.497  29.712  1.00  0.00    -0.203 F 
ATOM    100  C   UNL A   1      45.392  26.746  31.905  1.00  0.00     0.198 A 
ATOM    101  C   UNL A   1      44.528  24.601  32.491  1.00  0.00     0.198 A 
ATOM    102  F   UNL A   1      43.764  23.126  30.827  1.00  0.00    -0.203 F 
ATOM    103  F   UNL A   1      45.944  27.916  32.261  1.00  0.00    -0.200 F 
ATOM    104  C   UNL A   1      45.102  25.803  32.870  1.00  0.00     0.200 A 
ATOM    105  F   UNL A   1      44.180  23.706  33.425  1.00  0.00    -0.200 F 
ATOM    106  F   UNL A   1      45.349  26.058  34.162  1.00  0.00    -0.200 F 
ENDBRANCH  73  96
ENDBRANCH  47  48
ENDBRANCH  40  42
ENDBRANCH  39  40
ENDBRANCH  38  39
ENDBRANCH  37  38
ENDBRANCH   1  37
TORSDOF 18
ENDMDL
