MODEL 1
REMARK VINA RESULT:     -11.4      0.000      0.000
REMARK SMILES O=C(CCC(=O)c1c[nH]c2ccccc12)OCCOCCOC(=O)c1ccc(-c2c3nc(c(-c4c(F)c(F)c(F)c(F)c4F)c4ccc([nH]4)c(-c4c(F)c(F)c(F)c(F)c4F)c4nc(c(-c5c(F)c(F)c(F)c(F)c5F)c5ccc2[nH]5)C=C4)C=C3)cc1
REMARK SMILES IDX 18 1 17 2 16 3 2 4 1 5 3 6 4 7 5 8 6 9 7 10 8 11 15 12 9 13
REMARK SMILES IDX 10 14 14 15 11 17 13 18 12 19 19 20 20 21 21 22 22 23 23 24
REMARK SMILES IDX 24 25 25 26 26 27 87 28 27 29 86 30 28 31 29 32 30 33 80 34
REMARK SMILES IDX 31 35 85 36 79 37 81 38 32 39 84 40 78 41 77 42 33 44 65 45
REMARK SMILES IDX 45 46 64 47 46 48 49 49 63 50 82 51 47 52 48 53 62 55 83 56
REMARK SMILES IDX 50 57 34 58 35 59 43 60 36 61 37 62 41 63 44 64 38 65 39 66
REMARK SMILES IDX 42 67 40 68 66 69 67 70 75 71 68 72 69 73 73 74 76 75 70 76
REMARK SMILES IDX 71 77 74 78 72 79 51 80 52 81 60 82 53 83 54 84 58 85 61 86
REMARK SMILES IDX 55 87 56 88 59 89 57 90
REMARK H PARENT 9 16 81 43 49 54
REMARK Flexibility Score: inf
ROOT
ATOM      1  C   UNL A   1      32.735  29.725  26.056  1.00  0.00     0.202 C 
ENDROOT
BRANCH   1   2
ATOM      2  C   UNL A   1      33.485  28.596  26.765  1.00  0.00     0.261 C 
BRANCH   2   3
ATOM      3  O   UNL A   1      33.103  27.326  26.222  1.00  0.00    -0.463 OA
BRANCH   3   4
ATOM      4  C   UNL A   1      31.965  26.731  26.656  1.00  0.00     0.306 C 
ATOM      5  O   UNL A   1      31.140  27.345  27.327  1.00  0.00    -0.252 OA
BRANCH   4   6
ATOM      6  C   UNL A   1      31.647  25.406  26.028  1.00  0.00     0.131 C 
BRANCH   6   7
ATOM      7  C   UNL A   1      30.253  25.484  25.420  1.00  0.00     0.093 C 
BRANCH   7   8
ATOM      8  C   UNL A   1      30.324  25.563  23.909  1.00  0.00     0.165 C 
ATOM      9  O   UNL A   1      30.240  24.534  23.237  1.00  0.00    -0.294 OA
BRANCH   8  10
ATOM     10  C   UNL A   1      30.401  26.869  23.262  1.00  0.00     0.043 A 
ATOM     11  C   UNL A   1      31.596  27.395  22.802  1.00  0.00     0.095 A 
ATOM     12  C   UNL A   1      29.393  27.866  23.030  1.00  0.00     0.010 A 
ATOM     13  N   UNL A   1      31.355  28.637  22.289  1.00  0.00    -0.360 N 
ATOM     14  C   UNL A   1      30.033  28.971  22.459  1.00  0.00     0.046 A 
ATOM     15  C   UNL A   1      28.008  27.980  23.286  1.00  0.00     0.011 A 
ATOM     16  H   UNL A   1      32.030  29.210  21.861  1.00  0.00     0.166 HD
ATOM     17  C   UNL A   1      29.371  30.169  22.156  1.00  0.00     0.027 A 
ATOM     18  C   UNL A   1      27.334  29.177  23.005  1.00  0.00     0.001 A 
ATOM     19  C   UNL A   1      28.010  30.257  22.452  1.00  0.00     0.002 A 
ENDBRANCH   8  10
ENDBRANCH   7   8
ENDBRANCH   6   7
ENDBRANCH   4   6
ENDBRANCH   3   4
ENDBRANCH   2   3
ENDBRANCH   1   2
BRANCH   1  20
ATOM     20  O   UNL A   1      31.929  30.534  26.909  1.00  0.00    -0.374 OA
BRANCH  20  21
ATOM     21  C   UNL A   1      31.401  31.748  26.359  1.00  0.00     0.202 C 
BRANCH  21  22
ATOM     22  C   UNL A   1      31.981  33.049  26.924  1.00  0.00     0.261 C 
BRANCH  22  23
ATOM     23  O   UNL A   1      32.782  32.837  28.108  1.00  0.00    -0.460 OA
BRANCH  23  24
ATOM     24  C   UNL A   1      33.849  33.654  28.216  1.00  0.00     0.338 C 
ATOM     25  O   UNL A   1      33.838  34.865  28.431  1.00  0.00    -0.246 OA
BRANCH  24  26
ATOM     26  C   UNL A   1      35.126  32.934  28.112  1.00  0.00     0.060 A 
ATOM     27  C   UNL A   1      35.095  31.539  28.224  1.00  0.00     0.016 A 
ATOM     28  C   UNL A   1      36.331  33.631  28.238  1.00  0.00     0.016 A 
ATOM     29  C   UNL A   1      36.251  30.845  28.578  1.00  0.00     0.010 A 
ATOM     30  C   UNL A   1      37.491  32.932  28.591  1.00  0.00     0.010 A 
ATOM     31  C   UNL A   1      37.436  31.548  28.839  1.00  0.00    -0.014 A 
BRANCH  31  32
ATOM     32  C   UNL A   1      38.521  30.871  29.597  1.00  0.00     0.031 A 
ATOM     33  C   UNL A   1      38.699  31.196  31.060  1.00  0.00     0.074 A 
ATOM     34  C   UNL A   1      39.298  29.939  29.021  1.00  0.00     0.049 A 
ATOM     35  N   UNL A   1      39.551  30.703  31.925  1.00  0.00    -0.248 NA
ATOM     36  C   UNL A   1      37.795  32.213  31.622  1.00  0.00     0.031 C 
ATOM     37  C   UNL A   1      39.209  29.508  27.629  1.00  0.00     0.029 A 
ATOM     38  N   UNL A   1      40.315  29.182  29.548  1.00  0.00    -0.354 N 
ATOM     39  C   UNL A   1      39.288  31.352  33.126  1.00  0.00     0.074 A 
ATOM     40  C   UNL A   1      38.220  32.295  32.874  1.00  0.00     0.031 C 
ATOM     41  C   UNL A   1      40.136  28.558  27.410  1.00  0.00     0.029 A 
ATOM     42  C   UNL A   1      40.890  28.327  28.642  1.00  0.00     0.049 A 
ATOM     43  H   UNL A   1      40.604  29.246  30.487  1.00  0.00     0.167 HD
ATOM     44  C   UNL A   1      39.873  31.173  34.335  1.00  0.00     0.037 A 
ATOM     45  C   UNL A   1      41.910  27.460  28.792  1.00  0.00     0.037 A 
ATOM     46  C   UNL A   1      40.922  30.226  34.602  1.00  0.00     0.049 A 
ATOM     47  C   UNL A   1      42.567  27.302  30.139  1.00  0.00     0.074 A 
ATOM     48  C   UNL A   1      41.561  29.956  35.801  1.00  0.00     0.029 A 
ATOM     49  N   UNL A   1      41.489  29.392  33.652  1.00  0.00    -0.354 N 
ATOM     50  N   UNL A   1      42.288  27.895  31.273  1.00  0.00    -0.248 NA
ATOM     51  C   UNL A   1      43.676  26.340  30.225  1.00  0.00     0.031 C 
ATOM     52  C   UNL A   1      42.538  28.982  35.567  1.00  0.00     0.029 A 
ATOM     53  C   UNL A   1      42.480  28.618  34.232  1.00  0.00     0.049 A 
ATOM     54  H   UNL A   1      41.226  29.355  32.704  1.00  0.00     0.167 HD
ATOM     55  C   UNL A   1      43.159  27.356  32.212  1.00  0.00     0.074 A 
ATOM     56  C   UNL A   1      43.974  26.383  31.517  1.00  0.00     0.031 C 
ATOM     57  C   UNL A   1      43.271  27.639  33.533  1.00  0.00     0.037 A 
BRANCH  44  58
ATOM     58  C   UNL A   1      39.397  32.034  35.468  1.00  0.00     0.064 A 
ATOM     59  C   UNL A   1      38.500  31.550  36.431  1.00  0.00     0.173 A 
ATOM     60  C   UNL A   1      39.871  33.346  35.609  1.00  0.00     0.173 A 
ATOM     61  F   UNL A   1      38.010  30.305  36.333  1.00  0.00    -0.203 F 
ATOM     62  C   UNL A   1      38.077  32.358  37.484  1.00  0.00     0.198 A 
ATOM     63  C   UNL A   1      39.465  34.143  36.675  1.00  0.00     0.198 A 
ATOM     64  F   UNL A   1      40.735  33.853  34.716  1.00  0.00    -0.203 F 
ATOM     65  F   UNL A   1      37.191  31.889  38.373  1.00  0.00    -0.200 F 
ATOM     66  C   UNL A   1      38.565  33.651  37.608  1.00  0.00     0.200 A 
ATOM     67  F   UNL A   1      39.943  35.389  36.800  1.00  0.00    -0.200 F 
ATOM     68  F   UNL A   1      38.161  34.426  38.625  1.00  0.00    -0.200 F 
ENDBRANCH  44  58
BRANCH  45  69
ATOM     69  C   UNL A   1      42.367  26.652  27.635  1.00  0.00     0.064 A 
ATOM     70  C   UNL A   1      41.806  25.396  27.365  1.00  0.00     0.173 A 
ATOM     71  C   UNL A   1      43.387  27.110  26.789  1.00  0.00     0.173 A 
ATOM     72  F   UNL A   1      40.846  24.907  28.162  1.00  0.00    -0.203 F 
ATOM     73  C   UNL A   1      42.259  24.621  26.299  1.00  0.00     0.198 A 
ATOM     74  C   UNL A   1      43.823  26.345  25.710  1.00  0.00     0.198 A 
ATOM     75  F   UNL A   1      43.955  28.304  27.008  1.00  0.00    -0.203 F 
ATOM     76  F   UNL A   1      41.735  23.407  26.087  1.00  0.00    -0.200 F 
ATOM     77  C   UNL A   1      43.264  25.098  25.470  1.00  0.00     0.200 A 
ATOM     78  F   UNL A   1      44.787  26.812  24.905  1.00  0.00    -0.200 F 
ATOM     79  F   UNL A   1      43.698  24.353  24.444  1.00  0.00    -0.200 F 
ENDBRANCH  45  69
BRANCH  57  80
ATOM     80  C   UNL A   1      44.276  26.856  34.324  1.00  0.00     0.064 A 
ATOM     81  C   UNL A   1      45.582  27.323  34.524  1.00  0.00     0.173 A 
ATOM     82  C   UNL A   1      43.914  25.638  34.919  1.00  0.00     0.173 A 
ATOM     83  F   UNL A   1      45.979  28.476  33.963  1.00  0.00    -0.203 F 
ATOM     84  C   UNL A   1      46.500  26.588  35.270  1.00  0.00     0.198 A 
ATOM     85  C   UNL A   1      44.827  24.916  35.684  1.00  0.00     0.198 A 
ATOM     86  F   UNL A   1      42.674  25.150  34.764  1.00  0.00    -0.203 F 
ATOM     87  F   UNL A   1      47.755  27.031  35.412  1.00  0.00    -0.200 F 
ATOM     88  C   UNL A   1      46.120  25.388  35.853  1.00  0.00     0.200 A 
ATOM     89  F   UNL A   1      44.455  23.762  36.256  1.00  0.00    -0.200 F 
ATOM     90  F   UNL A   1      47.003  24.681  36.573  1.00  0.00    -0.200 F 
ENDBRANCH  57  80
ENDBRANCH  31  32
ENDBRANCH  24  26
ENDBRANCH  23  24
ENDBRANCH  22  23
ENDBRANCH  21  22
ENDBRANCH  20  21
ENDBRANCH   1  20
TORSDOF 17
ENDMDL
MODEL 2
REMARK VINA RESULT:     -11.3      3.614      8.379
REMARK SMILES O=C(CCC(=O)c1c[nH]c2ccccc12)OCCOCCOC(=O)c1ccc(-c2c3nc(c(-c4c(F)c(F)c(F)c(F)c4F)c4ccc([nH]4)c(-c4c(F)c(F)c(F)c(F)c4F)c4nc(c(-c5c(F)c(F)c(F)c(F)c5F)c5ccc2[nH]5)C=C4)C=C3)cc1
REMARK SMILES IDX 18 1 17 2 16 3 2 4 1 5 3 6 4 7 5 8 6 9 7 10 8 11 15 12 9 13
REMARK SMILES IDX 10 14 14 15 11 17 13 18 12 19 19 20 20 21 21 22 22 23 23 24
REMARK SMILES IDX 24 25 25 26 26 27 87 28 27 29 86 30 28 31 29 32 30 33 80 34
REMARK SMILES IDX 31 35 85 36 79 37 81 38 32 39 84 40 78 41 77 42 33 44 65 45
REMARK SMILES IDX 45 46 64 47 46 48 49 49 63 50 82 51 47 52 48 53 62 55 83 56
REMARK SMILES IDX 50 57 34 58 35 59 43 60 36 61 37 62 41 63 44 64 38 65 39 66
REMARK SMILES IDX 42 67 40 68 66 69 67 70 75 71 68 72 69 73 73 74 76 75 70 76
REMARK SMILES IDX 71 77 74 78 72 79 51 80 52 81 60 82 53 83 54 84 58 85 61 86
REMARK SMILES IDX 55 87 56 88 59 89 57 90
REMARK H PARENT 9 16 81 43 49 54
REMARK Flexibility Score: inf
ROOT
ATOM      1  C   UNL A   1      40.776  21.512  27.586  1.00  0.00     0.202 C 
ENDROOT
BRANCH   1   2
ATOM      2  C   UNL A   1      39.883  21.162  26.395  1.00  0.00     0.261 C 
BRANCH   2   3
ATOM      3  O   UNL A   1      39.018  22.262  26.080  1.00  0.00    -0.463 OA
BRANCH   3   4
ATOM      4  C   UNL A   1      37.902  22.040  25.343  1.00  0.00     0.306 C 
ATOM      5  O   UNL A   1      37.350  20.943  25.334  1.00  0.00    -0.252 OA
BRANCH   4   6
ATOM      6  C   UNL A   1      37.234  23.268  24.796  1.00  0.00     0.131 C 
BRANCH   6   7
ATOM      7  C   UNL A   1      36.468  23.944  25.926  1.00  0.00     0.093 C 
BRANCH   7   8
ATOM      8  C   UNL A   1      34.977  23.904  25.668  1.00  0.00     0.165 C 
ATOM      9  O   UNL A   1      34.264  23.132  26.312  1.00  0.00    -0.294 OA
BRANCH   8  10
ATOM     10  C   UNL A   1      34.386  24.847  24.724  1.00  0.00     0.043 A 
ATOM     11  C   UNL A   1      34.187  24.530  23.392  1.00  0.00     0.095 A 
ATOM     12  C   UNL A   1      33.978  26.215  24.889  1.00  0.00     0.010 A 
ATOM     13  N   UNL A   1      33.663  25.619  22.759  1.00  0.00    -0.360 N 
ATOM     14  C   UNL A   1      33.572  26.676  23.632  1.00  0.00     0.046 A 
ATOM     15  C   UNL A   1      33.953  27.139  25.957  1.00  0.00     0.011 A 
ATOM     16  H   UNL A   1      33.391  25.645  21.813  1.00  0.00     0.166 HD
ATOM     17  C   UNL A   1      33.168  27.997  23.394  1.00  0.00     0.027 A 
ATOM     18  C   UNL A   1      33.568  28.469  25.733  1.00  0.00     0.001 A 
ATOM     19  C   UNL A   1      33.186  28.890  24.466  1.00  0.00     0.002 A 
ENDBRANCH   8  10
ENDBRANCH   7   8
ENDBRANCH   6   7
ENDBRANCH   4   6
ENDBRANCH   3   4
ENDBRANCH   2   3
ENDBRANCH   1   2
BRANCH   1  20
ATOM     20  O   UNL A   1      41.933  22.277  27.261  1.00  0.00    -0.374 OA
BRANCH  20  21
ATOM     21  C   UNL A   1      42.891  21.680  26.378  1.00  0.00     0.202 C 
BRANCH  21  22
ATOM     22  C   UNL A   1      43.520  22.613  25.338  1.00  0.00     0.261 C 
BRANCH  22  23
ATOM     23  O   UNL A   1      42.654  23.712  24.977  1.00  0.00    -0.460 OA
BRANCH  23  24
ATOM     24  C   UNL A   1      43.221  24.931  25.088  1.00  0.00     0.338 C 
ATOM     25  O   UNL A   1      44.322  25.279  24.665  1.00  0.00    -0.246 OA
BRANCH  24  26
ATOM     26  C   UNL A   1      42.340  25.906  25.746  1.00  0.00     0.060 A 
ATOM     27  C   UNL A   1      42.811  27.216  25.884  1.00  0.00     0.016 A 
ATOM     28  C   UNL A   1      41.244  25.461  26.492  1.00  0.00     0.016 A 
ATOM     29  C   UNL A   1      42.260  28.053  26.854  1.00  0.00     0.010 A 
ATOM     30  C   UNL A   1      40.691  26.305  27.463  1.00  0.00     0.010 A 
ATOM     31  C   UNL A   1      41.250  27.574  27.699  1.00  0.00    -0.014 A 
BRANCH  31  32
ATOM     32  C   UNL A   1      40.964  28.303  28.963  1.00  0.00     0.031 A 
ATOM     33  C   UNL A   1      39.768  29.222  29.018  1.00  0.00     0.074 A 
ATOM     34  C   UNL A   1      41.709  28.110  30.064  1.00  0.00     0.049 A 
ATOM     35  N   UNL A   1      39.306  29.929  30.021  1.00  0.00    -0.248 NA
ATOM     36  C   UNL A   1      38.990  29.364  27.777  1.00  0.00     0.031 C 
ATOM     37  C   UNL A   1      42.867  27.226  30.156  1.00  0.00     0.029 A 
ATOM     38  N   UNL A   1      41.590  28.649  31.322  1.00  0.00    -0.354 N 
ATOM     39  C   UNL A   1      38.191  30.598  29.529  1.00  0.00     0.074 A 
ATOM     40  C   UNL A   1      38.063  30.240  28.133  1.00  0.00     0.031 C 
ATOM     41  C   UNL A   1      43.355  27.282  31.408  1.00  0.00     0.029 A 
ATOM     42  C   UNL A   1      42.552  28.215  32.198  1.00  0.00     0.049 A 
ATOM     43  H   UNL A   1      40.882  29.286  31.570  1.00  0.00     0.167 HD
ATOM     44  C   UNL A   1      37.341  31.428  30.181  1.00  0.00     0.037 A 
ATOM     45  C   UNL A   1      42.760  28.537  33.489  1.00  0.00     0.037 A 
ATOM     46  C   UNL A   1      37.449  31.776  31.573  1.00  0.00     0.049 A 
ATOM     47  C   UNL A   1      41.820  29.488  34.185  1.00  0.00     0.074 A 
ATOM     48  C   UNL A   1      36.621  32.591  32.327  1.00  0.00     0.029 A 
ATOM     49  N   UNL A   1      38.449  31.329  32.421  1.00  0.00    -0.354 N 
ATOM     50  N   UNL A   1      40.752  30.088  33.719  1.00  0.00    -0.248 NA
ATOM     51  C   UNL A   1      42.113  29.796  35.593  1.00  0.00     0.031 C 
ATOM     52  C   UNL A   1      37.141  32.663  33.624  1.00  0.00     0.029 A 
ATOM     53  C   UNL A   1      38.269  31.862  33.687  1.00  0.00     0.049 A 
ATOM     54  H   UNL A   1      39.179  30.722  32.161  1.00  0.00     0.167 HD
ATOM     55  C   UNL A   1      40.227  30.813  34.782  1.00  0.00     0.074 A 
ATOM     56  C   UNL A   1      41.091  30.575  35.919  1.00  0.00     0.031 C 
ATOM     57  C   UNL A   1      39.125  31.602  34.814  1.00  0.00     0.037 A 
BRANCH  44  58
ATOM     58  C   UNL A   1      36.220  32.032  29.388  1.00  0.00     0.064 A 
ATOM     59  C   UNL A   1      35.153  31.254  28.916  1.00  0.00     0.173 A 
ATOM     60  C   UNL A   1      36.197  33.409  29.129  1.00  0.00     0.173 A 
ATOM     61  F   UNL A   1      35.136  29.930  29.129  1.00  0.00    -0.203 F 
ATOM     62  C   UNL A   1      34.113  31.831  28.192  1.00  0.00     0.198 A 
ATOM     63  C   UNL A   1      35.144  33.987  28.425  1.00  0.00     0.198 A 
ATOM     64  F   UNL A   1      37.191  34.197  29.564  1.00  0.00    -0.203 F 
ATOM     65  F   UNL A   1      33.122  31.064  27.717  1.00  0.00    -0.200 F 
ATOM     66  C   UNL A   1      34.106  33.198  27.952  1.00  0.00     0.200 A 
ATOM     67  F   UNL A   1      35.134  35.309  28.202  1.00  0.00    -0.200 F 
ATOM     68  F   UNL A   1      33.102  33.754  27.260  1.00  0.00    -0.200 F 
ENDBRANCH  44  58
BRANCH  45  69
ATOM     69  C   UNL A   1      43.901  27.938  34.224  1.00  0.00     0.064 A 
ATOM     70  C   UNL A   1      43.761  26.725  34.911  1.00  0.00     0.173 A 
ATOM     71  C   UNL A   1      45.148  28.577  34.271  1.00  0.00     0.173 A 
ATOM     72  F   UNL A   1      42.579  26.092  34.915  1.00  0.00    -0.203 F 
ATOM     73  C   UNL A   1      44.822  26.179  35.631  1.00  0.00     0.198 A 
ATOM     74  C   UNL A   1      46.215  28.019  34.971  1.00  0.00     0.198 A 
ATOM     75  F   UNL A   1      45.331  29.741  33.630  1.00  0.00    -0.203 F 
ATOM     76  F   UNL A   1      44.650  25.039  36.313  1.00  0.00    -0.200 F 
ATOM     77  C   UNL A   1      46.049  26.825  35.657  1.00  0.00     0.200 A 
ATOM     78  F   UNL A   1      47.402  28.640  34.986  1.00  0.00    -0.200 F 
ATOM     79  F   UNL A   1      47.070  26.300  36.347  1.00  0.00    -0.200 F 
ENDBRANCH  45  69
BRANCH  57  80
ATOM     80  C   UNL A   1      38.762  32.228  36.127  1.00  0.00     0.064 A 
ATOM     81  C   UNL A   1      39.109  33.551  36.434  1.00  0.00     0.173 A 
ATOM     82  C   UNL A   1      38.028  31.503  37.078  1.00  0.00     0.173 A 
ATOM     83  F   UNL A   1      39.823  34.280  35.563  1.00  0.00    -0.203 F 
ATOM     84  C   UNL A   1      38.755  34.120  37.655  1.00  0.00     0.198 A 
ATOM     85  C   UNL A   1      37.655  32.082  38.289  1.00  0.00     0.198 A 
ATOM     86  F   UNL A   1      37.665  30.235  36.831  1.00  0.00    -0.203 F 
ATOM     87  F   UNL A   1      39.134  35.372  37.945  1.00  0.00    -0.200 F 
ATOM     88  C   UNL A   1      38.024  33.386  38.579  1.00  0.00     0.200 A 
ATOM     89  F   UNL A   1      36.940  31.376  39.176  1.00  0.00    -0.200 F 
ATOM     90  F   UNL A   1      37.683  33.935  39.753  1.00  0.00    -0.200 F 
ENDBRANCH  57  80
ENDBRANCH  31  32
ENDBRANCH  24  26
ENDBRANCH  23  24
ENDBRANCH  22  23
ENDBRANCH  21  22
ENDBRANCH  20  21
ENDBRANCH   1  20
TORSDOF 17
ENDMDL
MODEL 3
REMARK VINA RESULT:     -11.2      3.935      8.837
REMARK SMILES O=C(CCC(=O)c1c[nH]c2ccccc12)OCCOCCOC(=O)c1ccc(-c2c3nc(c(-c4c(F)c(F)c(F)c(F)c4F)c4ccc([nH]4)c(-c4c(F)c(F)c(F)c(F)c4F)c4nc(c(-c5c(F)c(F)c(F)c(F)c5F)c5ccc2[nH]5)C=C4)C=C3)cc1
REMARK SMILES IDX 18 1 17 2 16 3 2 4 1 5 3 6 4 7 5 8 6 9 7 10 8 11 15 12 9 13
REMARK SMILES IDX 10 14 14 15 11 17 13 18 12 19 19 20 20 21 21 22 22 23 23 24
REMARK SMILES IDX 24 25 25 26 26 27 87 28 27 29 86 30 28 31 29 32 30 33 80 34
REMARK SMILES IDX 31 35 85 36 79 37 81 38 32 39 84 40 78 41 77 42 33 44 65 45
REMARK SMILES IDX 45 46 64 47 46 48 49 49 63 50 82 51 47 52 48 53 62 55 83 56
REMARK SMILES IDX 50 57 34 58 35 59 43 60 36 61 37 62 41 63 44 64 38 65 39 66
REMARK SMILES IDX 42 67 40 68 66 69 67 70 75 71 68 72 69 73 73 74 76 75 70 76
REMARK SMILES IDX 71 77 74 78 72 79 51 80 52 81 60 82 53 83 54 84 58 85 61 86
REMARK SMILES IDX 55 87 56 88 59 89 57 90
REMARK H PARENT 9 16 81 43 49 54
REMARK Flexibility Score: inf
ROOT
ATOM      1  C   UNL A   1      40.990  21.518  27.564  1.00  0.00     0.202 C 
ENDROOT
BRANCH   1   2
ATOM      2  C   UNL A   1      40.065  21.220  26.383  1.00  0.00     0.261 C 
BRANCH   2   3
ATOM      3  O   UNL A   1      39.206  22.339  26.126  1.00  0.00    -0.463 OA
BRANCH   3   4
ATOM      4  C   UNL A   1      38.095  22.165  25.371  1.00  0.00     0.306 C 
ATOM      5  O   UNL A   1      37.619  21.049  25.181  1.00  0.00    -0.252 OA
BRANCH   4   6
ATOM      6  C   UNL A   1      37.334  23.416  25.040  1.00  0.00     0.131 C 
BRANCH   6   7
ATOM      7  C   UNL A   1      36.421  23.749  26.213  1.00  0.00     0.093 C 
BRANCH   7   8
ATOM      8  C   UNL A   1      34.967  23.728  25.789  1.00  0.00     0.165 C 
ATOM      9  O   UNL A   1      34.380  24.788  25.561  1.00  0.00    -0.294 OA
BRANCH   8  10
ATOM     10  C   UNL A   1      34.302  22.448  25.566  1.00  0.00     0.043 A 
ATOM     11  C   UNL A   1      34.445  21.381  26.434  1.00  0.00     0.095 A 
ATOM     12  C   UNL A   1      33.487  21.989  24.476  1.00  0.00     0.010 A 
ATOM     13  N   UNL A   1      33.744  20.320  25.939  1.00  0.00    -0.360 N 
ATOM     14  C   UNL A   1      33.192  20.644  24.723  1.00  0.00     0.046 A 
ATOM     15  C   UNL A   1      33.001  22.548  23.272  1.00  0.00     0.011 A 
ATOM     16  H   UNL A   1      33.650  19.449  26.386  1.00  0.00     0.166 HD
ATOM     17  C   UNL A   1      32.465  19.842  23.833  1.00  0.00     0.027 A 
ATOM     18  C   UNL A   1      32.287  21.755  22.362  1.00  0.00     0.001 A 
ATOM     19  C   UNL A   1      32.028  20.419  22.639  1.00  0.00     0.002 A 
ENDBRANCH   8  10
ENDBRANCH   7   8
ENDBRANCH   6   7
ENDBRANCH   4   6
ENDBRANCH   3   4
ENDBRANCH   2   3
ENDBRANCH   1   2
BRANCH   1  20
ATOM     20  O   UNL A   1      42.193  22.200  27.223  1.00  0.00    -0.374 OA
BRANCH  20  21
ATOM     21  C   UNL A   1      43.000  21.633  26.183  1.00  0.00     0.202 C 
BRANCH  21  22
ATOM     22  C   UNL A   1      43.617  22.627  25.193  1.00  0.00     0.261 C 
BRANCH  22  23
ATOM     23  O   UNL A   1      42.745  23.741  24.903  1.00  0.00    -0.460 OA
BRANCH  23  24
ATOM     24  C   UNL A   1      43.310  24.954  25.070  1.00  0.00     0.338 C 
ATOM     25  O   UNL A   1      44.425  25.311  24.693  1.00  0.00    -0.246 OA
BRANCH  24  26
ATOM     26  C   UNL A   1      42.411  25.911  25.728  1.00  0.00     0.060 A 
ATOM     27  C   UNL A   1      42.849  27.235  25.849  1.00  0.00     0.016 A 
ATOM     28  C   UNL A   1      41.336  25.445  26.490  1.00  0.00     0.016 A 
ATOM     29  C   UNL A   1      42.286  28.066  26.817  1.00  0.00     0.010 A 
ATOM     30  C   UNL A   1      40.771  26.282  27.460  1.00  0.00     0.010 A 
ATOM     31  C   UNL A   1      41.299  27.568  27.678  1.00  0.00    -0.014 A 
BRANCH  31  32
ATOM     32  C   UNL A   1      41.007  28.301  28.939  1.00  0.00     0.031 A 
ATOM     33  C   UNL A   1      39.803  29.209  28.991  1.00  0.00     0.074 A 
ATOM     34  C   UNL A   1      41.755  28.121  30.040  1.00  0.00     0.049 A 
ATOM     35  N   UNL A   1      39.335  29.917  29.990  1.00  0.00    -0.248 NA
ATOM     36  C   UNL A   1      39.023  29.338  27.749  1.00  0.00     0.031 C 
ATOM     37  C   UNL A   1      42.922  27.248  30.135  1.00  0.00     0.029 A 
ATOM     38  N   UNL A   1      41.633  28.665  31.295  1.00  0.00    -0.354 N 
ATOM     39  C   UNL A   1      38.214  30.574  29.496  1.00  0.00     0.074 A 
ATOM     40  C   UNL A   1      38.088  30.207  28.102  1.00  0.00     0.031 C 
ATOM     41  C   UNL A   1      43.411  27.314  31.386  1.00  0.00     0.029 A 
ATOM     42  C   UNL A   1      42.600  28.244  32.172  1.00  0.00     0.049 A 
ATOM     43  H   UNL A   1      40.919  29.297  31.541  1.00  0.00     0.167 HD
ATOM     44  C   UNL A   1      37.357  31.399  30.145  1.00  0.00     0.037 A 
ATOM     45  C   UNL A   1      42.806  28.576  33.461  1.00  0.00     0.037 A 
ATOM     46  C   UNL A   1      37.463  31.756  31.534  1.00  0.00     0.049 A 
ATOM     47  C   UNL A   1      41.858  29.521  34.153  1.00  0.00     0.074 A 
ATOM     48  C   UNL A   1      36.629  32.566  32.286  1.00  0.00     0.029 A 
ATOM     49  N   UNL A   1      38.468  31.322  32.383  1.00  0.00    -0.354 N 
ATOM     50  N   UNL A   1      40.785  30.109  33.686  1.00  0.00    -0.248 NA
ATOM     51  C   UNL A   1      42.150  29.839  35.559  1.00  0.00     0.031 C 
ATOM     52  C   UNL A   1      37.150  32.650  33.582  1.00  0.00     0.029 A 
ATOM     53  C   UNL A   1      38.285  31.860  33.647  1.00  0.00     0.049 A 
ATOM     54  H   UNL A   1      39.204  30.720  32.127  1.00  0.00     0.167 HD
ATOM     55  C   UNL A   1      40.254  30.835  34.746  1.00  0.00     0.074 A 
ATOM     56  C   UNL A   1      41.121  30.610  35.882  1.00  0.00     0.031 C 
ATOM     57  C   UNL A   1      39.145  31.614  34.775  1.00  0.00     0.037 A 
BRANCH  44  58
ATOM     58  C   UNL A   1      36.230  31.988  29.350  1.00  0.00     0.064 A 
ATOM     59  C   UNL A   1      35.165  31.200  28.889  1.00  0.00     0.173 A 
ATOM     60  C   UNL A   1      36.198  33.363  29.076  1.00  0.00     0.173 A 
ATOM     61  F   UNL A   1      35.157  29.877  29.117  1.00  0.00    -0.203 F 
ATOM     62  C   UNL A   1      34.119  31.764  28.164  1.00  0.00     0.198 A 
ATOM     63  C   UNL A   1      35.139  33.928  28.371  1.00  0.00     0.198 A 
ATOM     64  F   UNL A   1      37.190  34.160  29.500  1.00  0.00    -0.203 F 
ATOM     65  F   UNL A   1      33.131  30.986  27.701  1.00  0.00    -0.200 F 
ATOM     66  C   UNL A   1      34.104  33.128  27.910  1.00  0.00     0.200 A 
ATOM     67  F   UNL A   1      35.120  35.247  28.135  1.00  0.00    -0.200 F 
ATOM     68  F   UNL A   1      33.094  33.671  27.216  1.00  0.00    -0.200 F 
ENDBRANCH  44  58
BRANCH  45  69
ATOM     69  C   UNL A   1      43.954  27.991  34.198  1.00  0.00     0.064 A 
ATOM     70  C   UNL A   1      45.208  28.615  34.196  1.00  0.00     0.173 A 
ATOM     71  C   UNL A   1      43.823  26.785  34.902  1.00  0.00     0.173 A 
ATOM     72  F   UNL A   1      45.385  29.757  33.515  1.00  0.00    -0.203 F 
ATOM     73  C   UNL A   1      46.295  28.048  34.858  1.00  0.00     0.198 A 
ATOM     74  C   UNL A   1      44.905  26.231  35.583  1.00  0.00     0.198 A 
ATOM     75  F   UNL A   1      42.644  26.149  34.933  1.00  0.00    -0.203 F 
ATOM     76  F   UNL A   1      47.493  28.644  34.806  1.00  0.00    -0.200 F 
ATOM     77  C   UNL A   1      46.141  26.859  35.554  1.00  0.00     0.200 A 
ATOM     78  F   UNL A   1      44.750  25.087  36.264  1.00  0.00    -0.200 F 
ATOM     79  F   UNL A   1      47.186  26.314  36.193  1.00  0.00    -0.200 F 
ENDBRANCH  45  69
BRANCH  57  80
ATOM     80  C   UNL A   1      38.778  32.243  36.085  1.00  0.00     0.064 A 
ATOM     81  C   UNL A   1      38.082  31.534  37.074  1.00  0.00     0.173 A 
ATOM     82  C   UNL A   1      39.158  33.564  36.367  1.00  0.00     0.173 A 
ATOM     83  F   UNL A   1      37.685  30.273  36.847  1.00  0.00    -0.203 F 
ATOM     84  C   UNL A   1      37.759  32.132  38.290  1.00  0.00     0.198 A 
ATOM     85  C   UNL A   1      38.854  34.152  37.592  1.00  0.00     0.198 A 
ATOM     86  F   UNL A   1      39.831  34.284  35.457  1.00  0.00    -0.203 F 
ATOM     87  F   UNL A   1      37.056  31.450  39.204  1.00  0.00    -0.200 F 
ATOM     88  C   UNL A   1      38.149  33.437  38.550  1.00  0.00     0.200 A 
ATOM     89  F   UNL A   1      39.241  35.410  37.846  1.00  0.00    -0.200 F 
ATOM     90  F   UNL A   1      37.838  34.011  39.721  1.00  0.00    -0.200 F 
ENDBRANCH  57  80
ENDBRANCH  31  32
ENDBRANCH  24  26
ENDBRANCH  23  24
ENDBRANCH  22  23
ENDBRANCH  21  22
ENDBRANCH  20  21
ENDBRANCH   1  20
TORSDOF 17
ENDMDL
