MODEL 1
REMARK VINA RESULT:     -12.4      0.000      0.000
REMARK SMILES CCOc1ccc(-c2cc(Cl)cc3c2O[C@@H](C(F)(F)F)C(C(=O)OCCOCCOC(=O)c2ccc(-c4c5nc(c(-c6c(F)c(F)c(F)c(F)c6F)c6ccc([nH]6)c(-c6c(F)c(F)c(F)c(F)c6F)c6nc(c(-c7c(F)c(F)c(F)c(F)c7F)c7ccc4[nH]7)C=C6)C=C5)cc2)=C3)cc1
REMARK SMILES IDX 26 1 25 2 24 3 22 4 23 5 21 6 8 7 9 8 14 9 10 10 13 11 15 12
REMARK SMILES IDX 11 13 12 14 96 15 16 16 7 17 4 18 5 19 98 20 6 21 97 22 3 23
REMARK SMILES IDX 2 24 1 25 17 26 18 27 19 28 20 29 27 30 28 31 29 32 30 33
REMARK SMILES IDX 31 34 32 35 33 36 34 37 95 38 35 39 94 40 36 41 37 42 38 43
REMARK SMILES IDX 88 44 39 45 93 46 87 47 89 48 40 49 92 50 86 51 85 52 41 54
REMARK SMILES IDX 73 55 53 56 72 57 54 58 57 59 71 60 90 61 55 62 56 63 70 65
REMARK SMILES IDX 91 66 58 67 42 68 43 69 51 70 44 71 45 72 49 73 52 74 46 75
REMARK SMILES IDX 47 76 50 77 48 78 74 79 75 80 83 81 76 82 77 83 81 84 84 85
REMARK SMILES IDX 78 86 79 87 82 88 80 89 59 90 60 91 68 92 61 93 62 94 66 95
REMARK SMILES IDX 69 96 63 97 64 98 67 99 65 100
REMARK H PARENT 89 53 57 64
REMARK Flexibility Score: inf
ROOT
ATOM      1  C   UNL A   1      32.456  30.451  26.844  1.00  0.00     0.202 C 
ENDROOT
BRANCH   1   2
ATOM      2  C   UNL A   1      33.170  29.467  25.903  1.00  0.00     0.261 C 
BRANCH   2   3
ATOM      3  O   UNL A   1      33.232  28.130  26.422  1.00  0.00    -0.460 OA
BRANCH   3   4
ATOM      4  C   UNL A   1      32.577  27.195  25.708  1.00  0.00     0.338 C 
ATOM      5  O   UNL A   1      31.378  27.203  25.465  1.00  0.00    -0.246 OA
BRANCH   4   6
ATOM      6  C   UNL A   1      33.496  26.212  25.086  1.00  0.00     0.087 C 
ATOM      7  C   UNL A   1      31.950  22.419  24.353  1.00  0.00     0.026 A 
ATOM      8  C   UNL A   1      30.847  22.318  25.228  1.00  0.00     0.033 A 
ATOM      9  C   UNL A   1      32.713  23.601  24.494  1.00  0.00     0.135 A 
ATOM     10  C   UNL A   1      30.782  23.094  26.385  1.00  0.00     0.042 A 
ATOM     11  C   UNL A   1      32.809  24.194  25.763  1.00  0.00     0.019 A 
ATOM     12  O   UNL A   1      32.872  24.461  23.383  1.00  0.00    -0.475 OA
ATOM     13  Cl  UNL A   1      29.467  22.893  27.472  1.00  0.00    -0.084 Cl
ATOM     14  C   UNL A   1      31.820  23.957  26.709  1.00  0.00     0.032 A 
ATOM     15  C   UNL A   1      33.815  25.256  25.974  1.00  0.00     0.027 C 
ATOM     16  C   UNL A   1      33.537  25.768  23.637  1.00  0.00     0.316 C 
BRANCH   7  17
ATOM     17  C   UNL A   1      32.554  21.069  24.016  1.00  0.00    -0.014 A 
ATOM     18  C   UNL A   1      33.122  18.267  23.741  1.00  0.00     0.119 A 
ATOM     19  C   UNL A   1      32.395  18.945  22.766  1.00  0.00     0.047 A 
ATOM     20  C   UNL A   1      33.617  18.986  24.822  1.00  0.00     0.047 A 
ATOM     21  C   UNL A   1      32.121  20.322  22.898  1.00  0.00     0.013 A 
ATOM     22  C   UNL A   1      33.338  20.365  24.957  1.00  0.00     0.013 A 
BRANCH  18  23
ATOM     23  O   UNL A   1      33.444  16.962  23.494  1.00  0.00    -0.494 OA
BRANCH  23  24
ATOM     24  C   UNL A   1      33.917  16.191  24.606  1.00  0.00     0.226 C 
ATOM     25  C   UNL A   1      32.811  15.354  25.231  1.00  0.00     0.049 C 
ENDBRANCH  23  24
ENDBRANCH  18  23
ENDBRANCH   7  17
BRANCH  16  26
ATOM     26  C   UNL A   1      33.276  26.896  22.611  1.00  0.00     0.430 C 
ATOM     27  F   UNL A   1      34.026  27.983  22.945  1.00  0.00    -0.167 F 
ATOM     28  F   UNL A   1      33.656  26.542  21.362  1.00  0.00    -0.167 F 
ATOM     29  F   UNL A   1      32.001  27.318  22.533  1.00  0.00    -0.167 F 
ENDBRANCH  16  26
ENDBRANCH   4   6
ENDBRANCH   3   4
ENDBRANCH   2   3
ENDBRANCH   1   2
BRANCH   1  30
ATOM     30  O   UNL A   1      31.392  31.238  26.327  1.00  0.00    -0.374 OA
BRANCH  30  31
ATOM     31  C   UNL A   1      31.422  32.646  26.549  1.00  0.00     0.202 C 
BRANCH  31  32
ATOM     32  C   UNL A   1      32.605  33.248  27.312  1.00  0.00     0.261 C 
BRANCH  32  33
ATOM     33  O   UNL A   1      32.218  34.021  28.458  1.00  0.00    -0.460 OA
BRANCH  33  34
ATOM     34  C   UNL A   1      33.049  35.046  28.752  1.00  0.00     0.338 C 
ATOM     35  O   UNL A   1      32.873  36.241  28.537  1.00  0.00    -0.246 OA
BRANCH  34  36
ATOM     36  C   UNL A   1      34.189  34.555  29.534  1.00  0.00     0.060 A 
ATOM     37  C   UNL A   1      35.469  34.653  28.974  1.00  0.00     0.016 A 
ATOM     38  C   UNL A   1      33.988  33.908  30.755  1.00  0.00     0.016 A 
ATOM     39  C   UNL A   1      36.555  34.070  29.620  1.00  0.00     0.010 A 
ATOM     40  C   UNL A   1      35.077  33.317  31.397  1.00  0.00     0.010 A 
ATOM     41  C   UNL A   1      36.357  33.367  30.815  1.00  0.00    -0.014 A 
BRANCH  41  42
ATOM     42  C   UNL A   1      37.461  32.562  31.387  1.00  0.00     0.031 A 
ATOM     43  C   UNL A   1      37.970  32.895  32.760  1.00  0.00     0.074 A 
ATOM     44  C   UNL A   1      37.992  31.542  30.691  1.00  0.00     0.049 A 
ATOM     45  N   UNL A   1      38.958  32.365  33.434  1.00  0.00    -0.248 NA
ATOM     46  C   UNL A   1      37.273  33.981  33.466  1.00  0.00     0.031 C 
ATOM     47  C   UNL A   1      37.547  31.101  29.371  1.00  0.00     0.029 A 
ATOM     48  N   UNL A   1      39.028  30.699  31.000  1.00  0.00    -0.354 N 
ATOM     49  C   UNL A   1      39.010  33.061  34.636  1.00  0.00     0.074 A 
ATOM     50  C   UNL A   1      37.979  34.073  34.584  1.00  0.00     0.031 C 
ATOM     51  C   UNL A   1      38.306  30.064  28.982  1.00  0.00     0.029 A 
ATOM     52  C   UNL A   1      39.314  29.798  30.006  1.00  0.00     0.049 A 
ATOM     53  H   UNL A   1      39.519  30.736  31.853  1.00  0.00     0.167 HD
ATOM     54  C   UNL A   1      39.841  32.865  35.689  1.00  0.00     0.037 A 
ATOM     55  C   UNL A   1      40.295  28.878  29.928  1.00  0.00     0.037 A 
ATOM     56  C   UNL A   1      40.867  31.855  35.725  1.00  0.00     0.049 A 
ATOM     57  C   UNL A   1      41.263  28.740  31.075  1.00  0.00     0.074 A 
ATOM     58  C   UNL A   1      41.746  31.554  36.750  1.00  0.00     0.029 A 
ATOM     59  N   UNL A   1      41.161  30.990  34.680  1.00  0.00    -0.354 N 
ATOM     60  N   UNL A   1      41.289  29.377  32.221  1.00  0.00    -0.248 NA
ATOM     61  C   UNL A   1      42.339  27.753  30.913  1.00  0.00     0.031 C 
ATOM     62  C   UNL A   1      42.615  30.553  36.300  1.00  0.00     0.029 A 
ATOM     63  C   UNL A   1      42.233  30.181  35.021  1.00  0.00     0.049 A 
ATOM     64  H   UNL A   1      40.679  30.957  33.822  1.00  0.00     0.167 HD
ATOM     65  C   UNL A   1      42.357  28.842  32.932  1.00  0.00     0.074 A 
ATOM     66  C   UNL A   1      42.948  27.824  32.089  1.00  0.00     0.031 C 
ATOM     67  C   UNL A   1      42.805  29.163  34.172  1.00  0.00     0.037 A 
BRANCH  54  68
ATOM     68  C   UNL A   1      39.698  33.792  36.862  1.00  0.00     0.064 A 
ATOM     69  C   UNL A   1      40.318  35.051  36.897  1.00  0.00     0.173 A 
ATOM     70  C   UNL A   1      38.928  33.414  37.973  1.00  0.00     0.173 A 
ATOM     71  F   UNL A   1      41.076  35.459  35.867  1.00  0.00    -0.203 F 
ATOM     72  C   UNL A   1      40.208  35.876  38.015  1.00  0.00     0.198 A 
ATOM     73  C   UNL A   1      38.789  34.256  39.073  1.00  0.00     0.198 A 
ATOM     74  F   UNL A   1      38.307  32.225  37.994  1.00  0.00    -0.203 F 
ATOM     75  F   UNL A   1      40.865  37.044  38.050  1.00  0.00    -0.200 F 
ATOM     76  C   UNL A   1      39.440  35.480  39.099  1.00  0.00     0.200 A 
ATOM     77  F   UNL A   1      38.034  33.878  40.114  1.00  0.00    -0.200 F 
ATOM     78  F   UNL A   1      39.336  36.274  40.174  1.00  0.00    -0.200 F 
ENDBRANCH  54  68
BRANCH  55  79
ATOM     79  C   UNL A   1      40.403  28.007  28.729  1.00  0.00     0.064 A 
ATOM     80  C   UNL A   1      39.790  26.747  28.699  1.00  0.00     0.173 A 
ATOM     81  C   UNL A   1      41.125  28.408  27.594  1.00  0.00     0.173 A 
ATOM     82  F   UNL A   1      39.111  26.309  29.771  1.00  0.00    -0.203 F 
ATOM     83  C   UNL A   1      39.907  25.914  27.589  1.00  0.00     0.198 A 
ATOM     84  C   UNL A   1      41.215  27.587  26.472  1.00  0.00     0.198 A 
ATOM     85  F   UNL A   1      41.732  29.603  27.571  1.00  0.00    -0.203 F 
ATOM     86  F   UNL A   1      39.349  24.696  27.607  1.00  0.00    -0.200 F 
ATOM     87  C   UNL A   1      40.613  26.338  26.473  1.00  0.00     0.200 A 
ATOM     88  F   UNL A   1      41.887  28.006  25.391  1.00  0.00    -0.200 F 
ATOM     89  F   UNL A   1      40.720  25.539  25.402  1.00  0.00    -0.200 F 
ENDBRANCH  55  79
BRANCH  67  90
ATOM     90  C   UNL A   1      43.960  28.370  34.715  1.00  0.00     0.064 A 
ATOM     91  C   UNL A   1      45.288  28.801  34.576  1.00  0.00     0.173 A 
ATOM     92  C   UNL A   1      43.729  27.178  35.420  1.00  0.00     0.173 A 
ATOM     93  F   UNL A   1      45.565  29.926  33.899  1.00  0.00    -0.203 F 
ATOM     94  C   UNL A   1      46.342  28.054  35.096  1.00  0.00     0.198 A 
ATOM     95  C   UNL A   1      44.783  26.452  35.969  1.00  0.00     0.198 A 
ATOM     96  F   UNL A   1      42.479  26.723  35.590  1.00  0.00    -0.203 F 
ATOM     97  F   UNL A   1      47.606  28.457  34.902  1.00  0.00    -0.200 F 
ATOM     98  C   UNL A   1      46.089  26.885  35.799  1.00  0.00     0.200 A 
ATOM     99  F   UNL A   1      44.534  25.333  36.663  1.00  0.00    -0.200 F 
ATOM    100  F   UNL A   1      47.105  26.173  36.306  1.00  0.00    -0.200 F 
ENDBRANCH  67  90
ENDBRANCH  41  42
ENDBRANCH  34  36
ENDBRANCH  33  34
ENDBRANCH  32  33
ENDBRANCH  31  32
ENDBRANCH  30  31
ENDBRANCH   1  30
TORSDOF 18
ENDMDL
MODEL 2
REMARK VINA RESULT:     -12.3      1.047      2.026
REMARK SMILES CCOc1ccc(-c2cc(Cl)cc3c2O[C@@H](C(F)(F)F)C(C(=O)OCCOCCOC(=O)c2ccc(-c4c5nc(c(-c6c(F)c(F)c(F)c(F)c6F)c6ccc([nH]6)c(-c6c(F)c(F)c(F)c(F)c6F)c6nc(c(-c7c(F)c(F)c(F)c(F)c7F)c7ccc4[nH]7)C=C6)C=C5)cc2)=C3)cc1
REMARK SMILES IDX 26 1 25 2 24 3 22 4 23 5 21 6 8 7 9 8 14 9 10 10 13 11 15 12
REMARK SMILES IDX 11 13 12 14 96 15 16 16 7 17 4 18 5 19 98 20 6 21 97 22 3 23
REMARK SMILES IDX 2 24 1 25 17 26 18 27 19 28 20 29 27 30 28 31 29 32 30 33
REMARK SMILES IDX 31 34 32 35 33 36 34 37 95 38 35 39 94 40 36 41 37 42 38 43
REMARK SMILES IDX 88 44 39 45 93 46 87 47 89 48 40 49 92 50 86 51 85 52 41 54
REMARK SMILES IDX 73 55 53 56 72 57 54 58 57 59 71 60 90 61 55 62 56 63 70 65
REMARK SMILES IDX 91 66 58 67 42 68 43 69 51 70 44 71 45 72 49 73 52 74 46 75
REMARK SMILES IDX 47 76 50 77 48 78 74 79 75 80 83 81 76 82 77 83 81 84 84 85
REMARK SMILES IDX 78 86 79 87 82 88 80 89 59 90 60 91 68 92 61 93 62 94 66 95
REMARK SMILES IDX 69 96 63 97 64 98 67 99 65 100
REMARK H PARENT 89 53 57 64
REMARK Flexibility Score: inf
ROOT
ATOM      1  C   UNL A   1      32.130  30.317  26.430  1.00  0.00     0.202 C 
ENDROOT
BRANCH   1   2
ATOM      2  C   UNL A   1      32.763  29.465  25.319  1.00  0.00     0.261 C 
BRANCH   2   3
ATOM      3  O   UNL A   1      33.270  28.207  25.788  1.00  0.00    -0.460 OA
BRANCH   3   4
ATOM      4  C   UNL A   1      32.628  27.113  25.338  1.00  0.00     0.338 C 
ATOM      5  O   UNL A   1      31.413  26.977  25.289  1.00  0.00    -0.246 OA
BRANCH   4   6
ATOM      6  C   UNL A   1      33.551  26.121  24.737  1.00  0.00     0.087 C 
ATOM      7  C   UNL A   1      32.071  22.267  24.222  1.00  0.00     0.026 A 
ATOM      8  C   UNL A   1      30.994  22.183  25.131  1.00  0.00     0.033 A 
ATOM      9  C   UNL A   1      32.810  23.470  24.287  1.00  0.00     0.135 A 
ATOM     10  C   UNL A   1      30.942  23.011  26.253  1.00  0.00     0.042 A 
ATOM     11  C   UNL A   1      32.927  24.123  25.524  1.00  0.00     0.019 A 
ATOM     12  O   UNL A   1      32.921  24.280  23.134  1.00  0.00    -0.475 OA
ATOM     13  Cl  UNL A   1      29.661  22.834  27.383  1.00  0.00    -0.084 Cl
ATOM     14  C   UNL A   1      31.969  23.909  26.507  1.00  0.00     0.032 A 
ATOM     15  C   UNL A   1      33.915  25.214  25.658  1.00  0.00     0.027 C 
ATOM     16  C   UNL A   1      33.563  25.612  23.310  1.00  0.00     0.316 C 
BRANCH   7  17
ATOM     17  C   UNL A   1      32.695  20.916  23.931  1.00  0.00    -0.014 A 
ATOM     18  C   UNL A   1      33.381  18.128  23.853  1.00  0.00     0.119 A 
ATOM     19  C   UNL A   1      32.472  18.662  22.944  1.00  0.00     0.047 A 
ATOM     20  C   UNL A   1      33.993  18.981  24.762  1.00  0.00     0.047 A 
ATOM     21  C   UNL A   1      32.140  20.033  22.978  1.00  0.00     0.013 A 
ATOM     22  C   UNL A   1      33.656  20.353  24.800  1.00  0.00     0.013 A 
BRANCH  18  23
ATOM     23  O   UNL A   1      33.739  16.818  23.690  1.00  0.00    -0.494 OA
BRANCH  23  24
ATOM     24  C   UNL A   1      33.998  16.066  24.883  1.00  0.00     0.226 C 
ATOM     25  C   UNL A   1      32.719  15.532  25.511  1.00  0.00     0.049 C 
ENDBRANCH  23  24
ENDBRANCH  18  23
ENDBRANCH   7  17
BRANCH  16  26
ATOM     26  C   UNL A   1      33.250  26.684  22.240  1.00  0.00     0.430 C 
ATOM     27  F   UNL A   1      31.968  27.116  22.405  1.00  0.00    -0.167 F 
ATOM     28  F   UNL A   1      34.039  27.775  22.371  1.00  0.00    -0.167 F 
ATOM     29  F   UNL A   1      33.355  26.270  20.964  1.00  0.00    -0.167 F 
ENDBRANCH  16  26
ENDBRANCH   4   6
ENDBRANCH   3   4
ENDBRANCH   2   3
ENDBRANCH   1   2
BRANCH   1  30
ATOM     30  O   UNL A   1      31.165  31.297  26.072  1.00  0.00    -0.374 OA
BRANCH  30  31
ATOM     31  C   UNL A   1      31.374  32.641  26.503  1.00  0.00     0.202 C 
BRANCH  31  32
ATOM     32  C   UNL A   1      32.713  33.010  27.146  1.00  0.00     0.261 C 
BRANCH  32  33
ATOM     33  O   UNL A   1      32.588  33.887  28.275  1.00  0.00    -0.460 OA
BRANCH  33  34
ATOM     34  C   UNL A   1      33.685  34.634  28.532  1.00  0.00     0.338 C 
ATOM     35  O   UNL A   1      33.758  35.855  28.623  1.00  0.00    -0.246 OA
BRANCH  34  36
ATOM     36  C   UNL A   1      34.819  33.759  28.854  1.00  0.00     0.060 A 
ATOM     37  C   UNL A   1      34.548  32.473  29.336  1.00  0.00     0.016 A 
ATOM     38  C   UNL A   1      36.129  34.237  28.783  1.00  0.00     0.016 A 
ATOM     39  C   UNL A   1      35.589  31.667  29.787  1.00  0.00     0.010 A 
ATOM     40  C   UNL A   1      37.171  33.431  29.242  1.00  0.00     0.010 A 
ATOM     41  C   UNL A   1      36.901  32.157  29.777  1.00  0.00    -0.014 A 
BRANCH  41  42
ATOM     42  C   UNL A   1      37.976  31.397  30.456  1.00  0.00     0.031 A 
ATOM     43  C   UNL A   1      38.265  31.678  31.902  1.00  0.00     0.074 A 
ATOM     44  C   UNL A   1      38.676  30.465  29.788  1.00  0.00     0.049 A 
ATOM     45  N   UNL A   1      39.190  31.177  32.680  1.00  0.00    -0.248 NA
ATOM     46  C   UNL A   1      37.394  32.665  32.560  1.00  0.00     0.031 C 
ATOM     47  C   UNL A   1      38.452  30.078  28.397  1.00  0.00     0.029 A 
ATOM     48  N   UNL A   1      39.723  29.678  30.195  1.00  0.00    -0.354 N 
ATOM     49  C   UNL A   1      39.022  31.796  33.913  1.00  0.00     0.074 A 
ATOM     50  C   UNL A   1      37.931  32.735  33.769  1.00  0.00     0.031 C 
ATOM     51  C   UNL A   1      39.337  29.124  28.064  1.00  0.00     0.029 A 
ATOM     52  C   UNL A   1      40.213  28.865  29.205  1.00  0.00     0.049 A 
ATOM     53  H   UNL A   1      40.088  29.695  31.110  1.00  0.00     0.167 HD
ATOM     54  C   UNL A   1      39.714  31.593  35.060  1.00  0.00     0.037 A 
ATOM     55  C   UNL A   1      41.263  28.023  29.218  1.00  0.00     0.037 A 
ATOM     56  C   UNL A   1      40.801  30.657  35.188  1.00  0.00     0.049 A 
ATOM     57  C   UNL A   1      42.073  27.881  30.481  1.00  0.00     0.074 A 
ATOM     58  C   UNL A   1      41.553  30.354  36.309  1.00  0.00     0.029 A 
ATOM     59  N   UNL A   1      41.303  29.884  34.150  1.00  0.00    -0.354 N 
ATOM     60  N   UNL A   1      41.893  28.443  31.651  1.00  0.00    -0.248 NA
ATOM     61  C   UNL A   1      43.236  26.985  30.420  1.00  0.00     0.031 C 
ATOM     62  C   UNL A   1      42.550  29.448  35.933  1.00  0.00     0.029 A 
ATOM     63  C   UNL A   1      42.378  29.132  34.595  1.00  0.00     0.049 A 
ATOM     64  H   UNL A   1      40.947  29.872  33.232  1.00  0.00     0.167 HD
ATOM     65  C   UNL A   1      42.892  27.941  32.476  1.00  0.00     0.074 A 
ATOM     66  C   UNL A   1      43.671  27.023  31.672  1.00  0.00     0.031 C 
ATOM     67  C   UNL A   1      43.139  28.213  33.782  1.00  0.00     0.037 A 
BRANCH  54  68
ATOM     68  C   UNL A   1      39.339  32.431  36.250  1.00  0.00     0.064 A 
ATOM     69  C   UNL A   1      39.948  33.668  36.510  1.00  0.00     0.173 A 
ATOM     70  C   UNL A   1      38.353  31.989  37.145  1.00  0.00     0.173 A 
ATOM     71  F   UNL A   1      40.906  34.135  35.694  1.00  0.00    -0.203 F 
ATOM     72  C   UNL A   1      39.617  34.408  37.644  1.00  0.00     0.198 A 
ATOM     73  C   UNL A   1      37.997  32.747  38.257  1.00  0.00     0.198 A 
ATOM     74  F   UNL A   1      37.732  30.816  36.944  1.00  0.00    -0.203 F 
ATOM     75  F   UNL A   1      40.261  35.554  37.907  1.00  0.00    -0.200 F 
ATOM     76  C   UNL A   1      38.638  33.950  38.513  1.00  0.00     0.200 A 
ATOM     77  F   UNL A   1      37.040  32.309  39.088  1.00  0.00    -0.200 F 
ATOM     78  F   UNL A   1      38.321  34.661  39.603  1.00  0.00    -0.200 F 
ENDBRANCH  54  68
BRANCH  55  79
ATOM     79  C   UNL A   1      41.604  27.240  28.001  1.00  0.00     0.064 A 
ATOM     80  C   UNL A   1      42.444  27.774  27.015  1.00  0.00     0.173 A 
ATOM     81  C   UNL A   1      41.093  25.949  27.793  1.00  0.00     0.173 A 
ATOM     82  F   UNL A   1      42.935  29.015  27.157  1.00  0.00    -0.203 F 
ATOM     83  C   UNL A   1      42.748  27.056  25.861  1.00  0.00     0.198 A 
ATOM     84  C   UNL A   1      41.423  25.220  26.653  1.00  0.00     0.198 A 
ATOM     85  F   UNL A   1      40.283  25.391  28.705  1.00  0.00    -0.203 F 
ATOM     86  F   UNL A   1      43.517  27.611  24.914  1.00  0.00    -0.200 F 
ATOM     87  C   UNL A   1      42.244  25.777  25.684  1.00  0.00     0.200 A 
ATOM     88  F   UNL A   1      40.945  23.979  26.493  1.00  0.00    -0.200 F 
ATOM     89  F   UNL A   1      42.542  25.084  24.576  1.00  0.00    -0.200 F 
ENDBRANCH  55  79
BRANCH  67  90
ATOM     90  C   UNL A   1      44.268  27.470  34.440  1.00  0.00     0.064 A 
ATOM     91  C   UNL A   1      44.086  26.205  35.018  1.00  0.00     0.173 A 
ATOM     92  C   UNL A   1      45.560  28.019  34.457  1.00  0.00     0.173 A 
ATOM     93  F   UNL A   1      42.869  25.641  35.042  1.00  0.00    -0.203 F 
ATOM     94  C   UNL A   1      45.150  25.531  35.614  1.00  0.00     0.198 A 
ATOM     95  C   UNL A   1      46.628  27.326  35.022  1.00  0.00     0.198 A 
ATOM     96  F   UNL A   1      45.792  29.222  33.912  1.00  0.00    -0.203 F 
ATOM     97  F   UNL A   1      44.941  24.348  36.210  1.00  0.00    -0.200 F 
ATOM     98  C   UNL A   1      46.420  26.087  35.608  1.00  0.00     0.200 A 
ATOM     99  F   UNL A   1      47.857  27.858  34.999  1.00  0.00    -0.200 F 
ATOM    100  F   UNL A   1      47.443  25.432  36.175  1.00  0.00    -0.200 F 
ENDBRANCH  67  90
ENDBRANCH  41  42
ENDBRANCH  34  36
ENDBRANCH  33  34
ENDBRANCH  32  33
ENDBRANCH  31  32
ENDBRANCH  30  31
ENDBRANCH   1  30
TORSDOF 18
ENDMDL
MODEL 3
REMARK VINA RESULT:     -12.2      0.631      7.011
REMARK SMILES CCOc1ccc(-c2cc(Cl)cc3c2O[C@@H](C(F)(F)F)C(C(=O)OCCOCCOC(=O)c2ccc(-c4c5nc(c(-c6c(F)c(F)c(F)c(F)c6F)c6ccc([nH]6)c(-c6c(F)c(F)c(F)c(F)c6F)c6nc(c(-c7c(F)c(F)c(F)c(F)c7F)c7ccc4[nH]7)C=C6)C=C5)cc2)=C3)cc1
REMARK SMILES IDX 26 1 25 2 24 3 22 4 23 5 21 6 8 7 9 8 14 9 10 10 13 11 15 12
REMARK SMILES IDX 11 13 12 14 96 15 16 16 7 17 4 18 5 19 98 20 6 21 97 22 3 23
REMARK SMILES IDX 2 24 1 25 17 26 18 27 19 28 20 29 27 30 28 31 29 32 30 33
REMARK SMILES IDX 31 34 32 35 33 36 34 37 95 38 35 39 94 40 36 41 37 42 38 43
REMARK SMILES IDX 88 44 39 45 93 46 87 47 89 48 40 49 92 50 86 51 85 52 41 54
REMARK SMILES IDX 73 55 53 56 72 57 54 58 57 59 71 60 90 61 55 62 56 63 70 65
REMARK SMILES IDX 91 66 58 67 42 68 43 69 51 70 44 71 45 72 49 73 52 74 46 75
REMARK SMILES IDX 47 76 50 77 48 78 74 79 75 80 83 81 76 82 77 83 81 84 84 85
REMARK SMILES IDX 78 86 79 87 82 88 80 89 59 90 60 91 68 92 61 93 62 94 66 95
REMARK SMILES IDX 69 96 63 97 64 98 67 99 65 100
REMARK H PARENT 89 53 57 64
REMARK Flexibility Score: inf
ROOT
ATOM      1  C   UNL A   1      32.023  30.360  26.407  1.00  0.00     0.202 C 
ENDROOT
BRANCH   1   2
ATOM      2  C   UNL A   1      32.696  29.418  25.395  1.00  0.00     0.261 C 
BRANCH   2   3
ATOM      3  O   UNL A   1      33.134  28.182  25.977  1.00  0.00    -0.460 OA
BRANCH   3   4
ATOM      4  C   UNL A   1      32.501  27.075  25.544  1.00  0.00     0.338 C 
ATOM      5  O   UNL A   1      31.288  26.923  25.509  1.00  0.00    -0.246 OA
BRANCH   4   6
ATOM      6  C   UNL A   1      33.431  26.091  24.940  1.00  0.00     0.087 C 
ATOM      7  C   UNL A   1      31.949  22.248  24.348  1.00  0.00     0.026 A 
ATOM      8  C   UNL A   1      30.860  22.153  25.241  1.00  0.00     0.033 A 
ATOM      9  C   UNL A   1      32.691  23.448  24.441  1.00  0.00     0.135 A 
ATOM     10  C   UNL A   1      30.795  22.965  26.374  1.00  0.00     0.042 A 
ATOM     11  C   UNL A   1      32.792  24.083  25.689  1.00  0.00     0.019 A 
ATOM     12  O   UNL A   1      32.818  24.275  23.302  1.00  0.00    -0.475 OA
ATOM     13  Cl  UNL A   1      29.498  22.773  27.484  1.00  0.00    -0.084 Cl
ATOM     14  C   UNL A   1      31.820  23.857  26.656  1.00  0.00     0.032 A 
ATOM     15  C   UNL A   1      33.780  25.169  25.853  1.00  0.00     0.027 C 
ATOM     16  C   UNL A   1      33.461  25.602  23.506  1.00  0.00     0.316 C 
BRANCH   7  17
ATOM     17  C   UNL A   1      32.575  20.900  24.045  1.00  0.00    -0.014 A 
ATOM     18  C   UNL A   1      33.192  18.102  23.849  1.00  0.00     0.119 A 
ATOM     19  C   UNL A   1      32.442  18.735  22.863  1.00  0.00     0.047 A 
ATOM     20  C   UNL A   1      33.686  18.862  24.902  1.00  0.00     0.047 A 
ATOM     21  C   UNL A   1      32.144  20.111  22.956  1.00  0.00     0.013 A 
ATOM     22  C   UNL A   1      33.382  20.239  24.997  1.00  0.00     0.013 A 
BRANCH  18  23
ATOM     23  O   UNL A   1      33.537  16.796  23.638  1.00  0.00    -0.494 OA
BRANCH  23  24
ATOM     24  C   UNL A   1      33.813  16.004  24.801  1.00  0.00     0.226 C 
ATOM     25  C   UNL A   1      32.539  15.522  25.479  1.00  0.00     0.049 C 
ENDBRANCH  23  24
ENDBRANCH  18  23
ENDBRANCH   7  17
BRANCH  16  26
ATOM     26  C   UNL A   1      33.165  26.692  22.448  1.00  0.00     0.430 C 
ATOM     27  F   UNL A   1      33.984  27.758  22.668  1.00  0.00    -0.167 F 
ATOM     28  F   UNL A   1      33.428  26.263  21.193  1.00  0.00    -0.167 F 
ATOM     29  F   UNL A   1      31.906  27.167  22.450  1.00  0.00    -0.167 F 
ENDBRANCH  16  26
ENDBRANCH   4   6
ENDBRANCH   3   4
ENDBRANCH   2   3
ENDBRANCH   1   2
BRANCH   1  30
ATOM     30  O   UNL A   1      31.126  31.351  25.925  1.00  0.00    -0.374 OA
BRANCH  30  31
ATOM     31  C   UNL A   1      31.326  32.702  26.332  1.00  0.00     0.202 C 
BRANCH  31  32
ATOM     32  C   UNL A   1      32.532  33.036  27.214  1.00  0.00     0.261 C 
BRANCH  32  33
ATOM     33  O   UNL A   1      32.246  33.993  28.244  1.00  0.00    -0.460 OA
BRANCH  33  34
ATOM     34  C   UNL A   1      33.278  34.808  28.557  1.00  0.00     0.338 C 
ATOM     35  O   UNL A   1      33.275  36.033  28.620  1.00  0.00    -0.246 OA
BRANCH  34  36
ATOM     36  C   UNL A   1      34.433  34.009  28.982  1.00  0.00     0.060 A 
ATOM     37  C   UNL A   1      34.214  32.944  29.864  1.00  0.00     0.016 A 
ATOM     38  C   UNL A   1      35.727  34.371  28.602  1.00  0.00     0.016 A 
ATOM     39  C   UNL A   1      35.297  32.254  30.401  1.00  0.00     0.010 A 
ATOM     40  C   UNL A   1      36.812  33.684  29.148  1.00  0.00     0.010 A 
ATOM     41  C   UNL A   1      36.602  32.647  30.075  1.00  0.00    -0.014 A 
BRANCH  41  42
ATOM     42  C   UNL A   1      37.750  32.067  30.808  1.00  0.00     0.031 A 
ATOM     43  C   UNL A   1      38.571  30.996  30.149  1.00  0.00     0.074 A 
ATOM     44  C   UNL A   1      38.059  32.500  32.042  1.00  0.00     0.049 A 
ATOM     45  N   UNL A   1      39.580  30.311  30.620  1.00  0.00    -0.248 NA
ATOM     46  C   UNL A   1      38.194  30.645  28.770  1.00  0.00     0.031 C 
ATOM     47  C   UNL A   1      37.361  33.564  32.761  1.00  0.00     0.029 A 
ATOM     48  N   UNL A   1      39.038  32.089  32.911  1.00  0.00    -0.354 N 
ATOM     49  C   UNL A   1      39.952  29.439  29.602  1.00  0.00     0.074 A 
ATOM     50  C   UNL A   1      39.036  29.658  28.504  1.00  0.00     0.031 C 
ATOM     51  C   UNL A   1      37.937  33.724  33.964  1.00  0.00     0.029 A 
ATOM     52  C   UNL A   1      39.013  32.747  34.114  1.00  0.00     0.049 A 
ATOM     53  H   UNL A   1      39.695  31.389  32.691  1.00  0.00     0.167 HD
ATOM     54  C   UNL A   1      40.969  28.544  29.588  1.00  0.00     0.037 A 
ATOM     55  C   UNL A   1      39.764  32.563  35.216  1.00  0.00     0.037 A 
ATOM     56  C   UNL A   1      41.870  28.334  30.692  1.00  0.00     0.049 A 
ATOM     57  C   UNL A   1      40.831  31.499  35.207  1.00  0.00     0.074 A 
ATOM     58  C   UNL A   1      42.949  27.472  30.773  1.00  0.00     0.029 A 
ATOM     59  N   UNL A   1      41.786  28.985  31.914  1.00  0.00    -0.354 N 
ATOM     60  N   UNL A   1      41.199  30.700  34.234  1.00  0.00    -0.248 NA
ATOM     61  C   UNL A   1      41.585  31.312  36.453  1.00  0.00     0.031 C 
ATOM     62  C   UNL A   1      43.475  27.553  32.067  1.00  0.00     0.029 A 
ATOM     63  C   UNL A   1      42.770  28.517  32.770  1.00  0.00     0.049 A 
ATOM     64  H   UNL A   1      41.123  29.678  32.141  1.00  0.00     0.167 HD
ATOM     65  C   UNL A   1      42.251  29.944  34.736  1.00  0.00     0.074 A 
ATOM     66  C   UNL A   1      42.467  30.387  36.098  1.00  0.00     0.031 C 
ATOM     67  C   UNL A   1      42.977  28.975  34.123  1.00  0.00     0.037 A 
BRANCH  54  68
ATOM     68  C   UNL A   1      41.126  27.698  28.356  1.00  0.00     0.064 A 
ATOM     69  C   UNL A   1      40.487  26.456  28.219  1.00  0.00     0.173 A 
ATOM     70  C   UNL A   1      41.932  28.137  27.294  1.00  0.00     0.173 A 
ATOM     71  F   UNL A   1      39.714  25.981  29.208  1.00  0.00    -0.203 F 
ATOM     72  C   UNL A   1      40.683  25.668  27.086  1.00  0.00     0.198 A 
ATOM     73  C   UNL A   1      42.096  27.365  26.147  1.00  0.00     0.198 A 
ATOM     74  F   UNL A   1      42.563  29.319  27.366  1.00  0.00    -0.203 F 
ATOM     75  F   UNL A   1      40.115  24.457  27.008  1.00  0.00    -0.200 F 
ATOM     76  C   UNL A   1      41.482  26.126  26.049  1.00  0.00     0.200 A 
ATOM     77  F   UNL A   1      42.857  27.816  25.140  1.00  0.00    -0.200 F 
ATOM     78  F   UNL A   1      41.671  25.366  24.961  1.00  0.00    -0.200 F 
ENDBRANCH  54  68
BRANCH  55  79
ATOM     79  C   UNL A   1      39.544  33.412  36.416  1.00  0.00     0.064 A 
ATOM     80  C   UNL A   1      38.690  32.993  37.445  1.00  0.00     0.173 A 
ATOM     81  C   UNL A   1      40.172  34.659  36.557  1.00  0.00     0.173 A 
ATOM     82  F   UNL A   1      38.047  31.820  37.343  1.00  0.00    -0.203 F 
ATOM     83  C   UNL A   1      38.460  33.793  38.562  1.00  0.00     0.198 A 
ATOM     84  C   UNL A   1      39.966  35.445  37.689  1.00  0.00     0.198 A 
ATOM     85  F   UNL A   1      40.998  35.108  35.600  1.00  0.00    -0.203 F 
ATOM     86  F   UNL A   1      37.603  33.387  39.508  1.00  0.00    -0.200 F 
ATOM     87  C   UNL A   1      39.103  35.016  38.686  1.00  0.00     0.200 A 
ATOM     88  F   UNL A   1      40.599  36.619  37.811  1.00  0.00    -0.200 F 
ATOM     89  F   UNL A   1      38.887  35.782  39.763  1.00  0.00    -0.200 F 
ENDBRANCH  55  79
BRANCH  67  90
ATOM     90  C   UNL A   1      44.106  28.361  34.903  1.00  0.00     0.064 A 
ATOM     91  C   UNL A   1      45.394  28.917  34.906  1.00  0.00     0.173 A 
ATOM     92  C   UNL A   1      43.883  27.220  35.689  1.00  0.00     0.173 A 
ATOM     93  F   UNL A   1      45.665  30.000  34.161  1.00  0.00    -0.203 F 
ATOM     94  C   UNL A   1      46.422  28.336  35.644  1.00  0.00     0.198 A 
ATOM     95  C   UNL A   1      44.905  26.662  36.453  1.00  0.00     0.198 A 
ATOM     96  F   UNL A   1      42.669  26.651  35.729  1.00  0.00    -0.203 F 
ATOM     97  F   UNL A   1      47.659  28.852  35.587  1.00  0.00    -0.200 F 
ATOM     98  C   UNL A   1      46.176  27.215  36.423  1.00  0.00     0.200 A 
ATOM     99  F   UNL A   1      44.659  25.591  37.219  1.00  0.00    -0.200 F 
ATOM    100  F   UNL A   1      47.166  26.664  37.138  1.00  0.00    -0.200 F 
ENDBRANCH  67  90
ENDBRANCH  41  42
ENDBRANCH  34  36
ENDBRANCH  33  34
ENDBRANCH  32  33
ENDBRANCH  31  32
ENDBRANCH  30  31
ENDBRANCH   1  30
TORSDOF 18
ENDMDL
