MODEL 1
REMARK VINA RESULT:     -13.1      0.000      0.000
REMARK SMILES CC1(C)[C@@]2(C(=O)OCCOCCOC(=O)c3ccc(-c4c5nc(c(-c6c(F)c(F)c(F)c(F)c6F)c6ccc([nH]6)c(-c6c(F)c(F)c(F)c(F)c6F)c6nc(c(-c7c(F)c(F)c(F)c(F)c7F)c7ccc4[nH]7)C=C6)C=C5)cc3)CC[C@]1(C)/C(=N/NC(=O)c1ccc(Cl)cc1)C2
REMARK SMILES IDX 10 1 9 2 8 3 7 4 5 5 6 6 4 7 1 8 2 9 3 10 81 11 79 12 95 13
REMARK SMILES IDX 80 14 82 15 83 16 84 17 85 18 86 19 87 21 88 22 89 23 94 24
REMARK SMILES IDX 90 25 93 26 91 27 92 28 11 29 12 30 13 31 14 32 15 33 16 34
REMARK SMILES IDX 17 35 78 36 18 37 77 38 19 39 20 40 21 41 71 42 22 43 76 44
REMARK SMILES IDX 70 45 72 46 23 47 75 48 69 49 68 50 24 52 56 53 36 54 55 55
REMARK SMILES IDX 37 56 40 57 54 58 73 59 38 60 39 61 53 63 74 64 41 65 25 66
REMARK SMILES IDX 26 67 34 68 27 69 28 70 32 71 35 72 29 73 30 74 33 75 31 76
REMARK SMILES IDX 57 77 58 78 66 79 59 80 60 81 64 82 67 83 61 84 62 85 65 86
REMARK SMILES IDX 63 87 42 88 43 89 51 90 44 91 45 92 49 93 52 94 46 95 47 96
REMARK SMILES IDX 50 97 48 98
REMARK H PARENT 85 20 72 51 40 62
REMARK Flexibility Score: inf
ROOT
ATOM      1  O   UNL A   1      41.444  22.173  25.849  1.00  0.00    -0.374 OA
ENDROOT
BRANCH   1   2
ATOM      2  C   UNL A   1      40.276  21.390  26.111  1.00  0.00     0.202 C 
BRANCH   2   3
ATOM      3  C   UNL A   1      39.063  22.225  26.529  1.00  0.00     0.261 C 
BRANCH   3   4
ATOM      4  O   UNL A   1      37.944  21.968  25.657  1.00  0.00    -0.463 OA
BRANCH   4   5
ATOM      5  C   UNL A   1      37.036  22.975  25.521  1.00  0.00     0.313 C 
ATOM      6  O   UNL A   1      37.241  24.147  25.798  1.00  0.00    -0.252 OA
BRANCH   5   7
ATOM      7  C   UNL A   1      35.724  22.432  24.991  1.00  0.00     0.079 C 
ATOM      8  C   UNL A   1      34.630  21.822  27.279  1.00  0.00     0.013 C 
ATOM      9  C   UNL A   1      34.480  22.531  25.915  1.00  0.00    -0.008 C 
ATOM     10  C   UNL A   1      34.014  23.974  26.215  1.00  0.00     0.013 C 
ATOM     11  C   UNL A   1      33.581  21.765  24.888  1.00  0.00     0.014 C 
ATOM     12  C   UNL A   1      35.816  20.903  24.691  1.00  0.00     0.021 C 
ATOM     13  C   UNL A   1      35.244  23.147  23.700  1.00  0.00     0.073 C 
ATOM     14  C   UNL A   1      34.342  20.448  24.651  1.00  0.00     0.014 C 
ATOM     15  C   UNL A   1      32.119  21.622  25.247  1.00  0.00     0.018 C 
ATOM     16  C   UNL A   1      33.863  22.562  23.598  1.00  0.00     0.046 C 
ATOM     17  N   UNL A   1      32.963  22.658  22.672  1.00  0.00    -0.181 NA
BRANCH  17  18
ATOM     18  N   UNL A   1      33.065  23.427  21.557  1.00  0.00    -0.243 N 
ATOM     19  C   UNL A   1      32.917  24.770  21.290  1.00  0.00     0.271 C 
ATOM     20  H   UNL A   1      33.296  22.904  20.756  1.00  0.00     0.194 HD
ATOM     21  O   UNL A   1      33.016  25.180  20.132  1.00  0.00    -0.267 OA
BRANCH  19  22
ATOM     22  C   UNL A   1      32.638  25.762  22.336  1.00  0.00     0.041 A 
ATOM     23  C   UNL A   1      31.291  26.004  22.646  1.00  0.00     0.015 A 
ATOM     24  C   UNL A   1      33.655  26.417  23.036  1.00  0.00     0.015 A 
ATOM     25  C   UNL A   1      30.966  26.825  23.725  1.00  0.00     0.021 A 
ATOM     26  C   UNL A   1      33.319  27.266  24.097  1.00  0.00     0.021 A 
ATOM     27  C   UNL A   1      31.979  27.446  24.451  1.00  0.00     0.041 A 
ATOM     28  Cl  UNL A   1      31.567  28.404  25.819  1.00  0.00    -0.084 Cl
ENDBRANCH  19  22
ENDBRANCH  17  18
ENDBRANCH   5   7
ENDBRANCH   4   5
ENDBRANCH   3   4
ENDBRANCH   2   3
ENDBRANCH   1   2
BRANCH   1  29
ATOM     29  C   UNL A   1      42.654  21.426  25.724  1.00  0.00     0.202 C 
BRANCH  29  30
ATOM     30  C   UNL A   1      43.803  22.217  25.099  1.00  0.00     0.261 C 
BRANCH  30  31
ATOM     31  O   UNL A   1      43.326  23.500  24.654  1.00  0.00    -0.460 OA
BRANCH  31  32
ATOM     32  C   UNL A   1      44.081  24.553  25.045  1.00  0.00     0.338 C 
ATOM     33  O   UNL A   1      45.183  24.870  24.633  1.00  0.00    -0.246 OA
BRANCH  32  34
ATOM     34  C   UNL A   1      43.294  25.405  25.959  1.00  0.00     0.060 A 
ATOM     35  C   UNL A   1      43.824  26.660  26.283  1.00  0.00     0.016 A 
ATOM     36  C   UNL A   1      42.078  24.988  26.509  1.00  0.00     0.016 A 
ATOM     37  C   UNL A   1      43.169  27.477  27.202  1.00  0.00     0.010 A 
ATOM     38  C   UNL A   1      41.410  25.820  27.413  1.00  0.00     0.010 A 
ATOM     39  C   UNL A   1      41.978  27.046  27.801  1.00  0.00    -0.014 A 
BRANCH  39  40
ATOM     40  C   UNL A   1      41.456  27.782  28.979  1.00  0.00     0.031 A 
ATOM     41  C   UNL A   1      42.185  27.651  30.289  1.00  0.00     0.074 A 
ATOM     42  C   UNL A   1      40.387  28.590  28.884  1.00  0.00     0.049 A 
ATOM     43  N   UNL A   1      41.942  28.224  31.440  1.00  0.00    -0.248 NA
ATOM     44  C   UNL A   1      43.342  26.741  30.303  1.00  0.00     0.031 C 
ATOM     45  C   UNL A   1      39.594  28.808  27.678  1.00  0.00     0.029 A 
ATOM     46  N   UNL A   1      39.785  29.380  29.834  1.00  0.00    -0.354 N 
ATOM     47  C   UNL A   1      42.908  27.740  32.311  1.00  0.00     0.074 A 
ATOM     48  C   UNL A   1      43.711  26.790  31.572  1.00  0.00     0.031 C 
ATOM     49  C   UNL A   1      38.602  29.672  27.960  1.00  0.00     0.029 A 
ATOM     50  C   UNL A   1      38.684  30.055  29.369  1.00  0.00     0.049 A 
ATOM     51  H   UNL A   1      40.112  29.455  30.759  1.00  0.00     0.167 HD
ATOM     52  C   UNL A   1      43.124  28.068  33.607  1.00  0.00     0.037 A 
ATOM     53  C   UNL A   1      37.837  30.882  30.013  1.00  0.00     0.037 A 
ATOM     54  C   UNL A   1      42.341  29.023  34.342  1.00  0.00     0.049 A 
ATOM     55  C   UNL A   1      38.077  31.216  31.462  1.00  0.00     0.074 A 
ATOM     56  C   UNL A   1      42.514  29.465  35.641  1.00  0.00     0.029 A 
ATOM     57  N   UNL A   1      41.225  29.678  33.840  1.00  0.00    -0.354 N 
ATOM     58  N   UNL A   1      39.030  30.801  32.261  1.00  0.00    -0.248 NA
ATOM     59  C   UNL A   1      37.127  32.141  32.097  1.00  0.00     0.031 C 
ATOM     60  C   UNL A   1      41.475  30.352  35.942  1.00  0.00     0.029 A 
ATOM     61  C   UNL A   1      40.681  30.497  34.815  1.00  0.00     0.049 A 
ATOM     62  H   UNL A   1      40.873  29.575  32.926  1.00  0.00     0.167 HD
ATOM     63  C   UNL A   1      38.807  31.427  33.483  1.00  0.00     0.074 A 
ATOM     64  C   UNL A   1      37.636  32.260  33.316  1.00  0.00     0.031 C 
ATOM     65  C   UNL A   1      39.511  31.319  34.637  1.00  0.00     0.037 A 
BRANCH  52  66
ATOM     66  C   UNL A   1      44.247  27.366  34.309  1.00  0.00     0.064 A 
ATOM     67  C   UNL A   1      44.062  26.125  34.940  1.00  0.00     0.173 A 
ATOM     68  C   UNL A   1      45.522  27.946  34.361  1.00  0.00     0.173 A 
ATOM     69  F   UNL A   1      42.855  25.538  34.933  1.00  0.00    -0.203 F 
ATOM     70  C   UNL A   1      45.103  25.513  35.632  1.00  0.00     0.198 A 
ATOM     71  C   UNL A   1      46.568  27.317  35.029  1.00  0.00     0.198 A 
ATOM     72  F   UNL A   1      45.751  29.130  33.772  1.00  0.00    -0.203 F 
ATOM     73  F   UNL A   1      44.887  24.360  36.280  1.00  0.00    -0.200 F 
ATOM     74  C   UNL A   1      46.355  26.107  35.673  1.00  0.00     0.200 A 
ATOM     75  F   UNL A   1      47.780  27.888  35.061  1.00  0.00    -0.200 F 
ATOM     76  F   UNL A   1      47.355  25.519  36.344  1.00  0.00    -0.200 F 
ENDBRANCH  52  66
BRANCH  53  77
ATOM     77  C   UNL A   1      36.677  31.452  29.283  1.00  0.00     0.064 A 
ATOM     78  C   UNL A   1      35.575  30.659  28.936  1.00  0.00     0.173 A 
ATOM     79  C   UNL A   1      36.646  32.809  28.926  1.00  0.00     0.173 A 
ATOM     80  F   UNL A   1      35.572  29.351  29.234  1.00  0.00    -0.203 F 
ATOM     81  C   UNL A   1      34.489  31.199  28.250  1.00  0.00     0.198 A 
ATOM     82  C   UNL A   1      35.549  33.352  28.262  1.00  0.00     0.198 A 
ATOM     83  F   UNL A   1      37.678  33.608  29.233  1.00  0.00    -0.203 F 
ATOM     84  F   UNL A   1      33.462  30.413  27.900  1.00  0.00    -0.200 F 
ATOM     85  C   UNL A   1      34.473  32.546  27.920  1.00  0.00     0.200 A 
ATOM     86  F   UNL A   1      35.535  34.655  27.952  1.00  0.00    -0.200 F 
ATOM     87  F   UNL A   1      33.425  33.066  27.268  1.00  0.00    -0.200 F 
ENDBRANCH  53  77
BRANCH  65  88
ATOM     88  C   UNL A   1      39.046  32.130  35.811  1.00  0.00     0.064 A 
ATOM     89  C   UNL A   1      38.228  31.575  36.807  1.00  0.00     0.173 A 
ATOM     90  C   UNL A   1      39.470  33.457  35.973  1.00  0.00     0.173 A 
ATOM     91  F   UNL A   1      37.786  30.315  36.691  1.00  0.00    -0.203 F 
ATOM     92  C   UNL A   1      37.838  32.327  37.912  1.00  0.00     0.198 A 
ATOM     93  C   UNL A   1      39.100  34.197  37.092  1.00  0.00     0.198 A 
ATOM     94  F   UNL A   1      40.260  34.031  35.053  1.00  0.00    -0.203 F 
ATOM     95  F   UNL A   1      37.026  31.790  38.833  1.00  0.00    -0.200 F 
ATOM     96  C   UNL A   1      38.281  33.633  38.058  1.00  0.00     0.200 A 
ATOM     97  F   UNL A   1      39.540  35.455  37.239  1.00  0.00    -0.200 F 
ATOM     98  F   UNL A   1      37.912  34.351  39.129  1.00  0.00    -0.200 F 
ENDBRANCH  65  88
ENDBRANCH  39  40
ENDBRANCH  32  34
ENDBRANCH  31  32
ENDBRANCH  30  31
ENDBRANCH  29  30
ENDBRANCH   1  29
TORSDOF 16
ENDMDL
MODEL 2
REMARK VINA RESULT:     -13.1      0.285      1.231
REMARK SMILES CC1(C)[C@@]2(C(=O)OCCOCCOC(=O)c3ccc(-c4c5nc(c(-c6c(F)c(F)c(F)c(F)c6F)c6ccc([nH]6)c(-c6c(F)c(F)c(F)c(F)c6F)c6nc(c(-c7c(F)c(F)c(F)c(F)c7F)c7ccc4[nH]7)C=C6)C=C5)cc3)CC[C@]1(C)/C(=N/NC(=O)c1ccc(Cl)cc1)C2
REMARK SMILES IDX 10 1 9 2 8 3 7 4 5 5 6 6 4 7 1 8 2 9 3 10 81 11 79 12 95 13
REMARK SMILES IDX 80 14 82 15 83 16 84 17 85 18 86 19 87 21 88 22 89 23 94 24
REMARK SMILES IDX 90 25 93 26 91 27 92 28 11 29 12 30 13 31 14 32 15 33 16 34
REMARK SMILES IDX 17 35 78 36 18 37 77 38 19 39 20 40 21 41 71 42 22 43 76 44
REMARK SMILES IDX 70 45 72 46 23 47 75 48 69 49 68 50 24 52 56 53 36 54 55 55
REMARK SMILES IDX 37 56 40 57 54 58 73 59 38 60 39 61 53 63 74 64 41 65 25 66
REMARK SMILES IDX 26 67 34 68 27 69 28 70 32 71 35 72 29 73 30 74 33 75 31 76
REMARK SMILES IDX 57 77 58 78 66 79 59 80 60 81 64 82 67 83 61 84 62 85 65 86
REMARK SMILES IDX 63 87 42 88 43 89 51 90 44 91 45 92 49 93 52 94 46 95 47 96
REMARK SMILES IDX 50 97 48 98
REMARK H PARENT 85 20 72 51 40 62
REMARK Flexibility Score: inf
ROOT
ATOM      1  O   UNL A   1      41.304  22.225  25.873  1.00  0.00    -0.374 OA
ENDROOT
BRANCH   1   2
ATOM      2  C   UNL A   1      40.137  21.411  26.022  1.00  0.00     0.202 C 
BRANCH   2   3
ATOM      3  C   UNL A   1      38.904  22.190  26.486  1.00  0.00     0.261 C 
BRANCH   3   4
ATOM      4  O   UNL A   1      37.837  22.074  25.524  1.00  0.00    -0.463 OA
BRANCH   4   5
ATOM      5  C   UNL A   1      36.950  23.108  25.474  1.00  0.00     0.313 C 
ATOM      6  O   UNL A   1      37.189  24.255  25.818  1.00  0.00    -0.252 OA
BRANCH   5   7
ATOM      7  C   UNL A   1      35.614  22.627  24.943  1.00  0.00     0.079 C 
ATOM      8  C   UNL A   1      34.475  22.115  27.234  1.00  0.00     0.013 C 
ATOM      9  C   UNL A   1      34.371  22.809  25.858  1.00  0.00    -0.008 C 
ATOM     10  C   UNL A   1      33.982  24.280  26.132  1.00  0.00     0.013 C 
ATOM     11  C   UNL A   1      33.438  22.076  24.836  1.00  0.00     0.014 C 
ATOM     12  C   UNL A   1      35.624  21.092  24.668  1.00  0.00     0.021 C 
ATOM     13  C   UNL A   1      35.180  23.346  23.638  1.00  0.00     0.073 C 
ATOM     14  C   UNL A   1      34.128  20.716  24.625  1.00  0.00     0.014 C 
ATOM     15  C   UNL A   1      31.968  22.019  25.188  1.00  0.00     0.018 C 
ATOM     16  C   UNL A   1      33.770  22.836  23.536  1.00  0.00     0.046 C 
ATOM     17  N   UNL A   1      32.882  22.965  22.603  1.00  0.00    -0.181 NA
BRANCH  17  18
ATOM     18  N   UNL A   1      33.031  23.709  21.476  1.00  0.00    -0.243 N 
ATOM     19  C   UNL A   1      32.886  25.045  21.171  1.00  0.00     0.271 C 
ATOM     20  H   UNL A   1      33.306  23.170  20.700  1.00  0.00     0.194 HD
ATOM     21  O   UNL A   1      33.038  25.429  20.011  1.00  0.00    -0.267 OA
BRANCH  19  22
ATOM     22  C   UNL A   1      32.547  26.058  22.179  1.00  0.00     0.041 A 
ATOM     23  C   UNL A   1      33.607  26.600  22.923  1.00  0.00     0.015 A 
ATOM     24  C   UNL A   1      31.238  26.508  22.377  1.00  0.00     0.015 A 
ATOM     25  C   UNL A   1      33.368  27.664  23.792  1.00  0.00     0.021 A 
ATOM     26  C   UNL A   1      31.004  27.555  23.276  1.00  0.00     0.021 A 
ATOM     27  C   UNL A   1      32.071  28.142  23.959  1.00  0.00     0.041 A 
ATOM     28  Cl  UNL A   1      31.801  29.498  24.985  1.00  0.00    -0.084 Cl
ENDBRANCH  19  22
ENDBRANCH  17  18
ENDBRANCH   5   7
ENDBRANCH   4   5
ENDBRANCH   3   4
ENDBRANCH   2   3
ENDBRANCH   1   2
BRANCH   1  29
ATOM     29  C   UNL A   1      42.531  21.504  25.770  1.00  0.00     0.202 C 
BRANCH  29  30
ATOM     30  C   UNL A   1      43.664  22.307  25.128  1.00  0.00     0.261 C 
BRANCH  30  31
ATOM     31  O   UNL A   1      43.168  23.587  24.693  1.00  0.00    -0.460 OA
BRANCH  31  32
ATOM     32  C   UNL A   1      43.925  24.645  25.064  1.00  0.00     0.338 C 
ATOM     33  O   UNL A   1      45.020  24.962  24.629  1.00  0.00    -0.246 OA
BRANCH  32  34
ATOM     34  C   UNL A   1      43.152  25.501  25.985  1.00  0.00     0.060 A 
ATOM     35  C   UNL A   1      43.686  26.757  26.295  1.00  0.00     0.016 A 
ATOM     36  C   UNL A   1      41.944  25.087  26.554  1.00  0.00     0.016 A 
ATOM     37  C   UNL A   1      43.044  27.579  27.219  1.00  0.00     0.010 A 
ATOM     38  C   UNL A   1      41.288  25.923  27.463  1.00  0.00     0.010 A 
ATOM     39  C   UNL A   1      41.862  27.151  27.837  1.00  0.00    -0.014 A 
BRANCH  39  40
ATOM     40  C   UNL A   1      41.357  27.893  29.019  1.00  0.00     0.031 A 
ATOM     41  C   UNL A   1      42.089  27.746  30.325  1.00  0.00     0.074 A 
ATOM     42  C   UNL A   1      40.301  28.719  28.931  1.00  0.00     0.049 A 
ATOM     43  N   UNL A   1      41.860  28.321  31.479  1.00  0.00    -0.248 NA
ATOM     44  C   UNL A   1      43.231  26.818  30.333  1.00  0.00     0.031 C 
ATOM     45  C   UNL A   1      39.507  28.952  27.727  1.00  0.00     0.029 A 
ATOM     46  N   UNL A   1      39.715  29.516  29.884  1.00  0.00    -0.354 N 
ATOM     47  C   UNL A   1      42.821  27.819  32.345  1.00  0.00     0.074 A 
ATOM     48  C   UNL A   1      43.605  26.858  31.601  1.00  0.00     0.031 C 
ATOM     49  C   UNL A   1      38.530  29.832  28.016  1.00  0.00     0.029 A 
ATOM     50  C   UNL A   1      38.624  30.210  29.425  1.00  0.00     0.049 A 
ATOM     51  H   UNL A   1      40.048  29.583  30.808  1.00  0.00     0.167 HD
ATOM     52  C   UNL A   1      43.047  28.140  33.641  1.00  0.00     0.037 A 
ATOM     53  C   UNL A   1      37.794  31.049  30.075  1.00  0.00     0.037 A 
ATOM     54  C   UNL A   1      42.283  29.106  34.381  1.00  0.00     0.049 A 
ATOM     55  C   UNL A   1      38.044  31.376  31.524  1.00  0.00     0.074 A 
ATOM     56  C   UNL A   1      42.469  29.542  35.680  1.00  0.00     0.029 A 
ATOM     57  N   UNL A   1      41.177  29.781  33.885  1.00  0.00    -0.354 N 
ATOM     58  N   UNL A   1      38.994  30.944  32.318  1.00  0.00    -0.248 NA
ATOM     59  C   UNL A   1      37.112  32.315  32.164  1.00  0.00     0.031 C 
ATOM     60  C   UNL A   1      41.445  30.445  35.988  1.00  0.00     0.029 A 
ATOM     61  C   UNL A   1      40.650  30.607  34.865  1.00  0.00     0.049 A 
ATOM     62  H   UNL A   1      40.819  29.685  32.973  1.00  0.00     0.167 HD
ATOM     63  C   UNL A   1      38.786  31.570  33.542  1.00  0.00     0.074 A 
ATOM     64  C   UNL A   1      37.628  32.423  33.382  1.00  0.00     0.031 C 
ATOM     65  C   UNL A   1      39.492  31.448  34.693  1.00  0.00     0.037 A 
BRANCH  52  66
ATOM     66  C   UNL A   1      44.162  27.418  34.336  1.00  0.00     0.064 A 
ATOM     67  C   UNL A   1      45.463  27.943  34.388  1.00  0.00     0.173 A 
ATOM     68  C   UNL A   1      43.928  26.178  34.949  1.00  0.00     0.173 A 
ATOM     69  F   UNL A   1      45.740  29.117  33.800  1.00  0.00    -0.203 F 
ATOM     70  C   UNL A   1      46.496  27.234  34.993  1.00  0.00     0.198 A 
ATOM     71  C   UNL A   1      44.958  25.486  35.578  1.00  0.00     0.198 A 
ATOM     72  F   UNL A   1      42.701  25.634  34.928  1.00  0.00    -0.203 F 
ATOM     73  F   UNL A   1      47.743  27.725  34.976  1.00  0.00    -0.200 F 
ATOM     74  C   UNL A   1      46.243  26.009  35.590  1.00  0.00     0.200 A 
ATOM     75  F   UNL A   1      44.710  24.306  36.162  1.00  0.00    -0.200 F 
ATOM     76  F   UNL A   1      47.240  25.324  36.167  1.00  0.00    -0.200 F 
ENDBRANCH  52  66
BRANCH  53  77
ATOM     77  C   UNL A   1      36.640  31.640  29.351  1.00  0.00     0.064 A 
ATOM     78  C   UNL A   1      35.539  30.859  28.978  1.00  0.00     0.173 A 
ATOM     79  C   UNL A   1      36.615  33.005  29.026  1.00  0.00     0.173 A 
ATOM     80  F   UNL A   1      35.529  29.544  29.244  1.00  0.00    -0.203 F 
ATOM     81  C   UNL A   1      34.458  31.418  28.298  1.00  0.00     0.198 A 
ATOM     82  C   UNL A   1      35.524  33.568  28.368  1.00  0.00     0.198 A 
ATOM     83  F   UNL A   1      37.647  33.793  29.359  1.00  0.00    -0.203 F 
ATOM     84  F   UNL A   1      33.432  30.644  27.922  1.00  0.00    -0.200 F 
ATOM     85  C   UNL A   1      34.449  32.773  28.000  1.00  0.00     0.200 A 
ATOM     86  F   UNL A   1      35.516  34.877  28.089  1.00  0.00    -0.200 F 
ATOM     87  F   UNL A   1      33.406  33.312  27.353  1.00  0.00    -0.200 F 
ENDBRANCH  53  77
BRANCH  65  88
ATOM     88  C   UNL A   1      39.046  32.264  35.871  1.00  0.00     0.064 A 
ATOM     89  C   UNL A   1      38.202  31.728  36.855  1.00  0.00     0.173 A 
ATOM     90  C   UNL A   1      39.513  33.574  36.048  1.00  0.00     0.173 A 
ATOM     91  F   UNL A   1      37.718  30.484  36.724  1.00  0.00    -0.203 F 
ATOM     92  C   UNL A   1      37.828  32.483  37.964  1.00  0.00     0.198 A 
ATOM     93  C   UNL A   1      39.159  34.316  37.172  1.00  0.00     0.198 A 
ATOM     94  F   UNL A   1      40.329  34.129  35.140  1.00  0.00    -0.203 F 
ATOM     95  F   UNL A   1      36.991  31.964  38.874  1.00  0.00    -0.200 F 
ATOM     96  C   UNL A   1      38.314  33.772  38.126  1.00  0.00     0.200 A 
ATOM     97  F   UNL A   1      39.639  35.557  37.333  1.00  0.00    -0.200 F 
ATOM     98  F   UNL A   1      37.961  34.492  39.200  1.00  0.00    -0.200 F 
ENDBRANCH  65  88
ENDBRANCH  39  40
ENDBRANCH  32  34
ENDBRANCH  31  32
ENDBRANCH  30  31
ENDBRANCH  29  30
ENDBRANCH   1  29
TORSDOF 16
ENDMDL
MODEL 3
REMARK VINA RESULT:     -13.0      0.499      7.143
REMARK SMILES CC1(C)[C@@]2(C(=O)OCCOCCOC(=O)c3ccc(-c4c5nc(c(-c6c(F)c(F)c(F)c(F)c6F)c6ccc([nH]6)c(-c6c(F)c(F)c(F)c(F)c6F)c6nc(c(-c7c(F)c(F)c(F)c(F)c7F)c7ccc4[nH]7)C=C6)C=C5)cc3)CC[C@]1(C)/C(=N/NC(=O)c1ccc(Cl)cc1)C2
REMARK SMILES IDX 10 1 9 2 8 3 7 4 5 5 6 6 4 7 1 8 2 9 3 10 81 11 79 12 95 13
REMARK SMILES IDX 80 14 82 15 83 16 84 17 85 18 86 19 87 21 88 22 89 23 94 24
REMARK SMILES IDX 90 25 93 26 91 27 92 28 11 29 12 30 13 31 14 32 15 33 16 34
REMARK SMILES IDX 17 35 78 36 18 37 77 38 19 39 20 40 21 41 71 42 22 43 76 44
REMARK SMILES IDX 70 45 72 46 23 47 75 48 69 49 68 50 24 52 56 53 36 54 55 55
REMARK SMILES IDX 37 56 40 57 54 58 73 59 38 60 39 61 53 63 74 64 41 65 25 66
REMARK SMILES IDX 26 67 34 68 27 69 28 70 32 71 35 72 29 73 30 74 33 75 31 76
REMARK SMILES IDX 57 77 58 78 66 79 59 80 60 81 64 82 67 83 61 84 62 85 65 86
REMARK SMILES IDX 63 87 42 88 43 89 51 90 44 91 45 92 49 93 52 94 46 95 47 96
REMARK SMILES IDX 50 97 48 98
REMARK H PARENT 85 20 72 51 40 62
REMARK Flexibility Score: inf
ROOT
ATOM      1  O   UNL A   1      41.204  21.120  25.458  1.00  0.00    -0.374 OA
ENDROOT
BRANCH   1   2
ATOM      2  C   UNL A   1      40.041  20.981  26.278  1.00  0.00     0.202 C 
BRANCH   2   3
ATOM      3  C   UNL A   1      39.126  22.208  26.254  1.00  0.00     0.261 C 
BRANCH   3   4
ATOM      4  O   UNL A   1      37.806  21.850  25.800  1.00  0.00    -0.463 OA
BRANCH   4   5
ATOM      5  C   UNL A   1      36.886  22.855  25.752  1.00  0.00     0.313 C 
ATOM      6  O   UNL A   1      37.078  23.999  26.132  1.00  0.00    -0.252 OA
BRANCH   5   7
ATOM      7  C   UNL A   1      35.581  22.345  25.173  1.00  0.00     0.079 C 
ATOM      8  C   UNL A   1      34.393  21.755  27.419  1.00  0.00     0.013 C 
ATOM      9  C   UNL A   1      34.308  22.472  26.054  1.00  0.00    -0.008 C 
ATOM     10  C   UNL A   1      33.867  23.925  26.343  1.00  0.00     0.013 C 
ATOM     11  C   UNL A   1      33.427  21.731  24.992  1.00  0.00     0.014 C 
ATOM     12  C   UNL A   1      35.647  20.816  24.871  1.00  0.00     0.021 C 
ATOM     13  C   UNL A   1      35.165  23.075  23.869  1.00  0.00     0.073 C 
ATOM     14  C   UNL A   1      34.164  20.397  24.777  1.00  0.00     0.014 C 
ATOM     15  C   UNL A   1      31.950  21.623  25.299  1.00  0.00     0.018 C 
ATOM     16  C   UNL A   1      33.774  22.525  23.716  1.00  0.00     0.046 C 
ATOM     17  N   UNL A   1      32.910  22.646  22.760  1.00  0.00    -0.181 NA
BRANCH  17  18
ATOM     18  N   UNL A   1      33.070  23.415  21.651  1.00  0.00    -0.243 N 
ATOM     19  C   UNL A   1      32.957  24.762  21.383  1.00  0.00     0.271 C 
ATOM     20  H   UNL A   1      33.324  22.890  20.858  1.00  0.00     0.194 HD
ATOM     21  O   UNL A   1      33.109  25.172  20.231  1.00  0.00    -0.267 OA
BRANCH  19  22
ATOM     22  C   UNL A   1      32.654  25.756  22.420  1.00  0.00     0.041 A 
ATOM     23  C   UNL A   1      31.301  26.050  22.650  1.00  0.00     0.015 A 
ATOM     24  C   UNL A   1      33.652  26.364  23.188  1.00  0.00     0.015 A 
ATOM     25  C   UNL A   1      30.944  26.875  23.715  1.00  0.00     0.021 A 
ATOM     26  C   UNL A   1      33.285  27.217  24.235  1.00  0.00     0.021 A 
ATOM     27  C   UNL A   1      31.934  27.448  24.508  1.00  0.00     0.041 A 
ATOM     28  Cl  UNL A   1      31.477  28.413  25.858  1.00  0.00    -0.084 Cl
ENDBRANCH  19  22
ENDBRANCH  17  18
ENDBRANCH   5   7
ENDBRANCH   4   5
ENDBRANCH   3   4
ENDBRANCH   2   3
ENDBRANCH   1   2
BRANCH   1  29
ATOM     29  C   UNL A   1      42.446  20.993  26.150  1.00  0.00     0.202 C 
BRANCH  29  30
ATOM     30  C   UNL A   1      43.499  22.014  25.714  1.00  0.00     0.261 C 
BRANCH  30  31
ATOM     31  O   UNL A   1      42.855  23.156  25.121  1.00  0.00    -0.460 OA
BRANCH  31  32
ATOM     32  C   UNL A   1      43.553  24.312  25.213  1.00  0.00     0.338 C 
ATOM     33  O   UNL A   1      44.494  24.667  24.524  1.00  0.00    -0.246 OA
BRANCH  32  34
ATOM     34  C   UNL A   1      42.895  25.204  26.188  1.00  0.00     0.060 A 
ATOM     35  C   UNL A   1      43.381  26.513  26.291  1.00  0.00     0.016 A 
ATOM     36  C   UNL A   1      41.843  24.775  27.003  1.00  0.00     0.016 A 
ATOM     37  C   UNL A   1      42.856  27.379  27.248  1.00  0.00     0.010 A 
ATOM     38  C   UNL A   1      41.300  25.653  27.946  1.00  0.00     0.010 A 
ATOM     39  C   UNL A   1      41.838  26.942  28.107  1.00  0.00    -0.014 A 
BRANCH  39  40
ATOM     40  C   UNL A   1      41.499  27.760  29.297  1.00  0.00     0.031 A 
ATOM     41  C   UNL A   1      40.270  28.627  29.247  1.00  0.00     0.074 A 
ATOM     42  C   UNL A   1      42.234  27.702  30.420  1.00  0.00     0.049 A 
ATOM     43  N   UNL A   1      39.754  29.396  30.172  1.00  0.00    -0.248 NA
ATOM     44  C   UNL A   1      39.528  28.633  27.977  1.00  0.00     0.031 C 
ATOM     45  C   UNL A   1      43.443  26.903  30.601  1.00  0.00     0.029 A 
ATOM     46  N   UNL A   1      42.064  28.338  31.626  1.00  0.00    -0.354 N 
ATOM     47  C   UNL A   1      38.635  29.979  29.593  1.00  0.00     0.074 A 
ATOM     48  C   UNL A   1      38.574  29.515  28.224  1.00  0.00     0.031 C 
ATOM     49  C   UNL A   1      43.912  27.101  31.847  1.00  0.00     0.029 A 
ATOM     50  C   UNL A   1      43.043  28.049  32.543  1.00  0.00     0.049 A 
ATOM     51  H   UNL A   1      41.310  28.942  31.815  1.00  0.00     0.167 HD
ATOM     52  C   UNL A   1      37.726  30.811  30.152  1.00  0.00     0.037 A 
ATOM     53  C   UNL A   1      43.219  28.507  33.798  1.00  0.00     0.037 A 
ATOM     54  C   UNL A   1      37.772  31.262  31.516  1.00  0.00     0.049 A 
ATOM     55  C   UNL A   1      42.212  29.454  34.396  1.00  0.00     0.074 A 
ATOM     56  C   UNL A   1      36.868  32.061  32.192  1.00  0.00     0.029 A 
ATOM     57  N   UNL A   1      38.787  30.958  32.411  1.00  0.00    -0.354 N 
ATOM     58  N   UNL A   1      41.122  29.951  33.862  1.00  0.00    -0.248 NA
ATOM     59  C   UNL A   1      42.454  29.896  35.777  1.00  0.00     0.031 C 
ATOM     60  C   UNL A   1      37.361  32.281  33.483  1.00  0.00     0.029 A 
ATOM     61  C   UNL A   1      38.548  31.580  33.625  1.00  0.00     0.049 A 
ATOM     62  H   UNL A   1      39.563  30.385  32.212  1.00  0.00     0.167 HD
ATOM     63  C   UNL A   1      40.541  30.746  34.842  1.00  0.00     0.074 A 
ATOM     64  C   UNL A   1      41.391  30.655  36.010  1.00  0.00     0.031 C 
ATOM     65  C   UNL A   1      39.406  31.484  34.779  1.00  0.00     0.037 A 
BRANCH  52  66
ATOM     66  C   UNL A   1      36.615  31.297  29.270  1.00  0.00     0.064 A 
ATOM     67  C   UNL A   1      36.573  32.619  28.798  1.00  0.00     0.173 A 
ATOM     68  C   UNL A   1      35.574  30.434  28.902  1.00  0.00     0.173 A 
ATOM     69  F   UNL A   1      37.537  33.489  29.139  1.00  0.00    -0.203 F 
ATOM     70  C   UNL A   1      35.507  33.067  28.024  1.00  0.00     0.198 A 
ATOM     71  C   UNL A   1      34.525  30.878  28.103  1.00  0.00     0.198 A 
ATOM     72  F   UNL A   1      35.569  29.161  29.326  1.00  0.00    -0.203 F 
ATOM     73  F   UNL A   1      35.455  34.349  27.637  1.00  0.00    -0.200 F 
ATOM     74  C   UNL A   1      34.487  32.197  27.674  1.00  0.00     0.200 A 
ATOM     75  F   UNL A   1      33.543  30.033  27.759  1.00  0.00    -0.200 F 
ATOM     76  F   UNL A   1      33.458  32.631  26.933  1.00  0.00    -0.200 F 
ENDBRANCH  52  66
BRANCH  53  77
ATOM     77  C   UNL A   1      44.407  28.071  34.575  1.00  0.00     0.064 A 
ATOM     78  C   UNL A   1      45.589  28.823  34.580  1.00  0.00     0.173 A 
ATOM     79  C   UNL A   1      44.378  26.893  35.336  1.00  0.00     0.173 A 
ATOM     80  F   UNL A   1      45.672  29.944  33.847  1.00  0.00    -0.203 F 
ATOM     81  C   UNL A   1      46.701  28.409  35.310  1.00  0.00     0.198 A 
ATOM     82  C   UNL A   1      45.483  26.492  36.084  1.00  0.00     0.198 A 
ATOM     83  F   UNL A   1      43.271  26.136  35.360  1.00  0.00    -0.203 F 
ATOM     84  F   UNL A   1      47.831  29.129  35.272  1.00  0.00    -0.200 F 
ATOM     85  C   UNL A   1      46.645  27.248  36.067  1.00  0.00     0.200 A 
ATOM     86  F   UNL A   1      45.421  25.374  36.819  1.00  0.00    -0.200 F 
ATOM     87  F   UNL A   1      47.712  26.855  36.775  1.00  0.00    -0.200 F 
ENDBRANCH  53  77
BRANCH  65  88
ATOM     88  C   UNL A   1      39.003  32.245  36.009  1.00  0.00     0.064 A 
ATOM     89  C   UNL A   1      38.219  31.654  37.011  1.00  0.00     0.173 A 
ATOM     90  C   UNL A   1      39.452  33.558  36.214  1.00  0.00     0.173 A 
ATOM     91  F   UNL A   1      37.754  30.406  36.856  1.00  0.00    -0.203 F 
ATOM     92  C   UNL A   1      37.887  32.358  38.166  1.00  0.00     0.198 A 
ATOM     93  C   UNL A   1      39.141  34.248  37.381  1.00  0.00     0.198 A 
ATOM     94  F   UNL A   1      40.211  34.164  35.289  1.00  0.00    -0.203 F 
ATOM     95  F   UNL A   1      37.106  31.788  39.095  1.00  0.00    -0.200 F 
ATOM     96  C   UNL A   1      38.354  33.650  38.354  1.00  0.00     0.200 A 
ATOM     97  F   UNL A   1      39.604  35.492  37.568  1.00  0.00    -0.200 F 
ATOM     98  F   UNL A   1      38.041  34.321  39.471  1.00  0.00    -0.200 F 
ENDBRANCH  65  88
ENDBRANCH  39  40
ENDBRANCH  32  34
ENDBRANCH  31  32
ENDBRANCH  30  31
ENDBRANCH  29  30
ENDBRANCH   1  29
TORSDOF 16
ENDMDL
