MODEL 1
REMARK VINA RESULT:     -11.7      0.000      0.000
REMARK SMILES CCc1ccc(NC(=O)c2c(C(=O)OCCOCCOC(=O)c3ccc(-c4c5nc(c(-c6c(F)c(F)c(F)c(F)c6F)c6ccc([nH]6)c(-c6c(F)c(F)c(F)c(F)c6F)c6nc(c(-c7c(F)c(F)c(F)c(F)c7F)c7ccc4[nH]7)C=C6)C=C5)cc3)cnn2C)cc1
REMARK SMILES IDX 16 1 15 2 14 3 12 4 13 5 11 6 10 7 88 8 86 9 87 10 89 11
REMARK SMILES IDX 8 12 7 13 9 15 6 16 3 17 4 18 91 19 5 20 90 21 2 22 1 23
REMARK SMILES IDX 17 24 18 25 19 26 20 27 21 28 22 29 23 30 24 31 85 32 25 33
REMARK SMILES IDX 84 34 26 35 27 36 28 37 78 38 29 39 83 40 77 41 79 42 30 43
REMARK SMILES IDX 82 44 76 45 75 46 31 48 63 49 43 50 62 51 44 52 47 53 61 54
REMARK SMILES IDX 80 55 45 56 46 57 60 59 81 60 48 61 32 62 33 63 41 64 34 65
REMARK SMILES IDX 35 66 39 67 42 68 36 69 37 70 40 71 38 72 64 73 65 74 73 75
REMARK SMILES IDX 66 76 67 77 71 78 74 79 68 80 69 81 72 82 70 83 49 84 50 85
REMARK SMILES IDX 58 86 51 87 52 88 56 89 59 90 53 91 54 92 57 93 55 94
REMARK H PARENT 7 14 79 47 47 58
REMARK Flexibility Score: inf
ROOT
ATOM      1  C   UNL A   1      32.568  28.700  24.627  1.00  0.00     0.202 C 
ENDROOT
BRANCH   1   2
ATOM      2  C   UNL A   1      31.190  28.177  24.224  1.00  0.00     0.261 C 
BRANCH   2   3
ATOM      3  O   UNL A   1      30.743  27.186  25.162  1.00  0.00    -0.460 OA
BRANCH   3   4
ATOM      4  C   UNL A   1      30.541  25.942  24.654  1.00  0.00     0.342 C 
ATOM      5  O   UNL A   1      30.143  25.717  23.517  1.00  0.00    -0.246 OA
BRANCH   4   6
ATOM      6  C   UNL A   1      30.922  24.862  25.548  1.00  0.00     0.111 A 
ATOM      7  C   UNL A   1      32.102  24.123  25.674  1.00  0.00     0.140 A 
ATOM      8  N   UNL A   1      31.909  23.390  26.829  1.00  0.00    -0.262 N 
ATOM      9  C   UNL A   1      30.052  24.314  26.515  1.00  0.00     0.151 A 
ATOM     10  N   UNL A   1      30.631  23.372  27.251  1.00  0.00    -0.180 NA
ATOM     11  C   UNL A   1      32.889  22.749  27.678  1.00  0.00     0.174 C 
BRANCH   7  12
ATOM     12  C   UNL A   1      33.332  24.221  24.918  1.00  0.00     0.274 C 
ATOM     13  N   UNL A   1      33.966  23.104  24.409  1.00  0.00    -0.321 N 
ATOM     14  H   UNL A   1      34.869  23.289  24.065  1.00  0.00     0.170 HD
ATOM     15  O   UNL A   1      33.918  25.294  24.768  1.00  0.00    -0.267 OA
BRANCH  13  16
ATOM     16  C   UNL A   1      33.583  21.758  24.283  1.00  0.00     0.041 A 
ATOM     17  C   UNL A   1      32.927  19.096  23.637  1.00  0.00    -0.048 A 
ATOM     18  C   UNL A   1      33.878  19.379  24.625  1.00  0.00     0.006 A 
ATOM     19  C   UNL A   1      32.235  20.157  23.046  1.00  0.00     0.006 A 
ATOM     20  C   UNL A   1      34.195  20.702  24.955  1.00  0.00     0.026 A 
ATOM     21  C   UNL A   1      32.547  21.478  23.382  1.00  0.00     0.026 A 
BRANCH  17  22
ATOM     22  C   UNL A   1      32.704  17.678  23.170  1.00  0.00     0.032 C 
ATOM     23  C   UNL A   1      34.018  16.908  23.101  1.00  0.00     0.009 C 
ENDBRANCH  17  22
ENDBRANCH  13  16
ENDBRANCH   7  12
ENDBRANCH   4   6
ENDBRANCH   3   4
ENDBRANCH   2   3
ENDBRANCH   1   2
BRANCH   1  24
ATOM     24  O   UNL A   1      32.543  29.724  25.622  1.00  0.00    -0.374 OA
BRANCH  24  25
ATOM     25  C   UNL A   1      31.403  30.589  25.619  1.00  0.00     0.202 C 
BRANCH  25  26
ATOM     26  C   UNL A   1      31.542  31.833  26.500  1.00  0.00     0.261 C 
BRANCH  26  27
ATOM     27  O   UNL A   1      32.528  31.624  27.529  1.00  0.00    -0.460 OA
BRANCH  27  28
ATOM     28  C   UNL A   1      33.446  32.612  27.654  1.00  0.00     0.338 C 
ATOM     29  O   UNL A   1      33.255  33.814  27.578  1.00  0.00    -0.246 OA
BRANCH  28  30
ATOM     30  C   UNL A   1      34.741  32.043  28.079  1.00  0.00     0.060 A 
ATOM     31  C   UNL A   1      34.780  30.671  28.357  1.00  0.00     0.016 A 
ATOM     32  C   UNL A   1      35.882  32.832  28.252  1.00  0.00     0.016 A 
ATOM     33  C   UNL A   1      35.942  30.091  28.862  1.00  0.00     0.010 A 
ATOM     34  C   UNL A   1      37.046  32.251  28.768  1.00  0.00     0.010 A 
ATOM     35  C   UNL A   1      37.069  30.886  29.107  1.00  0.00    -0.014 A 
BRANCH  35  36
ATOM     36  C   UNL A   1      38.213  30.316  29.856  1.00  0.00     0.031 A 
ATOM     37  C   UNL A   1      38.430  30.731  31.283  1.00  0.00     0.074 A 
ATOM     38  C   UNL A   1      39.031  29.415  29.285  1.00  0.00     0.049 A 
ATOM     39  N   UNL A   1      39.367  30.369  32.123  1.00  0.00    -0.248 NA
ATOM     40  C   UNL A   1      37.462  31.690  31.838  1.00  0.00     0.031 C 
ATOM     41  C   UNL A   1      38.906  28.908  27.920  1.00  0.00     0.029 A 
ATOM     42  N   UNL A   1      40.133  28.769  29.786  1.00  0.00    -0.354 N 
ATOM     43  C   UNL A   1      39.101  31.052  33.301  1.00  0.00     0.074 A 
ATOM     44  C   UNL A   1      37.934  31.875  33.062  1.00  0.00     0.031 C 
ATOM     45  C   UNL A   1      39.903  28.037  27.688  1.00  0.00     0.029 A 
ATOM     46  C   UNL A   1      40.745  27.942  28.879  1.00  0.00     0.049 A 
ATOM     47  H   UNL A   1      40.454  28.889  30.709  1.00  0.00     0.167 HD
ATOM     48  C   UNL A   1      39.765  30.994  34.480  1.00  0.00     0.037 A 
ATOM     49  C   UNL A   1      41.867  27.205  28.995  1.00  0.00     0.037 A 
ATOM     50  C   UNL A   1      40.924  30.176  34.721  1.00  0.00     0.049 A 
ATOM     51  C   UNL A   1      42.620  27.199  30.298  1.00  0.00     0.074 A 
ATOM     52  C   UNL A   1      41.650  30.028  35.890  1.00  0.00     0.029 A 
ATOM     53  N   UNL A   1      41.531  29.373  33.768  1.00  0.00    -0.354 N 
ATOM     54  N   UNL A   1      42.346  27.824  31.417  1.00  0.00    -0.248 NA
ATOM     55  C   UNL A   1      43.841  26.381  30.354  1.00  0.00     0.031 C 
ATOM     56  C   UNL A   1      42.723  29.168  35.634  1.00  0.00     0.029 A 
ATOM     57  C   UNL A   1      42.640  28.746  34.315  1.00  0.00     0.049 A 
ATOM     58  H   UNL A   1      41.222  29.263  32.840  1.00  0.00     0.167 HD
ATOM     59  C   UNL A   1      43.341  27.460  32.314  1.00  0.00     0.074 A 
ATOM     60  C   UNL A   1      44.223  26.551  31.613  1.00  0.00     0.031 C 
ATOM     61  C   UNL A   1      43.507  27.843  33.604  1.00  0.00     0.037 A 
BRANCH  48  62
ATOM     62  C   UNL A   1      39.263  31.861  35.595  1.00  0.00     0.064 A 
ATOM     63  C   UNL A   1      39.661  33.201  35.720  1.00  0.00     0.173 A 
ATOM     64  C   UNL A   1      38.359  31.352  36.538  1.00  0.00     0.173 A 
ATOM     65  F   UNL A   1      40.537  33.728  34.852  1.00  0.00    -0.203 F 
ATOM     66  C   UNL A   1      39.191  33.991  36.766  1.00  0.00     0.198 A 
ATOM     67  C   UNL A   1      37.872  32.152  37.568  1.00  0.00     0.198 A 
ATOM     68  F   UNL A   1      37.946  30.078  36.460  1.00  0.00    -0.203 F 
ATOM     69  F   UNL A   1      39.619  35.254  36.893  1.00  0.00    -0.200 F 
ATOM     70  C   UNL A   1      38.293  33.468  37.685  1.00  0.00     0.200 A 
ATOM     71  F   UNL A   1      36.999  31.649  38.451  1.00  0.00    -0.200 F 
ATOM     72  F   UNL A   1      37.841  34.230  38.690  1.00  0.00    -0.200 F 
ENDBRANCH  48  62
BRANCH  49  73
ATOM     73  C   UNL A   1      42.348  26.414  27.835  1.00  0.00     0.064 A 
ATOM     74  C   UNL A   1      43.285  26.943  26.938  1.00  0.00     0.173 A 
ATOM     75  C   UNL A   1      41.876  25.114  27.600  1.00  0.00     0.173 A 
ATOM     76  F   UNL A   1      43.743  28.191  27.107  1.00  0.00    -0.203 F 
ATOM     77  C   UNL A   1      43.729  26.202  25.844  1.00  0.00     0.198 A 
ATOM     78  C   UNL A   1      42.337  24.366  26.520  1.00  0.00     0.198 A 
ATOM     79  F   UNL A   1      40.974  24.568  28.429  1.00  0.00    -0.203 F 
ATOM     80  F   UNL A   1      44.599  26.742  24.980  1.00  0.00    -0.200 F 
ATOM     81  C   UNL A   1      43.259  24.913  25.639  1.00  0.00     0.200 A 
ATOM     82  F   UNL A   1      41.886  23.119  26.329  1.00  0.00    -0.200 F 
ATOM     83  F   UNL A   1      43.689  24.199  24.590  1.00  0.00    -0.200 F 
ENDBRANCH  49  73
BRANCH  61  84
ATOM     84  C   UNL A   1      44.673  27.264  34.351  1.00  0.00     0.064 A 
ATOM     85  C   UNL A   1      45.901  27.936  34.427  1.00  0.00     0.173 A 
ATOM     86  C   UNL A   1      44.545  26.046  35.035  1.00  0.00     0.173 A 
ATOM     87  F   UNL A   1      46.077  29.097  33.777  1.00  0.00    -0.203 F 
ATOM     88  C   UNL A   1      46.964  27.401  35.149  1.00  0.00     0.198 A 
ATOM     89  C   UNL A   1      45.602  25.526  35.776  1.00  0.00     0.198 A 
ATOM     90  F   UNL A   1      43.387  25.368  34.997  1.00  0.00    -0.203 F 
ATOM     91  F   UNL A   1      48.141  28.043  35.179  1.00  0.00    -0.200 F 
ATOM     92  C   UNL A   1      46.813  26.201  35.827  1.00  0.00     0.200 A 
ATOM     93  F   UNL A   1      45.450  24.372  36.439  1.00  0.00    -0.200 F 
ATOM     94  F   UNL A   1      47.836  25.691  36.527  1.00  0.00    -0.200 F 
ENDBRANCH  61  84
ENDBRANCH  35  36
ENDBRANCH  28  30
ENDBRANCH  27  28
ENDBRANCH  26  27
ENDBRANCH  25  26
ENDBRANCH  24  25
ENDBRANCH   1  24
TORSDOF 17
ENDMDL
MODEL 2
REMARK VINA RESULT:     -11.7      1.426      3.502
REMARK SMILES CCc1ccc(NC(=O)c2c(C(=O)OCCOCCOC(=O)c3ccc(-c4c5nc(c(-c6c(F)c(F)c(F)c(F)c6F)c6ccc([nH]6)c(-c6c(F)c(F)c(F)c(F)c6F)c6nc(c(-c7c(F)c(F)c(F)c(F)c7F)c7ccc4[nH]7)C=C6)C=C5)cc3)cnn2C)cc1
REMARK SMILES IDX 16 1 15 2 14 3 12 4 13 5 11 6 10 7 88 8 86 9 87 10 89 11
REMARK SMILES IDX 8 12 7 13 9 15 6 16 3 17 4 18 91 19 5 20 90 21 2 22 1 23
REMARK SMILES IDX 17 24 18 25 19 26 20 27 21 28 22 29 23 30 24 31 85 32 25 33
REMARK SMILES IDX 84 34 26 35 27 36 28 37 78 38 29 39 83 40 77 41 79 42 30 43
REMARK SMILES IDX 82 44 76 45 75 46 31 48 63 49 43 50 62 51 44 52 47 53 61 54
REMARK SMILES IDX 80 55 45 56 46 57 60 59 81 60 48 61 32 62 33 63 41 64 34 65
REMARK SMILES IDX 35 66 39 67 42 68 36 69 37 70 40 71 38 72 64 73 65 74 73 75
REMARK SMILES IDX 66 76 67 77 71 78 74 79 68 80 69 81 72 82 70 83 49 84 50 85
REMARK SMILES IDX 58 86 51 87 52 88 56 89 59 90 53 91 54 92 57 93 55 94
REMARK H PARENT 7 14 79 47 47 58
REMARK Flexibility Score: inf
ROOT
ATOM      1  C   UNL A   1      32.195  29.394  27.220  1.00  0.00     0.202 C 
ENDROOT
BRANCH   1   2
ATOM      2  C   UNL A   1      31.619  28.452  26.164  1.00  0.00     0.261 C 
BRANCH   2   3
ATOM      3  O   UNL A   1      31.765  27.087  26.586  1.00  0.00    -0.460 OA
BRANCH   3   4
ATOM      4  C   UNL A   1      32.774  26.393  25.999  1.00  0.00     0.342 C 
ATOM      5  O   UNL A   1      33.959  26.697  26.077  1.00  0.00    -0.246 OA
BRANCH   4   6
ATOM      6  C   UNL A   1      32.350  25.180  25.320  1.00  0.00     0.111 A 
ATOM      7  C   UNL A   1      32.402  24.791  23.979  1.00  0.00     0.140 A 
ATOM      8  N   UNL A   1      32.033  23.460  24.008  1.00  0.00    -0.262 N 
ATOM      9  C   UNL A   1      31.725  24.101  25.982  1.00  0.00     0.151 A 
ATOM     10  N   UNL A   1      31.472  23.080  25.171  1.00  0.00    -0.180 NA
ATOM     11  C   UNL A   1      32.263  22.426  23.022  1.00  0.00     0.174 C 
BRANCH   7  12
ATOM     12  C   UNL A   1      32.910  25.513  22.832  1.00  0.00     0.274 C 
ATOM     13  N   UNL A   1      32.205  26.552  22.255  1.00  0.00    -0.321 N 
ATOM     14  H   UNL A   1      32.575  26.844  21.391  1.00  0.00     0.170 HD
ATOM     15  O   UNL A   1      33.950  25.180  22.263  1.00  0.00    -0.267 OA
BRANCH  13  16
ATOM     16  C   UNL A   1      31.067  27.276  22.650  1.00  0.00     0.041 A 
ATOM     17  C   UNL A   1      28.732  28.802  23.043  1.00  0.00    -0.048 A 
ATOM     18  C   UNL A   1      28.791  27.466  23.456  1.00  0.00     0.006 A 
ATOM     19  C   UNL A   1      29.886  29.397  22.522  1.00  0.00     0.006 A 
ATOM     20  C   UNL A   1      29.956  26.710  23.273  1.00  0.00     0.026 A 
ATOM     21  C   UNL A   1      31.051  28.643  22.347  1.00  0.00     0.026 A 
BRANCH  17  22
ATOM     22  C   UNL A   1      27.431  29.564  23.093  1.00  0.00     0.032 C 
ATOM     23  C   UNL A   1      27.662  31.025  23.465  1.00  0.00     0.009 C 
ENDBRANCH  17  22
ENDBRANCH  13  16
ENDBRANCH   7  12
ENDBRANCH   4   6
ENDBRANCH   3   4
ENDBRANCH   2   3
ENDBRANCH   1   2
BRANCH   1  24
ATOM     24  O   UNL A   1      32.642  30.651  26.711  1.00  0.00    -0.374 OA
BRANCH  24  25
ATOM     25  C   UNL A   1      31.641  31.655  26.522  1.00  0.00     0.202 C 
BRANCH  25  26
ATOM     26  C   UNL A   1      32.056  33.063  26.958  1.00  0.00     0.261 C 
BRANCH  26  27
ATOM     27  O   UNL A   1      32.975  33.005  28.066  1.00  0.00    -0.460 OA
BRANCH  27  28
ATOM     28  C   UNL A   1      34.077  33.781  27.940  1.00  0.00     0.338 C 
ATOM     29  O   UNL A   1      34.118  34.971  27.677  1.00  0.00    -0.246 OA
BRANCH  28  30
ATOM     30  C   UNL A   1      35.277  33.017  28.339  1.00  0.00     0.060 A 
ATOM     31  C   UNL A   1      35.087  31.692  28.751  1.00  0.00     0.016 A 
ATOM     32  C   UNL A   1      36.552  33.589  28.361  1.00  0.00     0.016 A 
ATOM     33  C   UNL A   1      36.161  30.950  29.240  1.00  0.00     0.010 A 
ATOM     34  C   UNL A   1      37.628  32.847  28.861  1.00  0.00     0.010 A 
ATOM     35  C   UNL A   1      37.429  31.537  29.333  1.00  0.00    -0.014 A 
BRANCH  35  36
ATOM     36  C   UNL A   1      38.506  30.828  30.065  1.00  0.00     0.031 A 
ATOM     37  C   UNL A   1      38.727  31.138  31.518  1.00  0.00     0.074 A 
ATOM     38  C   UNL A   1      39.259  29.898  29.452  1.00  0.00     0.049 A 
ATOM     39  N   UNL A   1      39.612  30.649  32.349  1.00  0.00    -0.248 NA
ATOM     40  C   UNL A   1      37.829  32.140  32.115  1.00  0.00     0.031 C 
ATOM     41  C   UNL A   1      39.121  29.487  28.057  1.00  0.00     0.029 A 
ATOM     42  N   UNL A   1      40.293  29.134  29.931  1.00  0.00    -0.354 N 
ATOM     43  C   UNL A   1      39.379  31.280  33.562  1.00  0.00     0.074 A 
ATOM     44  C   UNL A   1      38.289  32.211  33.355  1.00  0.00     0.031 C 
ATOM     45  C   UNL A   1      40.047  28.550  27.788  1.00  0.00     0.029 A 
ATOM     46  C   UNL A   1      40.854  28.314  28.984  1.00  0.00     0.049 A 
ATOM     47  H   UNL A   1      40.603  29.171  30.865  1.00  0.00     0.167 HD
ATOM     48  C   UNL A   1      40.011  31.096  34.746  1.00  0.00     0.037 A 
ATOM     49  C   UNL A   1      41.908  27.480  29.073  1.00  0.00     0.037 A 
ATOM     50  C   UNL A   1      41.092  30.172  34.955  1.00  0.00     0.049 A 
ATOM     51  C   UNL A   1      42.631  27.333  30.386  1.00  0.00     0.074 A 
ATOM     52  C   UNL A   1      41.779  29.894  36.124  1.00  0.00     0.029 A 
ATOM     53  N   UNL A   1      41.652  29.379  33.964  1.00  0.00    -0.354 N 
ATOM     54  N   UNL A   1      42.386  27.911  31.536  1.00  0.00    -0.248 NA
ATOM     55  C   UNL A   1      43.778  26.414  30.411  1.00  0.00     0.031 C 
ATOM     56  C   UNL A   1      42.782  28.963  35.833  1.00  0.00     0.029 A 
ATOM     57  C   UNL A   1      42.692  28.630  34.490  1.00  0.00     0.049 A 
ATOM     58  H   UNL A   1      41.354  29.351  33.026  1.00  0.00     0.167 HD
ATOM     59  C   UNL A   1      43.328  27.411  32.425  1.00  0.00     0.074 A 
ATOM     60  C   UNL A   1      44.146  26.475  31.684  1.00  0.00     0.031 C 
ATOM     61  C   UNL A   1      43.498  27.701  33.738  1.00  0.00     0.037 A 
BRANCH  48  62
ATOM     62  C   UNL A   1      39.559  31.934  35.904  1.00  0.00     0.064 A 
ATOM     63  C   UNL A   1      38.474  31.553  36.707  1.00  0.00     0.173 A 
ATOM     64  C   UNL A   1      40.230  33.124  36.224  1.00  0.00     0.173 A 
ATOM     65  F   UNL A   1      37.790  30.434  36.431  1.00  0.00    -0.203 F 
ATOM     66  C   UNL A   1      38.062  32.347  37.775  1.00  0.00     0.198 A 
ATOM     67  C   UNL A   1      39.831  33.901  37.307  1.00  0.00     0.198 A 
ATOM     68  F   UNL A   1      41.275  33.529  35.487  1.00  0.00    -0.203 F 
ATOM     69  F   UNL A   1      36.995  31.988  38.502  1.00  0.00    -0.200 F 
ATOM     70  C   UNL A   1      38.744  33.517  38.077  1.00  0.00     0.200 A 
ATOM     71  F   UNL A   1      40.495  35.027  37.602  1.00  0.00    -0.200 F 
ATOM     72  F   UNL A   1      38.347  34.279  39.105  1.00  0.00    -0.200 F 
ENDBRANCH  48  62
BRANCH  49  73
ATOM     73  C   UNL A   1      42.347  26.723  27.875  1.00  0.00     0.064 A 
ATOM     74  C   UNL A   1      43.279  27.262  26.979  1.00  0.00     0.173 A 
ATOM     75  C   UNL A   1      41.839  25.444  27.602  1.00  0.00     0.173 A 
ATOM     76  F   UNL A   1      43.770  28.493  27.185  1.00  0.00    -0.203 F 
ATOM     77  C   UNL A   1      43.683  26.553  25.849  1.00  0.00     0.198 A 
ATOM     78  C   UNL A   1      42.260  24.727  26.485  1.00  0.00     0.198 A 
ATOM     79  F   UNL A   1      40.941  24.888  28.427  1.00  0.00    -0.203 F 
ATOM     80  F   UNL A   1      44.548  27.105  24.988  1.00  0.00    -0.200 F 
ATOM     81  C   UNL A   1      43.178  25.284  25.606  1.00  0.00     0.200 A 
ATOM     82  F   UNL A   1      41.776  23.499  26.257  1.00  0.00    -0.200 F 
ATOM     83  F   UNL A   1      43.569  24.601  24.522  1.00  0.00    -0.200 F 
ENDBRANCH  49  73
BRANCH  61  84
ATOM     84  C   UNL A   1      44.595  26.983  34.467  1.00  0.00     0.064 A 
ATOM     85  C   UNL A   1      45.854  27.571  34.659  1.00  0.00     0.173 A 
ATOM     86  C   UNL A   1      44.370  25.714  35.019  1.00  0.00     0.173 A 
ATOM     87  F   UNL A   1      46.122  28.778  34.138  1.00  0.00    -0.203 F 
ATOM     88  C   UNL A   1      46.853  26.905  35.363  1.00  0.00     0.198 A 
ATOM     89  C   UNL A   1      45.364  25.061  35.743  1.00  0.00     0.198 A 
ATOM     90  F   UNL A   1      43.180  25.112  34.867  1.00  0.00    -0.203 F 
ATOM     91  F   UNL A   1      48.061  27.469  35.504  1.00  0.00    -0.200 F 
ATOM     92  C   UNL A   1      46.606  25.655  35.910  1.00  0.00     0.200 A 
ATOM     93  F   UNL A   1      45.119  23.857  36.280  1.00  0.00    -0.200 F 
ATOM     94  F   UNL A   1      47.567  25.018  36.593  1.00  0.00    -0.200 F 
ENDBRANCH  61  84
ENDBRANCH  35  36
ENDBRANCH  28  30
ENDBRANCH  27  28
ENDBRANCH  26  27
ENDBRANCH  25  26
ENDBRANCH  24  25
ENDBRANCH   1  24
TORSDOF 17
ENDMDL
MODEL 3
REMARK VINA RESULT:     -11.6      1.144      2.277
REMARK SMILES CCc1ccc(NC(=O)c2c(C(=O)OCCOCCOC(=O)c3ccc(-c4c5nc(c(-c6c(F)c(F)c(F)c(F)c6F)c6ccc([nH]6)c(-c6c(F)c(F)c(F)c(F)c6F)c6nc(c(-c7c(F)c(F)c(F)c(F)c7F)c7ccc4[nH]7)C=C6)C=C5)cc3)cnn2C)cc1
REMARK SMILES IDX 16 1 15 2 14 3 12 4 13 5 11 6 10 7 88 8 86 9 87 10 89 11
REMARK SMILES IDX 8 12 7 13 9 15 6 16 3 17 4 18 91 19 5 20 90 21 2 22 1 23
REMARK SMILES IDX 17 24 18 25 19 26 20 27 21 28 22 29 23 30 24 31 85 32 25 33
REMARK SMILES IDX 84 34 26 35 27 36 28 37 78 38 29 39 83 40 77 41 79 42 30 43
REMARK SMILES IDX 82 44 76 45 75 46 31 48 63 49 43 50 62 51 44 52 47 53 61 54
REMARK SMILES IDX 80 55 45 56 46 57 60 59 81 60 48 61 32 62 33 63 41 64 34 65
REMARK SMILES IDX 35 66 39 67 42 68 36 69 37 70 40 71 38 72 64 73 65 74 73 75
REMARK SMILES IDX 66 76 67 77 71 78 74 79 68 80 69 81 72 82 70 83 49 84 50 85
REMARK SMILES IDX 58 86 51 87 52 88 56 89 59 90 53 91 54 92 57 93 55 94
REMARK H PARENT 7 14 79 47 47 58
REMARK Flexibility Score: inf
ROOT
ATOM      1  C   UNL A   1      33.135  29.422  26.181  1.00  0.00     0.202 C 
ENDROOT
BRANCH   1   2
ATOM      2  C   UNL A   1      32.815  29.309  24.691  1.00  0.00     0.261 C 
BRANCH   2   3
ATOM      3  O   UNL A   1      31.849  28.269  24.470  1.00  0.00    -0.460 OA
BRANCH   3   4
ATOM      4  C   UNL A   1      32.359  27.031  24.237  1.00  0.00     0.342 C 
ATOM      5  O   UNL A   1      33.254  26.792  23.435  1.00  0.00    -0.246 OA
BRANCH   4   6
ATOM      6  C   UNL A   1      31.814  25.990  25.091  1.00  0.00     0.111 A 
ATOM      7  C   UNL A   1      31.355  24.698  24.816  1.00  0.00     0.140 A 
ATOM      8  N   UNL A   1      31.158  24.146  26.067  1.00  0.00    -0.262 N 
ATOM      9  C   UNL A   1      31.616  26.152  26.480  1.00  0.00     0.151 A 
ATOM     10  N   UNL A   1      31.154  25.051  27.063  1.00  0.00    -0.180 NA
ATOM     11  C   UNL A   1      31.066  22.753  26.446  1.00  0.00     0.174 C 
BRANCH   7  12
ATOM     12  C   UNL A   1      31.284  24.000  23.551  1.00  0.00     0.274 C 
ATOM     13  N   UNL A   1      32.365  23.306  23.039  1.00  0.00    -0.321 N 
ATOM     14  H   UNL A   1      32.241  23.022  22.106  1.00  0.00     0.170 HD
ATOM     15  O   UNL A   1      30.288  24.063  22.829  1.00  0.00    -0.267 OA
BRANCH  13  16
ATOM     16  C   UNL A   1      33.604  22.926  23.582  1.00  0.00     0.041 A 
ATOM     17  C   UNL A   1      36.068  21.843  24.413  1.00  0.00    -0.048 A 
ATOM     18  C   UNL A   1      36.000  23.131  23.868  1.00  0.00     0.006 A 
ATOM     19  C   UNL A   1      34.878  21.140  24.630  1.00  0.00     0.006 A 
ATOM     20  C   UNL A   1      34.773  23.674  23.467  1.00  0.00     0.026 A 
ATOM     21  C   UNL A   1      33.654  21.688  24.235  1.00  0.00     0.026 A 
BRANCH  17  22
ATOM     22  C   UNL A   1      37.403  21.199  24.694  1.00  0.00     0.032 C 
ATOM     23  C   UNL A   1      38.179  21.978  25.750  1.00  0.00     0.009 C 
ENDBRANCH  17  22
ENDBRANCH  13  16
ENDBRANCH   7  12
ENDBRANCH   4   6
ENDBRANCH   3   4
ENDBRANCH   2   3
ENDBRANCH   1   2
BRANCH   1  24
ATOM     24  O   UNL A   1      32.203  30.206  26.927  1.00  0.00    -0.374 OA
BRANCH  24  25
ATOM     25  C   UNL A   1      31.571  31.282  26.228  1.00  0.00     0.202 C 
BRANCH  25  26
ATOM     26  C   UNL A   1      31.724  32.654  26.891  1.00  0.00     0.261 C 
BRANCH  26  27
ATOM     27  O   UNL A   1      33.094  33.095  26.841  1.00  0.00    -0.460 OA
BRANCH  27  28
ATOM     28  C   UNL A   1      33.579  33.594  28.003  1.00  0.00     0.338 C 
ATOM     29  O   UNL A   1      33.050  34.413  28.735  1.00  0.00    -0.246 OA
BRANCH  28  30
ATOM     30  C   UNL A   1      34.810  32.872  28.384  1.00  0.00     0.060 A 
ATOM     31  C   UNL A   1      34.669  31.554  28.834  1.00  0.00     0.016 A 
ATOM     32  C   UNL A   1      36.070  33.478  28.352  1.00  0.00     0.016 A 
ATOM     33  C   UNL A   1      35.777  30.853  29.308  1.00  0.00     0.010 A 
ATOM     34  C   UNL A   1      37.180  32.777  28.836  1.00  0.00     0.010 A 
ATOM     35  C   UNL A   1      37.031  31.475  29.348  1.00  0.00    -0.014 A 
BRANCH  35  36
ATOM     36  C   UNL A   1      38.148  30.813  30.063  1.00  0.00     0.031 A 
ATOM     37  C   UNL A   1      38.396  31.157  31.504  1.00  0.00     0.074 A 
ATOM     38  C   UNL A   1      38.914  29.896  29.447  1.00  0.00     0.049 A 
ATOM     39  N   UNL A   1      39.317  30.710  32.320  1.00  0.00    -0.248 NA
ATOM     40  C   UNL A   1      37.483  32.140  32.107  1.00  0.00     0.031 C 
ATOM     41  C   UNL A   1      38.754  29.455  28.063  1.00  0.00     0.029 A 
ATOM     42  N   UNL A   1      39.983  29.173  29.912  1.00  0.00    -0.354 N 
ATOM     43  C   UNL A   1      39.095  31.356  33.528  1.00  0.00     0.074 A 
ATOM     44  C   UNL A   1      37.972  32.248  33.333  1.00  0.00     0.031 C 
ATOM     45  C   UNL A   1      39.702  28.543  27.786  1.00  0.00     0.029 A 
ATOM     46  C   UNL A   1      40.546  28.354  28.965  1.00  0.00     0.049 A 
ATOM     47  H   UNL A   1      40.316  29.237  30.836  1.00  0.00     0.167 HD
ATOM     48  C   UNL A   1      39.763  31.213  34.697  1.00  0.00     0.037 A 
ATOM     49  C   UNL A   1      41.628  27.555  29.040  1.00  0.00     0.037 A 
ATOM     50  C   UNL A   1      40.878  30.327  34.894  1.00  0.00     0.049 A 
ATOM     51  C   UNL A   1      42.388  27.455  30.336  1.00  0.00     0.074 A 
ATOM     52  C   UNL A   1      41.603  30.092  36.050  1.00  0.00     0.029 A 
ATOM     53  N   UNL A   1      41.437  29.533  33.903  1.00  0.00    -0.354 N 
ATOM     54  N   UNL A   1      42.154  28.045  31.483  1.00  0.00    -0.248 NA
ATOM     55  C   UNL A   1      43.564  26.573  30.348  1.00  0.00     0.031 C 
ATOM     56  C   UNL A   1      42.627  29.188  35.748  1.00  0.00     0.029 A 
ATOM     57  C   UNL A   1      42.514  28.827  34.414  1.00  0.00     0.049 A 
ATOM     58  H   UNL A   1      41.116  29.480  32.974  1.00  0.00     0.167 HD
ATOM     59  C   UNL A   1      43.135  27.592  32.355  1.00  0.00     0.074 A 
ATOM     60  C   UNL A   1      43.963  26.668  31.609  1.00  0.00     0.031 C 
ATOM     61  C   UNL A   1      43.328  27.910  33.658  1.00  0.00     0.037 A 
BRANCH  48  62
ATOM     62  C   UNL A   1      39.314  32.058  35.852  1.00  0.00     0.064 A 
ATOM     63  C   UNL A   1      38.354  31.601  36.767  1.00  0.00     0.173 A 
ATOM     64  C   UNL A   1      39.865  33.332  36.056  1.00  0.00     0.173 A 
ATOM     65  F   UNL A   1      37.786  30.397  36.605  1.00  0.00    -0.203 F 
ATOM     66  C   UNL A   1      37.943  32.401  37.830  1.00  0.00     0.198 A 
ATOM     67  C   UNL A   1      39.470  34.118  37.134  1.00  0.00     0.198 A 
ATOM     68  F   UNL A   1      40.789  33.811  35.210  1.00  0.00    -0.203 F 
ATOM     69  F   UNL A   1      36.991  31.964  38.666  1.00  0.00    -0.200 F 
ATOM     70  C   UNL A   1      38.505  33.656  38.016  1.00  0.00     0.200 A 
ATOM     71  F   UNL A   1      40.019  35.327  37.316  1.00  0.00    -0.200 F 
ATOM     72  F   UNL A   1      38.109  34.424  39.040  1.00  0.00    -0.200 F 
ENDBRANCH  48  62
BRANCH  49  73
ATOM     73  C   UNL A   1      42.059  26.790  27.845  1.00  0.00     0.064 A 
ATOM     74  C   UNL A   1      41.521  25.529  27.561  1.00  0.00     0.173 A 
ATOM     75  C   UNL A   1      43.022  27.305  26.964  1.00  0.00     0.173 A 
ATOM     76  F   UNL A   1      40.619  24.984  28.389  1.00  0.00    -0.203 F 
ATOM     77  C   UNL A   1      41.934  24.807  26.442  1.00  0.00     0.198 A 
ATOM     78  C   UNL A   1      43.417  26.594  25.835  1.00  0.00     0.198 A 
ATOM     79  F   UNL A   1      43.570  28.507  27.198  1.00  0.00    -0.203 F 
ATOM     80  F   UNL A   1      41.430  23.587  26.211  1.00  0.00    -0.200 F 
ATOM     81  C   UNL A   1      42.877  25.342  25.577  1.00  0.00     0.200 A 
ATOM     82  F   UNL A   1      44.324  27.117  24.998  1.00  0.00    -0.200 F 
ATOM     83  F   UNL A   1      43.271  24.650  24.500  1.00  0.00    -0.200 F 
ENDBRANCH  49  73
BRANCH  61  84
ATOM     84  C   UNL A   1      44.467  27.241  34.370  1.00  0.00     0.064 A 
ATOM     85  C   UNL A   1      45.734  27.835  34.448  1.00  0.00     0.173 A 
ATOM     86  C   UNL A   1      44.274  26.013  35.021  1.00  0.00     0.173 A 
ATOM     87  F   UNL A   1      45.972  29.002  33.830  1.00  0.00    -0.203 F 
ATOM     88  C   UNL A   1      46.773  27.216  35.137  1.00  0.00     0.198 A 
ATOM     89  C   UNL A   1      45.308  25.408  35.730  1.00  0.00     0.198 A 
ATOM     90  F   UNL A   1      43.077  25.407  34.980  1.00  0.00    -0.203 F 
ATOM     91  F   UNL A   1      47.987  27.784  35.169  1.00  0.00    -0.200 F 
ATOM     92  C   UNL A   1      46.558  26.007  35.783  1.00  0.00     0.200 A 
ATOM     93  F   UNL A   1      45.095  24.245  36.362  1.00  0.00    -0.200 F 
ATOM     94  F   UNL A   1      47.557  25.416  36.452  1.00  0.00    -0.200 F 
ENDBRANCH  61  84
ENDBRANCH  35  36
ENDBRANCH  28  30
ENDBRANCH  27  28
ENDBRANCH  26  27
ENDBRANCH  25  26
ENDBRANCH  24  25
ENDBRANCH   1  24
TORSDOF 17
ENDMDL
