MODEL 1
REMARK VINA RESULT:     -10.2      0.000      0.000
REMARK SMILES O=C(CCCOc1ccc([N+](=O)[O-])cc1F)OCCOCCOC(=O)c1ccc(-c2c3nc(c(-c4c(F)c(F)c(F)c(F)c4F)c4ccc([nH]4)c(-c4c(F)c(F)c(F)c(F)c4F)c4nc(c(-c5c(F)c(F)c(F)c(F)c5F)c5ccc2[nH]5)C=C4)C=C3)cc1
REMARK SMILES IDX 18 1 17 2 2 3 1 4 3 5 4 6 5 7 6 8 7 9 8 10 15 11 9 12 14 13
REMARK SMILES IDX 16 14 10 15 11 16 12 17 13 18 19 19 20 20 21 21 22 22 23 23
REMARK SMILES IDX 24 24 25 25 26 26 27 27 88 28 28 29 87 30 29 31 30 32 31 33
REMARK SMILES IDX 81 34 32 35 86 36 80 37 82 38 33 39 85 40 79 41 78 42 34 44
REMARK SMILES IDX 66 45 46 46 65 47 47 48 50 49 64 50 83 51 48 52 49 53 63 55
REMARK SMILES IDX 84 56 51 57 35 58 36 59 44 60 37 61 38 62 42 63 45 64 39 65
REMARK SMILES IDX 40 66 43 67 41 68 67 69 68 70 76 71 69 72 70 73 74 74 77 75
REMARK SMILES IDX 71 76 72 77 75 78 73 79 52 80 53 81 61 82 54 83 55 84 59 85
REMARK SMILES IDX 62 86 56 87 57 88 60 89 58 90
REMARK H PARENT 82 43 50 54
REMARK Flexibility Score: inf
ROOT
ATOM      1  C   UNL A   1      32.340  29.305  27.284  1.00  0.00     0.261 C 
ENDROOT
BRANCH   1   2
ATOM      2  O   UNL A   1      31.440  28.195  27.312  1.00  0.00    -0.463 OA
BRANCH   2   3
ATOM      3  C   UNL A   1      31.605  26.998  26.725  1.00  0.00     0.305 C 
ATOM      4  O   UNL A   1      30.601  26.308  26.541  1.00  0.00    -0.252 OA
BRANCH   3   5
ATOM      5  C   UNL A   1      32.966  26.457  26.312  1.00  0.00     0.126 C 
BRANCH   5   6
ATOM      6  C   UNL A   1      33.483  26.608  24.884  1.00  0.00     0.053 C 
BRANCH   6   7
ATOM      7  C   UNL A   1      32.795  25.769  23.793  1.00  0.00     0.230 C 
BRANCH   7   8
ATOM      8  O   UNL A   1      32.420  26.543  22.647  1.00  0.00    -0.490 OA
BRANCH   8   9
ATOM      9  C   UNL A   1      31.308  27.317  22.852  1.00  0.00     0.155 A 
ATOM     10  C   UNL A   1      30.072  26.753  23.180  1.00  0.00     0.056 A 
ATOM     11  C   UNL A   1      31.403  28.686  22.606  1.00  0.00     0.171 A 
ATOM     12  C   UNL A   1      28.944  27.581  23.288  1.00  0.00     0.089 A 
ATOM     13  C   UNL A   1      30.305  29.524  22.739  1.00  0.00     0.128 A 
ATOM     14  F   UNL A   1      32.582  29.218  22.250  1.00  0.00    -0.203 F 
ATOM     15  C   UNL A   1      29.072  28.967  23.081  1.00  0.00     0.272 A 
BRANCH  15  16
ATOM     16  N   UNL A   1      27.920  29.857  23.305  1.00  0.00     0.062 N 
ATOM     17  O   UNL A   1      26.787  29.353  23.312  1.00  0.00    -0.258 OA
ATOM     18  O   UNL A   1      28.152  31.068  23.453  1.00  0.00    -0.258 OA
ENDBRANCH  15  16
ENDBRANCH   8   9
ENDBRANCH   7   8
ENDBRANCH   6   7
ENDBRANCH   5   6
ENDBRANCH   3   5
ENDBRANCH   2   3
ENDBRANCH   1   2
BRANCH   1  19
ATOM     19  C   UNL A   1      32.433  30.085  25.970  1.00  0.00     0.202 C 
BRANCH  19  20
ATOM     20  O   UNL A   1      31.427  31.065  25.747  1.00  0.00    -0.374 OA
BRANCH  20  21
ATOM     21  C   UNL A   1      31.210  31.953  26.857  1.00  0.00     0.202 C 
BRANCH  21  22
ATOM     22  C   UNL A   1      32.113  33.191  26.856  1.00  0.00     0.261 C 
BRANCH  22  23
ATOM     23  O   UNL A   1      32.985  33.204  27.997  1.00  0.00    -0.460 OA
BRANCH  23  24
ATOM     24  C   UNL A   1      34.184  33.765  27.724  1.00  0.00     0.338 C 
ATOM     25  O   UNL A   1      34.391  34.868  27.264  1.00  0.00    -0.246 OA
BRANCH  24  26
ATOM     26  C   UNL A   1      35.291  32.939  28.197  1.00  0.00     0.060 A 
ATOM     27  C   UNL A   1      34.998  31.619  28.576  1.00  0.00     0.016 A 
ATOM     28  C   UNL A   1      36.555  33.488  28.377  1.00  0.00     0.016 A 
ATOM     29  C   UNL A   1      35.978  30.840  29.165  1.00  0.00     0.010 A 
ATOM     30  C   UNL A   1      37.535  32.709  28.974  1.00  0.00     0.010 A 
ATOM     31  C   UNL A   1      37.240  31.398  29.388  1.00  0.00    -0.014 A 
BRANCH  31  32
ATOM     32  C   UNL A   1      38.249  30.653  30.156  1.00  0.00     0.031 A 
ATOM     33  C   UNL A   1      38.435  30.982  31.603  1.00  0.00     0.074 A 
ATOM     34  C   UNL A   1      39.004  29.739  29.529  1.00  0.00     0.049 A 
ATOM     35  N   UNL A   1      39.377  30.603  32.421  1.00  0.00    -0.248 NA
ATOM     36  C   UNL A   1      37.432  31.878  32.203  1.00  0.00     0.031 C 
ATOM     37  C   UNL A   1      38.848  29.338  28.131  1.00  0.00     0.029 A 
ATOM     38  N   UNL A   1      40.066  29.004  29.978  1.00  0.00    -0.354 N 
ATOM     39  C   UNL A   1      39.098  31.234  33.625  1.00  0.00     0.074 A 
ATOM     40  C   UNL A   1      37.918  32.045  33.424  1.00  0.00     0.031 C 
ATOM     41  C   UNL A   1      39.795  28.434  27.831  1.00  0.00     0.029 A 
ATOM     42  C   UNL A   1      40.649  28.242  28.999  1.00  0.00     0.049 A 
ATOM     43  H   UNL A   1      40.380  29.021  30.911  1.00  0.00     0.167 HD
ATOM     44  C   UNL A   1      39.775  31.129  34.791  1.00  0.00     0.037 A 
ATOM     45  C   UNL A   1      41.770  27.502  29.041  1.00  0.00     0.037 A 
ATOM     46  C   UNL A   1      40.947  30.308  34.951  1.00  0.00     0.049 A 
ATOM     47  C   UNL A   1      42.538  27.444  30.332  1.00  0.00     0.074 A 
ATOM     48  C   UNL A   1      41.719  30.114  36.079  1.00  0.00     0.029 A 
ATOM     49  N   UNL A   1      41.514  29.542  33.938  1.00  0.00    -0.354 N 
ATOM     50  N   UNL A   1      42.284  28.047  31.471  1.00  0.00    -0.248 NA
ATOM     51  C   UNL A   1      43.740  26.604  30.350  1.00  0.00     0.031 C 
ATOM     52  C   UNL A   1      42.786  29.277  35.735  1.00  0.00     0.029 A 
ATOM     53  C   UNL A   1      42.637  28.886  34.412  1.00  0.00     0.049 A 
ATOM     54  H   UNL A   1      41.168  29.477  33.018  1.00  0.00     0.167 HD
ATOM     55  C   UNL A   1      43.276  27.637  32.350  1.00  0.00     0.074 A 
ATOM     56  C   UNL A   1      44.129  26.726  31.613  1.00  0.00     0.031 C 
ATOM     57  C   UNL A   1      43.463  27.980  33.650  1.00  0.00     0.037 A 
BRANCH  44  58
ATOM     58  C   UNL A   1      39.282  31.929  35.962  1.00  0.00     0.064 A 
ATOM     59  C   UNL A   1      39.777  33.221  36.201  1.00  0.00     0.173 A 
ATOM     60  C   UNL A   1      38.342  31.414  36.867  1.00  0.00     0.173 A 
ATOM     61  F   UNL A   1      40.676  33.766  35.368  1.00  0.00    -0.203 F 
ATOM     62  C   UNL A   1      39.359  33.958  37.306  1.00  0.00     0.198 A 
ATOM     63  C   UNL A   1      37.899  32.167  37.952  1.00  0.00     0.198 A 
ATOM     64  F   UNL A   1      37.821  30.191  36.678  1.00  0.00    -0.203 F 
ATOM     65  F   UNL A   1      39.870  35.177  37.528  1.00  0.00    -0.200 F 
ATOM     66  C   UNL A   1      38.416  33.435  38.177  1.00  0.00     0.200 A 
ATOM     67  F   UNL A   1      36.963  31.671  38.773  1.00  0.00    -0.200 F 
ATOM     68  F   UNL A   1      37.999  34.153  39.229  1.00  0.00    -0.200 F 
ENDBRANCH  44  58
BRANCH  45  69
ATOM     69  C   UNL A   1      42.195  26.756  27.831  1.00  0.00     0.064 A 
ATOM     70  C   UNL A   1      41.795  25.429  27.609  1.00  0.00     0.173 A 
ATOM     71  C   UNL A   1      43.077  27.334  26.909  1.00  0.00     0.173 A 
ATOM     72  F   UNL A   1      40.963  24.825  28.470  1.00  0.00    -0.203 F 
ATOM     73  C   UNL A   1      42.286  24.701  26.526  1.00  0.00     0.198 A 
ATOM     74  C   UNL A   1      43.545  26.615  25.812  1.00  0.00     0.198 A 
ATOM     75  F   UNL A   1      43.479  28.603  27.074  1.00  0.00    -0.203 F 
ATOM     76  F   UNL A   1      41.930  23.419  26.367  1.00  0.00    -0.200 F 
ATOM     77  C   UNL A   1      43.158  25.295  25.628  1.00  0.00     0.200 A 
ATOM     78  F   UNL A   1      44.375  27.198  24.937  1.00  0.00    -0.200 F 
ATOM     79  F   UNL A   1      43.631  24.596  24.587  1.00  0.00    -0.200 F 
ENDBRANCH  45  69
BRANCH  57  80
ATOM     80  C   UNL A   1      44.609  27.335  34.373  1.00  0.00     0.064 A 
ATOM     81  C   UNL A   1      44.415  26.131  35.071  1.00  0.00     0.173 A 
ATOM     82  C   UNL A   1      45.873  27.936  34.440  1.00  0.00     0.173 A 
ATOM     83  F   UNL A   1      43.220  25.520  35.046  1.00  0.00    -0.203 F 
ATOM     84  C   UNL A   1      45.438  25.565  35.823  1.00  0.00     0.198 A 
ATOM     85  C   UNL A   1      46.907  27.347  35.162  1.00  0.00     0.198 A 
ATOM     86  F   UNL A   1      46.114  29.080  33.780  1.00  0.00    -0.203 F 
ATOM     87  F   UNL A   1      45.215  24.440  36.515  1.00  0.00    -0.200 F 
ATOM     88  C   UNL A   1      46.685  26.169  35.862  1.00  0.00     0.200 A 
ATOM     89  F   UNL A   1      48.120  27.915  35.176  1.00  0.00    -0.200 F 
ATOM     90  F   UNL A   1      47.676  25.615  36.573  1.00  0.00    -0.200 F 
ENDBRANCH  57  80
ENDBRANCH  31  32
ENDBRANCH  24  26
ENDBRANCH  23  24
ENDBRANCH  22  23
ENDBRANCH  21  22
ENDBRANCH  20  21
ENDBRANCH  19  20
ENDBRANCH   1  19
TORSDOF 19
ENDMDL
MODEL 2
REMARK VINA RESULT:     -10.1      3.451      8.531
REMARK SMILES O=C(CCCOc1ccc([N+](=O)[O-])cc1F)OCCOCCOC(=O)c1ccc(-c2c3nc(c(-c4c(F)c(F)c(F)c(F)c4F)c4ccc([nH]4)c(-c4c(F)c(F)c(F)c(F)c4F)c4nc(c(-c5c(F)c(F)c(F)c(F)c5F)c5ccc2[nH]5)C=C4)C=C3)cc1
REMARK SMILES IDX 18 1 17 2 2 3 1 4 3 5 4 6 5 7 6 8 7 9 8 10 15 11 9 12 14 13
REMARK SMILES IDX 16 14 10 15 11 16 12 17 13 18 19 19 20 20 21 21 22 22 23 23
REMARK SMILES IDX 24 24 25 25 26 26 27 27 88 28 28 29 87 30 29 31 30 32 31 33
REMARK SMILES IDX 81 34 32 35 86 36 80 37 82 38 33 39 85 40 79 41 78 42 34 44
REMARK SMILES IDX 66 45 46 46 65 47 47 48 50 49 64 50 83 51 48 52 49 53 63 55
REMARK SMILES IDX 84 56 51 57 35 58 36 59 44 60 37 61 38 62 42 63 45 64 39 65
REMARK SMILES IDX 40 66 43 67 41 68 67 69 68 70 76 71 69 72 70 73 74 74 77 75
REMARK SMILES IDX 71 76 72 77 75 78 73 79 52 80 53 81 61 82 54 83 55 84 59 85
REMARK SMILES IDX 62 86 56 87 57 88 60 89 58 90
REMARK H PARENT 82 43 50 54
REMARK Flexibility Score: inf
ROOT
ATOM      1  C   UNL A   1      32.342  26.453  25.889  1.00  0.00     0.261 C 
ENDROOT
BRANCH   1   2
ATOM      2  O   UNL A   1      32.665  25.243  25.200  1.00  0.00    -0.463 OA
BRANCH   2   3
ATOM      3  C   UNL A   1      33.587  25.076  24.238  1.00  0.00     0.305 C 
ATOM      4  O   UNL A   1      34.752  25.378  24.504  1.00  0.00    -0.252 OA
BRANCH   3   5
ATOM      5  C   UNL A   1      33.250  24.565  22.846  1.00  0.00     0.126 C 
BRANCH   5   6
ATOM      6  C   UNL A   1      33.460  23.102  22.462  1.00  0.00     0.053 C 
BRANCH   6   7
ATOM      7  C   UNL A   1      33.083  22.039  23.508  1.00  0.00     0.230 C 
BRANCH   7   8
ATOM      8  O   UNL A   1      32.249  21.003  22.974  1.00  0.00    -0.490 OA
BRANCH   8   9
ATOM      9  C   UNL A   1      32.430  19.789  23.583  1.00  0.00     0.155 A 
ATOM     10  C   UNL A   1      32.627  19.682  24.963  1.00  0.00     0.056 A 
ATOM     11  C   UNL A   1      32.538  18.657  22.777  1.00  0.00     0.171 A 
ATOM     12  C   UNL A   1      32.900  18.426  25.525  1.00  0.00     0.089 A 
ATOM     13  C   UNL A   1      32.776  17.402  23.318  1.00  0.00     0.128 A 
ATOM     14  F   UNL A   1      32.391  18.769  21.448  1.00  0.00    -0.203 F 
ATOM     15  C   UNL A   1      32.958  17.288  24.698  1.00  0.00     0.272 A 
BRANCH  15  16
ATOM     16  N   UNL A   1      33.129  15.951  25.291  1.00  0.00     0.062 N 
ATOM     17  O   UNL A   1      32.251  15.541  26.065  1.00  0.00    -0.258 OA
ATOM     18  O   UNL A   1      34.157  15.320  24.995  1.00  0.00    -0.258 OA
ENDBRANCH  15  16
ENDBRANCH   8   9
ENDBRANCH   7   8
ENDBRANCH   6   7
ENDBRANCH   5   6
ENDBRANCH   3   5
ENDBRANCH   2   3
ENDBRANCH   1   2
BRANCH   1  19
ATOM     19  C   UNL A   1      31.548  27.502  25.105  1.00  0.00     0.202 C 
BRANCH  19  20
ATOM     20  O   UNL A   1      32.219  28.726  24.833  1.00  0.00    -0.374 OA
BRANCH  20  21
ATOM     21  C   UNL A   1      31.412  29.899  25.029  1.00  0.00     0.202 C 
BRANCH  21  22
ATOM     22  C   UNL A   1      31.797  30.728  26.259  1.00  0.00     0.261 C 
BRANCH  22  23
ATOM     23  O   UNL A   1      33.102  30.375  26.742  1.00  0.00    -0.460 OA
BRANCH  23  24
ATOM     24  C   UNL A   1      33.727  31.410  27.346  1.00  0.00     0.338 C 
ATOM     25  O   UNL A   1      33.262  32.501  27.601  1.00  0.00    -0.246 OA
BRANCH  24  26
ATOM     26  C   UNL A   1      35.050  31.034  27.836  1.00  0.00     0.060 A 
ATOM     27  C   UNL A   1      35.237  29.704  28.243  1.00  0.00     0.016 A 
ATOM     28  C   UNL A   1      36.039  31.996  28.004  1.00  0.00     0.016 A 
ATOM     29  C   UNL A   1      36.424  29.330  28.847  1.00  0.00     0.010 A 
ATOM     30  C   UNL A   1      37.226  31.623  28.617  1.00  0.00     0.010 A 
ATOM     31  C   UNL A   1      37.409  30.299  29.058  1.00  0.00    -0.014 A 
BRANCH  31  32
ATOM     32  C   UNL A   1      38.609  29.972  29.840  1.00  0.00     0.031 A 
ATOM     33  C   UNL A   1      39.595  29.004  29.268  1.00  0.00     0.074 A 
ATOM     34  C   UNL A   1      38.761  30.509  31.060  1.00  0.00     0.049 A 
ATOM     35  N   UNL A   1      40.612  28.423  29.844  1.00  0.00    -0.248 NA
ATOM     36  C   UNL A   1      39.395  28.623  27.859  1.00  0.00     0.031 C 
ATOM     37  C   UNL A   1      37.861  31.492  31.662  1.00  0.00     0.029 A 
ATOM     38  N   UNL A   1      39.711  30.285  32.017  1.00  0.00    -0.354 N 
ATOM     39  C   UNL A   1      41.157  27.589  28.879  1.00  0.00     0.074 A 
ATOM     40  C   UNL A   1      40.342  27.712  27.691  1.00  0.00     0.031 C 
ATOM     41  C   UNL A   1      38.296  31.778  32.900  1.00  0.00     0.029 A 
ATOM     42  C   UNL A   1      39.467  30.955  33.187  1.00  0.00     0.049 A 
ATOM     43  H   UNL A   1      40.490  29.699  31.880  1.00  0.00     0.167 HD
ATOM     44  C   UNL A   1      42.249  26.799  28.990  1.00  0.00     0.037 A 
ATOM     45  C   UNL A   1      40.105  30.880  34.369  1.00  0.00     0.037 A 
ATOM     46  C   UNL A   1      43.035  26.704  30.192  1.00  0.00     0.049 A 
ATOM     47  C   UNL A   1      41.283  29.953  34.486  1.00  0.00     0.074 A 
ATOM     48  C   UNL A   1      44.164  25.944  30.429  1.00  0.00     0.029 A 
ATOM     49  N   UNL A   1      42.765  27.401  31.365  1.00  0.00    -0.354 N 
ATOM     50  N   UNL A   1      41.797  29.154  33.579  1.00  0.00    -0.248 NA
ATOM     51  C   UNL A   1      41.972  29.919  35.779  1.00  0.00     0.031 C 
ATOM     52  C   UNL A   1      44.543  26.137  31.761  1.00  0.00     0.029 A 
ATOM     53  C   UNL A   1      43.697  27.076  32.335  1.00  0.00     0.049 A 
ATOM     54  H   UNL A   1      42.019  28.032  31.487  1.00  0.00     0.167 HD
ATOM     55  C   UNL A   1      42.886  28.543  34.181  1.00  0.00     0.074 A 
ATOM     56  C   UNL A   1      42.964  29.074  35.528  1.00  0.00     0.031 C 
ATOM     57  C   UNL A   1      43.748  27.629  33.667  1.00  0.00     0.037 A 
BRANCH  44  58
ATOM     58  C   UNL A   1      42.636  25.969  27.800  1.00  0.00     0.064 A 
ATOM     59  C   UNL A   1      43.595  26.436  26.886  1.00  0.00     0.173 A 
ATOM     60  C   UNL A   1      42.043  24.724  27.540  1.00  0.00     0.173 A 
ATOM     61  F   UNL A   1      44.197  27.619  27.084  1.00  0.00    -0.203 F 
ATOM     62  C   UNL A   1      43.934  25.696  25.757  1.00  0.00     0.198 A 
ATOM     63  C   UNL A   1      42.410  23.968  26.428  1.00  0.00     0.198 A 
ATOM     64  F   UNL A   1      41.133  24.219  28.389  1.00  0.00    -0.203 F 
ATOM     65  F   UNL A   1      44.830  26.179  24.885  1.00  0.00    -0.200 F 
ATOM     66  C   UNL A   1      43.347  24.460  25.532  1.00  0.00     0.200 A 
ATOM     67  F   UNL A   1      41.864  22.761  26.231  1.00  0.00    -0.200 F 
ATOM     68  F   UNL A   1      43.688  23.739  24.455  1.00  0.00    -0.200 F 
ENDBRANCH  44  58
BRANCH  45  69
ATOM     69  C   UNL A   1      39.644  31.725  35.498  1.00  0.00     0.064 A 
ATOM     70  C   UNL A   1      38.630  31.297  36.369  1.00  0.00     0.173 A 
ATOM     71  C   UNL A   1      40.159  33.015  35.681  1.00  0.00     0.173 A 
ATOM     72  F   UNL A   1      38.093  30.076  36.228  1.00  0.00    -0.203 F 
ATOM     73  C   UNL A   1      38.128  32.140  37.359  1.00  0.00     0.198 A 
ATOM     74  C   UNL A   1      39.676  33.847  36.689  1.00  0.00     0.198 A 
ATOM     75  F   UNL A   1      41.136  33.464  34.880  1.00  0.00    -0.203 F 
ATOM     76  F   UNL A   1      37.122  31.726  38.142  1.00  0.00    -0.200 F 
ATOM     77  C   UNL A   1      38.653  33.413  37.519  1.00  0.00     0.200 A 
ATOM     78  F   UNL A   1      40.197  35.070  36.850  1.00  0.00    -0.200 F 
ATOM     79  F   UNL A   1      38.171  34.224  38.471  1.00  0.00    -0.200 F 
ENDBRANCH  45  69
BRANCH  57  80
ATOM     80  C   UNL A   1      44.875  27.175  34.548  1.00  0.00     0.064 A 
ATOM     81  C   UNL A   1      44.708  26.065  35.391  1.00  0.00     0.173 A 
ATOM     82  C   UNL A   1      46.087  27.875  34.616  1.00  0.00     0.173 A 
ATOM     83  F   UNL A   1      43.561  25.367  35.371  1.00  0.00    -0.203 F 
ATOM     84  C   UNL A   1      45.705  25.684  36.282  1.00  0.00     0.198 A 
ATOM     85  C   UNL A   1      47.099  27.468  35.482  1.00  0.00     0.198 A 
ATOM     86  F   UNL A   1      46.302  28.935  33.822  1.00  0.00    -0.203 F 
ATOM     87  F   UNL A   1      45.504  24.648  37.107  1.00  0.00    -0.200 F 
ATOM     88  C   UNL A   1      46.902  26.382  36.322  1.00  0.00     0.200 A 
ATOM     89  F   UNL A   1      48.267  28.124  35.499  1.00  0.00    -0.200 F 
ATOM     90  F   UNL A   1      47.870  26.005  37.169  1.00  0.00    -0.200 F 
ENDBRANCH  57  80
ENDBRANCH  31  32
ENDBRANCH  24  26
ENDBRANCH  23  24
ENDBRANCH  22  23
ENDBRANCH  21  22
ENDBRANCH  20  21
ENDBRANCH  19  20
ENDBRANCH   1  19
TORSDOF 19
ENDMDL
MODEL 3
REMARK VINA RESULT:      -9.9      2.456      8.307
REMARK SMILES O=C(CCCOc1ccc([N+](=O)[O-])cc1F)OCCOCCOC(=O)c1ccc(-c2c3nc(c(-c4c(F)c(F)c(F)c(F)c4F)c4ccc([nH]4)c(-c4c(F)c(F)c(F)c(F)c4F)c4nc(c(-c5c(F)c(F)c(F)c(F)c5F)c5ccc2[nH]5)C=C4)C=C3)cc1
REMARK SMILES IDX 18 1 17 2 2 3 1 4 3 5 4 6 5 7 6 8 7 9 8 10 15 11 9 12 14 13
REMARK SMILES IDX 16 14 10 15 11 16 12 17 13 18 19 19 20 20 21 21 22 22 23 23
REMARK SMILES IDX 24 24 25 25 26 26 27 27 88 28 28 29 87 30 29 31 30 32 31 33
REMARK SMILES IDX 81 34 32 35 86 36 80 37 82 38 33 39 85 40 79 41 78 42 34 44
REMARK SMILES IDX 66 45 46 46 65 47 47 48 50 49 64 50 83 51 48 52 49 53 63 55
REMARK SMILES IDX 84 56 51 57 35 58 36 59 44 60 37 61 38 62 42 63 45 64 39 65
REMARK SMILES IDX 40 66 43 67 41 68 67 69 68 70 76 71 69 72 70 73 74 74 77 75
REMARK SMILES IDX 71 76 72 77 75 78 73 79 52 80 53 81 61 82 54 83 55 84 59 85
REMARK SMILES IDX 62 86 56 87 57 88 60 89 58 90
REMARK H PARENT 82 43 50 54
REMARK Flexibility Score: inf
ROOT
ATOM      1  C   UNL A   1      32.997  26.850  25.353  1.00  0.00     0.261 C 
ENDROOT
BRANCH   1   2
ATOM      2  O   UNL A   1      32.782  25.453  25.563  1.00  0.00    -0.463 OA
BRANCH   2   3
ATOM      3  C   UNL A   1      31.786  24.877  26.256  1.00  0.00     0.305 C 
ATOM      4  O   UNL A   1      30.892  25.609  26.686  1.00  0.00    -0.252 OA
BRANCH   3   5
ATOM      5  C   UNL A   1      31.734  23.386  26.551  1.00  0.00     0.126 C 
BRANCH   5   6
ATOM      6  C   UNL A   1      31.434  22.367  25.454  1.00  0.00     0.053 C 
BRANCH   6   7
ATOM      7  C   UNL A   1      31.948  22.684  24.039  1.00  0.00     0.230 C 
BRANCH   7   8
ATOM      8  O   UNL A   1      32.982  21.789  23.610  1.00  0.00    -0.490 OA
BRANCH   8   9
ATOM      9  C   UNL A   1      34.201  22.054  24.175  1.00  0.00     0.155 A 
ATOM     10  C   UNL A   1      34.846  23.281  23.990  1.00  0.00     0.056 A 
ATOM     11  C   UNL A   1      34.854  21.022  24.848  1.00  0.00     0.171 A 
ATOM     12  C   UNL A   1      36.134  23.469  24.513  1.00  0.00     0.089 A 
ATOM     13  C   UNL A   1      36.115  21.200  25.399  1.00  0.00     0.128 A 
ATOM     14  F   UNL A   1      34.251  19.833  24.988  1.00  0.00    -0.203 F 
ATOM     15  C   UNL A   1      36.756  22.429  25.230  1.00  0.00     0.272 A 
BRANCH  15  16
ATOM     16  N   UNL A   1      38.058  22.655  25.880  1.00  0.00     0.062 N 
ATOM     17  O   UNL A   1      38.872  21.719  25.893  1.00  0.00    -0.258 OA
ATOM     18  O   UNL A   1      38.256  23.766  26.397  1.00  0.00    -0.258 OA
ENDBRANCH  15  16
ENDBRANCH   8   9
ENDBRANCH   7   8
ENDBRANCH   6   7
ENDBRANCH   5   6
ENDBRANCH   3   5
ENDBRANCH   2   3
ENDBRANCH   1   2
BRANCH   1  19
ATOM     19  C   UNL A   1      32.297  27.481  24.146  1.00  0.00     0.202 C 
BRANCH  19  20
ATOM     20  O   UNL A   1      32.262  28.903  24.111  1.00  0.00    -0.374 OA
BRANCH  20  21
ATOM     21  C   UNL A   1      31.265  29.491  24.962  1.00  0.00     0.202 C 
BRANCH  21  22
ATOM     22  C   UNL A   1      31.809  30.021  26.293  1.00  0.00     0.261 C 
BRANCH  22  23
ATOM     23  O   UNL A   1      33.200  30.362  26.192  1.00  0.00    -0.460 OA
BRANCH  23  24
ATOM     24  C   UNL A   1      33.575  31.277  27.113  1.00  0.00     0.338 C 
ATOM     25  O   UNL A   1      32.899  32.166  27.583  1.00  0.00    -0.246 OA
BRANCH  24  26
ATOM     26  C   UNL A   1      34.907  30.999  27.642  1.00  0.00     0.060 A 
ATOM     27  C   UNL A   1      35.267  29.653  27.818  1.00  0.00     0.016 A 
ATOM     28  C   UNL A   1      35.728  32.036  28.068  1.00  0.00     0.016 A 
ATOM     29  C   UNL A   1      36.458  29.336  28.447  1.00  0.00     0.010 A 
ATOM     30  C   UNL A   1      36.918  31.719  28.707  1.00  0.00     0.010 A 
ATOM     31  C   UNL A   1      37.270  30.373  28.916  1.00  0.00    -0.014 A 
BRANCH  31  32
ATOM     32  C   UNL A   1      38.456  30.069  29.730  1.00  0.00     0.031 A 
ATOM     33  C   UNL A   1      39.465  29.105  29.193  1.00  0.00     0.074 A 
ATOM     34  C   UNL A   1      38.573  30.623  30.946  1.00  0.00     0.049 A 
ATOM     35  N   UNL A   1      40.474  28.543  29.800  1.00  0.00    -0.248 NA
ATOM     36  C   UNL A   1      39.301  28.703  27.786  1.00  0.00     0.031 C 
ATOM     37  C   UNL A   1      37.649  31.604  31.514  1.00  0.00     0.029 A 
ATOM     38  N   UNL A   1      39.503  30.422  31.928  1.00  0.00    -0.354 N 
ATOM     39  C   UNL A   1      41.050  27.702  28.859  1.00  0.00     0.074 A 
ATOM     40  C   UNL A   1      40.262  27.800  27.651  1.00  0.00     0.031 C 
ATOM     41  C   UNL A   1      38.053  31.910  32.757  1.00  0.00     0.029 A 
ATOM     42  C   UNL A   1      39.226  31.105  33.083  1.00  0.00     0.049 A 
ATOM     43  H   UNL A   1      40.292  29.843  31.816  1.00  0.00     0.167 HD
ATOM     44  C   UNL A   1      42.148  26.925  29.005  1.00  0.00     0.037 A 
ATOM     45  C   UNL A   1      39.837  31.052  34.279  1.00  0.00     0.037 A 
ATOM     46  C   UNL A   1      42.907  26.854  30.226  1.00  0.00     0.049 A 
ATOM     47  C   UNL A   1      41.022  30.140  34.435  1.00  0.00     0.074 A 
ATOM     48  C   UNL A   1      44.038  26.110  30.499  1.00  0.00     0.029 A 
ATOM     49  N   UNL A   1      42.602  27.564  31.383  1.00  0.00    -0.354 N 
ATOM     50  N   UNL A   1      41.565  29.334  33.552  1.00  0.00    -0.248 NA
ATOM     51  C   UNL A   1      41.681  30.130  35.745  1.00  0.00     0.031 C 
ATOM     52  C   UNL A   1      44.385  26.325  31.837  1.00  0.00     0.029 A 
ATOM     53  C   UNL A   1      43.515  27.261  32.379  1.00  0.00     0.049 A 
ATOM     54  H   UNL A   1      41.847  28.188  31.480  1.00  0.00     0.167 HD
ATOM     55  C   UNL A   1      42.647  28.743  34.186  1.00  0.00     0.074 A 
ATOM     56  C   UNL A   1      42.688  29.293  35.527  1.00  0.00     0.031 C 
ATOM     57  C   UNL A   1      43.530  27.832  33.704  1.00  0.00     0.037 A 
BRANCH  44  58
ATOM     58  C   UNL A   1      42.571  26.084  27.835  1.00  0.00     0.064 A 
ATOM     59  C   UNL A   1      43.563  26.539  26.952  1.00  0.00     0.173 A 
ATOM     60  C   UNL A   1      41.980  24.840  27.565  1.00  0.00     0.173 A 
ATOM     61  F   UNL A   1      44.165  27.720  27.162  1.00  0.00    -0.203 F 
ATOM     62  C   UNL A   1      43.937  25.789  25.841  1.00  0.00     0.198 A 
ATOM     63  C   UNL A   1      42.381  24.075  26.472  1.00  0.00     0.198 A 
ATOM     64  F   UNL A   1      41.039  24.347  28.385  1.00  0.00    -0.203 F 
ATOM     65  F   UNL A   1      44.865  26.260  24.997  1.00  0.00    -0.200 F 
ATOM     66  C   UNL A   1      43.351  24.555  25.605  1.00  0.00     0.200 A 
ATOM     67  F   UNL A   1      41.835  22.868  26.265  1.00  0.00    -0.200 F 
ATOM     68  F   UNL A   1      43.725  23.824  24.546  1.00  0.00    -0.200 F 
ENDBRANCH  44  58
BRANCH  45  69
ATOM     69  C   UNL A   1      39.341  31.906  35.387  1.00  0.00     0.064 A 
ATOM     70  C   UNL A   1      39.750  33.242  35.523  1.00  0.00     0.173 A 
ATOM     71  C   UNL A   1      38.507  31.375  36.379  1.00  0.00     0.173 A 
ATOM     72  F   UNL A   1      40.560  33.794  34.608  1.00  0.00    -0.203 F 
ATOM     73  C   UNL A   1      39.366  34.003  36.626  1.00  0.00     0.198 A 
ATOM     74  C   UNL A   1      38.101  32.145  37.466  1.00  0.00     0.198 A 
ATOM     75  F   UNL A   1      38.083  30.106  36.286  1.00  0.00    -0.203 F 
ATOM     76  F   UNL A   1      39.813  35.259  36.760  1.00  0.00    -0.200 F 
ATOM     77  C   UNL A   1      38.540  33.455  37.595  1.00  0.00     0.200 A 
ATOM     78  F   UNL A   1      37.290  31.616  38.392  1.00  0.00    -0.200 F 
ATOM     79  F   UNL A   1      38.171  34.186  38.656  1.00  0.00    -0.200 F 
ENDBRANCH  45  69
BRANCH  57  80
ATOM     80  C   UNL A   1      44.641  27.403  34.617  1.00  0.00     0.064 A 
ATOM     81  C   UNL A   1      44.470  26.295  35.463  1.00  0.00     0.173 A 
ATOM     82  C   UNL A   1      45.840  28.123  34.712  1.00  0.00     0.173 A 
ATOM     83  F   UNL A   1      43.336  25.578  35.418  1.00  0.00    -0.203 F 
ATOM     84  C   UNL A   1      45.450  25.936  36.381  1.00  0.00     0.198 A 
ATOM     85  C   UNL A   1      46.835  27.738  35.605  1.00  0.00     0.198 A 
ATOM     86  F   UNL A   1      46.058  29.181  33.916  1.00  0.00    -0.203 F 
ATOM     87  F   UNL A   1      45.245  24.901  37.208  1.00  0.00    -0.200 F 
ATOM     88  C   UNL A   1      46.635  26.653  36.447  1.00  0.00     0.200 A 
ATOM     89  F   UNL A   1      47.992  28.413  35.647  1.00  0.00    -0.200 F 
ATOM     90  F   UNL A   1      47.586  26.297  37.321  1.00  0.00    -0.200 F 
ENDBRANCH  57  80
ENDBRANCH  31  32
ENDBRANCH  24  26
ENDBRANCH  23  24
ENDBRANCH  22  23
ENDBRANCH  21  22
ENDBRANCH  20  21
ENDBRANCH  19  20
ENDBRANCH   1  19
TORSDOF 19
ENDMDL
