MODEL 1
REMARK VINA RESULT:     -10.2      0.000      0.000
REMARK SMILES CC[C@]1(C(=O)OCCOCCOC(=O)c2ccc(-c3c4nc(c(-c5c(F)c(F)c(F)c(F)c5F)c5ccc([nH]5)c(-c5c(F)c(F)c(F)c(F)c5F)c5nc(c(-c6c(F)c(F)c(F)c(F)c6F)c6ccc3[nH]6)C=C5)C=C4)cc2)CCCN(S(=O)(=O)CCOC(C)C)C1
REMARK SMILES IDX 7 1 6 2 4 3 5 4 3 5 78 6 91 7 79 8 81 9 80 10 2 11 1 12
REMARK SMILES IDX 82 13 83 14 84 15 85 16 86 17 87 18 88 19 89 20 90 21 8 22
REMARK SMILES IDX 9 23 10 24 11 25 12 26 13 27 14 28 15 29 16 30 77 31 17 32
REMARK SMILES IDX 76 33 18 34 19 35 20 36 70 37 21 38 75 39 69 40 71 41 22 42
REMARK SMILES IDX 74 43 68 44 67 45 23 47 55 48 35 49 54 50 36 51 39 52 53 53
REMARK SMILES IDX 72 54 37 55 38 56 52 58 73 59 40 60 24 61 25 62 33 63 26 64
REMARK SMILES IDX 27 65 31 66 34 67 28 68 29 69 32 70 30 71 56 72 57 73 65 74
REMARK SMILES IDX 58 75 59 76 63 77 66 78 60 79 61 80 64 81 62 82 41 83 42 84
REMARK SMILES IDX 50 85 43 86 44 87 48 88 51 89 45 90 46 91 49 92 47 93
REMARK H PARENT 71 46 39 57
REMARK Flexibility Score: inf
ROOT
ATOM      1  C   UNL A   1      36.515  23.739  25.230  1.00  0.00     0.261 C 
ENDROOT
BRANCH   1   2
ATOM      2  O   UNL A   1      35.255  24.429  25.257  1.00  0.00    -0.463 OA
BRANCH   2   3
ATOM      3  C   UNL A   1      34.298  23.768  25.956  1.00  0.00     0.313 C 
ATOM      4  O   UNL A   1      34.540  23.064  26.934  1.00  0.00    -0.252 OA
BRANCH   3   5
ATOM      5  C   UNL A   1      32.905  23.846  25.330  1.00  0.00     0.082 C 
ATOM      6  C   UNL A   1      31.778  24.583  26.078  1.00  0.00     0.021 C 
ATOM      7  C   UNL A   1      33.229  24.689  24.076  1.00  0.00     0.121 C 
ATOM      8  C   UNL A   1      30.547  24.737  25.162  1.00  0.00     0.018 C 
ATOM      9  N   UNL A   1      32.069  24.980  23.184  1.00  0.00    -0.201 NA
ATOM     10  C   UNL A   1      30.871  25.519  23.891  1.00  0.00     0.102 C 
BRANCH   5  11
ATOM     11  C   UNL A   1      32.485  22.359  25.089  1.00  0.00     0.017 C 
ATOM     12  C   UNL A   1      33.253  21.637  23.969  1.00  0.00     0.005 C 
ENDBRANCH   5  11
BRANCH   9  13
ATOM     13  S   UNL A   1      32.529  25.930  21.800  1.00  0.00     0.216 S 
ATOM     14  O   UNL A   1      33.125  25.040  20.835  1.00  0.00    -0.212 OA
ATOM     15  O   UNL A   1      31.394  26.758  21.424  1.00  0.00    -0.212 OA
BRANCH  13  16
ATOM     16  C   UNL A   1      33.820  26.984  22.464  1.00  0.00     0.182 C 
BRANCH  16  17
ATOM     17  C   UNL A   1      33.336  28.386  22.814  1.00  0.00     0.178 C 
BRANCH  17  18
ATOM     18  O   UNL A   1      33.630  28.769  24.162  1.00  0.00    -0.378 OA
BRANCH  18  19
ATOM     19  C   UNL A   1      32.893  28.144  25.215  1.00  0.00     0.112 C 
ATOM     20  C   UNL A   1      33.697  27.913  26.500  1.00  0.00     0.038 C 
ATOM     21  C   UNL A   1      31.602  28.873  25.505  1.00  0.00     0.038 C 
ENDBRANCH  18  19
ENDBRANCH  17  18
ENDBRANCH  16  17
ENDBRANCH  13  16
ENDBRANCH   9  13
ENDBRANCH   3   5
ENDBRANCH   2   3
ENDBRANCH   1   2
BRANCH   1  22
ATOM     22  C   UNL A   1      36.811  22.995  23.925  1.00  0.00     0.202 C 
BRANCH  22  23
ATOM     23  O   UNL A   1      37.006  21.589  23.941  1.00  0.00    -0.374 OA
BRANCH  23  24
ATOM     24  C   UNL A   1      37.185  20.911  25.176  1.00  0.00     0.202 C 
BRANCH  24  25
ATOM     25  C   UNL A   1      38.448  20.073  25.429  1.00  0.00     0.261 C 
BRANCH  25  26
ATOM     26  O   UNL A   1      39.675  20.821  25.479  1.00  0.00    -0.460 OA
BRANCH  26  27
ATOM     27  C   UNL A   1      40.331  20.739  26.663  1.00  0.00     0.338 C 
ATOM     28  O   UNL A   1      40.834  19.748  27.165  1.00  0.00    -0.246 OA
BRANCH  27  29
ATOM     29  C   UNL A   1      40.506  22.077  27.249  1.00  0.00     0.060 A 
ATOM     30  C   UNL A   1      39.769  23.138  26.705  1.00  0.00     0.016 A 
ATOM     31  C   UNL A   1      41.506  22.312  28.193  1.00  0.00     0.016 A 
ATOM     32  C   UNL A   1      40.062  24.448  27.070  1.00  0.00     0.010 A 
ATOM     33  C   UNL A   1      41.810  23.630  28.546  1.00  0.00     0.010 A 
ATOM     34  C   UNL A   1      41.119  24.702  27.953  1.00  0.00    -0.014 A 
BRANCH  34  35
ATOM     35  C   UNL A   1      41.617  26.088  28.109  1.00  0.00     0.031 A 
ATOM     36  C   UNL A   1      42.974  26.434  27.561  1.00  0.00     0.074 A 
ATOM     37  C   UNL A   1      40.858  27.027  28.698  1.00  0.00     0.049 A 
ATOM     38  N   UNL A   1      43.640  27.557  27.636  1.00  0.00    -0.248 NA
ATOM     39  C   UNL A   1      43.674  25.366  26.828  1.00  0.00     0.031 C 
ATOM     40  C   UNL A   1      39.507  26.819  29.214  1.00  0.00     0.029 A 
ATOM     41  N   UNL A   1      41.126  28.346  28.967  1.00  0.00    -0.354 N 
ATOM     42  C   UNL A   1      44.839  27.329  26.971  1.00  0.00     0.074 A 
ATOM     43  C   UNL A   1      44.822  25.955  26.521  1.00  0.00     0.031 C 
ATOM     44  C   UNL A   1      39.066  27.968  29.753  1.00  0.00     0.029 A 
ATOM     45  C   UNL A   1      40.119  28.978  29.652  1.00  0.00     0.049 A 
ATOM     46  H   UNL A   1      41.958  28.794  28.696  1.00  0.00     0.167 HD
ATOM     47  C   UNL A   1      45.857  28.194  26.752  1.00  0.00     0.037 A 
ATOM     48  C   UNL A   1      40.068  30.224  30.162  1.00  0.00     0.037 A 
ATOM     49  C   UNL A   1      45.866  29.560  27.202  1.00  0.00     0.049 A 
ATOM     50  C   UNL A   1      41.249  31.142  29.973  1.00  0.00     0.074 A 
ATOM     51  C   UNL A   1      46.846  30.521  27.030  1.00  0.00     0.029 A 
ATOM     52  N   UNL A   1      44.839  30.159  27.918  1.00  0.00    -0.354 N 
ATOM     53  N   UNL A   1      42.377  30.924  29.339  1.00  0.00    -0.248 NA
ATOM     54  C   UNL A   1      41.148  32.481  30.568  1.00  0.00     0.031 C 
ATOM     55  C   UNL A   1      46.434  31.686  27.685  1.00  0.00     0.029 A 
ATOM     56  C   UNL A   1      45.172  31.470  28.215  1.00  0.00     0.049 A 
ATOM     57  H   UNL A   1      43.998  29.716  28.176  1.00  0.00     0.167 HD
ATOM     58  C   UNL A   1      43.102  32.104  29.429  1.00  0.00     0.074 A 
ATOM     59  C   UNL A   1      42.283  33.040  30.172  1.00  0.00     0.031 C 
ATOM     60  C   UNL A   1      44.334  32.391  28.941  1.00  0.00     0.037 A 
BRANCH  47  61
ATOM     61  C   UNL A   1      47.060  27.678  26.016  1.00  0.00     0.064 A 
ATOM     62  C   UNL A   1      47.149  27.728  24.617  1.00  0.00     0.173 A 
ATOM     63  C   UNL A   1      48.154  27.154  26.723  1.00  0.00     0.173 A 
ATOM     64  F   UNL A   1      46.126  28.205  23.892  1.00  0.00    -0.203 F 
ATOM     65  C   UNL A   1      48.278  27.252  23.953  1.00  0.00     0.198 A 
ATOM     66  C   UNL A   1      49.291  26.706  26.058  1.00  0.00     0.198 A 
ATOM     67  F   UNL A   1      48.122  27.085  28.063  1.00  0.00    -0.203 F 
ATOM     68  F   UNL A   1      48.320  27.268  22.614  1.00  0.00    -0.200 F 
ATOM     69  C   UNL A   1      49.350  26.749  24.673  1.00  0.00     0.200 A 
ATOM     70  F   UNL A   1      50.331  26.230  26.757  1.00  0.00    -0.200 F 
ATOM     71  F   UNL A   1      50.437  26.297  24.033  1.00  0.00    -0.200 F 
ENDBRANCH  47  61
BRANCH  48  72
ATOM     72  C   UNL A   1      38.867  30.673  30.913  1.00  0.00     0.064 A 
ATOM     73  C   UNL A   1      37.770  31.237  30.250  1.00  0.00     0.173 A 
ATOM     74  C   UNL A   1      38.802  30.567  32.310  1.00  0.00     0.173 A 
ATOM     75  F   UNL A   1      37.796  31.385  28.917  1.00  0.00    -0.203 F 
ATOM     76  C   UNL A   1      36.660  31.697  30.957  1.00  0.00     0.198 A 
ATOM     77  C   UNL A   1      37.680  30.999  33.014  1.00  0.00     0.198 A 
ATOM     78  F   UNL A   1      39.828  30.037  32.993  1.00  0.00    -0.203 F 
ATOM     79  F   UNL A   1      35.646  32.279  30.303  1.00  0.00    -0.200 F 
ATOM     80  C   UNL A   1      36.613  31.572  32.337  1.00  0.00     0.200 A 
ATOM     81  F   UNL A   1      37.635  30.867  34.346  1.00  0.00    -0.200 F 
ATOM     82  F   UNL A   1      35.547  32.014  33.016  1.00  0.00    -0.200 F 
ENDBRANCH  48  72
BRANCH  60  83
ATOM     83  C   UNL A   1      44.851  33.785  29.145  1.00  0.00     0.064 A 
ATOM     84  C   UNL A   1      44.570  34.818  28.240  1.00  0.00     0.173 A 
ATOM     85  C   UNL A   1      45.600  34.100  30.291  1.00  0.00     0.173 A 
ATOM     86  F   UNL A   1      43.871  34.566  27.123  1.00  0.00    -0.203 F 
ATOM     87  C   UNL A   1      45.041  36.110  28.462  1.00  0.00     0.198 A 
ATOM     88  C   UNL A   1      46.041  35.398  30.524  1.00  0.00     0.198 A 
ATOM     89  F   UNL A   1      45.888  33.149  31.192  1.00  0.00    -0.203 F 
ATOM     90  F   UNL A   1      44.800  37.072  27.560  1.00  0.00    -0.200 F 
ATOM     91  C   UNL A   1      45.768  36.401  29.606  1.00  0.00     0.200 A 
ATOM     92  F   UNL A   1      46.729  35.680  31.639  1.00  0.00    -0.200 F 
ATOM     93  F   UNL A   1      46.211  37.647  29.822  1.00  0.00    -0.200 F 
ENDBRANCH  60  83
ENDBRANCH  34  35
ENDBRANCH  27  29
ENDBRANCH  26  27
ENDBRANCH  25  26
ENDBRANCH  24  25
ENDBRANCH  23  24
ENDBRANCH  22  23
ENDBRANCH   1  22
TORSDOF 20
ENDMDL
MODEL 2
REMARK VINA RESULT:     -10.1      4.164     10.008
REMARK SMILES CC[C@]1(C(=O)OCCOCCOC(=O)c2ccc(-c3c4nc(c(-c5c(F)c(F)c(F)c(F)c5F)c5ccc([nH]5)c(-c5c(F)c(F)c(F)c(F)c5F)c5nc(c(-c6c(F)c(F)c(F)c(F)c6F)c6ccc3[nH]6)C=C5)C=C4)cc2)CCCN(S(=O)(=O)CCOC(C)C)C1
REMARK SMILES IDX 7 1 6 2 4 3 5 4 3 5 78 6 91 7 79 8 81 9 80 10 2 11 1 12
REMARK SMILES IDX 82 13 83 14 84 15 85 16 86 17 87 18 88 19 89 20 90 21 8 22
REMARK SMILES IDX 9 23 10 24 11 25 12 26 13 27 14 28 15 29 16 30 77 31 17 32
REMARK SMILES IDX 76 33 18 34 19 35 20 36 70 37 21 38 75 39 69 40 71 41 22 42
REMARK SMILES IDX 74 43 68 44 67 45 23 47 55 48 35 49 54 50 36 51 39 52 53 53
REMARK SMILES IDX 72 54 37 55 38 56 52 58 73 59 40 60 24 61 25 62 33 63 26 64
REMARK SMILES IDX 27 65 31 66 34 67 28 68 29 69 32 70 30 71 56 72 57 73 65 74
REMARK SMILES IDX 58 75 59 76 63 77 66 78 60 79 61 80 64 81 62 82 41 83 42 84
REMARK SMILES IDX 50 85 43 86 44 87 48 88 51 89 45 90 46 91 49 92 47 93
REMARK H PARENT 71 46 39 57
REMARK Flexibility Score: inf
ROOT
ATOM      1  C   UNL A   1      32.709  27.678  26.923  1.00  0.00     0.261 C 
ENDROOT
BRANCH   1   2
ATOM      2  O   UNL A   1      32.753  26.563  26.018  1.00  0.00    -0.463 OA
BRANCH   2   3
ATOM      3  C   UNL A   1      31.640  25.789  26.070  1.00  0.00     0.313 C 
ATOM      4  O   UNL A   1      30.661  26.058  26.762  1.00  0.00    -0.252 OA
BRANCH   3   5
ATOM      5  C   UNL A   1      31.765  24.468  25.310  1.00  0.00     0.082 C 
ATOM      6  C   UNL A   1      31.113  24.326  23.922  1.00  0.00     0.021 C 
ATOM      7  C   UNL A   1      33.294  24.439  25.086  1.00  0.00     0.121 C 
ATOM      8  C   UNL A   1      31.566  23.012  23.255  1.00  0.00     0.018 C 
ATOM      9  N   UNL A   1      33.810  23.249  24.350  1.00  0.00    -0.201 NA
ATOM     10  C   UNL A   1      33.082  22.949  23.082  1.00  0.00     0.102 C 
BRANCH   5  11
ATOM     11  C   UNL A   1      31.175  23.387  26.276  1.00  0.00     0.017 C 
ATOM     12  C   UNL A   1      32.151  22.865  27.344  1.00  0.00     0.005 C 
ENDBRANCH   5  11
BRANCH   9  13
ATOM     13  S   UNL A   1      35.538  23.303  24.146  1.00  0.00     0.216 S 
ATOM     14  O   UNL A   1      35.810  23.409  22.734  1.00  0.00    -0.212 OA
ATOM     15  O   UNL A   1      36.071  24.293  25.069  1.00  0.00    -0.212 OA
BRANCH  13  16
ATOM     16  C   UNL A   1      36.044  21.671  24.693  1.00  0.00     0.182 C 
BRANCH  16  17
ATOM     17  C   UNL A   1      34.886  20.812  25.185  1.00  0.00     0.178 C 
BRANCH  17  18
ATOM     18  O   UNL A   1      34.959  19.451  24.747  1.00  0.00    -0.378 OA
BRANCH  18  19
ATOM     19  C   UNL A   1      33.748  18.810  24.337  1.00  0.00     0.112 C 
ATOM     20  C   UNL A   1      33.939  17.395  23.778  1.00  0.00     0.038 C 
ATOM     21  C   UNL A   1      32.708  18.826  25.432  1.00  0.00     0.038 C 
ENDBRANCH  18  19
ENDBRANCH  17  18
ENDBRANCH  16  17
ENDBRANCH  13  16
ENDBRANCH   9  13
ENDBRANCH   3   5
ENDBRANCH   2   3
ENDBRANCH   1   2
BRANCH   1  22
ATOM     22  C   UNL A   1      32.473  29.036  26.257  1.00  0.00     0.202 C 
BRANCH  22  23
ATOM     23  O   UNL A   1      31.972  30.122  27.021  1.00  0.00    -0.374 OA
BRANCH  23  24
ATOM     24  C   UNL A   1      31.457  31.273  26.366  1.00  0.00     0.202 C 
BRANCH  24  25
ATOM     25  C   UNL A   1      31.726  32.676  26.932  1.00  0.00     0.261 C 
BRANCH  25  26
ATOM     26  O   UNL A   1      33.090  33.121  26.836  1.00  0.00    -0.460 OA
BRANCH  26  27
ATOM     27  C   UNL A   1      33.646  33.476  28.020  1.00  0.00     0.338 C 
ATOM     28  O   UNL A   1      33.175  34.213  28.870  1.00  0.00    -0.246 OA
BRANCH  27  29
ATOM     29  C   UNL A   1      34.891  32.726  28.251  1.00  0.00     0.060 A 
ATOM     30  C   UNL A   1      34.793  31.363  28.559  1.00  0.00     0.016 A 
ATOM     31  C   UNL A   1      36.114  33.391  28.336  1.00  0.00     0.016 A 
ATOM     32  C   UNL A   1      35.912  30.666  29.001  1.00  0.00     0.010 A 
ATOM     33  C   UNL A   1      37.235  32.695  28.798  1.00  0.00     0.010 A 
ATOM     34  C   UNL A   1      37.127  31.343  29.172  1.00  0.00    -0.014 A 
BRANCH  34  35
ATOM     35  C   UNL A   1      38.226  30.684  29.914  1.00  0.00     0.031 A 
ATOM     36  C   UNL A   1      38.428  31.031  31.364  1.00  0.00     0.074 A 
ATOM     37  C   UNL A   1      39.006  29.770  29.315  1.00  0.00     0.049 A 
ATOM     38  N   UNL A   1      39.359  30.633  32.193  1.00  0.00    -0.248 NA
ATOM     39  C   UNL A   1      37.446  31.953  31.958  1.00  0.00     0.031 C 
ATOM     40  C   UNL A   1      38.865  29.315  27.934  1.00  0.00     0.029 A 
ATOM     41  N   UNL A   1      40.081  29.066  29.797  1.00  0.00    -0.354 N 
ATOM     42  C   UNL A   1      39.081  31.262  33.400  1.00  0.00     0.074 A 
ATOM     43  C   UNL A   1      37.913  32.088  33.191  1.00  0.00     0.031 C 
ATOM     44  C   UNL A   1      39.829  28.416  27.672  1.00  0.00     0.029 A 
ATOM     45  C   UNL A   1      40.674  28.263  28.855  1.00  0.00     0.049 A 
ATOM     46  H   UNL A   1      40.396  29.131  30.727  1.00  0.00     0.167 HD
ATOM     47  C   UNL A   1      39.741  31.152  34.577  1.00  0.00     0.037 A 
ATOM     48  C   UNL A   1      41.790  27.512  28.937  1.00  0.00     0.037 A 
ATOM     49  C   UNL A   1      40.902  30.326  34.777  1.00  0.00     0.049 A 
ATOM     50  C   UNL A   1      42.551  27.469  30.237  1.00  0.00     0.074 A 
ATOM     51  C   UNL A   1      41.644  30.142  35.929  1.00  0.00     0.029 A 
ATOM     52  N   UNL A   1      41.492  29.548  33.791  1.00  0.00    -0.354 N 
ATOM     53  N   UNL A   1      42.282  28.060  31.377  1.00  0.00    -0.248 NA
ATOM     54  C   UNL A   1      43.772  26.651  30.262  1.00  0.00     0.031 C 
ATOM     55  C   UNL A   1      42.712  29.289  35.629  1.00  0.00     0.029 A 
ATOM     56  C   UNL A   1      42.602  28.898  34.304  1.00  0.00     0.049 A 
ATOM     57  H   UNL A   1      41.169  29.469  32.865  1.00  0.00     0.167 HD
ATOM     58  C   UNL A   1      43.275  27.661  32.260  1.00  0.00     0.074 A 
ATOM     59  C   UNL A   1      44.150  26.769  31.526  1.00  0.00     0.031 C 
ATOM     60  C   UNL A   1      43.449  27.999  33.562  1.00  0.00     0.037 A 
BRANCH  47  61
ATOM     61  C   UNL A   1      39.238  31.967  35.734  1.00  0.00     0.064 A 
ATOM     62  C   UNL A   1      38.348  31.437  36.680  1.00  0.00     0.173 A 
ATOM     63  C   UNL A   1      39.678  33.287  35.916  1.00  0.00     0.173 A 
ATOM     64  F   UNL A   1      37.884  30.186  36.545  1.00  0.00    -0.203 F 
ATOM     65  C   UNL A   1      37.899  32.207  37.752  1.00  0.00     0.198 A 
ATOM     66  C   UNL A   1      39.250  34.043  37.003  1.00  0.00     0.198 A 
ATOM     67  F   UNL A   1      40.532  33.842  35.042  1.00  0.00    -0.203 F 
ATOM     68  F   UNL A   1      37.013  31.694  38.617  1.00  0.00    -0.200 F 
ATOM     69  C   UNL A   1      38.356  33.505  37.916  1.00  0.00     0.200 A 
ATOM     70  F   UNL A   1      39.702  35.295  37.167  1.00  0.00    -0.200 F 
ATOM     71  F   UNL A   1      37.928  34.242  38.951  1.00  0.00    -0.200 F 
ENDBRANCH  47  61
BRANCH  48  72
ATOM     72  C   UNL A   1      42.263  26.752  27.751  1.00  0.00     0.064 A 
ATOM     73  C   UNL A   1      41.827  25.443  27.509  1.00  0.00     0.173 A 
ATOM     74  C   UNL A   1      43.179  27.312  26.847  1.00  0.00     0.173 A 
ATOM     75  F   UNL A   1      40.973  24.855  28.359  1.00  0.00    -0.203 F 
ATOM     76  C   UNL A   1      42.303  24.715  26.420  1.00  0.00     0.198 A 
ATOM     77  C   UNL A   1      43.632  26.594  25.742  1.00  0.00     0.198 A 
ATOM     78  F   UNL A   1      43.631  28.561  27.035  1.00  0.00    -0.203 F 
ATOM     79  F   UNL A   1      41.908  23.447  26.241  1.00  0.00    -0.200 F 
ATOM     80  C   UNL A   1      43.200  25.292  25.535  1.00  0.00     0.200 A 
ATOM     81  F   UNL A   1      44.490  27.160  24.884  1.00  0.00    -0.200 F 
ATOM     82  F   UNL A   1      43.657  24.592  24.489  1.00  0.00    -0.200 F 
ENDBRANCH  48  72
BRANCH  60  83
ATOM     83  C   UNL A   1      44.595  27.363  34.293  1.00  0.00     0.064 A 
ATOM     84  C   UNL A   1      45.893  27.893  34.239  1.00  0.00     0.173 A 
ATOM     85  C   UNL A   1      44.380  26.234  35.099  1.00  0.00     0.173 A 
ATOM     86  F   UNL A   1      46.154  28.963  33.473  1.00  0.00    -0.203 F 
ATOM     87  C   UNL A   1      46.936  27.300  34.945  1.00  0.00     0.198 A 
ATOM     88  C   UNL A   1      45.419  25.663  35.827  1.00  0.00     0.198 A 
ATOM     89  F   UNL A   1      43.156  25.693  35.191  1.00  0.00    -0.203 F 
ATOM     90  F   UNL A   1      48.178  27.796  34.842  1.00  0.00    -0.200 F 
ATOM     91  C   UNL A   1      46.698  26.192  35.744  1.00  0.00     0.200 A 
ATOM     92  F   UNL A   1      45.182  24.603  36.611  1.00  0.00    -0.200 F 
ATOM     93  F   UNL A   1      47.702  25.630  36.430  1.00  0.00    -0.200 F 
ENDBRANCH  60  83
ENDBRANCH  34  35
ENDBRANCH  27  29
ENDBRANCH  26  27
ENDBRANCH  25  26
ENDBRANCH  24  25
ENDBRANCH  23  24
ENDBRANCH  22  23
ENDBRANCH   1  22
TORSDOF 20
ENDMDL
MODEL 3
REMARK VINA RESULT:      -9.9      0.601      2.039
REMARK SMILES CC[C@]1(C(=O)OCCOCCOC(=O)c2ccc(-c3c4nc(c(-c5c(F)c(F)c(F)c(F)c5F)c5ccc([nH]5)c(-c5c(F)c(F)c(F)c(F)c5F)c5nc(c(-c6c(F)c(F)c(F)c(F)c6F)c6ccc3[nH]6)C=C5)C=C4)cc2)CCCN(S(=O)(=O)CCOC(C)C)C1
REMARK SMILES IDX 7 1 6 2 4 3 5 4 3 5 78 6 91 7 79 8 81 9 80 10 2 11 1 12
REMARK SMILES IDX 82 13 83 14 84 15 85 16 86 17 87 18 88 19 89 20 90 21 8 22
REMARK SMILES IDX 9 23 10 24 11 25 12 26 13 27 14 28 15 29 16 30 77 31 17 32
REMARK SMILES IDX 76 33 18 34 19 35 20 36 70 37 21 38 75 39 69 40 71 41 22 42
REMARK SMILES IDX 74 43 68 44 67 45 23 47 55 48 35 49 54 50 36 51 39 52 53 53
REMARK SMILES IDX 72 54 37 55 38 56 52 58 73 59 40 60 24 61 25 62 33 63 26 64
REMARK SMILES IDX 27 65 31 66 34 67 28 68 29 69 32 70 30 71 56 72 57 73 65 74
REMARK SMILES IDX 58 75 59 76 63 77 66 78 60 79 61 80 64 81 62 82 41 83 42 84
REMARK SMILES IDX 50 85 43 86 44 87 48 88 51 89 45 90 46 91 49 92 47 93
REMARK H PARENT 71 46 39 57
REMARK Flexibility Score: inf
ROOT
ATOM      1  C   UNL A   1      36.812  23.242  25.413  1.00  0.00     0.261 C 
ENDROOT
BRANCH   1   2
ATOM      2  O   UNL A   1      35.585  23.989  25.423  1.00  0.00    -0.463 OA
BRANCH   2   3
ATOM      3  C   UNL A   1      34.554  23.316  25.994  1.00  0.00     0.313 C 
ATOM      4  O   UNL A   1      34.694  22.534  26.931  1.00  0.00    -0.252 OA
BRANCH   3   5
ATOM      5  C   UNL A   1      33.219  23.494  25.271  1.00  0.00     0.082 C 
ATOM      6  C   UNL A   1      31.950  23.804  26.088  1.00  0.00     0.021 C 
ATOM      7  C   UNL A   1      33.535  24.762  24.446  1.00  0.00     0.121 C 
ATOM      8  C   UNL A   1      30.788  24.172  25.142  1.00  0.00     0.018 C 
ATOM      9  N   UNL A   1      32.425  25.255  23.580  1.00  0.00    -0.201 NA
ATOM     10  C   UNL A   1      31.114  25.391  24.281  1.00  0.00     0.102 C 
BRANCH   5  11
ATOM     11  C   UNL A   1      33.012  22.167  24.469  1.00  0.00     0.017 C 
ATOM     12  C   UNL A   1      32.262  21.058  25.227  1.00  0.00     0.005 C 
ENDBRANCH   5  11
BRANCH   9  13
ATOM     13  S   UNL A   1      32.872  26.683  22.690  1.00  0.00     0.216 S 
ATOM     14  O   UNL A   1      33.864  26.299  21.717  1.00  0.00    -0.212 OA
ATOM     15  O   UNL A   1      31.652  27.350  22.264  1.00  0.00    -0.212 OA
BRANCH  13  16
ATOM     16  C   UNL A   1      33.674  27.686  23.942  1.00  0.00     0.182 C 
BRANCH  16  17
ATOM     17  C   UNL A   1      32.942  28.990  24.233  1.00  0.00     0.178 C 
BRANCH  17  18
ATOM     18  O   UNL A   1      33.278  29.561  25.503  1.00  0.00    -0.378 OA
BRANCH  18  19
ATOM     19  C   UNL A   1      33.672  28.675  26.554  1.00  0.00     0.112 C 
ATOM     20  C   UNL A   1      34.766  29.233  27.473  1.00  0.00     0.038 C 
ATOM     21  C   UNL A   1      32.485  28.191  27.353  1.00  0.00     0.038 C 
ENDBRANCH  18  19
ENDBRANCH  17  18
ENDBRANCH  16  17
ENDBRANCH  13  16
ENDBRANCH   9  13
ENDBRANCH   3   5
ENDBRANCH   2   3
ENDBRANCH   1   2
BRANCH   1  22
ATOM     22  C   UNL A   1      37.045  22.408  24.150  1.00  0.00     0.202 C 
BRANCH  22  23
ATOM     23  O   UNL A   1      37.353  21.027  24.260  1.00  0.00    -0.374 OA
BRANCH  23  24
ATOM     24  C   UNL A   1      37.835  20.504  25.490  1.00  0.00     0.202 C 
BRANCH  24  25
ATOM     25  C   UNL A   1      39.149  19.707  25.535  1.00  0.00     0.261 C 
BRANCH  25  26
ATOM     26  O   UNL A   1      40.340  20.503  25.658  1.00  0.00    -0.460 OA
BRANCH  26  27
ATOM     27  C   UNL A   1      40.863  20.536  26.909  1.00  0.00     0.338 C 
ATOM     28  O   UNL A   1      41.336  19.606  27.539  1.00  0.00    -0.246 OA
BRANCH  27  29
ATOM     29  C   UNL A   1      40.932  21.920  27.402  1.00  0.00     0.060 A 
ATOM     30  C   UNL A   1      40.282  22.918  26.663  1.00  0.00     0.016 A 
ATOM     31  C   UNL A   1      41.768  22.252  28.468  1.00  0.00     0.016 A 
ATOM     32  C   UNL A   1      40.501  24.259  26.960  1.00  0.00     0.010 A 
ATOM     33  C   UNL A   1      42.002  23.600  28.754  1.00  0.00     0.010 A 
ATOM     34  C   UNL A   1      41.404  24.606  27.973  1.00  0.00    -0.014 A 
BRANCH  34  35
ATOM     35  C   UNL A   1      41.859  26.010  28.090  1.00  0.00     0.031 A 
ATOM     36  C   UNL A   1      43.203  26.383  27.526  1.00  0.00     0.074 A 
ATOM     37  C   UNL A   1      41.074  26.941  28.657  1.00  0.00     0.049 A 
ATOM     38  N   UNL A   1      43.835  27.528  27.568  1.00  0.00    -0.248 NA
ATOM     39  C   UNL A   1      43.933  25.318  26.819  1.00  0.00     0.031 C 
ATOM     40  C   UNL A   1      39.732  26.705  29.185  1.00  0.00     0.029 A 
ATOM     41  N   UNL A   1      41.302  28.274  28.890  1.00  0.00    -0.354 N 
ATOM     42  C   UNL A   1      45.037  27.318  26.904  1.00  0.00     0.074 A 
ATOM     43  C   UNL A   1      45.061  25.933  26.492  1.00  0.00     0.031 C 
ATOM     44  C   UNL A   1      39.258  27.854  29.695  1.00  0.00     0.029 A 
ATOM     45  C   UNL A   1      40.278  28.893  29.562  1.00  0.00     0.049 A 
ATOM     46  H   UNL A   1      42.119  28.740  28.603  1.00  0.00     0.167 HD
ATOM     47  C   UNL A   1      46.028  28.208  26.658  1.00  0.00     0.037 A 
ATOM     48  C   UNL A   1      40.191  30.150  30.039  1.00  0.00     0.037 A 
ATOM     49  C   UNL A   1      45.996  29.586  27.071  1.00  0.00     0.049 A 
ATOM     50  C   UNL A   1      41.342  31.098  29.819  1.00  0.00     0.074 A 
ATOM     51  C   UNL A   1      46.945  30.571  26.870  1.00  0.00     0.029 A 
ATOM     52  N   UNL A   1      44.953  30.171  27.776  1.00  0.00    -0.354 N 
ATOM     53  N   UNL A   1      42.474  30.898  29.186  1.00  0.00    -0.248 NA
ATOM     54  C   UNL A   1      41.202  32.450  30.380  1.00  0.00     0.031 C 
ATOM     55  C   UNL A   1      46.500  31.741  27.495  1.00  0.00     0.029 A 
ATOM     56  C   UNL A   1      45.247  31.499  28.036  1.00  0.00     0.049 A 
ATOM     57  H   UNL A   1      44.128  29.710  28.050  1.00  0.00     0.167 HD
ATOM     58  C   UNL A   1      43.162  32.102  29.242  1.00  0.00     0.074 A 
ATOM     59  C   UNL A   1      42.318  33.032  29.964  1.00  0.00     0.031 C 
ATOM     60  C   UNL A   1      44.384  32.413  28.741  1.00  0.00     0.037 A 
BRANCH  47  61
ATOM     61  C   UNL A   1      47.243  27.710  25.931  1.00  0.00     0.064 A 
ATOM     62  C   UNL A   1      48.356  27.199  26.615  1.00  0.00     0.173 A 
ATOM     63  C   UNL A   1      47.282  27.714  24.527  1.00  0.00     0.173 A 
ATOM     64  F   UNL A   1      48.377  27.186  27.956  1.00  0.00    -0.203 F 
ATOM     65  C   UNL A   1      49.472  26.733  25.922  1.00  0.00     0.198 A 
ATOM     66  C   UNL A   1      48.387  27.222  23.838  1.00  0.00     0.198 A 
ATOM     67  F   UNL A   1      46.243  28.189  23.824  1.00  0.00    -0.203 F 
ATOM     68  F   UNL A   1      50.542  26.294  26.598  1.00  0.00    -0.200 F 
ATOM     69  C   UNL A   1      49.483  26.738  24.536  1.00  0.00     0.200 A 
ATOM     70  F   UNL A   1      48.391  27.217  22.498  1.00  0.00    -0.200 F 
ATOM     71  F   UNL A   1      50.555  26.285  23.871  1.00  0.00    -0.200 F 
ENDBRANCH  47  61
BRANCH  48  72
ATOM     72  C   UNL A   1      38.980  30.581  30.782  1.00  0.00     0.064 A 
ATOM     73  C   UNL A   1      38.918  30.492  32.179  1.00  0.00     0.173 A 
ATOM     74  C   UNL A   1      37.850  31.071  30.110  1.00  0.00     0.173 A 
ATOM     75  F   UNL A   1      39.963  30.005  32.865  1.00  0.00    -0.203 F 
ATOM     76  C   UNL A   1      37.767  30.857  32.875  1.00  0.00     0.198 A 
ATOM     77  C   UNL A   1      36.710  31.464  30.808  1.00  0.00     0.198 A 
ATOM     78  F   UNL A   1      37.855  31.173  28.772  1.00  0.00    -0.203 F 
ATOM     79  F   UNL A   1      37.718  30.713  34.206  1.00  0.00    -0.200 F 
ATOM     80  C   UNL A   1      36.666  31.348  32.189  1.00  0.00     0.200 A 
ATOM     81  F   UNL A   1      35.652  31.947  30.142  1.00  0.00    -0.200 F 
ATOM     82  F   UNL A   1      35.560  31.698  32.858  1.00  0.00    -0.200 F 
ENDBRANCH  48  72
BRANCH  60  83
ATOM     83  C   UNL A   1      44.858  33.828  28.906  1.00  0.00     0.064 A 
ATOM     84  C   UNL A   1      45.646  34.221  29.997  1.00  0.00     0.173 A 
ATOM     85  C   UNL A   1      44.558  34.792  27.930  1.00  0.00     0.173 A 
ATOM     86  F   UNL A   1      45.948  33.341  30.964  1.00  0.00    -0.203 F 
ATOM     87  C   UNL A   1      46.094  35.534  30.118  1.00  0.00     0.198 A 
ATOM     88  C   UNL A   1      45.035  36.094  28.039  1.00  0.00     0.198 A 
ATOM     89  F   UNL A   1      43.816  34.464  26.862  1.00  0.00    -0.203 F 
ATOM     90  F   UNL A   1      46.807  35.899  31.193  1.00  0.00    -0.200 F 
ATOM     91  C   UNL A   1      45.797  36.466  29.136  1.00  0.00     0.200 A 
ATOM     92  F   UNL A   1      44.759  36.989  27.081  1.00  0.00    -0.200 F 
ATOM     93  F   UNL A   1      46.238  37.727  29.250  1.00  0.00    -0.200 F 
ENDBRANCH  60  83
ENDBRANCH  34  35
ENDBRANCH  27  29
ENDBRANCH  26  27
ENDBRANCH  25  26
ENDBRANCH  24  25
ENDBRANCH  23  24
ENDBRANCH  22  23
ENDBRANCH   1  22
TORSDOF 20
ENDMDL
