MODEL 1
REMARK VINA RESULT:     -12.1      0.000      0.000
REMARK SMILES O=C(OCCOCCOC(=O)C1(n2ccnc2)CCN(C(=O)C2(c3ccccc3)CC2)CC1)c1ccc(-c2c3nc(c(-c4c(F)c(F)c(F)c(F)c4F)c4ccc([nH]4)c(-c4c(F)c(F)c(F)c(F)c4F)c4nc(c(-c5c(F)c(F)c(F)c(F)c5F)c5ccc2[nH]5)C=C4)C=C3)cc1
REMARK SMILES IDX 6 1 5 2 4 3 3 4 2 5 1 6 34 7 35 8 96 9 36 10 95 11 37 12
REMARK SMILES IDX 38 13 39 14 89 15 40 16 94 17 88 18 90 19 41 20 93 21 87 22
REMARK SMILES IDX 86 23 42 25 74 26 54 27 73 28 55 29 58 30 72 31 91 32 56 33
REMARK SMILES IDX 57 34 71 36 92 37 59 38 43 39 44 40 52 41 45 42 46 43 50 44
REMARK SMILES IDX 53 45 47 46 48 47 51 48 49 49 75 50 76 51 84 52 77 53 78 54
REMARK SMILES IDX 82 55 85 56 79 57 80 58 83 59 81 60 60 61 61 62 69 63 62 64
REMARK SMILES IDX 63 65 67 66 70 67 64 68 65 69 68 70 66 71 7 72 8 73 9 74
REMARK SMILES IDX 10 75 11 76 12 77 18 78 33 79 19 80 32 81 20 82 21 83 22 84
REMARK SMILES IDX 13 85 14 86 17 87 15 88 16 89 23 90 30 91 31 92 24 93 25 94
REMARK SMILES IDX 29 95 26 96 28 97 27 98
REMARK H PARENT 90 24 58 35
REMARK Flexibility Score: inf
ROOT
ATOM      1  O   UNL A   1      39.562  21.930  26.803  1.00  0.00    -0.374 OA
ENDROOT
BRANCH   1   2
ATOM      2  C   UNL A   1      40.067  20.783  26.130  1.00  0.00     0.202 C 
BRANCH   2   3
ATOM      3  C   UNL A   1      41.378  20.123  26.590  1.00  0.00     0.261 C 
BRANCH   3   4
ATOM      4  O   UNL A   1      42.297  19.873  25.530  1.00  0.00    -0.460 OA
BRANCH   4   5
ATOM      5  C   UNL A   1      43.395  20.596  25.215  1.00  0.00     0.338 C 
ATOM      6  O   UNL A   1      44.281  20.048  24.560  1.00  0.00    -0.246 OA
BRANCH   5   7
ATOM      7  C   UNL A   1      43.623  22.007  25.668  1.00  0.00     0.060 A 
ATOM      8  C   UNL A   1      44.467  22.427  26.698  1.00  0.00     0.016 A 
ATOM      9  C   UNL A   1      42.902  22.992  24.974  1.00  0.00     0.016 A 
ATOM     10  C   UNL A   1      44.391  23.708  27.205  1.00  0.00     0.010 A 
ATOM     11  C   UNL A   1      42.895  24.308  25.414  1.00  0.00     0.010 A 
ATOM     12  C   UNL A   1      43.547  24.627  26.601  1.00  0.00    -0.014 A 
BRANCH  12  13
ATOM     13  C   UNL A   1      43.372  25.890  27.299  1.00  0.00     0.031 A 
ATOM     14  C   UNL A   1      44.400  26.944  27.051  1.00  0.00     0.074 A 
ATOM     15  C   UNL A   1      42.325  26.084  28.122  1.00  0.00     0.049 A 
ATOM     16  N   UNL A   1      45.105  27.610  27.912  1.00  0.00    -0.248 NA
ATOM     17  C   UNL A   1      44.734  27.235  25.648  1.00  0.00     0.031 C 
ATOM     18  C   UNL A   1      41.138  25.240  28.295  1.00  0.00     0.029 A 
ATOM     19  N   UNL A   1      42.054  27.164  28.900  1.00  0.00    -0.354 N 
ATOM     20  C   UNL A   1      45.869  28.509  27.168  1.00  0.00     0.074 A 
ATOM     21  C   UNL A   1      45.672  28.171  25.782  1.00  0.00     0.031 C 
ATOM     22  C   UNL A   1      40.175  25.960  28.908  1.00  0.00     0.029 A 
ATOM     23  C   UNL A   1      40.731  27.245  29.289  1.00  0.00     0.049 A 
ATOM     24  H   UNL A   1      42.736  27.825  29.161  1.00  0.00     0.167 HD
ATOM     25  C   UNL A   1      46.486  29.585  27.728  1.00  0.00     0.037 A 
ATOM     26  C   UNL A   1      40.111  28.338  29.784  1.00  0.00     0.037 A 
ATOM     27  C   UNL A   1      46.715  29.411  29.134  1.00  0.00     0.049 A 
ATOM     28  C   UNL A   1      41.154  29.256  30.306  1.00  0.00     0.074 A 
ATOM     29  C   UNL A   1      47.467  28.536  29.892  1.00  0.00     0.029 A 
ATOM     30  N   UNL A   1      45.896  30.056  30.024  1.00  0.00    -0.354 N 
ATOM     31  N   UNL A   1      41.887  29.009  31.356  1.00  0.00    -0.248 NA
ATOM     32  C   UNL A   1      41.671  30.281  29.412  1.00  0.00     0.031 C 
ATOM     33  C   UNL A   1      46.725  28.354  31.095  1.00  0.00     0.029 A 
ATOM     34  C   UNL A   1      45.579  29.142  30.996  1.00  0.00     0.049 A 
ATOM     35  H   UNL A   1      45.594  30.992  29.977  1.00  0.00     0.167 HD
ATOM     36  C   UNL A   1      43.130  29.545  31.055  1.00  0.00     0.074 A 
ATOM     37  C   UNL A   1      42.908  30.401  29.897  1.00  0.00     0.031 C 
ATOM     38  C   UNL A   1      44.273  29.032  31.598  1.00  0.00     0.037 A 
BRANCH  25  39
ATOM     39  C   UNL A   1      46.615  30.923  27.045  1.00  0.00     0.064 A 
ATOM     40  C   UNL A   1      47.865  31.570  26.996  1.00  0.00     0.173 A 
ATOM     41  C   UNL A   1      45.502  31.721  26.702  1.00  0.00     0.173 A 
ATOM     42  F   UNL A   1      48.988  30.915  27.329  1.00  0.00    -0.203 F 
ATOM     43  C   UNL A   1      47.981  32.930  26.692  1.00  0.00     0.198 A 
ATOM     44  C   UNL A   1      45.626  33.062  26.348  1.00  0.00     0.198 A 
ATOM     45  F   UNL A   1      44.246  31.265  26.804  1.00  0.00    -0.203 F 
ATOM     46  F   UNL A   1      49.176  33.531  26.775  1.00  0.00    -0.200 F 
ATOM     47  C   UNL A   1      46.860  33.676  26.374  1.00  0.00     0.200 A 
ATOM     48  F   UNL A   1      44.526  33.773  26.061  1.00  0.00    -0.200 F 
ATOM     49  F   UNL A   1      46.961  34.991  26.141  1.00  0.00    -0.200 F 
ENDBRANCH  25  39
BRANCH  26  50
ATOM     50  C   UNL A   1      38.723  28.754  29.494  1.00  0.00     0.064 A 
ATOM     51  C   UNL A   1      37.818  29.028  30.528  1.00  0.00     0.173 A 
ATOM     52  C   UNL A   1      38.319  29.116  28.191  1.00  0.00     0.173 A 
ATOM     53  F   UNL A   1      38.151  28.766  31.800  1.00  0.00    -0.203 F 
ATOM     54  C   UNL A   1      36.582  29.631  30.273  1.00  0.00     0.198 A 
ATOM     55  C   UNL A   1      37.082  29.701  27.937  1.00  0.00     0.198 A 
ATOM     56  F   UNL A   1      39.154  28.990  27.148  1.00  0.00    -0.203 F 
ATOM     57  F   UNL A   1      35.764  29.928  31.292  1.00  0.00    -0.200 F 
ATOM     58  C   UNL A   1      36.217  29.969  28.979  1.00  0.00     0.200 A 
ATOM     59  F   UNL A   1      36.757  30.055  26.684  1.00  0.00    -0.200 F 
ATOM     60  F   UNL A   1      35.052  30.588  28.742  1.00  0.00    -0.200 F 
ENDBRANCH  26  50
BRANCH  38  61
ATOM     61  C   UNL A   1      44.136  28.046  32.720  1.00  0.00     0.064 A 
ATOM     62  C   UNL A   1      44.019  26.661  32.513  1.00  0.00     0.173 A 
ATOM     63  C   UNL A   1      44.305  28.492  34.037  1.00  0.00     0.173 A 
ATOM     64  F   UNL A   1      43.966  26.152  31.275  1.00  0.00    -0.203 F 
ATOM     65  C   UNL A   1      44.028  25.768  33.582  1.00  0.00     0.198 A 
ATOM     66  C   UNL A   1      44.347  27.595  35.101  1.00  0.00     0.198 A 
ATOM     67  F   UNL A   1      44.489  29.798  34.285  1.00  0.00    -0.203 F 
ATOM     68  F   UNL A   1      43.914  24.450  33.359  1.00  0.00    -0.200 F 
ATOM     69  C   UNL A   1      44.200  26.236  34.875  1.00  0.00     0.200 A 
ATOM     70  F   UNL A   1      44.569  28.045  36.344  1.00  0.00    -0.200 F 
ATOM     71  F   UNL A   1      44.259  25.373  35.899  1.00  0.00    -0.200 F 
ENDBRANCH  38  61
ENDBRANCH  12  13
ENDBRANCH   5   7
ENDBRANCH   4   5
ENDBRANCH   3   4
ENDBRANCH   2   3
ENDBRANCH   1   2
BRANCH   1  72
ATOM     72  C   UNL A   1      38.766  22.906  26.133  1.00  0.00     0.202 C 
BRANCH  72  73
ATOM     73  C   UNL A   1      37.475  22.543  25.393  1.00  0.00     0.261 C 
BRANCH  73  74
ATOM     74  O   UNL A   1      36.763  23.645  24.814  1.00  0.00    -0.461 OA
BRANCH  74  75
ATOM     75  C   UNL A   1      35.823  23.279  23.899  1.00  0.00     0.332 C 
ATOM     76  O   UNL A   1      36.099  22.906  22.761  1.00  0.00    -0.249 OA
BRANCH  75  77
ATOM     77  C   UNL A   1      34.387  23.347  24.434  1.00  0.00     0.146 C 
ATOM     78  C   UNL A   1      33.476  23.559  23.187  1.00  0.00     0.062 C 
ATOM     79  C   UNL A   1      34.219  24.546  25.409  1.00  0.00     0.062 C 
ATOM     80  C   UNL A   1      33.719  24.922  22.554  1.00  0.00     0.122 C 
ATOM     81  C   UNL A   1      34.379  25.887  24.715  1.00  0.00     0.122 C 
ATOM     82  N   UNL A   1      33.506  25.930  23.564  1.00  0.00    -0.342 N 
ATOM     83  C   UNL A   1      33.008  27.148  23.161  1.00  0.00     0.233 C 
ATOM     84  O   UNL A   1      33.599  27.905  22.403  1.00  0.00    -0.274 OA
BRANCH  77  85
ATOM     85  N   UNL A   1      34.019  22.070  25.081  1.00  0.00    -0.320 N 
ATOM     86  C   UNL A   1      33.545  20.944  24.446  1.00  0.00     0.108 A 
ATOM     87  C   UNL A   1      34.014  21.786  26.423  1.00  0.00     0.200 A 
ATOM     88  C   UNL A   1      33.265  20.043  25.445  1.00  0.00     0.130 A 
ATOM     89  N   UNL A   1      33.570  20.574  26.666  1.00  0.00    -0.245 NA
ENDBRANCH  77  85
BRANCH  83  90
ATOM     90  C   UNL A   1      31.601  27.425  23.634  1.00  0.00     0.074 C 
ATOM     91  C   UNL A   1      30.453  27.636  22.645  1.00  0.00     0.023 C 
ATOM     92  C   UNL A   1      30.582  26.328  23.357  1.00  0.00     0.023 C 
BRANCH  90  93
ATOM     93  C   UNL A   1      31.547  28.205  24.944  1.00  0.00    -0.032 A 
ATOM     94  C   UNL A   1      31.773  29.593  24.994  1.00  0.00     0.005 A 
ATOM     95  C   UNL A   1      31.402  27.529  26.167  1.00  0.00     0.005 A 
ATOM     96  C   UNL A   1      31.884  30.266  26.214  1.00  0.00     0.000 A 
ATOM     97  C   UNL A   1      31.523  28.194  27.386  1.00  0.00     0.000 A 
ATOM     98  C   UNL A   1      31.773  29.562  27.410  1.00  0.00     0.000 A 
ENDBRANCH  90  93
ENDBRANCH  83  90
ENDBRANCH  75  77
ENDBRANCH  74  75
ENDBRANCH  73  74
ENDBRANCH  72  73
ENDBRANCH   1  72
TORSDOF 17
ENDMDL
MODEL 2
REMARK VINA RESULT:     -12.0      2.276      3.274
REMARK SMILES O=C(OCCOCCOC(=O)C1(n2ccnc2)CCN(C(=O)C2(c3ccccc3)CC2)CC1)c1ccc(-c2c3nc(c(-c4c(F)c(F)c(F)c(F)c4F)c4ccc([nH]4)c(-c4c(F)c(F)c(F)c(F)c4F)c4nc(c(-c5c(F)c(F)c(F)c(F)c5F)c5ccc2[nH]5)C=C4)C=C3)cc1
REMARK SMILES IDX 6 1 5 2 4 3 3 4 2 5 1 6 34 7 35 8 96 9 36 10 95 11 37 12
REMARK SMILES IDX 38 13 39 14 89 15 40 16 94 17 88 18 90 19 41 20 93 21 87 22
REMARK SMILES IDX 86 23 42 25 74 26 54 27 73 28 55 29 58 30 72 31 91 32 56 33
REMARK SMILES IDX 57 34 71 36 92 37 59 38 43 39 44 40 52 41 45 42 46 43 50 44
REMARK SMILES IDX 53 45 47 46 48 47 51 48 49 49 75 50 76 51 84 52 77 53 78 54
REMARK SMILES IDX 82 55 85 56 79 57 80 58 83 59 81 60 60 61 61 62 69 63 62 64
REMARK SMILES IDX 63 65 67 66 70 67 64 68 65 69 68 70 66 71 7 72 8 73 9 74
REMARK SMILES IDX 10 75 11 76 12 77 18 78 33 79 19 80 32 81 20 82 21 83 22 84
REMARK SMILES IDX 13 85 14 86 17 87 15 88 16 89 23 90 30 91 31 92 24 93 25 94
REMARK SMILES IDX 29 95 26 96 28 97 27 98
REMARK H PARENT 90 24 58 35
REMARK Flexibility Score: inf
ROOT
ATOM      1  O   UNL A   1      35.945  23.036  25.498  1.00  0.00    -0.374 OA
ENDROOT
BRANCH   1   2
ATOM      2  C   UNL A   1      37.361  23.049  25.361  1.00  0.00     0.202 C 
BRANCH   2   3
ATOM      3  C   UNL A   1      38.227  22.019  26.106  1.00  0.00     0.261 C 
BRANCH   3   4
ATOM      4  O   UNL A   1      39.613  22.093  25.780  1.00  0.00    -0.460 OA
BRANCH   4   5
ATOM      5  C   UNL A   1      40.639  22.331  26.627  1.00  0.00     0.338 C 
ATOM      6  O   UNL A   1      41.215  21.364  27.124  1.00  0.00    -0.246 OA
BRANCH   5   7
ATOM      7  C   UNL A   1      41.077  23.703  27.043  1.00  0.00     0.060 A 
ATOM      8  C   UNL A   1      41.930  24.022  28.102  1.00  0.00     0.016 A 
ATOM      9  C   UNL A   1      40.563  24.763  26.279  1.00  0.00     0.016 A 
ATOM     10  C   UNL A   1      42.043  25.318  28.561  1.00  0.00     0.010 A 
ATOM     11  C   UNL A   1      40.754  26.080  26.672  1.00  0.00     0.010 A 
ATOM     12  C   UNL A   1      41.394  26.337  27.881  1.00  0.00    -0.014 A 
BRANCH  12  13
ATOM     13  C   UNL A   1      41.398  27.640  28.526  1.00  0.00     0.031 A 
ATOM     14  C   UNL A   1      42.567  28.525  28.246  1.00  0.00     0.074 A 
ATOM     15  C   UNL A   1      40.385  28.016  29.328  1.00  0.00     0.049 A 
ATOM     16  N   UNL A   1      43.356  29.119  29.086  1.00  0.00    -0.248 NA
ATOM     17  C   UNL A   1      42.947  28.706  26.836  1.00  0.00     0.031 C 
ATOM     18  C   UNL A   1      39.089  27.359  29.523  1.00  0.00     0.029 A 
ATOM     19  N   UNL A   1      40.269  29.156  30.059  1.00  0.00    -0.354 N 
ATOM     20  C   UNL A   1      44.245  29.868  28.316  1.00  0.00     0.074 A 
ATOM     21  C   UNL A   1      44.008  29.504  26.942  1.00  0.00     0.031 C 
ATOM     22  C   UNL A   1      38.236  28.234  30.095  1.00  0.00     0.029 A 
ATOM     23  C   UNL A   1      38.969  29.441  30.430  1.00  0.00     0.049 A 
ATOM     24  H   UNL A   1      41.036  29.723  30.301  1.00  0.00     0.167 HD
ATOM     25  C   UNL A   1      45.007  30.867  28.837  1.00  0.00     0.037 A 
ATOM     26  C   UNL A   1      38.509  30.632  30.873  1.00  0.00     0.037 A 
ATOM     27  C   UNL A   1      45.202  30.721  30.252  1.00  0.00     0.049 A 
ATOM     28  C   UNL A   1      39.670  31.411  31.369  1.00  0.00     0.074 A 
ATOM     29  C   UNL A   1      45.817  29.780  31.053  1.00  0.00     0.029 A 
ATOM     30  N   UNL A   1      44.480  31.512  31.107  1.00  0.00    -0.354 N 
ATOM     31  N   UNL A   1      40.355  31.107  32.436  1.00  0.00    -0.248 NA
ATOM     32  C   UNL A   1      40.333  32.314  30.439  1.00  0.00     0.031 C 
ATOM     33  C   UNL A   1      45.051  29.756  32.255  1.00  0.00     0.029 A 
ATOM     34  C   UNL A   1      44.030  30.694  32.111  1.00  0.00     0.049 A 
ATOM     35  H   UNL A   1      44.316  32.480  31.018  1.00  0.00     0.167 HD
ATOM     36  C   UNL A   1      41.664  31.446  32.127  1.00  0.00     0.074 A 
ATOM     37  C   UNL A   1      41.573  32.276  30.933  1.00  0.00     0.031 C 
ATOM     38  C   UNL A   1      42.719  30.798  32.703  1.00  0.00     0.037 A 
BRANCH  25  39
ATOM     39  C   UNL A   1      45.331  32.143  28.103  1.00  0.00     0.064 A 
ATOM     40  C   UNL A   1      44.299  33.040  27.763  1.00  0.00     0.173 A 
ATOM     41  C   UNL A   1      46.570  32.368  27.465  1.00  0.00     0.173 A 
ATOM     42  F   UNL A   1      43.073  32.902  28.288  1.00  0.00    -0.203 F 
ATOM     43  C   UNL A   1      44.481  34.043  26.806  1.00  0.00     0.198 A 
ATOM     44  C   UNL A   1      46.762  33.402  26.552  1.00  0.00     0.198 A 
ATOM     45  F   UNL A   1      47.607  31.533  27.617  1.00  0.00    -0.203 F 
ATOM     46  F   UNL A   1      43.439  34.796  26.427  1.00  0.00    -0.200 F 
ATOM     47  C   UNL A   1      45.710  34.220  26.198  1.00  0.00     0.200 A 
ATOM     48  F   UNL A   1      47.956  33.545  25.959  1.00  0.00    -0.200 F 
ATOM     49  F   UNL A   1      45.869  35.141  25.238  1.00  0.00    -0.200 F 
ENDBRANCH  25  39
BRANCH  26  50
ATOM     50  C   UNL A   1      37.196  31.229  30.552  1.00  0.00     0.064 A 
ATOM     51  C   UNL A   1      36.288  31.567  31.562  1.00  0.00     0.173 A 
ATOM     52  C   UNL A   1      36.898  31.697  29.254  1.00  0.00     0.173 A 
ATOM     53  F   UNL A   1      36.530  31.208  32.831  1.00  0.00    -0.203 F 
ATOM     54  C   UNL A   1      35.147  32.329  31.292  1.00  0.00     0.198 A 
ATOM     55  C   UNL A   1      35.754  32.442  28.982  1.00  0.00     0.198 A 
ATOM     56  F   UNL A   1      37.757  31.515  28.239  1.00  0.00    -0.203 F 
ATOM     57  F   UNL A   1      34.327  32.680  32.292  1.00  0.00    -0.200 F 
ATOM     58  C   UNL A   1      34.883  32.768  30.003  1.00  0.00     0.200 A 
ATOM     59  F   UNL A   1      35.531  32.889  27.738  1.00  0.00    -0.200 F 
ATOM     60  F   UNL A   1      33.814  33.537  29.753  1.00  0.00    -0.200 F 
ENDBRANCH  26  50
BRANCH  38  61
ATOM     61  C   UNL A   1      42.436  29.889  33.862  1.00  0.00     0.064 A 
ATOM     62  C   UNL A   1      42.067  28.542  33.709  1.00  0.00     0.173 A 
ATOM     63  C   UNL A   1      42.717  30.339  35.158  1.00  0.00     0.173 A 
ATOM     64  F   UNL A   1      41.891  28.012  32.491  1.00  0.00    -0.203 F 
ATOM     65  C   UNL A   1      41.944  27.697  34.809  1.00  0.00     0.198 A 
ATOM     66  C   UNL A   1      42.626  29.485  36.253  1.00  0.00     0.198 A 
ATOM     67  F   UNL A   1      43.140  31.599  35.356  1.00  0.00    -0.203 F 
ATOM     68  F   UNL A   1      41.589  26.415  34.636  1.00  0.00    -0.200 F 
ATOM     69  C   UNL A   1      42.231  28.167  36.080  1.00  0.00     0.200 A 
ATOM     70  F   UNL A   1      42.958  29.927  37.474  1.00  0.00    -0.200 F 
ATOM     71  F   UNL A   1      42.160  27.342  37.134  1.00  0.00    -0.200 F 
ENDBRANCH  38  61
ENDBRANCH  12  13
ENDBRANCH   5   7
ENDBRANCH   4   5
ENDBRANCH   3   4
ENDBRANCH   2   3
ENDBRANCH   1   2
BRANCH   1  72
ATOM     72  C   UNL A   1      35.277  22.066  26.303  1.00  0.00     0.202 C 
BRANCH  72  73
ATOM     73  C   UNL A   1      34.148  22.439  27.268  1.00  0.00     0.261 C 
BRANCH  73  74
ATOM     74  O   UNL A   1      33.589  23.748  27.091  1.00  0.00    -0.461 OA
BRANCH  74  75
ATOM     75  C   UNL A   1      32.278  23.747  26.724  1.00  0.00     0.332 C 
ATOM     76  O   UNL A   1      31.355  23.593  27.520  1.00  0.00    -0.249 OA
BRANCH  75  77
ATOM     77  C   UNL A   1      32.061  23.988  25.225  1.00  0.00     0.146 C 
ATOM     78  C   UNL A   1      33.155  25.013  24.794  1.00  0.00     0.062 C 
ATOM     79  C   UNL A   1      30.654  24.593  24.963  1.00  0.00     0.062 C 
ATOM     80  C   UNL A   1      32.924  26.370  25.444  1.00  0.00     0.122 C 
ATOM     81  C   UNL A   1      30.500  25.985  25.550  1.00  0.00     0.122 C 
ATOM     82  N   UNL A   1      31.595  26.812  25.098  1.00  0.00    -0.342 N 
ATOM     83  C   UNL A   1      31.384  28.165  24.958  1.00  0.00     0.233 C 
ATOM     84  O   UNL A   1      31.510  28.968  25.871  1.00  0.00    -0.274 OA
BRANCH  77  85
ATOM     85  N   UNL A   1      32.259  22.734  24.468  1.00  0.00    -0.320 N 
ATOM     86  C   UNL A   1      31.838  21.480  24.850  1.00  0.00     0.108 A 
ATOM     87  C   UNL A   1      32.946  22.569  23.293  1.00  0.00     0.200 A 
ATOM     88  C   UNL A   1      32.309  20.620  23.888  1.00  0.00     0.130 A 
ATOM     89  N   UNL A   1      32.987  21.309  22.922  1.00  0.00    -0.245 NA
ENDBRANCH  77  85
BRANCH  83  90
ATOM     90  C   UNL A   1      31.105  28.601  23.540  1.00  0.00     0.074 C 
ATOM     91  C   UNL A   1      32.239  28.903  22.559  1.00  0.00     0.023 C 
ATOM     92  C   UNL A   1      31.498  27.610  22.452  1.00  0.00     0.023 C 
BRANCH  90  93
ATOM     93  C   UNL A   1      29.825  29.420  23.401  1.00  0.00    -0.032 A 
ATOM     94  C   UNL A   1      29.755  30.767  23.802  1.00  0.00     0.005 A 
ATOM     95  C   UNL A   1      28.630  28.805  22.990  1.00  0.00     0.005 A 
ATOM     96  C   UNL A   1      28.538  31.456  23.823  1.00  0.00     0.000 A 
ATOM     97  C   UNL A   1      27.413  29.484  23.021  1.00  0.00     0.000 A 
ATOM     98  C   UNL A   1      27.366  30.807  23.447  1.00  0.00     0.000 A 
ENDBRANCH  90  93
ENDBRANCH  83  90
ENDBRANCH  75  77
ENDBRANCH  74  75
ENDBRANCH  73  74
ENDBRANCH  72  73
ENDBRANCH   1  72
TORSDOF 17
ENDMDL
MODEL 3
REMARK VINA RESULT:     -12.0      2.911      8.706
REMARK SMILES O=C(OCCOCCOC(=O)C1(n2ccnc2)CCN(C(=O)C2(c3ccccc3)CC2)CC1)c1ccc(-c2c3nc(c(-c4c(F)c(F)c(F)c(F)c4F)c4ccc([nH]4)c(-c4c(F)c(F)c(F)c(F)c4F)c4nc(c(-c5c(F)c(F)c(F)c(F)c5F)c5ccc2[nH]5)C=C4)C=C3)cc1
REMARK SMILES IDX 6 1 5 2 4 3 3 4 2 5 1 6 34 7 35 8 96 9 36 10 95 11 37 12
REMARK SMILES IDX 38 13 39 14 89 15 40 16 94 17 88 18 90 19 41 20 93 21 87 22
REMARK SMILES IDX 86 23 42 25 74 26 54 27 73 28 55 29 58 30 72 31 91 32 56 33
REMARK SMILES IDX 57 34 71 36 92 37 59 38 43 39 44 40 52 41 45 42 46 43 50 44
REMARK SMILES IDX 53 45 47 46 48 47 51 48 49 49 75 50 76 51 84 52 77 53 78 54
REMARK SMILES IDX 82 55 85 56 79 57 80 58 83 59 81 60 60 61 61 62 69 63 62 64
REMARK SMILES IDX 63 65 67 66 70 67 64 68 65 69 68 70 66 71 7 72 8 73 9 74
REMARK SMILES IDX 10 75 11 76 12 77 18 78 33 79 19 80 32 81 20 82 21 83 22 84
REMARK SMILES IDX 13 85 14 86 17 87 15 88 16 89 23 90 30 91 31 92 24 93 25 94
REMARK SMILES IDX 29 95 26 96 28 97 27 98
REMARK H PARENT 90 24 58 35
REMARK Flexibility Score: inf
ROOT
ATOM      1  O   UNL A   1      32.213  29.816  26.189  1.00  0.00    -0.374 OA
ENDROOT
BRANCH   1   2
ATOM      2  C   UNL A   1      32.430  31.092  26.779  1.00  0.00     0.202 C 
BRANCH   2   3
ATOM      3  C   UNL A   1      33.494  31.275  27.875  1.00  0.00     0.261 C 
BRANCH   3   4
ATOM      4  O   UNL A   1      34.820  31.414  27.368  1.00  0.00    -0.460 OA
BRANCH   4   5
ATOM      5  C   UNL A   1      35.881  31.961  28.000  1.00  0.00     0.338 C 
ATOM      6  O   UNL A   1      36.006  33.185  27.968  1.00  0.00    -0.246 OA
BRANCH   5   7
ATOM      7  C   UNL A   1      36.948  31.162  28.687  1.00  0.00     0.060 A 
ATOM      8  C   UNL A   1      38.073  31.662  29.345  1.00  0.00     0.016 A 
ATOM      9  C   UNL A   1      36.781  29.768  28.650  1.00  0.00     0.016 A 
ATOM     10  C   UNL A   1      39.119  30.835  29.697  1.00  0.00     0.010 A 
ATOM     11  C   UNL A   1      37.785  28.921  29.095  1.00  0.00     0.010 A 
ATOM     12  C   UNL A   1      38.998  29.468  29.504  1.00  0.00    -0.014 A 
BRANCH  12  13
ATOM     13  C   UNL A   1      40.203  28.682  29.716  1.00  0.00     0.031 A 
ATOM     14  C   UNL A   1      40.699  28.577  31.120  1.00  0.00     0.074 A 
ATOM     15  C   UNL A   1      40.823  28.080  28.685  1.00  0.00     0.049 A 
ATOM     16  N   UNL A   1      41.882  28.836  31.585  1.00  0.00    -0.248 NA
ATOM     17  C   UNL A   1      39.718  28.204  32.150  1.00  0.00     0.031 C 
ATOM     18  C   UNL A   1      40.344  27.912  27.309  1.00  0.00     0.029 A 
ATOM     19  N   UNL A   1      41.987  27.378  28.697  1.00  0.00    -0.354 N 
ATOM     20  C   UNL A   1      41.838  28.521  32.942  1.00  0.00     0.074 A 
ATOM     21  C   UNL A   1      40.462  28.228  33.255  1.00  0.00     0.031 C 
ATOM     22  C   UNL A   1      41.070  26.947  26.707  1.00  0.00     0.029 A 
ATOM     23  C   UNL A   1      42.138  26.546  27.604  1.00  0.00     0.049 A 
ATOM     24  H   UNL A   1      42.657  27.455  29.414  1.00  0.00     0.167 HD
ATOM     25  C   UNL A   1      42.960  28.355  33.694  1.00  0.00     0.037 A 
ATOM     26  C   UNL A   1      43.011  25.520  27.498  1.00  0.00     0.037 A 
ATOM     27  C   UNL A   1      44.097  29.025  33.130  1.00  0.00     0.049 A 
ATOM     28  C   UNL A   1      44.092  25.738  28.492  1.00  0.00     0.074 A 
ATOM     29  C   UNL A   1      44.415  30.345  32.875  1.00  0.00     0.029 A 
ATOM     30  N   UNL A   1      45.042  28.287  32.467  1.00  0.00    -0.354 N 
ATOM     31  N   UNL A   1      44.974  26.696  28.417  1.00  0.00    -0.248 NA
ATOM     32  C   UNL A   1      43.944  25.128  29.805  1.00  0.00     0.031 C 
ATOM     33  C   UNL A   1      45.216  30.314  31.697  1.00  0.00     0.029 A 
ATOM     34  C   UNL A   1      45.345  28.977  31.322  1.00  0.00     0.049 A 
ATOM     35  H   UNL A   1      45.430  27.429  32.757  1.00  0.00     0.167 HD
ATOM     36  C   UNL A   1      45.197  27.076  29.732  1.00  0.00     0.074 A 
ATOM     37  C   UNL A   1      44.618  26.012  30.542  1.00  0.00     0.031 C 
ATOM     38  C   UNL A   1      45.583  28.348  30.046  1.00  0.00     0.037 A 
BRANCH  25  39
ATOM     39  C   UNL A   1      43.087  27.330  34.793  1.00  0.00     0.064 A 
ATOM     40  C   UNL A   1      43.324  27.745  36.117  1.00  0.00     0.173 A 
ATOM     41  C   UNL A   1      43.278  25.954  34.540  1.00  0.00     0.173 A 
ATOM     42  F   UNL A   1      43.200  29.035  36.463  1.00  0.00    -0.203 F 
ATOM     43  C   UNL A   1      43.784  26.859  37.096  1.00  0.00     0.198 A 
ATOM     44  C   UNL A   1      43.685  25.064  35.532  1.00  0.00     0.198 A 
ATOM     45  F   UNL A   1      43.187  25.441  33.306  1.00  0.00    -0.203 F 
ATOM     46  F   UNL A   1      44.111  27.321  38.311  1.00  0.00    -0.200 F 
ATOM     47  C   UNL A   1      43.968  25.520  36.801  1.00  0.00     0.200 A 
ATOM     48  F   UNL A   1      43.876  23.774  35.220  1.00  0.00    -0.200 F 
ATOM     49  F   UNL A   1      44.465  24.682  37.720  1.00  0.00    -0.200 F 
ENDBRANCH  25  39
BRANCH  26  50
ATOM     50  C   UNL A   1      42.750  24.223  26.841  1.00  0.00     0.064 A 
ATOM     51  C   UNL A   1      43.545  23.776  25.778  1.00  0.00     0.173 A 
ATOM     52  C   UNL A   1      41.854  23.284  27.395  1.00  0.00     0.173 A 
ATOM     53  F   UNL A   1      44.460  24.591  25.234  1.00  0.00    -0.203 F 
ATOM     54  C   UNL A   1      43.451  22.466  25.298  1.00  0.00     0.198 A 
ATOM     55  C   UNL A   1      41.749  21.985  26.906  1.00  0.00     0.198 A 
ATOM     56  F   UNL A   1      41.124  23.582  28.482  1.00  0.00    -0.203 F 
ATOM     57  F   UNL A   1      44.264  22.057  24.314  1.00  0.00    -0.200 F 
ATOM     58  C   UNL A   1      42.555  21.572  25.864  1.00  0.00     0.200 A 
ATOM     59  F   UNL A   1      40.904  21.120  27.488  1.00  0.00    -0.200 F 
ATOM     60  F   UNL A   1      42.498  20.304  25.433  1.00  0.00    -0.200 F 
ENDBRANCH  26  50
BRANCH  38  61
ATOM     61  C   UNL A   1      46.004  29.250  28.925  1.00  0.00     0.064 A 
ATOM     62  C   UNL A   1      45.097  30.016  28.174  1.00  0.00     0.173 A 
ATOM     63  C   UNL A   1      47.371  29.482  28.721  1.00  0.00     0.173 A 
ATOM     64  F   UNL A   1      43.778  29.930  28.392  1.00  0.00    -0.203 F 
ATOM     65  C   UNL A   1      45.540  30.941  27.231  1.00  0.00     0.198 A 
ATOM     66  C   UNL A   1      47.811  30.431  27.803  1.00  0.00     0.198 A 
ATOM     67  F   UNL A   1      48.281  28.827  29.460  1.00  0.00    -0.203 F 
ATOM     68  F   UNL A   1      44.653  31.660  26.526  1.00  0.00    -0.200 F 
ATOM     69  C   UNL A   1      46.897  31.154  27.052  1.00  0.00     0.200 A 
ATOM     70  F   UNL A   1      49.123  30.674  27.672  1.00  0.00    -0.200 F 
ATOM     71  F   UNL A   1      47.324  32.079  26.181  1.00  0.00    -0.200 F 
ENDBRANCH  38  61
ENDBRANCH  12  13
ENDBRANCH   5   7
ENDBRANCH   4   5
ENDBRANCH   3   4
ENDBRANCH   2   3
ENDBRANCH   1   2
BRANCH   1  72
ATOM     72  C   UNL A   1      32.483  28.606  26.895  1.00  0.00     0.202 C 
BRANCH  72  73
ATOM     73  C   UNL A   1      31.397  27.568  27.189  1.00  0.00     0.261 C 
BRANCH  73  74
ATOM     74  O   UNL A   1      31.787  26.198  27.022  1.00  0.00    -0.461 OA
BRANCH  74  75
ATOM     75  C   UNL A   1      31.014  25.504  26.142  1.00  0.00     0.332 C 
ATOM     76  O   UNL A   1      29.812  25.308  26.309  1.00  0.00    -0.249 OA
BRANCH  75  77
ATOM     77  C   UNL A   1      31.779  25.016  24.905  1.00  0.00     0.146 C 
ATOM     78  C   UNL A   1      31.285  23.561  24.644  1.00  0.00     0.062 C 
ATOM     79  C   UNL A   1      33.310  25.003  25.175  1.00  0.00     0.062 C 
ATOM     80  C   UNL A   1      31.717  22.624  25.762  1.00  0.00     0.122 C 
ATOM     81  C   UNL A   1      33.705  23.989  26.233  1.00  0.00     0.122 C 
ATOM     82  N   UNL A   1      33.153  22.700  25.882  1.00  0.00    -0.342 N 
ATOM     83  C   UNL A   1      33.827  21.566  26.276  1.00  0.00     0.233 C 
ATOM     84  O   UNL A   1      33.676  21.032  27.365  1.00  0.00    -0.274 OA
BRANCH  77  85
ATOM     85  N   UNL A   1      31.445  25.851  23.732  1.00  0.00    -0.320 N 
ATOM     86  C   UNL A   1      31.878  25.647  22.441  1.00  0.00     0.108 A 
ATOM     87  C   UNL A   1      30.708  27.007  23.714  1.00  0.00     0.200 A 
ATOM     88  C   UNL A   1      31.388  26.705  21.713  1.00  0.00     0.130 A 
ATOM     89  N   UNL A   1      30.655  27.536  22.512  1.00  0.00    -0.245 NA
ENDBRANCH  77  85
BRANCH  83  90
ATOM     90  C   UNL A   1      34.684  20.953  25.194  1.00  0.00     0.074 C 
ATOM     91  C   UNL A   1      35.521  21.819  24.251  1.00  0.00     0.023 C 
ATOM     92  C   UNL A   1      36.189  21.100  25.378  1.00  0.00     0.023 C 
BRANCH  90  93
ATOM     93  C   UNL A   1      34.106  19.660  24.627  1.00  0.00    -0.032 A 
ATOM     94  C   UNL A   1      34.836  18.457  24.621  1.00  0.00     0.005 A 
ATOM     95  C   UNL A   1      32.867  19.668  23.964  1.00  0.00     0.005 A 
ATOM     96  C   UNL A   1      34.363  17.324  23.953  1.00  0.00     0.000 A 
ATOM     97  C   UNL A   1      32.396  18.544  23.286  1.00  0.00     0.000 A 
ATOM     98  C   UNL A   1      33.149  17.375  23.273  1.00  0.00     0.000 A 
ENDBRANCH  90  93
ENDBRANCH  83  90
ENDBRANCH  75  77
ENDBRANCH  74  75
ENDBRANCH  73  74
ENDBRANCH  72  73
ENDBRANCH   1  72
TORSDOF 17
ENDMDL
