MODEL 1
REMARK VINA RESULT:     -12.9      0.000      0.000
REMARK SMILES C=CCn1nc(C(=O)OCCOCCOC(=O)c2ccc(-c3c4nc(c(-c5c(F)c(F)c(F)c(F)c5F)c5ccc([nH]5)c(-c5c(F)c(F)c(F)c(F)c5F)c5nc(c(-c6c(F)c(F)c(F)c(F)c6F)c6ccc3[nH]6)C=C5)C=C4)cc2)c2c1CC[C@@H]([NH+]1CCC(C(C)(C)O)CC1)C2
REMARK SMILES IDX 11 1 10 2 9 3 7 4 8 5 6 6 4 7 5 8 82 9 81 10 83 11 96 12
REMARK SMILES IDX 84 13 85 14 3 15 2 16 1 17 86 18 87 19 95 20 88 22 94 23
REMARK SMILES IDX 89 24 90 25 91 26 92 27 93 28 12 30 13 31 14 32 15 33 16 34
REMARK SMILES IDX 17 35 18 36 19 37 80 38 20 39 79 40 21 41 22 42 23 43 73 44
REMARK SMILES IDX 24 45 78 46 72 47 74 48 25 49 77 50 71 51 70 52 26 54 58 55
REMARK SMILES IDX 38 56 57 57 39 58 42 59 56 60 75 61 40 62 41 63 55 65 76 66
REMARK SMILES IDX 43 67 27 68 28 69 36 70 29 71 30 72 34 73 37 74 31 75 32 76
REMARK SMILES IDX 35 77 33 78 59 79 60 80 68 81 61 82 62 83 66 84 69 85 63 86
REMARK SMILES IDX 64 87 67 88 65 89 44 90 45 91 53 92 46 93 47 94 51 95 54 96
REMARK SMILES IDX 48 97 49 98 52 99 50 100
REMARK H PARENT 86 21 93 29 74 53 42 64
REMARK Flexibility Score: inf
ROOT
ATOM      1  C   UNL A   1      40.344  20.486  26.388  1.00  0.00     0.202 C 
ENDROOT
BRANCH   1   2
ATOM      2  C   UNL A   1      39.646  21.844  26.304  1.00  0.00     0.261 C 
BRANCH   2   3
ATOM      3  O   UNL A   1      38.461  21.752  25.506  1.00  0.00    -0.458 OA
BRANCH   3   4
ATOM      4  C   UNL A   1      37.533  22.740  25.689  1.00  0.00     0.359 C 
ATOM      5  O   UNL A   1      37.792  23.854  26.127  1.00  0.00    -0.244 OA
BRANCH   4   6
ATOM      6  C   UNL A   1      36.202  22.311  25.231  1.00  0.00     0.174 A 
ATOM      7  N   UNL A   1      34.621  21.025  24.595  1.00  0.00    -0.265 N 
ATOM      8  N   UNL A   1      35.827  21.011  25.208  1.00  0.00    -0.165 NA
ATOM      9  C   UNL A   1      34.373  22.245  24.040  1.00  0.00     0.043 A 
ATOM     10  C   UNL A   1      35.138  23.127  24.764  1.00  0.00     0.014 A 
ATOM     11  C   UNL A   1      33.457  22.601  22.942  1.00  0.00     0.062 C 
ATOM     12  C   UNL A   1      34.897  24.597  24.761  1.00  0.00     0.105 C 
ATOM     13  C   UNL A   1      33.349  24.133  22.821  1.00  0.00     0.072 C 
ATOM     14  C   UNL A   1      33.499  24.952  24.135  1.00  0.00     0.189 C 
BRANCH   7  15
ATOM     15  C   UNL A   1      33.763  19.841  24.624  1.00  0.00     0.171 C 
BRANCH  15  16
ATOM     16  C   UNL A   1      34.550  18.549  24.550  1.00  0.00    -0.011 C 
ATOM     17  C   UNL A   1      34.204  17.462  23.844  1.00  0.00     0.006 C 
ENDBRANCH  15  16
ENDBRANCH   7  15
BRANCH  14  18
ATOM     18  N   UNL A   1      32.394  25.024  25.125  1.00  0.00    -0.332 N 
ATOM     19  C   UNL A   1      31.052  24.591  24.775  1.00  0.00     0.262 C 
ATOM     20  C   UNL A   1      32.310  26.250  25.912  1.00  0.00     0.262 C 
ATOM     21  H   UNL A   1      32.760  24.262  25.694  1.00  0.00     0.348 HD
ATOM     22  C   UNL A   1      30.177  25.618  24.055  1.00  0.00     0.068 C 
ATOM     23  C   UNL A   1      31.675  27.428  25.185  1.00  0.00     0.068 C 
ATOM     24  C   UNL A   1      30.382  27.117  24.391  1.00  0.00     0.031 C 
BRANCH  24  25
ATOM     25  C   UNL A   1      30.217  28.093  23.158  1.00  0.00     0.062 C 
ATOM     26  C   UNL A   1      28.765  28.493  22.868  1.00  0.00     0.042 C 
ATOM     27  C   UNL A   1      31.064  29.359  23.350  1.00  0.00     0.042 C 
BRANCH  25  28
ATOM     28  O   UNL A   1      30.709  27.470  21.968  1.00  0.00    -0.390 OA
ATOM     29  H   UNL A   1      30.208  27.795  21.203  1.00  0.00     0.211 HD
ENDBRANCH  25  28
ENDBRANCH  24  25
ENDBRANCH  14  18
ENDBRANCH   4   6
ENDBRANCH   3   4
ENDBRANCH   2   3
ENDBRANCH   1   2
BRANCH   1  30
ATOM     30  O   UNL A   1      41.705  20.456  25.958  1.00  0.00    -0.374 OA
BRANCH  30  31
ATOM     31  C   UNL A   1      42.530  19.369  26.367  1.00  0.00     0.202 C 
BRANCH  31  32
ATOM     32  C   UNL A   1      43.498  18.818  25.337  1.00  0.00     0.261 C 
BRANCH  32  33
ATOM     33  O   UNL A   1      43.797  19.781  24.333  1.00  0.00    -0.460 OA
BRANCH  33  34
ATOM     34  C   UNL A   1      45.084  20.196  24.323  1.00  0.00     0.338 C 
ATOM     35  O   UNL A   1      46.081  19.511  24.229  1.00  0.00    -0.246 OA
BRANCH  34  36
ATOM     36  C   UNL A   1      45.097  21.622  24.674  1.00  0.00     0.060 A 
ATOM     37  C   UNL A   1      45.826  21.964  25.812  1.00  0.00     0.016 A 
ATOM     38  C   UNL A   1      44.203  22.521  24.069  1.00  0.00     0.016 A 
ATOM     39  C   UNL A   1      45.506  23.135  26.460  1.00  0.00     0.010 A 
ATOM     40  C   UNL A   1      43.881  23.691  24.720  1.00  0.00     0.010 A 
ATOM     41  C   UNL A   1      44.481  23.946  25.947  1.00  0.00    -0.014 A 
BRANCH  41  42
ATOM     42  C   UNL A   1      44.173  25.160  26.673  1.00  0.00     0.031 A 
ATOM     43  C   UNL A   1      45.208  26.194  26.467  1.00  0.00     0.074 A 
ATOM     44  C   UNL A   1      43.074  25.331  27.431  1.00  0.00     0.049 A 
ATOM     45  N   UNL A   1      46.095  26.571  27.324  1.00  0.00    -0.248 NA
ATOM     46  C   UNL A   1      45.420  26.715  25.109  1.00  0.00     0.031 C 
ATOM     47  C   UNL A   1      41.888  24.478  27.523  1.00  0.00     0.029 A 
ATOM     48  N   UNL A   1      42.767  26.373  28.255  1.00  0.00    -0.354 N 
ATOM     49  C   UNL A   1      46.868  27.522  26.674  1.00  0.00     0.074 A 
ATOM     50  C   UNL A   1      46.519  27.453  25.280  1.00  0.00     0.031 C 
ATOM     51  C   UNL A   1      40.906  25.145  28.177  1.00  0.00     0.029 A 
ATOM     52  C   UNL A   1      41.444  26.399  28.677  1.00  0.00     0.049 A 
ATOM     53  H   UNL A   1      43.427  27.051  28.527  1.00  0.00     0.167 HD
ATOM     54  C   UNL A   1      47.534  28.462  27.395  1.00  0.00     0.037 A 
ATOM     55  C   UNL A   1      40.844  27.406  29.359  1.00  0.00     0.037 A 
ATOM     56  C   UNL A   1      47.613  28.080  28.782  1.00  0.00     0.049 A 
ATOM     57  C   UNL A   1      41.916  28.171  30.038  1.00  0.00     0.074 A 
ATOM     58  C   UNL A   1      48.299  27.136  29.515  1.00  0.00     0.029 A 
ATOM     59  N   UNL A   1      46.551  28.490  29.542  1.00  0.00    -0.354 N 
ATOM     60  N   UNL A   1      42.624  27.697  31.023  1.00  0.00    -0.248 NA
ATOM     61  C   UNL A   1      42.474  29.340  29.374  1.00  0.00     0.031 C 
ATOM     62  C   UNL A   1      47.446  26.803  30.611  1.00  0.00     0.029 A 
ATOM     63  C   UNL A   1      46.296  27.589  30.539  1.00  0.00     0.049 A 
ATOM     64  H   UNL A   1      46.041  29.319  29.392  1.00  0.00     0.167 HD
ATOM     65  C   UNL A   1      43.892  28.208  30.813  1.00  0.00     0.074 A 
ATOM     66  C   UNL A   1      43.700  29.332  29.903  1.00  0.00     0.031 C 
ATOM     67  C   UNL A   1      44.992  27.476  31.155  1.00  0.00     0.037 A 
BRANCH  54  68
ATOM     68  C   UNL A   1      47.652  29.908  26.976  1.00  0.00     0.064 A 
ATOM     69  C   UNL A   1      48.889  30.564  27.132  1.00  0.00     0.173 A 
ATOM     70  C   UNL A   1      46.539  30.750  26.753  1.00  0.00     0.173 A 
ATOM     71  F   UNL A   1      50.006  29.863  27.381  1.00  0.00    -0.203 F 
ATOM     72  C   UNL A   1      48.990  31.958  27.132  1.00  0.00     0.198 A 
ATOM     73  C   UNL A   1      46.652  32.137  26.703  1.00  0.00     0.198 A 
ATOM     74  F   UNL A   1      45.287  30.281  26.700  1.00  0.00    -0.203 F 
ATOM     75  F   UNL A   1      50.164  32.541  27.407  1.00  0.00    -0.200 F 
ATOM     76  C   UNL A   1      47.871  32.743  26.922  1.00  0.00     0.200 A 
ATOM     77  F   UNL A   1      45.550  32.880  26.529  1.00  0.00    -0.200 F 
ATOM     78  F   UNL A   1      47.953  34.078  26.982  1.00  0.00    -0.200 F 
ENDBRANCH  54  68
BRANCH  55  79
ATOM     79  C   UNL A   1      39.464  27.936  29.239  1.00  0.00     0.064 A 
ATOM     80  C   UNL A   1      38.637  28.070  30.368  1.00  0.00     0.173 A 
ATOM     81  C   UNL A   1      39.052  28.614  28.077  1.00  0.00     0.173 A 
ATOM     82  F   UNL A   1      38.977  27.491  31.529  1.00  0.00    -0.203 F 
ATOM     83  C   UNL A   1      37.489  28.871  30.347  1.00  0.00     0.198 A 
ATOM     84  C   UNL A   1      37.905  29.411  28.057  1.00  0.00     0.198 A 
ATOM     85  F   UNL A   1      39.809  28.603  26.972  1.00  0.00    -0.203 F 
ATOM     86  F   UNL A   1      36.765  29.035  31.465  1.00  0.00    -0.200 F 
ATOM     87  C   UNL A   1      37.133  29.553  29.196  1.00  0.00     0.200 A 
ATOM     88  F   UNL A   1      37.593  30.099  26.949  1.00  0.00    -0.200 F 
ATOM     89  F   UNL A   1      36.077  30.379  29.196  1.00  0.00    -0.200 F 
ENDBRANCH  55  79
BRANCH  67  90
ATOM     90  C   UNL A   1      44.786  26.360  32.139  1.00  0.00     0.064 A 
ATOM     91  C   UNL A   1      44.743  26.520  33.534  1.00  0.00     0.173 A 
ATOM     92  C   UNL A   1      44.539  25.080  31.627  1.00  0.00     0.173 A 
ATOM     93  F   UNL A   1      44.887  27.727  34.097  1.00  0.00    -0.203 F 
ATOM     94  C   UNL A   1      44.510  25.432  34.376  1.00  0.00     0.198 A 
ATOM     95  C   UNL A   1      44.266  24.005  32.466  1.00  0.00     0.198 A 
ATOM     96  F   UNL A   1      44.524  24.879  30.299  1.00  0.00    -0.203 F 
ATOM     97  F   UNL A   1      44.499  25.601  35.706  1.00  0.00    -0.200 F 
ATOM     98  C   UNL A   1      44.266  24.178  33.840  1.00  0.00     0.200 A 
ATOM     99  F   UNL A   1      43.986  22.805  31.939  1.00  0.00    -0.200 F 
ATOM    100  F   UNL A   1      44.007  23.139  34.646  1.00  0.00    -0.200 F 
ENDBRANCH  67  90
ENDBRANCH  41  42
ENDBRANCH  34  36
ENDBRANCH  33  34
ENDBRANCH  32  33
ENDBRANCH  31  32
ENDBRANCH  30  31
ENDBRANCH   1  30
TORSDOF 19
ENDMDL
MODEL 2
REMARK VINA RESULT:     -12.3      4.546     10.318
REMARK SMILES C=CCn1nc(C(=O)OCCOCCOC(=O)c2ccc(-c3c4nc(c(-c5c(F)c(F)c(F)c(F)c5F)c5ccc([nH]5)c(-c5c(F)c(F)c(F)c(F)c5F)c5nc(c(-c6c(F)c(F)c(F)c(F)c6F)c6ccc3[nH]6)C=C5)C=C4)cc2)c2c1CC[C@@H]([NH+]1CCC(C(C)(C)O)CC1)C2
REMARK SMILES IDX 11 1 10 2 9 3 7 4 8 5 6 6 4 7 5 8 82 9 81 10 83 11 96 12
REMARK SMILES IDX 84 13 85 14 3 15 2 16 1 17 86 18 87 19 95 20 88 22 94 23
REMARK SMILES IDX 89 24 90 25 91 26 92 27 93 28 12 30 13 31 14 32 15 33 16 34
REMARK SMILES IDX 17 35 18 36 19 37 80 38 20 39 79 40 21 41 22 42 23 43 73 44
REMARK SMILES IDX 24 45 78 46 72 47 74 48 25 49 77 50 71 51 70 52 26 54 58 55
REMARK SMILES IDX 38 56 57 57 39 58 42 59 56 60 75 61 40 62 41 63 55 65 76 66
REMARK SMILES IDX 43 67 27 68 28 69 36 70 29 71 30 72 34 73 37 74 31 75 32 76
REMARK SMILES IDX 35 77 33 78 59 79 60 80 68 81 61 82 62 83 66 84 69 85 63 86
REMARK SMILES IDX 64 87 67 88 65 89 44 90 45 91 53 92 46 93 47 94 51 95 54 96
REMARK SMILES IDX 48 97 49 98 52 99 50 100
REMARK H PARENT 86 21 93 29 74 53 42 64
REMARK Flexibility Score: inf
ROOT
ATOM      1  C   UNL A   1      34.284  32.517  29.170  1.00  0.00     0.202 C 
ENDROOT
BRANCH   1   2
ATOM      2  C   UNL A   1      34.350  31.958  27.748  1.00  0.00     0.261 C 
BRANCH   2   3
ATOM      3  O   UNL A   1      33.535  30.787  27.629  1.00  0.00    -0.458 OA
BRANCH   3   4
ATOM      4  C   UNL A   1      34.054  29.765  26.882  1.00  0.00     0.359 C 
ATOM      5  O   UNL A   1      35.223  29.406  26.928  1.00  0.00    -0.244 OA
BRANCH   4   6
ATOM      6  C   UNL A   1      33.011  29.115  26.072  1.00  0.00     0.174 A 
ATOM      7  N   UNL A   1      31.235  28.876  24.912  1.00  0.00    -0.265 N 
ATOM      8  N   UNL A   1      32.077  29.821  25.391  1.00  0.00    -0.165 NA
ATOM      9  C   UNL A   1      31.493  27.663  25.477  1.00  0.00     0.043 A 
ATOM     10  C   UNL A   1      32.809  27.726  25.867  1.00  0.00     0.014 A 
ATOM     11  C   UNL A   1      30.610  26.492  25.615  1.00  0.00     0.062 C 
ATOM     12  C   UNL A   1      33.618  26.513  26.177  1.00  0.00     0.105 C 
ATOM     13  C   UNL A   1      31.416  25.278  26.115  1.00  0.00     0.072 C 
ATOM     14  C   UNL A   1      32.907  25.202  25.680  1.00  0.00     0.189 C 
BRANCH   7  15
ATOM     15  C   UNL A   1      30.244  29.220  23.892  1.00  0.00     0.171 C 
BRANCH  15  16
ATOM     16  C   UNL A   1      30.645  28.754  22.509  1.00  0.00    -0.011 C 
ATOM     17  C   UNL A   1      30.880  27.483  22.148  1.00  0.00     0.006 C 
ENDBRANCH  15  16
ENDBRANCH   7  15
BRANCH  14  18
ATOM     18  N   UNL A   1      33.285  24.796  24.302  1.00  0.00    -0.332 N 
ATOM     19  C   UNL A   1      32.451  23.882  23.540  1.00  0.00     0.262 C 
ATOM     20  C   UNL A   1      34.688  24.449  24.092  1.00  0.00     0.262 C 
ATOM     21  H   UNL A   1      33.082  25.711  23.901  1.00  0.00     0.348 HD
ATOM     22  C   UNL A   1      32.668  22.391  23.803  1.00  0.00     0.068 C 
ATOM     23  C   UNL A   1      35.073  23.053  24.562  1.00  0.00     0.068 C 
ATOM     24  C   UNL A   1      34.094  21.915  24.178  1.00  0.00     0.031 C 
BRANCH  24  25
ATOM     25  C   UNL A   1      34.136  20.743  25.238  1.00  0.00     0.062 C 
ATOM     26  C   UNL A   1      33.612  21.137  26.625  1.00  0.00     0.042 C 
ATOM     27  C   UNL A   1      33.358  19.521  24.730  1.00  0.00     0.042 C 
BRANCH  25  28
ATOM     28  O   UNL A   1      35.483  20.298  25.428  1.00  0.00    -0.390 OA
ATOM     29  H   UNL A   1      35.538  19.776  26.244  1.00  0.00     0.211 HD
ENDBRANCH  25  28
ENDBRANCH  24  25
ENDBRANCH  14  18
ENDBRANCH   4   6
ENDBRANCH   3   4
ENDBRANCH   2   3
ENDBRANCH   1   2
BRANCH   1  30
ATOM     30  O   UNL A   1      34.502  33.922  29.300  1.00  0.00    -0.374 OA
BRANCH  30  31
ATOM     31  C   UNL A   1      33.395  34.804  29.149  1.00  0.00     0.202 C 
BRANCH  31  32
ATOM     32  C   UNL A   1      33.022  35.647  30.354  1.00  0.00     0.261 C 
BRANCH  32  33
ATOM     33  O   UNL A   1      32.942  34.861  31.537  1.00  0.00    -0.460 OA
BRANCH  33  34
ATOM     34  C   UNL A   1      33.643  35.354  32.583  1.00  0.00     0.338 C 
ATOM     35  O   UNL A   1      33.511  36.435  33.119  1.00  0.00    -0.246 OA
BRANCH  34  36
ATOM     36  C   UNL A   1      34.766  34.443  32.839  1.00  0.00     0.060 A 
ATOM     37  C   UNL A   1      36.035  35.018  32.823  1.00  0.00     0.016 A 
ATOM     38  C   UNL A   1      34.584  33.050  32.812  1.00  0.00     0.016 A 
ATOM     39  C   UNL A   1      37.115  34.202  32.575  1.00  0.00     0.010 A 
ATOM     40  C   UNL A   1      35.665  32.234  32.561  1.00  0.00     0.010 A 
ATOM     41  C   UNL A   1      36.905  32.830  32.368  1.00  0.00    -0.014 A 
BRANCH  41  42
ATOM     42  C   UNL A   1      38.072  32.016  32.096  1.00  0.00     0.031 A 
ATOM     43  C   UNL A   1      38.859  31.768  33.323  1.00  0.00     0.074 A 
ATOM     44  C   UNL A   1      38.394  31.535  30.882  1.00  0.00     0.049 A 
ATOM     45  N   UNL A   1      39.992  32.302  33.626  1.00  0.00    -0.248 NA
ATOM     46  C   UNL A   1      38.231  31.016  34.420  1.00  0.00     0.031 C 
ATOM     47  C   UNL A   1      37.584  31.522  29.662  1.00  0.00     0.029 A 
ATOM     48  N   UNL A   1      39.531  30.884  30.503  1.00  0.00    -0.354 N 
ATOM     49  C   UNL A   1      40.320  31.806  34.881  1.00  0.00     0.074 A 
ATOM     50  C   UNL A   1      39.139  31.158  35.388  1.00  0.00     0.031 C 
ATOM     51  C   UNL A   1      38.162  30.704  28.750  1.00  0.00     0.029 A 
ATOM     52  C   UNL A   1      39.448  30.262  29.263  1.00  0.00     0.049 A 
ATOM     53  H   UNL A   1      40.341  30.857  31.060  1.00  0.00     0.167 HD
ATOM     54  C   UNL A   1      41.621  31.749  35.268  1.00  0.00     0.037 A 
ATOM     55  C   UNL A   1      40.368  29.420  28.731  1.00  0.00     0.037 A 
ATOM     56  C   UNL A   1      42.443  32.573  34.420  1.00  0.00     0.049 A 
ATOM     57  C   UNL A   1      41.659  29.709  29.397  1.00  0.00     0.074 A 
ATOM     58  C   UNL A   1      42.634  33.925  34.231  1.00  0.00     0.029 A 
ATOM     59  N   UNL A   1      42.921  31.937  33.305  1.00  0.00    -0.354 N 
ATOM     60  N   UNL A   1      42.325  30.816  29.227  1.00  0.00    -0.248 NA
ATOM     61  C   UNL A   1      42.040  28.924  30.563  1.00  0.00     0.031 C 
ATOM     62  C   UNL A   1      42.981  34.078  32.853  1.00  0.00     0.029 A 
ATOM     63  C   UNL A   1      43.041  32.814  32.264  1.00  0.00     0.049 A 
ATOM     64  H   UNL A   1      43.147  30.980  33.260  1.00  0.00     0.167 HD
ATOM     65  C   UNL A   1      42.867  31.086  30.471  1.00  0.00     0.074 A 
ATOM     66  C   UNL A   1      42.806  29.819  31.192  1.00  0.00     0.031 C 
ATOM     67  C   UNL A   1      43.025  32.377  30.885  1.00  0.00     0.037 A 
BRANCH  54  68
ATOM     68  C   UNL A   1      42.212  30.597  36.045  1.00  0.00     0.064 A 
ATOM     69  C   UNL A   1      43.145  30.870  37.064  1.00  0.00     0.173 A 
ATOM     70  C   UNL A   1      42.158  29.253  35.612  1.00  0.00     0.173 A 
ATOM     71  F   UNL A   1      43.303  32.119  37.528  1.00  0.00    -0.203 F 
ATOM     72  C   UNL A   1      44.003  29.885  37.562  1.00  0.00     0.198 A 
ATOM     73  C   UNL A   1      42.980  28.264  36.146  1.00  0.00     0.198 A 
ATOM     74  F   UNL A   1      41.404  28.865  34.577  1.00  0.00    -0.203 F 
ATOM     75  F   UNL A   1      44.959  30.216  38.441  1.00  0.00    -0.200 F 
ATOM     76  C   UNL A   1      43.923  28.585  37.099  1.00  0.00     0.200 A 
ATOM     77  F   UNL A   1      42.907  27.017  35.661  1.00  0.00    -0.200 F 
ATOM     78  F   UNL A   1      44.784  27.653  37.528  1.00  0.00    -0.200 F 
ENDBRANCH  54  68
BRANCH  55  79
ATOM     79  C   UNL A   1      40.168  28.199  27.914  1.00  0.00     0.064 A 
ATOM     80  C   UNL A   1      40.886  27.996  26.722  1.00  0.00     0.173 A 
ATOM     81  C   UNL A   1      39.514  27.073  28.449  1.00  0.00     0.173 A 
ATOM     82  F   UNL A   1      41.572  29.005  26.167  1.00  0.00    -0.203 F 
ATOM     83  C   UNL A   1      40.980  26.733  26.126  1.00  0.00     0.198 A 
ATOM     84  C   UNL A   1      39.607  25.814  27.852  1.00  0.00     0.198 A 
ATOM     85  F   UNL A   1      38.862  27.150  29.617  1.00  0.00    -0.203 F 
ATOM     86  F   UNL A   1      41.736  26.564  25.030  1.00  0.00    -0.200 F 
ATOM     87  C   UNL A   1      40.353  25.640  26.700  1.00  0.00     0.200 A 
ATOM     88  F   UNL A   1      39.030  24.756  28.440  1.00  0.00    -0.200 F 
ATOM     89  F   UNL A   1      40.503  24.417  26.173  1.00  0.00    -0.200 F 
ENDBRANCH  55  79
BRANCH  67  90
ATOM     90  C   UNL A   1      43.021  33.436  29.821  1.00  0.00     0.064 A 
ATOM     91  C   UNL A   1      41.905  34.213  29.468  1.00  0.00     0.173 A 
ATOM     92  C   UNL A   1      44.237  33.727  29.189  1.00  0.00     0.173 A 
ATOM     93  F   UNL A   1      40.727  34.053  30.086  1.00  0.00    -0.203 F 
ATOM     94  C   UNL A   1      41.998  35.204  28.491  1.00  0.00     0.198 A 
ATOM     95  C   UNL A   1      44.338  34.742  28.244  1.00  0.00     0.198 A 
ATOM     96  F   UNL A   1      45.345  33.044  29.520  1.00  0.00    -0.203 F 
ATOM     97  F   UNL A   1      40.915  35.917  28.149  1.00  0.00    -0.200 F 
ATOM     98  C   UNL A   1      43.216  35.470  27.885  1.00  0.00     0.200 A 
ATOM     99  F   UNL A   1      45.527  35.025  27.696  1.00  0.00    -0.200 F 
ATOM    100  F   UNL A   1      43.315  36.445  26.971  1.00  0.00    -0.200 F 
ENDBRANCH  67  90
ENDBRANCH  41  42
ENDBRANCH  34  36
ENDBRANCH  33  34
ENDBRANCH  32  33
ENDBRANCH  31  32
ENDBRANCH  30  31
ENDBRANCH   1  30
TORSDOF 19
ENDMDL
MODEL 3
REMARK VINA RESULT:     -11.9      2.809      4.137
REMARK SMILES C=CCn1nc(C(=O)OCCOCCOC(=O)c2ccc(-c3c4nc(c(-c5c(F)c(F)c(F)c(F)c5F)c5ccc([nH]5)c(-c5c(F)c(F)c(F)c(F)c5F)c5nc(c(-c6c(F)c(F)c(F)c(F)c6F)c6ccc3[nH]6)C=C5)C=C4)cc2)c2c1CC[C@@H]([NH+]1CCC(C(C)(C)O)CC1)C2
REMARK SMILES IDX 11 1 10 2 9 3 7 4 8 5 6 6 4 7 5 8 82 9 81 10 83 11 96 12
REMARK SMILES IDX 84 13 85 14 3 15 2 16 1 17 86 18 87 19 95 20 88 22 94 23
REMARK SMILES IDX 89 24 90 25 91 26 92 27 93 28 12 30 13 31 14 32 15 33 16 34
REMARK SMILES IDX 17 35 18 36 19 37 80 38 20 39 79 40 21 41 22 42 23 43 73 44
REMARK SMILES IDX 24 45 78 46 72 47 74 48 25 49 77 50 71 51 70 52 26 54 58 55
REMARK SMILES IDX 38 56 57 57 39 58 42 59 56 60 75 61 40 62 41 63 55 65 76 66
REMARK SMILES IDX 43 67 27 68 28 69 36 70 29 71 30 72 34 73 37 74 31 75 32 76
REMARK SMILES IDX 35 77 33 78 59 79 60 80 68 81 61 82 62 83 66 84 69 85 63 86
REMARK SMILES IDX 64 87 67 88 65 89 44 90 45 91 53 92 46 93 47 94 51 95 54 96
REMARK SMILES IDX 48 97 49 98 52 99 50 100
REMARK H PARENT 86 21 93 29 74 53 42 64
REMARK Flexibility Score: inf
ROOT
ATOM      1  C   UNL A   1      39.576  21.944  26.147  1.00  0.00     0.202 C 
ENDROOT
BRANCH   1   2
ATOM      2  C   UNL A   1      38.348  21.496  25.354  1.00  0.00     0.261 C 
BRANCH   2   3
ATOM      3  O   UNL A   1      37.147  21.791  26.076  1.00  0.00    -0.458 OA
BRANCH   3   4
ATOM      4  C   UNL A   1      36.519  22.962  25.750  1.00  0.00     0.359 C 
ATOM      5  O   UNL A   1      36.985  24.074  25.961  1.00  0.00    -0.244 OA
BRANCH   4   6
ATOM      6  C   UNL A   1      35.247  22.707  25.056  1.00  0.00     0.174 A 
ATOM      7  N   UNL A   1      33.674  21.639  24.084  1.00  0.00    -0.265 N 
ATOM      8  N   UNL A   1      34.753  21.459  24.879  1.00  0.00    -0.165 NA
ATOM      9  C   UNL A   1      33.644  22.907  23.585  1.00  0.00     0.043 A 
ATOM     10  C   UNL A   1      34.362  23.659  24.484  1.00  0.00     0.014 A 
ATOM     11  C   UNL A   1      32.963  23.421  22.384  1.00  0.00     0.062 C 
ATOM     12  C   UNL A   1      34.272  25.145  24.548  1.00  0.00     0.105 C 
ATOM     13  C   UNL A   1      33.030  24.960  22.358  1.00  0.00     0.072 C 
ATOM     14  C   UNL A   1      33.040  25.684  23.734  1.00  0.00     0.189 C 
BRANCH   7  15
ATOM     15  C   UNL A   1      32.709  20.556  23.891  1.00  0.00     0.171 C 
BRANCH  15  16
ATOM     16  C   UNL A   1      33.001  19.353  24.761  1.00  0.00    -0.011 C 
ATOM     17  C   UNL A   1      32.523  18.114  24.570  1.00  0.00     0.006 C 
ENDBRANCH  15  16
ENDBRANCH   7  15
BRANCH  14  18
ATOM     18  N   UNL A   1      31.799  25.823  24.537  1.00  0.00    -0.332 N 
ATOM     19  C   UNL A   1      30.787  26.804  24.181  1.00  0.00     0.262 C 
ATOM     20  C   UNL A   1      31.962  25.812  25.988  1.00  0.00     0.262 C 
ATOM     21  H   UNL A   1      31.409  24.937  24.218  1.00  0.00     0.348 HD
ATOM     22  C   UNL A   1      31.016  28.226  24.694  1.00  0.00     0.068 C 
ATOM     23  C   UNL A   1      32.441  27.130  26.582  1.00  0.00     0.068 C 
ATOM     24  C   UNL A   1      31.741  28.406  26.052  1.00  0.00     0.031 C 
BRANCH  24  25
ATOM     25  C   UNL A   1      32.704  29.657  26.120  1.00  0.00     0.062 C 
ATOM     26  C   UNL A   1      32.039  30.929  26.662  1.00  0.00     0.042 C 
ATOM     27  C   UNL A   1      33.951  29.340  26.956  1.00  0.00     0.042 C 
BRANCH  25  28
ATOM     28  O   UNL A   1      33.183  29.981  24.810  1.00  0.00    -0.390 OA
ATOM     29  H   UNL A   1      32.956  30.901  24.602  1.00  0.00     0.211 HD
ENDBRANCH  25  28
ENDBRANCH  24  25
ENDBRANCH  14  18
ENDBRANCH   4   6
ENDBRANCH   3   4
ENDBRANCH   2   3
ENDBRANCH   1   2
BRANCH   1  30
ATOM     30  O   UNL A   1      39.990  21.074  27.201  1.00  0.00    -0.374 OA
BRANCH  30  31
ATOM     31  C   UNL A   1      41.377  20.784  27.346  1.00  0.00     0.202 C 
BRANCH  31  32
ATOM     32  C   UNL A   1      42.294  21.250  26.230  1.00  0.00     0.261 C 
BRANCH  32  33
ATOM     33  O   UNL A   1      43.072  22.373  26.629  1.00  0.00    -0.460 OA
BRANCH  33  34
ATOM     34  C   UNL A   1      42.906  23.470  25.855  1.00  0.00     0.338 C 
ATOM     35  O   UNL A   1      43.361  23.669  24.748  1.00  0.00    -0.246 OA
BRANCH  34  36
ATOM     36  C   UNL A   1      42.252  24.499  26.672  1.00  0.00     0.060 A 
ATOM     37  C   UNL A   1      41.413  25.379  25.991  1.00  0.00     0.016 A 
ATOM     38  C   UNL A   1      42.673  24.749  27.990  1.00  0.00     0.016 A 
ATOM     39  C   UNL A   1      41.161  26.607  26.558  1.00  0.00     0.010 A 
ATOM     40  C   UNL A   1      42.424  25.980  28.555  1.00  0.00     0.010 A 
ATOM     41  C   UNL A   1      41.737  26.922  27.799  1.00  0.00    -0.014 A 
BRANCH  41  42
ATOM     42  C   UNL A   1      41.454  28.232  28.346  1.00  0.00     0.031 A 
ATOM     43  C   UNL A   1      42.520  29.200  28.016  1.00  0.00     0.074 A 
ATOM     44  C   UNL A   1      40.352  28.534  29.056  1.00  0.00     0.049 A 
ATOM     45  N   UNL A   1      43.406  29.669  28.826  1.00  0.00    -0.248 NA
ATOM     46  C   UNL A   1      42.762  29.524  26.602  1.00  0.00     0.031 C 
ATOM     47  C   UNL A   1      39.141  27.733  29.246  1.00  0.00     0.029 A 
ATOM     48  N   UNL A   1      40.064  29.688  29.723  1.00  0.00    -0.354 N 
ATOM     49  C   UNL A   1      44.214  30.501  28.063  1.00  0.00     0.074 A 
ATOM     50  C   UNL A   1      43.879  30.250  26.687  1.00  0.00     0.031 C 
ATOM     51  C   UNL A   1      38.171  28.509  29.787  1.00  0.00     0.029 A 
ATOM     52  C   UNL A   1      38.737  29.806  30.117  1.00  0.00     0.049 A 
ATOM     53  H   UNL A   1      40.739  30.379  29.910  1.00  0.00     0.167 HD
ATOM     54  C   UNL A   1      44.897  31.514  28.658  1.00  0.00     0.037 A 
ATOM     55  C   UNL A   1      38.158  30.913  30.646  1.00  0.00     0.037 A 
ATOM     56  C   UNL A   1      44.949  31.325  30.085  1.00  0.00     0.049 A 
ATOM     57  C   UNL A   1      39.243  31.736  31.229  1.00  0.00     0.074 A 
ATOM     58  C   UNL A   1      45.600  30.474  30.952  1.00  0.00     0.029 A 
ATOM     59  N   UNL A   1      43.890  31.864  30.766  1.00  0.00    -0.354 N 
ATOM     60  N   UNL A   1      39.925  31.385  32.281  1.00  0.00    -0.248 NA
ATOM     61  C   UNL A   1      39.840  32.788  30.419  1.00  0.00     0.031 C 
ATOM     62  C   UNL A   1      44.725  30.318  32.071  1.00  0.00     0.029 A 
ATOM     63  C   UNL A   1      43.598  31.116  31.873  1.00  0.00     0.049 A 
ATOM     64  H   UNL A   1      43.405  32.677  30.495  1.00  0.00     0.167 HD
ATOM     65  C   UNL A   1      41.209  31.828  32.022  1.00  0.00     0.074 A 
ATOM     66  C   UNL A   1      41.060  32.821  30.962  1.00  0.00     0.031 C 
ATOM     67  C   UNL A   1      42.284  31.123  32.479  1.00  0.00     0.037 A 
BRANCH  54  68
ATOM     68  C   UNL A   1      45.060  32.885  28.046  1.00  0.00     0.064 A 
ATOM     69  C   UNL A   1      46.356  33.348  27.747  1.00  0.00     0.173 A 
ATOM     70  C   UNL A   1      44.048  33.871  28.057  1.00  0.00     0.173 A 
ATOM     71  F   UNL A   1      47.398  32.503  27.742  1.00  0.00    -0.203 F 
ATOM     72  C   UNL A   1      46.626  34.704  27.543  1.00  0.00     0.198 A 
ATOM     73  C   UNL A   1      44.313  35.214  27.804  1.00  0.00     0.198 A 
ATOM     74  F   UNL A   1      42.792  33.602  28.435  1.00  0.00    -0.203 F 
ATOM     75  F   UNL A   1      47.891  35.115  27.385  1.00  0.00    -0.200 F 
ATOM     76  C   UNL A   1      45.605  35.636  27.576  1.00  0.00     0.200 A 
ATOM     77  F   UNL A   1      43.313  36.105  27.871  1.00  0.00    -0.200 F 
ATOM     78  F   UNL A   1      45.868  36.942  27.442  1.00  0.00    -0.200 F 
ENDBRANCH  54  68
BRANCH  55  79
ATOM     79  C   UNL A   1      36.795  31.457  30.432  1.00  0.00     0.064 A 
ATOM     80  C   UNL A   1      36.009  31.894  31.513  1.00  0.00     0.173 A 
ATOM     81  C   UNL A   1      36.369  31.852  29.150  1.00  0.00     0.173 A 
ATOM     82  F   UNL A   1      36.366  31.597  32.772  1.00  0.00    -0.203 F 
ATOM     83  C   UNL A   1      34.891  32.714  31.326  1.00  0.00     0.198 A 
ATOM     84  C   UNL A   1      35.252  32.670  28.964  1.00  0.00     0.198 A 
ATOM     85  F   UNL A   1      37.089  31.543  28.063  1.00  0.00    -0.203 F 
ATOM     86  F   UNL A   1      34.210  33.173  32.387  1.00  0.00    -0.200 F 
ATOM     87  C   UNL A   1      34.522  33.114  30.053  1.00  0.00     0.200 A 
ATOM     88  F   UNL A   1      34.929  33.083  27.730  1.00  0.00    -0.200 F 
ATOM     89  F   UNL A   1      33.497  33.960  29.876  1.00  0.00    -0.200 F 
ENDBRANCH  55  79
BRANCH  67  90
ATOM     90  C   UNL A   1      42.035  30.159  33.603  1.00  0.00     0.064 A 
ATOM     91  C   UNL A   1      41.663  28.814  33.438  1.00  0.00     0.173 A 
ATOM     92  C   UNL A   1      42.268  30.609  34.909  1.00  0.00     0.173 A 
ATOM     93  F   UNL A   1      41.503  28.286  32.217  1.00  0.00    -0.203 F 
ATOM     94  C   UNL A   1      41.486  27.976  34.539  1.00  0.00     0.198 A 
ATOM     95  C   UNL A   1      42.131  29.762  36.002  1.00  0.00     0.198 A 
ATOM     96  F   UNL A   1      42.668  31.873  35.121  1.00  0.00    -0.203 F 
ATOM     97  F   UNL A   1      41.105  26.703  34.361  1.00  0.00    -0.200 F 
ATOM     98  C   UNL A   1      41.727  28.450  35.818  1.00  0.00     0.200 A 
ATOM     99  F   UNL A   1      42.409  30.213  37.233  1.00  0.00    -0.200 F 
ATOM    100  F   UNL A   1      41.591  27.636  36.875  1.00  0.00    -0.200 F 
ENDBRANCH  67  90
ENDBRANCH  41  42
ENDBRANCH  34  36
ENDBRANCH  33  34
ENDBRANCH  32  33
ENDBRANCH  31  32
ENDBRANCH  30  31
ENDBRANCH   1  30
TORSDOF 19
ENDMDL
