MODEL 1
REMARK VINA RESULT:     -12.4      0.000      0.000
REMARK SMILES CC1=C(C)C[C@@H](C(=O)OCCOCCOC(=O)c2ccc(-c3c4nc(c(-c5c(F)c(F)c(F)c(F)c5F)c5ccc([nH]5)c(-c5c(F)c(F)c(F)c(F)c5F)c5nc(c(-c6c(F)c(F)c(F)c(F)c6F)c6ccc3[nH]6)C=C5)C=C4)cc2)[C@@H](C(=O)N2CCN(c3cccc(C(F)(F)F)c3)CC2)C1
REMARK SMILES IDX 11 1 10 2 9 3 7 4 8 5 6 6 1 7 2 8 3 9 100 10 4 11 5 12 81 13
REMARK SMILES IDX 82 14 83 15 84 16 85 17 99 18 86 19 98 20 87 21 88 22 89 23
REMARK SMILES IDX 97 24 90 25 92 26 91 27 93 28 94 29 95 30 96 31 12 32 13 33
REMARK SMILES IDX 14 34 15 35 16 36 17 37 18 38 19 39 80 40 20 41 79 42 21 43
REMARK SMILES IDX 22 44 23 45 73 46 24 47 78 48 72 49 74 50 25 51 77 52 71 53
REMARK SMILES IDX 70 54 26 56 58 57 38 58 57 59 39 60 42 61 56 62 75 63 40 64
REMARK SMILES IDX 41 65 55 67 76 68 43 69 27 70 28 71 36 72 29 73 30 74 34 75
REMARK SMILES IDX 37 76 31 77 32 78 35 79 33 80 59 81 60 82 68 83 61 84 62 85
REMARK SMILES IDX 66 86 69 87 63 88 64 89 67 90 65 91 44 92 45 93 53 94 46 95
REMARK SMILES IDX 47 96 51 97 54 98 48 99 49 100 52 101 50 102
REMARK H PARENT 74 55 42 66
REMARK Flexibility Score: inf
ROOT
ATOM      1  C   UNL A   1      35.302  22.286  24.164  1.00  0.00     0.202 C 
ENDROOT
BRANCH   1   2
ATOM      2  C   UNL A   1      34.404  23.298  24.877  1.00  0.00     0.261 C 
BRANCH   2   3
ATOM      3  O   UNL A   1      33.208  23.576  24.112  1.00  0.00    -0.463 OA
BRANCH   3   4
ATOM      4  C   UNL A   1      32.043  23.123  24.640  1.00  0.00     0.310 C 
ATOM      5  O   UNL A   1      31.930  22.097  25.301  1.00  0.00    -0.252 OA
BRANCH   4   6
ATOM      6  C   UNL A   1      30.832  23.940  24.205  1.00  0.00     0.116 C 
ATOM      7  C   UNL A   1      30.757  28.147  22.804  1.00  0.00     0.039 C 
ATOM      8  C   UNL A   1      30.645  26.681  23.116  1.00  0.00    -0.074 C 
ATOM      9  C   UNL A   1      31.151  25.707  22.334  1.00  0.00    -0.073 C 
ATOM     10  C   UNL A   1      29.819  26.306  24.316  1.00  0.00     0.045 C 
ATOM     11  C   UNL A   1      31.820  25.943  21.006  1.00  0.00     0.039 C 
ATOM     12  C   UNL A   1      30.972  24.253  22.702  1.00  0.00     0.046 C 
ATOM     13  C   UNL A   1      30.370  25.112  25.104  1.00  0.00     0.097 C 
BRANCH  13  14
ATOM     14  C   UNL A   1      31.320  25.486  26.237  1.00  0.00     0.227 C 
ATOM     15  O   UNL A   1      31.397  24.806  27.255  1.00  0.00    -0.275 OA
ATOM     16  N   UNL A   1      31.973  26.698  26.144  1.00  0.00    -0.339 N 
ATOM     17  C   UNL A   1      33.434  26.655  26.166  1.00  0.00     0.141 C 
ATOM     18  C   UNL A   1      31.419  27.778  26.967  1.00  0.00     0.141 C 
ATOM     19  C   UNL A   1      34.069  28.008  25.791  1.00  0.00     0.138 C 
ATOM     20  C   UNL A   1      32.010  29.148  26.605  1.00  0.00     0.138 C 
ATOM     21  N   UNL A   1      33.479  29.080  26.611  1.00  0.00    -0.368 N 
BRANCH  21  22
ATOM     22  C   UNL A   1      34.254  30.046  27.214  1.00  0.00     0.037 A 
ATOM     23  C   UNL A   1      35.530  29.762  27.719  1.00  0.00     0.026 A 
ATOM     24  C   UNL A   1      33.755  31.341  27.423  1.00  0.00     0.039 A 
ATOM     25  C   UNL A   1      36.273  30.719  28.417  1.00  0.00     0.003 A 
ATOM     26  C   UNL A   1      34.472  32.309  28.152  1.00  0.00     0.058 A 
ATOM     27  C   UNL A   1      35.744  31.986  28.638  1.00  0.00     0.013 A 
BRANCH  26  28
ATOM     28  C   UNL A   1      33.876  33.664  28.435  1.00  0.00     0.416 C 
ATOM     29  F   UNL A   1      34.677  34.683  28.011  1.00  0.00    -0.166 F 
ATOM     30  F   UNL A   1      32.675  33.850  27.824  1.00  0.00    -0.166 F 
ATOM     31  F   UNL A   1      33.662  33.897  29.762  1.00  0.00    -0.166 F 
ENDBRANCH  26  28
ENDBRANCH  21  22
ENDBRANCH  13  14
ENDBRANCH   4   6
ENDBRANCH   3   4
ENDBRANCH   2   3
ENDBRANCH   1   2
BRANCH   1  32
ATOM     32  O   UNL A   1      35.219  20.952  24.672  1.00  0.00    -0.374 OA
BRANCH  32  33
ATOM     33  C   UNL A   1      36.468  20.360  25.028  1.00  0.00     0.202 C 
BRANCH  33  34
ATOM     34  C   UNL A   1      37.704  21.266  24.851  1.00  0.00     0.261 C 
BRANCH  34  35
ATOM     35  O   UNL A   1      38.069  22.004  26.032  1.00  0.00    -0.460 OA
BRANCH  35  36
ATOM     36  C   UNL A   1      39.346  21.834  26.449  1.00  0.00     0.338 C 
ATOM     37  O   UNL A   1      40.045  20.843  26.319  1.00  0.00    -0.246 OA
BRANCH  36  38
ATOM     38  C   UNL A   1      39.866  23.114  26.982  1.00  0.00     0.060 A 
ATOM     39  C   UNL A   1      39.304  24.308  26.514  1.00  0.00     0.016 A 
ATOM     40  C   UNL A   1      40.903  23.157  27.912  1.00  0.00     0.016 A 
ATOM     41  C   UNL A   1      39.801  25.544  26.946  1.00  0.00     0.010 A 
ATOM     42  C   UNL A   1      41.374  24.397  28.361  1.00  0.00     0.010 A 
ATOM     43  C   UNL A   1      40.862  25.607  27.858  1.00  0.00    -0.014 A 
BRANCH  43  44
ATOM     44  C   UNL A   1      41.542  26.905  28.162  1.00  0.00     0.031 A 
ATOM     45  C   UNL A   1      42.921  27.166  27.602  1.00  0.00     0.074 A 
ATOM     46  C   UNL A   1      40.958  27.866  28.907  1.00  0.00     0.049 A 
ATOM     47  N   UNL A   1      43.694  28.218  27.737  1.00  0.00    -0.248 NA
ATOM     48  C   UNL A   1      43.525  26.085  26.806  1.00  0.00     0.031 C 
ATOM     49  C   UNL A   1      39.646  27.772  29.544  1.00  0.00     0.029 A 
ATOM     50  N   UNL A   1      41.401  29.125  29.247  1.00  0.00    -0.354 N 
ATOM     51  C   UNL A   1      44.874  27.907  27.072  1.00  0.00     0.074 A 
ATOM     52  C   UNL A   1      44.747  26.546  26.600  1.00  0.00     0.031 C 
ATOM     53  C   UNL A   1      39.372  28.937  30.160  1.00  0.00     0.029 A 
ATOM     54  C   UNL A   1      40.499  29.854  29.985  1.00  0.00     0.049 A 
ATOM     55  H   UNL A   1      42.284  29.473  28.983  1.00  0.00     0.167 HD
ATOM     56  C   UNL A   1      45.955  28.686  26.830  1.00  0.00     0.037 A 
ATOM     57  C   UNL A   1      40.564  31.117  30.457  1.00  0.00     0.037 A 
ATOM     58  C   UNL A   1      46.076  30.065  27.220  1.00  0.00     0.049 A 
ATOM     59  C   UNL A   1      41.782  31.968  30.183  1.00  0.00     0.074 A 
ATOM     60  C   UNL A   1      47.098  30.954  26.937  1.00  0.00     0.029 A 
ATOM     61  N   UNL A   1      45.138  30.758  27.967  1.00  0.00    -0.354 N 
ATOM     62  N   UNL A   1      42.854  31.685  29.487  1.00  0.00    -0.248 NA
ATOM     63  C   UNL A   1      41.789  33.323  30.761  1.00  0.00     0.031 C 
ATOM     64  C   UNL A   1      46.804  32.172  27.554  1.00  0.00     0.029 A 
ATOM     65  C   UNL A   1      45.573  32.057  28.181  1.00  0.00     0.049 A 
ATOM     66  H   UNL A   1      44.290  30.384  28.299  1.00  0.00     0.167 HD
ATOM     67  C   UNL A   1      43.638  32.835  29.505  1.00  0.00     0.074 A 
ATOM     68  C   UNL A   1      42.919  33.822  30.280  1.00  0.00     0.031 C 
ATOM     69  C   UNL A   1      44.845  33.050  28.925  1.00  0.00     0.037 A 
BRANCH  56  70
ATOM     70  C   UNL A   1      47.103  28.058  26.095  1.00  0.00     0.064 A 
ATOM     71  C   UNL A   1      47.098  27.913  24.698  1.00  0.00     0.173 A 
ATOM     72  C   UNL A   1      48.225  27.596  26.798  1.00  0.00     0.173 A 
ATOM     73  F   UNL A   1      46.042  28.330  23.982  1.00  0.00    -0.203 F 
ATOM     74  C   UNL A   1      48.151  27.288  24.039  1.00  0.00     0.198 A 
ATOM     75  C   UNL A   1      49.295  27.005  26.132  1.00  0.00     0.198 A 
ATOM     76  F   UNL A   1      48.285  27.719  28.133  1.00  0.00    -0.203 F 
ATOM     77  F   UNL A   1      48.092  27.100  22.714  1.00  0.00    -0.200 F 
ATOM     78  C   UNL A   1      49.250  26.838  24.755  1.00  0.00     0.200 A 
ATOM     79  F   UNL A   1      50.365  26.588  26.823  1.00  0.00    -0.200 F 
ATOM     80  F   UNL A   1      50.266  26.237  24.119  1.00  0.00    -0.200 F 
ENDBRANCH  56  70
BRANCH  57  81
ATOM     81  C   UNL A   1      39.420  31.696  31.212  1.00  0.00     0.064 A 
ATOM     82  C   UNL A   1      38.578  32.649  30.617  1.00  0.00     0.173 A 
ATOM     83  C   UNL A   1      39.175  31.356  32.549  1.00  0.00     0.173 A 
ATOM     84  F   UNL A   1      38.791  33.031  29.349  1.00  0.00    -0.203 F 
ATOM     85  C   UNL A   1      37.551  33.254  31.338  1.00  0.00     0.198 A 
ATOM     86  C   UNL A   1      38.131  31.943  33.261  1.00  0.00     0.198 A 
ATOM     87  F   UNL A   1      39.955  30.455  33.165  1.00  0.00    -0.203 F 
ATOM     88  F   UNL A   1      36.797  34.200  30.761  1.00  0.00    -0.200 F 
ATOM     89  C   UNL A   1      37.327  32.898  32.660  1.00  0.00     0.200 A 
ATOM     90  F   UNL A   1      37.913  31.592  34.536  1.00  0.00    -0.200 F 
ATOM     91  F   UNL A   1      36.342  33.484  33.355  1.00  0.00    -0.200 F 
ENDBRANCH  57  81
BRANCH  69  92
ATOM     92  C   UNL A   1      45.456  34.417  29.049  1.00  0.00     0.064 A 
ATOM     93  C   UNL A   1      45.202  35.428  28.111  1.00  0.00     0.173 A 
ATOM     94  C   UNL A   1      46.251  34.739  30.159  1.00  0.00     0.173 A 
ATOM     95  F   UNL A   1      44.458  35.171  27.024  1.00  0.00    -0.203 F 
ATOM     96  C   UNL A   1      45.733  36.706  28.273  1.00  0.00     0.198 A 
ATOM     97  C   UNL A   1      46.757  36.025  30.334  1.00  0.00     0.198 A 
ATOM     98  F   UNL A   1      46.521  33.811  31.090  1.00  0.00    -0.203 F 
ATOM     99  F   UNL A   1      45.505  37.647  27.346  1.00  0.00    -0.200 F 
ATOM    100  C   UNL A   1      46.501  37.006  29.388  1.00  0.00     0.200 A 
ATOM    101  F   UNL A   1      47.487  36.316  31.420  1.00  0.00    -0.200 F 
ATOM    102  F   UNL A   1      46.999  38.240  29.550  1.00  0.00    -0.200 F 
ENDBRANCH  69  92
ENDBRANCH  43  44
ENDBRANCH  36  38
ENDBRANCH  35  36
ENDBRANCH  34  35
ENDBRANCH  33  34
ENDBRANCH  32  33
ENDBRANCH   1  32
TORSDOF 17
ENDMDL
MODEL 2
REMARK VINA RESULT:     -11.8      0.843      2.029
REMARK SMILES CC1=C(C)C[C@@H](C(=O)OCCOCCOC(=O)c2ccc(-c3c4nc(c(-c5c(F)c(F)c(F)c(F)c5F)c5ccc([nH]5)c(-c5c(F)c(F)c(F)c(F)c5F)c5nc(c(-c6c(F)c(F)c(F)c(F)c6F)c6ccc3[nH]6)C=C5)C=C4)cc2)[C@@H](C(=O)N2CCN(c3cccc(C(F)(F)F)c3)CC2)C1
REMARK SMILES IDX 11 1 10 2 9 3 7 4 8 5 6 6 1 7 2 8 3 9 100 10 4 11 5 12 81 13
REMARK SMILES IDX 82 14 83 15 84 16 85 17 99 18 86 19 98 20 87 21 88 22 89 23
REMARK SMILES IDX 97 24 90 25 92 26 91 27 93 28 94 29 95 30 96 31 12 32 13 33
REMARK SMILES IDX 14 34 15 35 16 36 17 37 18 38 19 39 80 40 20 41 79 42 21 43
REMARK SMILES IDX 22 44 23 45 73 46 24 47 78 48 72 49 74 50 25 51 77 52 71 53
REMARK SMILES IDX 70 54 26 56 58 57 38 58 57 59 39 60 42 61 56 62 75 63 40 64
REMARK SMILES IDX 41 65 55 67 76 68 43 69 27 70 28 71 36 72 29 73 30 74 34 75
REMARK SMILES IDX 37 76 31 77 32 78 35 79 33 80 59 81 60 82 68 83 61 84 62 85
REMARK SMILES IDX 66 86 69 87 63 88 64 89 67 90 65 91 44 92 45 93 53 94 46 95
REMARK SMILES IDX 47 96 51 97 54 98 48 99 49 100 52 101 50 102
REMARK H PARENT 74 55 42 66
REMARK Flexibility Score: inf
ROOT
ATOM      1  C   UNL A   1      34.370  21.998  24.074  1.00  0.00     0.202 C 
ENDROOT
BRANCH   1   2
ATOM      2  C   UNL A   1      32.948  22.392  23.669  1.00  0.00     0.261 C 
BRANCH   2   3
ATOM      3  O   UNL A   1      32.523  23.602  24.340  1.00  0.00    -0.463 OA
BRANCH   3   4
ATOM      4  C   UNL A   1      31.219  23.652  24.713  1.00  0.00     0.310 C 
ATOM      5  O   UNL A   1      30.710  22.928  25.561  1.00  0.00    -0.252 OA
BRANCH   4   6
ATOM      6  C   UNL A   1      30.389  24.606  23.862  1.00  0.00     0.116 C 
ATOM      7  C   UNL A   1      31.617  28.531  22.204  1.00  0.00     0.039 C 
ATOM      8  C   UNL A   1      31.112  27.164  22.572  1.00  0.00    -0.074 C 
ATOM      9  C   UNL A   1      31.607  26.019  22.061  1.00  0.00    -0.073 C 
ATOM     10  C   UNL A   1      29.912  27.107  23.476  1.00  0.00     0.045 C 
ATOM     11  C   UNL A   1      32.669  25.952  20.997  1.00  0.00     0.039 C 
ATOM     12  C   UNL A   1      31.026  24.683  22.459  1.00  0.00     0.046 C 
ATOM     13  C   UNL A   1      29.942  25.951  24.482  1.00  0.00     0.097 C 
BRANCH  13  14
ATOM     14  C   UNL A   1      30.576  26.299  25.825  1.00  0.00     0.227 C 
ATOM     15  O   UNL A   1      30.112  25.873  26.878  1.00  0.00    -0.275 OA
ATOM     16  N   UNL A   1      31.592  27.232  25.826  1.00  0.00    -0.339 N 
ATOM     17  C   UNL A   1      32.876  26.799  26.372  1.00  0.00     0.141 C 
ATOM     18  C   UNL A   1      31.209  28.581  26.260  1.00  0.00     0.141 C 
ATOM     19  C   UNL A   1      34.007  27.806  26.087  1.00  0.00     0.138 C 
ATOM     20  C   UNL A   1      32.304  29.617  25.969  1.00  0.00     0.138 C 
ATOM     21  N   UNL A   1      33.592  29.155  26.507  1.00  0.00    -0.368 N 
BRANCH  21  22
ATOM     22  C   UNL A   1      34.425  29.983  27.226  1.00  0.00     0.037 A 
ATOM     23  C   UNL A   1      35.656  29.540  27.728  1.00  0.00     0.026 A 
ATOM     24  C   UNL A   1      34.030  31.289  27.556  1.00  0.00     0.039 A 
ATOM     25  C   UNL A   1      36.454  30.353  28.539  1.00  0.00     0.003 A 
ATOM     26  C   UNL A   1      34.802  32.112  28.399  1.00  0.00     0.058 A 
ATOM     27  C   UNL A   1      36.025  31.633  28.878  1.00  0.00     0.013 A 
BRANCH  26  28
ATOM     28  C   UNL A   1      34.312  33.478  28.806  1.00  0.00     0.416 C 
ATOM     29  F   UNL A   1      35.136  34.475  28.374  1.00  0.00    -0.166 F 
ATOM     30  F   UNL A   1      33.080  33.767  28.310  1.00  0.00    -0.166 F 
ATOM     31  F   UNL A   1      34.221  33.641  30.157  1.00  0.00    -0.166 F 
ENDBRANCH  26  28
ENDBRANCH  21  22
ENDBRANCH  13  14
ENDBRANCH   4   6
ENDBRANCH   3   4
ENDBRANCH   2   3
ENDBRANCH   1   2
BRANCH   1  32
ATOM     32  O   UNL A   1      34.790  22.502  25.344  1.00  0.00    -0.374 OA
BRANCH  32  33
ATOM     33  C   UNL A   1      35.601  21.612  26.111  1.00  0.00     0.202 C 
BRANCH  33  34
ATOM     34  C   UNL A   1      36.846  21.060  25.385  1.00  0.00     0.261 C 
BRANCH  34  35
ATOM     35  O   UNL A   1      37.951  21.981  25.324  1.00  0.00    -0.460 OA
BRANCH  35  36
ATOM     36  C   UNL A   1      39.040  21.625  26.045  1.00  0.00     0.338 C 
ATOM     37  O   UNL A   1      39.572  20.528  26.097  1.00  0.00    -0.246 OA
BRANCH  36  38
ATOM     38  C   UNL A   1      39.624  22.826  26.684  1.00  0.00     0.060 A 
ATOM     39  C   UNL A   1      39.090  24.079  26.360  1.00  0.00     0.016 A 
ATOM     40  C   UNL A   1      40.692  22.741  27.575  1.00  0.00     0.016 A 
ATOM     41  C   UNL A   1      39.644  25.248  26.895  1.00  0.00     0.010 A 
ATOM     42  C   UNL A   1      41.222  23.913  28.128  1.00  0.00     0.010 A 
ATOM     43  C   UNL A   1      40.738  25.184  27.768  1.00  0.00    -0.014 A 
BRANCH  43  44
ATOM     44  C   UNL A   1      41.474  26.422  28.176  1.00  0.00     0.031 A 
ATOM     45  C   UNL A   1      42.850  26.684  27.608  1.00  0.00     0.074 A 
ATOM     46  C   UNL A   1      40.944  27.328  29.023  1.00  0.00     0.049 A 
ATOM     47  N   UNL A   1      43.665  27.690  27.822  1.00  0.00    -0.248 NA
ATOM     48  C   UNL A   1      43.394  25.662  26.699  1.00  0.00     0.031 C 
ATOM     49  C   UNL A   1      39.643  27.222  29.680  1.00  0.00     0.029 A 
ATOM     50  N   UNL A   1      41.442  28.533  29.468  1.00  0.00    -0.354 N 
ATOM     51  C   UNL A   1      44.818  27.400  27.101  1.00  0.00     0.074 A 
ATOM     52  C   UNL A   1      44.628  26.096  26.507  1.00  0.00     0.031 C 
ATOM     53  C   UNL A   1      39.428  28.333  30.410  1.00  0.00     0.029 A 
ATOM     54  C   UNL A   1      40.585  29.221  30.294  1.00  0.00     0.049 A 
ATOM     55  H   UNL A   1      42.332  28.872  29.215  1.00  0.00     0.167 HD
ATOM     56  C   UNL A   1      45.922  28.159  26.906  1.00  0.00     0.037 A 
ATOM     57  C   UNL A   1      40.709  30.430  30.880  1.00  0.00     0.037 A 
ATOM     58  C   UNL A   1      46.105  29.489  27.421  1.00  0.00     0.049 A 
ATOM     59  C   UNL A   1      41.952  31.258  30.657  1.00  0.00     0.074 A 
ATOM     60  C   UNL A   1      47.155  30.363  27.197  1.00  0.00     0.029 A 
ATOM     61  N   UNL A   1      45.211  30.142  28.253  1.00  0.00    -0.354 N 
ATOM     62  N   UNL A   1      42.998  31.004  29.910  1.00  0.00    -0.248 NA
ATOM     63  C   UNL A   1      42.024  32.551  31.359  1.00  0.00     0.031 C 
ATOM     64  C   UNL A   1      46.920  31.528  27.933  1.00  0.00     0.029 A 
ATOM     65  C   UNL A   1      45.701  31.398  28.577  1.00  0.00     0.049 A 
ATOM     66  H   UNL A   1      44.356  29.770  28.570  1.00  0.00     0.167 HD
ATOM     67  C   UNL A   1      43.826  32.117  30.016  1.00  0.00     0.074 A 
ATOM     68  C   UNL A   1      43.163  33.052  30.898  1.00  0.00     0.031 C 
ATOM     69  C   UNL A   1      45.027  32.342  29.429  1.00  0.00     0.037 A 
BRANCH  56  70
ATOM     70  C   UNL A   1      47.029  27.562  26.087  1.00  0.00     0.064 A 
ATOM     71  C   UNL A   1      48.054  26.800  26.671  1.00  0.00     0.173 A 
ATOM     72  C   UNL A   1      47.063  27.751  24.698  1.00  0.00     0.173 A 
ATOM     73  F   UNL A   1      48.072  26.598  27.997  1.00  0.00    -0.203 F 
ATOM     74  C   UNL A   1      49.095  26.291  25.901  1.00  0.00     0.198 A 
ATOM     75  C   UNL A   1      48.086  27.210  23.925  1.00  0.00     0.198 A 
ATOM     76  F   UNL A   1      46.102  28.464  24.089  1.00  0.00    -0.203 F 
ATOM     77  F   UNL A   1      50.098  25.626  26.490  1.00  0.00    -0.200 F 
ATOM     78  C   UNL A   1      49.108  26.493  24.529  1.00  0.00     0.200 A 
ATOM     79  F   UNL A   1      48.087  27.389  22.597  1.00  0.00    -0.200 F 
ATOM     80  F   UNL A   1      50.111  26.001  23.788  1.00  0.00    -0.200 F 
ENDBRANCH  56  70
BRANCH  57  81
ATOM     81  C   UNL A   1      39.605  30.976  31.714  1.00  0.00     0.064 A 
ATOM     82  C   UNL A   1      39.393  30.506  33.020  1.00  0.00     0.173 A 
ATOM     83  C   UNL A   1      38.711  31.933  31.214  1.00  0.00     0.173 A 
ATOM     84  F   UNL A   1      40.203  29.567  33.531  1.00  0.00    -0.203 F 
ATOM     85  C   UNL A   1      38.317  30.954  33.783  1.00  0.00     0.198 A 
ATOM     86  C   UNL A   1      37.650  32.400  31.988  1.00  0.00     0.198 A 
ATOM     87  F   UNL A   1      38.866  32.410  29.970  1.00  0.00    -0.203 F 
ATOM     88  F   UNL A   1      38.107  30.448  35.006  1.00  0.00    -0.200 F 
ATOM     89  C   UNL A   1      37.448  31.904  33.267  1.00  0.00     0.200 A 
ATOM     90  F   UNL A   1      36.816  33.322  31.489  1.00  0.00    -0.200 F 
ATOM     91  F   UNL A   1      36.410  32.331  33.998  1.00  0.00    -0.200 F 
ENDBRANCH  57  81
BRANCH  69  92
ATOM     92  C   UNL A   1      45.693  33.668  29.665  1.00  0.00     0.064 A 
ATOM     93  C   UNL A   1      46.668  33.841  30.658  1.00  0.00     0.173 A 
ATOM     94  C   UNL A   1      45.401  34.764  28.838  1.00  0.00     0.173 A 
ATOM     95  F   UNL A   1      46.977  32.830  31.485  1.00  0.00    -0.203 F 
ATOM     96  C   UNL A   1      47.314  35.064  30.823  1.00  0.00     0.198 A 
ATOM     97  C   UNL A   1      46.068  35.977  28.987  1.00  0.00     0.198 A 
ATOM     98  F   UNL A   1      44.481  34.652  27.867  1.00  0.00    -0.203 F 
ATOM     99  F   UNL A   1      48.217  35.216  31.802  1.00  0.00    -0.200 F 
ATOM    100  C   UNL A   1      47.021  36.127  29.982  1.00  0.00     0.200 A 
ATOM    101  F   UNL A   1      45.793  36.998  28.163  1.00  0.00    -0.200 F 
ATOM    102  F   UNL A   1      47.654  37.299  30.133  1.00  0.00    -0.200 F 
ENDBRANCH  69  92
ENDBRANCH  43  44
ENDBRANCH  36  38
ENDBRANCH  35  36
ENDBRANCH  34  35
ENDBRANCH  33  34
ENDBRANCH  32  33
ENDBRANCH   1  32
TORSDOF 17
ENDMDL
MODEL 3
REMARK VINA RESULT:     -11.6      2.728      7.929
REMARK SMILES CC1=C(C)C[C@@H](C(=O)OCCOCCOC(=O)c2ccc(-c3c4nc(c(-c5c(F)c(F)c(F)c(F)c5F)c5ccc([nH]5)c(-c5c(F)c(F)c(F)c(F)c5F)c5nc(c(-c6c(F)c(F)c(F)c(F)c6F)c6ccc3[nH]6)C=C5)C=C4)cc2)[C@@H](C(=O)N2CCN(c3cccc(C(F)(F)F)c3)CC2)C1
REMARK SMILES IDX 11 1 10 2 9 3 7 4 8 5 6 6 1 7 2 8 3 9 100 10 4 11 5 12 81 13
REMARK SMILES IDX 82 14 83 15 84 16 85 17 99 18 86 19 98 20 87 21 88 22 89 23
REMARK SMILES IDX 97 24 90 25 92 26 91 27 93 28 94 29 95 30 96 31 12 32 13 33
REMARK SMILES IDX 14 34 15 35 16 36 17 37 18 38 19 39 80 40 20 41 79 42 21 43
REMARK SMILES IDX 22 44 23 45 73 46 24 47 78 48 72 49 74 50 25 51 77 52 71 53
REMARK SMILES IDX 70 54 26 56 58 57 38 58 57 59 39 60 42 61 56 62 75 63 40 64
REMARK SMILES IDX 41 65 55 67 76 68 43 69 27 70 28 71 36 72 29 73 30 74 34 75
REMARK SMILES IDX 37 76 31 77 32 78 35 79 33 80 59 81 60 82 68 83 61 84 62 85
REMARK SMILES IDX 66 86 69 87 63 88 64 89 67 90 65 91 44 92 45 93 53 94 46 95
REMARK SMILES IDX 47 96 51 97 54 98 48 99 49 100 52 101 50 102
REMARK H PARENT 74 55 42 66
REMARK Flexibility Score: inf
ROOT
ATOM      1  C   UNL A   1      38.200  21.496  25.367  1.00  0.00     0.202 C 
ENDROOT
BRANCH   1   2
ATOM      2  C   UNL A   1      37.209  22.544  24.856  1.00  0.00     0.261 C 
BRANCH   2   3
ATOM      3  O   UNL A   1      35.874  21.995  24.738  1.00  0.00    -0.463 OA
BRANCH   3   4
ATOM      4  C   UNL A   1      35.014  22.294  25.744  1.00  0.00     0.310 C 
ATOM      5  O   UNL A   1      35.164  23.218  26.536  1.00  0.00    -0.252 OA
BRANCH   4   6
ATOM      6  C   UNL A   1      33.897  21.270  25.899  1.00  0.00     0.116 C 
ATOM      7  C   UNL A   1      32.358  18.447  22.845  1.00  0.00     0.039 C 
ATOM      8  C   UNL A   1      32.870  19.237  24.018  1.00  0.00    -0.074 C 
ATOM      9  C   UNL A   1      34.079  19.045  24.580  1.00  0.00    -0.073 C 
ATOM     10  C   UNL A   1      31.911  20.210  24.648  1.00  0.00     0.045 C 
ATOM     11  C   UNL A   1      35.046  17.966  24.172  1.00  0.00     0.039 C 
ATOM     12  C   UNL A   1      34.510  19.860  25.776  1.00  0.00     0.046 C 
ATOM     13  C   UNL A   1      32.569  21.503  25.139  1.00  0.00     0.097 C 
BRANCH  13  14
ATOM     14  C   UNL A   1      32.588  22.632  24.114  1.00  0.00     0.227 C 
ATOM     15  O   UNL A   1      33.294  22.570  23.112  1.00  0.00    -0.275 OA
ATOM     16  N   UNL A   1      31.908  23.789  24.429  1.00  0.00    -0.339 N 
ATOM     17  C   UNL A   1      30.857  24.201  23.501  1.00  0.00     0.141 C 
ATOM     18  C   UNL A   1      32.740  24.907  24.886  1.00  0.00     0.141 C 
ATOM     19  C   UNL A   1      29.983  25.338  24.066  1.00  0.00     0.138 C 
ATOM     20  C   UNL A   1      31.905  26.050  25.480  1.00  0.00     0.138 C 
ATOM     21  N   UNL A   1      30.840  26.436  24.542  1.00  0.00    -0.368 N 
BRANCH  21  22
ATOM     22  C   UNL A   1      30.565  27.755  24.250  1.00  0.00     0.037 A 
ATOM     23  C   UNL A   1      31.340  28.804  24.761  1.00  0.00     0.026 A 
ATOM     24  C   UNL A   1      29.436  28.102  23.491  1.00  0.00     0.039 A 
ATOM     25  C   UNL A   1      31.000  30.142  24.542  1.00  0.00     0.003 A 
ATOM     26  C   UNL A   1      29.057  29.442  23.287  1.00  0.00     0.058 A 
ATOM     27  C   UNL A   1      29.860  30.460  23.813  1.00  0.00     0.013 A 
BRANCH  26  28
ATOM     28  C   UNL A   1      27.794  29.784  22.541  1.00  0.00     0.416 C 
ATOM     29  F   UNL A   1      27.260  30.975  22.939  1.00  0.00    -0.166 F 
ATOM     30  F   UNL A   1      27.985  29.888  21.198  1.00  0.00    -0.166 F 
ATOM     31  F   UNL A   1      26.798  28.866  22.708  1.00  0.00    -0.166 F 
ENDBRANCH  26  28
ENDBRANCH  21  22
ENDBRANCH  13  14
ENDBRANCH   4   6
ENDBRANCH   3   4
ENDBRANCH   2   3
ENDBRANCH   1   2
BRANCH   1  32
ATOM     32  O   UNL A   1      37.885  20.150  25.006  1.00  0.00    -0.374 OA
BRANCH  32  33
ATOM     33  C   UNL A   1      38.886  19.185  25.330  1.00  0.00     0.202 C 
BRANCH  33  34
ATOM     34  C   UNL A   1      40.179  19.756  25.949  1.00  0.00     0.261 C 
BRANCH  34  35
ATOM     35  O   UNL A   1      41.196  18.769  26.205  1.00  0.00    -0.460 OA
BRANCH  35  36
ATOM     36  C   UNL A   1      42.457  19.142  25.882  1.00  0.00     0.338 C 
ATOM     37  O   UNL A   1      43.303  18.480  25.304  1.00  0.00    -0.246 OA
BRANCH  36  38
ATOM     38  C   UNL A   1      42.647  20.574  26.204  1.00  0.00     0.060 A 
ATOM     39  C   UNL A   1      42.883  21.468  25.152  1.00  0.00     0.016 A 
ATOM     40  C   UNL A   1      42.617  21.045  27.515  1.00  0.00     0.016 A 
ATOM     41  C   UNL A   1      43.126  22.823  25.410  1.00  0.00     0.010 A 
ATOM     42  C   UNL A   1      42.831  22.406  27.763  1.00  0.00     0.010 A 
ATOM     43  C   UNL A   1      43.128  23.308  26.725  1.00  0.00    -0.014 A 
BRANCH  43  44
ATOM     44  C   UNL A   1      43.594  24.696  27.033  1.00  0.00     0.031 A 
ATOM     45  C   UNL A   1      42.596  25.718  27.526  1.00  0.00     0.074 A 
ATOM     46  C   UNL A   1      44.884  25.068  26.904  1.00  0.00     0.049 A 
ATOM     47  N   UNL A   1      42.778  26.976  27.854  1.00  0.00    -0.248 NA
ATOM     48  C   UNL A   1      41.198  25.273  27.639  1.00  0.00     0.031 C 
ATOM     49  C   UNL A   1      45.972  24.220  26.420  1.00  0.00     0.029 A 
ATOM     50  N   UNL A   1      45.500  26.268  27.184  1.00  0.00    -0.354 N 
ATOM     51  C   UNL A   1      41.519  27.467  28.177  1.00  0.00     0.074 A 
ATOM     52  C   UNL A   1      40.574  26.400  27.935  1.00  0.00     0.031 C 
ATOM     53  C   UNL A   1      47.126  24.911  26.476  1.00  0.00     0.029 A 
ATOM     54  C   UNL A   1      46.860  26.260  26.976  1.00  0.00     0.049 A 
ATOM     55  H   UNL A   1      45.012  27.060  27.506  1.00  0.00     0.167 HD
ATOM     56  C   UNL A   1      41.171  28.679  28.673  1.00  0.00     0.037 A 
ATOM     57  C   UNL A   1      47.786  27.220  27.176  1.00  0.00     0.037 A 
ATOM     58  C   UNL A   1      42.098  29.730  28.995  1.00  0.00     0.049 A 
ATOM     59  C   UNL A   1      47.377  28.568  27.722  1.00  0.00     0.074 A 
ATOM     60  C   UNL A   1      41.839  30.955  29.584  1.00  0.00     0.029 A 
ATOM     61  N   UNL A   1      43.462  29.676  28.765  1.00  0.00    -0.354 N 
ATOM     62  N   UNL A   1      46.195  28.990  28.095  1.00  0.00    -0.248 NA
ATOM     63  C   UNL A   1      48.443  29.573  27.879  1.00  0.00     0.031 C 
ATOM     64  C   UNL A   1      43.041  31.664  29.667  1.00  0.00     0.029 A 
ATOM     65  C   UNL A   1      44.056  30.861  29.174  1.00  0.00     0.049 A 
ATOM     66  H   UNL A   1      43.940  28.912  28.369  1.00  0.00     0.167 HD
ATOM     67  C   UNL A   1      46.381  30.284  28.571  1.00  0.00     0.074 A 
ATOM     68  C   UNL A   1      47.791  30.581  28.441  1.00  0.00     0.031 C 
ATOM     69  C   UNL A   1      45.463  31.145  29.074  1.00  0.00     0.037 A 
BRANCH  56  70
ATOM     70  C   UNL A   1      39.710  28.931  28.905  1.00  0.00     0.064 A 
ATOM     71  C   UNL A   1      39.123  28.771  30.171  1.00  0.00     0.173 A 
ATOM     72  C   UNL A   1      38.886  29.341  27.847  1.00  0.00     0.173 A 
ATOM     73  F   UNL A   1      39.867  28.371  31.213  1.00  0.00    -0.203 F 
ATOM     74  C   UNL A   1      37.758  28.966  30.357  1.00  0.00     0.198 A 
ATOM     75  C   UNL A   1      37.527  29.572  28.045  1.00  0.00     0.198 A 
ATOM     76  F   UNL A   1      39.398  29.518  26.619  1.00  0.00    -0.203 F 
ATOM     77  F   UNL A   1      37.209  28.741  31.558  1.00  0.00    -0.200 F 
ATOM     78  C   UNL A   1      36.962  29.370  29.295  1.00  0.00     0.200 A 
ATOM     79  F   UNL A   1      36.763  29.981  27.022  1.00  0.00    -0.200 F 
ATOM     80  F   UNL A   1      35.648  29.560  29.476  1.00  0.00    -0.200 F 
ENDBRANCH  56  70
BRANCH  57  81
ATOM     81  C   UNL A   1      49.223  26.946  26.902  1.00  0.00     0.064 A 
ATOM     82  C   UNL A   1      49.738  27.059  25.601  1.00  0.00     0.173 A 
ATOM     83  C   UNL A   1      50.094  26.518  27.913  1.00  0.00     0.173 A 
ATOM     84  F   UNL A   1      48.936  27.434  24.595  1.00  0.00    -0.203 F 
ATOM     85  C   UNL A   1      51.063  26.731  25.319  1.00  0.00     0.198 A 
ATOM     86  C   UNL A   1      51.426  26.216  27.634  1.00  0.00     0.198 A 
ATOM     87  F   UNL A   1      49.649  26.389  29.171  1.00  0.00    -0.203 F 
ATOM     88  F   UNL A   1      51.513  26.795  24.059  1.00  0.00    -0.200 F 
ATOM     89  C   UNL A   1      51.906  26.313  26.337  1.00  0.00     0.200 A 
ATOM     90  F   UNL A   1      52.240  25.818  28.621  1.00  0.00    -0.200 F 
ATOM     91  F   UNL A   1      53.179  25.992  26.065  1.00  0.00    -0.200 F 
ENDBRANCH  57  81
BRANCH  69  92
ATOM     92  C   UNL A   1      45.943  32.476  29.580  1.00  0.00     0.064 A 
ATOM     93  C   UNL A   1      46.001  33.606  28.750  1.00  0.00     0.173 A 
ATOM     94  C   UNL A   1      46.283  32.639  30.932  1.00  0.00     0.173 A 
ATOM     95  F   UNL A   1      45.698  33.504  27.448  1.00  0.00    -0.203 F 
ATOM     96  C   UNL A   1      46.395  34.844  29.253  1.00  0.00     0.198 A 
ATOM     97  C   UNL A   1      46.649  33.884  31.437  1.00  0.00     0.198 A 
ATOM     98  F   UNL A   1      46.239  31.593  31.771  1.00  0.00    -0.203 F 
ATOM     99  F   UNL A   1      46.477  35.902  28.434  1.00  0.00    -0.200 F 
ATOM    100  C   UNL A   1      46.709  34.984  30.596  1.00  0.00     0.200 A 
ATOM    101  F   UNL A   1      46.939  34.019  32.739  1.00  0.00    -0.200 F 
ATOM    102  F   UNL A   1      47.074  36.180  31.080  1.00  0.00    -0.200 F 
ENDBRANCH  69  92
ENDBRANCH  43  44
ENDBRANCH  36  38
ENDBRANCH  35  36
ENDBRANCH  34  35
ENDBRANCH  33  34
ENDBRANCH  32  33
ENDBRANCH   1  32
TORSDOF 17
ENDMDL
