MODEL 1
REMARK VINA RESULT:     -11.7      0.000      0.000
REMARK SMILES Nc1nc(N2CCOC[C@H]2C(=O)OCCOCCOC(=O)c2ccc(-c3c4nc(c(-c5c(F)c(F)c(F)c(F)c5F)c5ccc([nH]5)c(-c5c(F)c(F)c(F)c(F)c5F)c5nc(c(-c6c(F)c(F)c(F)c(F)c6F)c6ccc3[nH]6)C=C5)C=C4)cc2)ccc1[N+](=O)[O-]
REMARK SMILES IDX 16 1 15 2 14 3 13 4 11 5 12 6 10 7 5 8 6 9 7 10 9 11 8 12
REMARK SMILES IDX 4 13 2 14 3 15 87 16 86 17 85 18 1 19 88 22 89 23 90 24
REMARK SMILES IDX 17 25 18 26 19 27 20 28 21 29 22 30 23 31 84 32 24 33 83 34
REMARK SMILES IDX 25 35 26 36 27 37 77 38 28 39 82 40 76 41 78 42 29 43 81 44
REMARK SMILES IDX 75 45 74 46 30 48 62 49 42 50 61 51 43 52 46 53 60 54 79 55
REMARK SMILES IDX 44 56 45 57 59 59 80 60 47 61 31 62 32 63 40 64 33 65 34 66
REMARK SMILES IDX 38 67 41 68 35 69 36 70 39 71 37 72 63 73 64 74 72 75 65 76
REMARK SMILES IDX 66 77 70 78 73 79 67 80 68 81 71 82 69 83 48 84 49 85 57 86
REMARK SMILES IDX 50 87 51 88 55 89 58 90 52 91 53 92 56 93 54 94
REMARK H PARENT 1 20 1 21 78 47 46 58
REMARK Flexibility Score: inf
ROOT
ATOM      1  O   UNL A   1      32.699  30.463  26.083  1.00  0.00    -0.374 OA
ENDROOT
BRANCH   1   2
ATOM      2  C   UNL A   1      32.568  29.042  26.141  1.00  0.00     0.202 C 
BRANCH   2   3
ATOM      3  C   UNL A   1      33.847  28.254  25.854  1.00  0.00     0.261 C 
BRANCH   3   4
ATOM      4  O   UNL A   1      33.768  26.941  26.434  1.00  0.00    -0.462 OA
BRANCH   4   5
ATOM      5  C   UNL A   1      33.620  25.899  25.573  1.00  0.00     0.331 C 
ATOM      6  O   UNL A   1      34.547  25.201  25.169  1.00  0.00    -0.250 OA
BRANCH   5   7
ATOM      7  C   UNL A   1      32.178  25.691  25.100  1.00  0.00     0.220 C 
ATOM      8  N   UNL A   1      31.888  26.053  23.687  1.00  0.00    -0.339 N 
ATOM      9  C   UNL A   1      32.326  25.113  22.654  1.00  0.00     0.147 C 
ATOM     10  C   UNL A   1      31.925  23.684  23.029  1.00  0.00     0.181 C 
ATOM     11  C   UNL A   1      31.831  24.209  25.340  1.00  0.00     0.197 C 
ATOM     12  O   UNL A   1      32.392  23.335  24.339  1.00  0.00    -0.377 OA
BRANCH   8  13
ATOM     13  C   UNL A   1      30.924  27.002  23.430  1.00  0.00     0.132 A 
ATOM     14  C   UNL A   1      30.339  29.000  22.344  1.00  0.00     0.204 A 
ATOM     15  N   UNL A   1      31.287  28.118  22.757  1.00  0.00    -0.207 NA
ATOM     16  C   UNL A   1      28.995  28.819  22.657  1.00  0.00     0.311 A 
ATOM     17  C   UNL A   1      28.621  27.721  23.432  1.00  0.00     0.093 A 
ATOM     18  C   UNL A   1      29.598  26.807  23.812  1.00  0.00     0.054 A 
BRANCH  14  19
ATOM     19  N   UNL A   1      30.839  30.094  21.667  1.00  0.00    -0.378 N 
ATOM     20  H   UNL A   1      30.931  30.066  20.687  1.00  0.00     0.158 HD
ATOM     21  H   UNL A   1      31.102  30.901  22.164  1.00  0.00     0.158 HD
ENDBRANCH  14  19
BRANCH  16  22
ATOM     22  N   UNL A   1      27.957  29.714  22.157  1.00  0.00     0.066 N 
ATOM     23  O   UNL A   1      28.029  30.064  20.969  1.00  0.00    -0.258 OA
ATOM     24  O   UNL A   1      27.093  30.120  22.950  1.00  0.00    -0.258 OA
ENDBRANCH  16  22
ENDBRANCH   8  13
ENDBRANCH   5   7
ENDBRANCH   4   5
ENDBRANCH   3   4
ENDBRANCH   2   3
ENDBRANCH   1   2
BRANCH   1  25
ATOM     25  C   UNL A   1      31.513  31.233  26.286  1.00  0.00     0.202 C 
BRANCH  25  26
ATOM     26  C   UNL A   1      31.702  32.535  27.068  1.00  0.00     0.261 C 
BRANCH  26  27
ATOM     27  O   UNL A   1      33.028  33.070  26.908  1.00  0.00    -0.460 OA
BRANCH  27  28
ATOM     28  C   UNL A   1      33.582  33.546  28.043  1.00  0.00     0.338 C 
ATOM     29  O   UNL A   1      33.100  34.347  28.831  1.00  0.00    -0.246 OA
BRANCH  28  30
ATOM     30  C   UNL A   1      34.854  32.854  28.319  1.00  0.00     0.060 A 
ATOM     31  C   UNL A   1      34.778  31.509  28.700  1.00  0.00     0.016 A 
ATOM     32  C   UNL A   1      36.081  33.522  28.305  1.00  0.00     0.016 A 
ATOM     33  C   UNL A   1      35.919  30.846  29.138  1.00  0.00     0.010 A 
ATOM     34  C   UNL A   1      37.227  32.854  28.749  1.00  0.00     0.010 A 
ATOM     35  C   UNL A   1      37.140  31.527  29.210  1.00  0.00    -0.014 A 
BRANCH  35  36
ATOM     36  C   UNL A   1      38.274  30.894  29.923  1.00  0.00     0.031 A 
ATOM     37  C   UNL A   1      38.500  31.230  31.372  1.00  0.00     0.074 A 
ATOM     38  C   UNL A   1      39.047  29.983  29.310  1.00  0.00     0.049 A 
ATOM     39  N   UNL A   1      39.402  30.771  32.202  1.00  0.00    -0.248 NA
ATOM     40  C   UNL A   1      37.584  32.217  31.965  1.00  0.00     0.031 C 
ATOM     41  C   UNL A   1      38.894  29.542  27.926  1.00  0.00     0.029 A 
ATOM     42  N   UNL A   1      40.109  29.254  29.783  1.00  0.00    -0.354 N 
ATOM     43  C   UNL A   1      39.158  31.404  33.413  1.00  0.00     0.074 A 
ATOM     44  C   UNL A   1      38.050  32.312  33.201  1.00  0.00     0.031 C 
ATOM     45  C   UNL A   1      39.826  28.612  27.660  1.00  0.00     0.029 A 
ATOM     46  C   UNL A   1      40.655  28.411  28.847  1.00  0.00     0.049 A 
ATOM     47  H   UNL A   1      40.449  29.331  30.703  1.00  0.00     0.167 HD
ATOM     48  C   UNL A   1      39.788  31.233  34.599  1.00  0.00     0.037 A 
ATOM     49  C   UNL A   1      41.706  27.575  28.943  1.00  0.00     0.037 A 
ATOM     50  C   UNL A   1      40.892  30.334  34.808  1.00  0.00     0.049 A 
ATOM     51  C   UNL A   1      42.445  27.465  30.251  1.00  0.00     0.074 A 
ATOM     52  C   UNL A   1      41.598  30.086  35.971  1.00  0.00     0.029 A 
ATOM     53  N   UNL A   1      41.455  29.539  33.821  1.00  0.00    -0.354 N 
ATOM     54  N   UNL A   1      42.196  28.054  31.395  1.00  0.00    -0.248 NA
ATOM     55  C   UNL A   1      43.610  26.569  30.279  1.00  0.00     0.031 C 
ATOM     56  C   UNL A   1      42.617  29.172  35.677  1.00  0.00     0.029 A 
ATOM     57  C   UNL A   1      42.516  28.816  34.341  1.00  0.00     0.049 A 
ATOM     58  H   UNL A   1      41.145  29.494  32.887  1.00  0.00     0.167 HD
ATOM     59  C   UNL A   1      43.152  27.581  32.285  1.00  0.00     0.074 A 
ATOM     60  C   UNL A   1      43.981  26.649  31.550  1.00  0.00     0.031 C 
ATOM     61  C   UNL A   1      43.327  27.890  33.595  1.00  0.00     0.037 A 
BRANCH  48  62
ATOM     62  C   UNL A   1      39.307  32.058  35.757  1.00  0.00     0.064 A 
ATOM     63  C   UNL A   1      39.765  33.367  35.969  1.00  0.00     0.173 A 
ATOM     64  C   UNL A   1      38.370  31.536  36.662  1.00  0.00     0.173 A 
ATOM     65  F   UNL A   1      40.673  33.906  35.141  1.00  0.00    -0.203 F 
ATOM     66  C   UNL A   1      39.328  34.112  37.062  1.00  0.00     0.198 A 
ATOM     67  C   UNL A   1      37.915  32.293  37.738  1.00  0.00     0.198 A 
ATOM     68  F   UNL A   1      37.899  30.291  36.504  1.00  0.00    -0.203 F 
ATOM     69  F   UNL A   1      39.819  35.340  37.273  1.00  0.00    -0.200 F 
ATOM     70  C   UNL A   1      38.399  33.576  37.942  1.00  0.00     0.200 A 
ATOM     71  F   UNL A   1      37.011  31.777  38.583  1.00  0.00    -0.200 F 
ATOM     72  F   UNL A   1      37.980  34.293  38.993  1.00  0.00    -0.200 F 
ENDBRANCH  48  62
BRANCH  49  73
ATOM     73  C   UNL A   1      42.117  26.768  27.767  1.00  0.00     0.064 A 
ATOM     74  C   UNL A   1      41.557  25.507  27.527  1.00  0.00     0.173 A 
ATOM     75  C   UNL A   1      43.082  27.239  26.863  1.00  0.00     0.173 A 
ATOM     76  F   UNL A   1      40.651  25.004  28.378  1.00  0.00    -0.203 F 
ATOM     77  C   UNL A   1      41.951  24.741  26.430  1.00  0.00     0.198 A 
ATOM     78  C   UNL A   1      43.458  26.482  25.755  1.00  0.00     0.198 A 
ATOM     79  F   UNL A   1      43.650  28.438  27.052  1.00  0.00    -0.203 F 
ATOM     80  F   UNL A   1      41.427  23.522  26.244  1.00  0.00    -0.200 F 
ATOM     81  C   UNL A   1      42.896  25.232  25.543  1.00  0.00     0.200 A 
ATOM     82  F   UNL A   1      44.364  26.966  24.894  1.00  0.00    -0.200 F 
ATOM     83  F   UNL A   1      43.273  24.498  24.486  1.00  0.00    -0.200 F 
ENDBRANCH  49  73
BRANCH  61  84
ATOM     84  C   UNL A   1      44.437  27.188  34.321  1.00  0.00     0.064 A 
ATOM     85  C   UNL A   1      45.716  27.753  34.432  1.00  0.00     0.173 A 
ATOM     86  C   UNL A   1      44.207  25.954  34.946  1.00  0.00     0.173 A 
ATOM     87  F   UNL A   1      45.989  28.926  33.839  1.00  0.00    -0.203 F 
ATOM     88  C   UNL A   1      46.731  27.095  35.122  1.00  0.00     0.198 A 
ATOM     89  C   UNL A   1      45.217  25.311  35.658  1.00  0.00     0.198 A 
ATOM     90  F   UNL A   1      42.999  25.374  34.876  1.00  0.00    -0.203 F 
ATOM     91  F   UNL A   1      47.958  27.632  35.176  1.00  0.00    -0.200 F 
ATOM     92  C   UNL A   1      46.479  25.878  35.739  1.00  0.00     0.200 A 
ATOM     93  F   UNL A   1      44.968  24.142  36.263  1.00  0.00    -0.200 F 
ATOM     94  F   UNL A   1      47.456  25.250  36.405  1.00  0.00    -0.200 F 
ENDBRANCH  61  84
ENDBRANCH  35  36
ENDBRANCH  28  30
ENDBRANCH  27  28
ENDBRANCH  26  27
ENDBRANCH  25  26
ENDBRANCH   1  25
TORSDOF 17
ENDMDL
MODEL 2
REMARK VINA RESULT:     -11.6      4.258      9.515
REMARK SMILES Nc1nc(N2CCOC[C@H]2C(=O)OCCOCCOC(=O)c2ccc(-c3c4nc(c(-c5c(F)c(F)c(F)c(F)c5F)c5ccc([nH]5)c(-c5c(F)c(F)c(F)c(F)c5F)c5nc(c(-c6c(F)c(F)c(F)c(F)c6F)c6ccc3[nH]6)C=C5)C=C4)cc2)ccc1[N+](=O)[O-]
REMARK SMILES IDX 16 1 15 2 14 3 13 4 11 5 12 6 10 7 5 8 6 9 7 10 9 11 8 12
REMARK SMILES IDX 4 13 2 14 3 15 87 16 86 17 85 18 1 19 88 22 89 23 90 24
REMARK SMILES IDX 17 25 18 26 19 27 20 28 21 29 22 30 23 31 84 32 24 33 83 34
REMARK SMILES IDX 25 35 26 36 27 37 77 38 28 39 82 40 76 41 78 42 29 43 81 44
REMARK SMILES IDX 75 45 74 46 30 48 62 49 42 50 61 51 43 52 46 53 60 54 79 55
REMARK SMILES IDX 44 56 45 57 59 59 80 60 47 61 31 62 32 63 40 64 33 65 34 66
REMARK SMILES IDX 38 67 41 68 35 69 36 70 39 71 37 72 63 73 64 74 72 75 65 76
REMARK SMILES IDX 66 77 70 78 73 79 67 80 68 81 71 82 69 83 48 84 49 85 57 86
REMARK SMILES IDX 50 87 51 88 55 89 58 90 52 91 53 92 56 93 54 94
REMARK H PARENT 1 20 1 21 78 47 46 58
REMARK Flexibility Score: inf
ROOT
ATOM      1  O   UNL A   1      35.771  22.617  25.386  1.00  0.00    -0.374 OA
ENDROOT
BRANCH   1   2
ATOM      2  C   UNL A   1      34.929  23.299  26.315  1.00  0.00     0.202 C 
BRANCH   2   3
ATOM      3  C   UNL A   1      33.695  22.521  26.776  1.00  0.00     0.261 C 
BRANCH   3   4
ATOM      4  O   UNL A   1      32.631  22.657  25.819  1.00  0.00    -0.462 OA
BRANCH   4   5
ATOM      5  C   UNL A   1      31.913  23.811  25.862  1.00  0.00     0.331 C 
ATOM      6  O   UNL A   1      31.594  24.387  26.899  1.00  0.00    -0.250 OA
BRANCH   5   7
ATOM      7  C   UNL A   1      31.482  24.321  24.483  1.00  0.00     0.220 C 
ATOM      8  N   UNL A   1      31.941  25.685  24.110  1.00  0.00    -0.339 N 
ATOM      9  C   UNL A   1      33.336  25.828  23.690  1.00  0.00     0.147 C 
ATOM     10  C   UNL A   1      33.699  24.746  22.670  1.00  0.00     0.181 C 
ATOM     11  C   UNL A   1      31.986  23.300  23.445  1.00  0.00     0.197 C 
ATOM     12  O   UNL A   1      33.394  23.435  23.166  1.00  0.00    -0.377 OA
BRANCH   8  13
ATOM     13  C   UNL A   1      30.999  26.642  23.804  1.00  0.00     0.132 A 
ATOM     14  C   UNL A   1      30.481  28.633  22.674  1.00  0.00     0.204 A 
ATOM     15  N   UNL A   1      31.401  27.746  23.134  1.00  0.00    -0.207 NA
ATOM     16  C   UNL A   1      29.123  28.471  22.935  1.00  0.00     0.311 A 
ATOM     17  C   UNL A   1      28.706  27.387  23.707  1.00  0.00     0.093 A 
ATOM     18  C   UNL A   1      29.657  26.467  24.136  1.00  0.00     0.054 A 
BRANCH  14  19
ATOM     19  N   UNL A   1      31.020  29.714  22.004  1.00  0.00    -0.378 N 
ATOM     20  H   UNL A   1      31.694  30.280  22.446  1.00  0.00     0.158 HD
ATOM     21  H   UNL A   1      30.731  29.917  21.086  1.00  0.00     0.158 HD
ENDBRANCH  14  19
BRANCH  16  22
ATOM     22  N   UNL A   1      28.117  29.372  22.384  1.00  0.00     0.066 N 
ATOM     23  O   UNL A   1      28.309  29.813  21.241  1.00  0.00    -0.258 OA
ATOM     24  O   UNL A   1      27.155  29.692  23.100  1.00  0.00    -0.258 OA
ENDBRANCH  16  22
ENDBRANCH   8  13
ENDBRANCH   5   7
ENDBRANCH   4   5
ENDBRANCH   3   4
ENDBRANCH   2   3
ENDBRANCH   1   2
BRANCH   1  25
ATOM     25  C   UNL A   1      35.809  21.191  25.470  1.00  0.00     0.202 C 
BRANCH  25  26
ATOM     26  C   UNL A   1      37.167  20.552  25.172  1.00  0.00     0.261 C 
BRANCH  26  27
ATOM     27  O   UNL A   1      38.227  21.527  25.154  1.00  0.00    -0.460 OA
BRANCH  27  28
ATOM     28  C   UNL A   1      39.244  21.267  26.003  1.00  0.00     0.338 C 
ATOM     29  O   UNL A   1      39.869  20.223  26.123  1.00  0.00    -0.246 OA
BRANCH  28  30
ATOM     30  C   UNL A   1      39.636  22.494  26.719  1.00  0.00     0.060 A 
ATOM     31  C   UNL A   1      38.991  23.681  26.351  1.00  0.00     0.016 A 
ATOM     32  C   UNL A   1      40.674  22.508  27.654  1.00  0.00     0.016 A 
ATOM     33  C   UNL A   1      39.430  24.897  26.864  1.00  0.00     0.010 A 
ATOM     34  C   UNL A   1      41.116  23.732  28.166  1.00  0.00     0.010 A 
ATOM     35  C   UNL A   1      40.524  24.935  27.737  1.00  0.00    -0.014 A 
BRANCH  35  36
ATOM     36  C   UNL A   1      41.141  26.243  28.057  1.00  0.00     0.031 A 
ATOM     37  C   UNL A   1      42.557  26.506  27.623  1.00  0.00     0.074 A 
ATOM     38  C   UNL A   1      40.429  27.207  28.664  1.00  0.00     0.049 A 
ATOM     39  N   UNL A   1      43.283  27.586  27.762  1.00  0.00    -0.248 NA
ATOM     40  C   UNL A   1      43.246  25.401  26.938  1.00  0.00     0.031 C 
ATOM     41  C   UNL A   1      39.036  27.085  29.088  1.00  0.00     0.029 A 
ATOM     42  N   UNL A   1      40.780  28.485  29.017  1.00  0.00    -0.354 N 
ATOM     43  C   UNL A   1      44.508  27.294  27.176  1.00  0.00     0.074 A 
ATOM     44  C   UNL A   1      44.444  25.922  26.718  1.00  0.00     0.031 C 
ATOM     45  C   UNL A   1      38.646  28.246  29.640  1.00  0.00     0.029 A 
ATOM     46  C   UNL A   1      39.769  29.182  29.629  1.00  0.00     0.049 A 
ATOM     47  H   UNL A   1      41.673  28.865  28.849  1.00  0.00     0.167 HD
ATOM     48  C   UNL A   1      45.584  28.100  27.019  1.00  0.00     0.037 A 
ATOM     49  C   UNL A   1      39.757  30.434  30.126  1.00  0.00     0.037 A 
ATOM     50  C   UNL A   1      45.650  29.463  27.479  1.00  0.00     0.049 A 
ATOM     51  C   UNL A   1      40.995  31.284  30.015  1.00  0.00     0.074 A 
ATOM     52  C   UNL A   1      46.692  30.365  27.367  1.00  0.00     0.029 A 
ATOM     53  N   UNL A   1      44.625  30.116  28.148  1.00  0.00    -0.354 N 
ATOM     54  N   UNL A   1      42.142  31.007  29.445  1.00  0.00    -0.248 NA
ATOM     55  C   UNL A   1      40.933  32.624  30.615  1.00  0.00     0.031 C 
ATOM     56  C   UNL A   1      46.314  31.551  28.008  1.00  0.00     0.029 A 
ATOM     57  C   UNL A   1      45.018  31.403  28.477  1.00  0.00     0.049 A 
ATOM     58  H   UNL A   1      43.746  29.723  28.357  1.00  0.00     0.167 HD
ATOM     59  C   UNL A   1      42.928  32.142  29.591  1.00  0.00     0.074 A 
ATOM     60  C   UNL A   1      42.122  33.118  30.296  1.00  0.00     0.031 C 
ATOM     61  C   UNL A   1      44.201  32.361  29.177  1.00  0.00     0.037 A 
BRANCH  48  62
ATOM     62  C   UNL A   1      46.787  27.516  26.339  1.00  0.00     0.064 A 
ATOM     63  C   UNL A   1      47.770  26.815  27.056  1.00  0.00     0.173 A 
ATOM     64  C   UNL A   1      46.957  27.650  24.953  1.00  0.00     0.173 A 
ATOM     65  F   UNL A   1      47.662  26.673  28.385  1.00  0.00    -0.203 F 
ATOM     66  C   UNL A   1      48.894  26.299  26.415  1.00  0.00     0.198 A 
ATOM     67  C   UNL A   1      48.068  27.109  24.311  1.00  0.00     0.198 A 
ATOM     68  F   UNL A   1      46.047  28.309  24.221  1.00  0.00    -0.203 F 
ATOM     69  F   UNL A   1      49.844  25.679  27.127  1.00  0.00    -0.200 F 
ATOM     70  C   UNL A   1      49.039  26.442  25.043  1.00  0.00     0.200 A 
ATOM     71  F   UNL A   1      48.203  27.240  22.984  1.00  0.00    -0.200 F 
ATOM     72  F   UNL A   1      50.120  25.945  24.427  1.00  0.00    -0.200 F 
ENDBRANCH  48  62
BRANCH  49  73
ATOM     73  C   UNL A   1      38.526  30.963  30.766  1.00  0.00     0.064 A 
ATOM     74  C   UNL A   1      37.495  31.517  29.997  1.00  0.00     0.173 A 
ATOM     75  C   UNL A   1      38.359  30.929  32.158  1.00  0.00     0.173 A 
ATOM     76  F   UNL A   1      37.622  31.595  28.664  1.00  0.00    -0.203 F 
ATOM     77  C   UNL A   1      36.344  32.027  30.596  1.00  0.00     0.198 A 
ATOM     78  C   UNL A   1      37.198  31.417  32.754  1.00  0.00     0.198 A 
ATOM     79  F   UNL A   1      39.319  30.412  32.938  1.00  0.00    -0.203 F 
ATOM     80  F   UNL A   1      35.389  32.585  29.840  1.00  0.00    -0.200 F 
ATOM     81  C   UNL A   1      36.194  31.970  31.973  1.00  0.00     0.200 A 
ATOM     82  F   UNL A   1      37.053  31.352  34.086  1.00  0.00    -0.200 F 
ATOM     83  F   UNL A   1      35.086  32.456  32.550  1.00  0.00    -0.200 F 
ENDBRANCH  49  73
BRANCH  61  84
ATOM     84  C   UNL A   1      44.788  33.715  29.449  1.00  0.00     0.064 A 
ATOM     85  C   UNL A   1      45.506  33.983  30.623  1.00  0.00     0.173 A 
ATOM     86  C   UNL A   1      44.662  34.745  28.504  1.00  0.00     0.173 A 
ATOM     87  F   UNL A   1      45.641  33.034  31.562  1.00  0.00    -0.203 F 
ATOM     88  C   UNL A   1      46.056  35.241  30.853  1.00  0.00     0.198 A 
ATOM     89  C   UNL A   1      45.236  35.994  28.726  1.00  0.00     0.198 A 
ATOM     90  F   UNL A   1      43.990  34.537  27.362  1.00  0.00    -0.203 F 
ATOM     91  F   UNL A   1      46.699  35.489  32.003  1.00  0.00    -0.200 F 
ATOM     92  C   UNL A   1      45.925  36.243  29.902  1.00  0.00     0.200 A 
ATOM     93  F   UNL A   1      45.119  36.957  27.802  1.00  0.00    -0.200 F 
ATOM     94  F   UNL A   1      46.459  37.452  30.125  1.00  0.00    -0.200 F 
ENDBRANCH  61  84
ENDBRANCH  35  36
ENDBRANCH  28  30
ENDBRANCH  27  28
ENDBRANCH  26  27
ENDBRANCH  25  26
ENDBRANCH   1  25
TORSDOF 17
ENDMDL
MODEL 3
REMARK VINA RESULT:     -11.6      4.917     10.395
REMARK SMILES Nc1nc(N2CCOC[C@H]2C(=O)OCCOCCOC(=O)c2ccc(-c3c4nc(c(-c5c(F)c(F)c(F)c(F)c5F)c5ccc([nH]5)c(-c5c(F)c(F)c(F)c(F)c5F)c5nc(c(-c6c(F)c(F)c(F)c(F)c6F)c6ccc3[nH]6)C=C5)C=C4)cc2)ccc1[N+](=O)[O-]
REMARK SMILES IDX 16 1 15 2 14 3 13 4 11 5 12 6 10 7 5 8 6 9 7 10 9 11 8 12
REMARK SMILES IDX 4 13 2 14 3 15 87 16 86 17 85 18 1 19 88 22 89 23 90 24
REMARK SMILES IDX 17 25 18 26 19 27 20 28 21 29 22 30 23 31 84 32 24 33 83 34
REMARK SMILES IDX 25 35 26 36 27 37 77 38 28 39 82 40 76 41 78 42 29 43 81 44
REMARK SMILES IDX 75 45 74 46 30 48 62 49 42 50 61 51 43 52 46 53 60 54 79 55
REMARK SMILES IDX 44 56 45 57 59 59 80 60 47 61 31 62 32 63 40 64 33 65 34 66
REMARK SMILES IDX 38 67 41 68 35 69 36 70 39 71 37 72 63 73 64 74 72 75 65 76
REMARK SMILES IDX 66 77 70 78 73 79 67 80 68 81 71 82 69 83 48 84 49 85 57 86
REMARK SMILES IDX 50 87 51 88 55 89 58 90 52 91 53 92 56 93 54 94
REMARK H PARENT 1 20 1 21 78 47 46 58
REMARK Flexibility Score: inf
ROOT
ATOM      1  O   UNL A   1      36.647  22.385  24.186  1.00  0.00    -0.374 OA
ENDROOT
BRANCH   1   2
ATOM      2  C   UNL A   1      36.033  23.430  24.940  1.00  0.00     0.202 C 
BRANCH   2   3
ATOM      3  C   UNL A   1      35.019  24.283  24.175  1.00  0.00     0.261 C 
BRANCH   3   4
ATOM      4  O   UNL A   1      34.389  23.505  23.143  1.00  0.00    -0.462 OA
BRANCH   4   5
ATOM      5  C   UNL A   1      33.092  23.803  22.858  1.00  0.00     0.331 C 
ATOM      6  O   UNL A   1      32.723  24.855  22.344  1.00  0.00    -0.250 OA
BRANCH   5   7
ATOM      7  C   UNL A   1      32.103  22.713  23.283  1.00  0.00     0.220 C 
ATOM      8  N   UNL A   1      32.462  21.931  24.495  1.00  0.00    -0.339 N 
ATOM      9  C   UNL A   1      32.255  22.578  25.792  1.00  0.00     0.147 C 
ATOM     10  C   UNL A   1      30.866  23.220  25.851  1.00  0.00     0.181 C 
ATOM     11  C   UNL A   1      30.737  23.397  23.489  1.00  0.00     0.197 C 
ATOM     12  O   UNL A   1      30.651  24.104  24.742  1.00  0.00    -0.377 OA
BRANCH   8  13
ATOM     13  C   UNL A   1      32.593  20.565  24.389  1.00  0.00     0.132 A 
ATOM     14  C   UNL A   1      32.517  18.660  23.018  1.00  0.00     0.204 A 
ATOM     15  N   UNL A   1      32.253  19.977  23.218  1.00  0.00    -0.207 NA
ATOM     16  C   UNL A   1      33.071  17.871  24.022  1.00  0.00     0.311 A 
ATOM     17  C   UNL A   1      33.337  18.444  25.265  1.00  0.00     0.093 A 
ATOM     18  C   UNL A   1      33.099  19.803  25.440  1.00  0.00     0.054 A 
BRANCH  14  19
ATOM     19  N   UNL A   1      32.125  18.184  21.783  1.00  0.00    -0.378 N 
ATOM     20  H   UNL A   1      31.892  17.233  21.673  1.00  0.00     0.158 HD
ATOM     21  H   UNL A   1      32.078  18.795  21.013  1.00  0.00     0.158 HD
ENDBRANCH  14  19
BRANCH  16  22
ATOM     22  N   UNL A   1      33.431  16.475  23.799  1.00  0.00     0.066 N 
ATOM     23  O   UNL A   1      34.104  16.213  22.791  1.00  0.00    -0.258 OA
ATOM     24  O   UNL A   1      33.005  15.620  24.591  1.00  0.00    -0.258 OA
ENDBRANCH  16  22
ENDBRANCH   8  13
ENDBRANCH   5   7
ENDBRANCH   4   5
ENDBRANCH   3   4
ENDBRANCH   2   3
ENDBRANCH   1   2
BRANCH   1  25
ATOM     25  C   UNL A   1      36.489  21.052  24.676  1.00  0.00     0.202 C 
BRANCH  25  26
ATOM     26  C   UNL A   1      37.717  20.459  25.370  1.00  0.00     0.261 C 
BRANCH  26  27
ATOM     27  O   UNL A   1      38.843  21.354  25.329  1.00  0.00    -0.460 OA
BRANCH  27  28
ATOM     28  C   UNL A   1      39.775  21.130  26.280  1.00  0.00     0.338 C 
ATOM     29  O   UNL A   1      40.368  20.087  26.514  1.00  0.00    -0.246 OA
BRANCH  28  30
ATOM     30  C   UNL A   1      40.120  22.390  26.962  1.00  0.00     0.060 A 
ATOM     31  C   UNL A   1      39.452  23.546  26.542  1.00  0.00     0.016 A 
ATOM     32  C   UNL A   1      41.140  22.463  27.915  1.00  0.00     0.016 A 
ATOM     33  C   UNL A   1      39.849  24.791  27.022  1.00  0.00     0.010 A 
ATOM     34  C   UNL A   1      41.540  23.715  28.393  1.00  0.00     0.010 A 
ATOM     35  C   UNL A   1      40.925  24.886  27.913  1.00  0.00    -0.014 A 
BRANCH  35  36
ATOM     36  C   UNL A   1      41.501  26.220  28.201  1.00  0.00     0.031 A 
ATOM     37  C   UNL A   1      42.881  26.541  27.696  1.00  0.00     0.074 A 
ATOM     38  C   UNL A   1      40.780  27.155  28.841  1.00  0.00     0.049 A 
ATOM     39  N   UNL A   1      43.567  27.651  27.797  1.00  0.00    -0.248 NA
ATOM     40  C   UNL A   1      43.582  25.464  26.979  1.00  0.00     0.031 C 
ATOM     41  C   UNL A   1      39.417  26.976  29.335  1.00  0.00     0.029 A 
ATOM     42  N   UNL A   1      41.095  28.448  29.175  1.00  0.00    -0.354 N 
ATOM     43  C   UNL A   1      44.773  27.409  27.151  1.00  0.00     0.074 A 
ATOM     44  C   UNL A   1      44.743  26.035  26.699  1.00  0.00     0.031 C 
ATOM     45  C   UNL A   1      39.007  28.121  29.904  1.00  0.00     0.029 A 
ATOM     46  C   UNL A   1      40.086  29.104  29.836  1.00  0.00     0.049 A 
ATOM     47  H   UNL A   1      41.961  28.865  28.962  1.00  0.00     0.167 HD
ATOM     48  C   UNL A   1      45.805  28.260  26.939  1.00  0.00     0.037 A 
ATOM     49  C   UNL A   1      40.047  30.356  30.331  1.00  0.00     0.037 A 
ATOM     50  C   UNL A   1      45.835  29.625  27.394  1.00  0.00     0.049 A 
ATOM     51  C   UNL A   1      41.241  31.257  30.157  1.00  0.00     0.074 A 
ATOM     52  C   UNL A   1      46.832  30.571  27.229  1.00  0.00     0.029 A 
ATOM     53  N   UNL A   1      44.819  30.237  28.112  1.00  0.00    -0.354 N 
ATOM     54  N   UNL A   1      42.369  31.027  29.531  1.00  0.00    -0.248 NA
ATOM     55  C   UNL A   1      41.152  32.595  30.758  1.00  0.00     0.031 C 
ATOM     56  C   UNL A   1      46.436  31.742  27.886  1.00  0.00     0.029 A 
ATOM     57  C   UNL A   1      45.173  31.540  28.420  1.00  0.00     0.049 A 
ATOM     58  H   UNL A   1      43.969  29.808  28.366  1.00  0.00     0.167 HD
ATOM     59  C   UNL A   1      43.112  32.195  29.636  1.00  0.00     0.074 A 
ATOM     60  C   UNL A   1      42.302  33.137  30.380  1.00  0.00     0.031 C 
ATOM     61  C   UNL A   1      44.352  32.465  29.158  1.00  0.00     0.037 A 
BRANCH  48  62
ATOM     62  C   UNL A   1      46.996  27.724  26.201  1.00  0.00     0.064 A 
ATOM     63  C   UNL A   1      48.103  27.190  26.878  1.00  0.00     0.173 A 
ATOM     64  C   UNL A   1      47.029  27.737  24.798  1.00  0.00     0.173 A 
ATOM     65  F   UNL A   1      48.127  27.170  28.219  1.00  0.00    -0.203 F 
ATOM     66  C   UNL A   1      49.212  26.719  26.180  1.00  0.00     0.198 A 
ATOM     67  C   UNL A   1      48.127  27.240  24.103  1.00  0.00     0.198 A 
ATOM     68  F   UNL A   1      45.996  28.235  24.103  1.00  0.00    -0.203 F 
ATOM     69  F   UNL A   1      50.279  26.262  26.849  1.00  0.00    -0.200 F 
ATOM     70  C   UNL A   1      49.221  26.739  24.793  1.00  0.00     0.200 A 
ATOM     71  F   UNL A   1      48.131  27.252  22.762  1.00  0.00    -0.200 F 
ATOM     72  F   UNL A   1      50.289  26.286  24.122  1.00  0.00    -0.200 F 
ENDBRANCH  48  62
BRANCH  49  73
ATOM     73  C   UNL A   1      38.828  30.834  31.032  1.00  0.00     0.064 A 
ATOM     74  C   UNL A   1      38.713  30.740  32.424  1.00  0.00     0.173 A 
ATOM     75  C   UNL A   1      37.753  31.390  30.322  1.00  0.00     0.173 A 
ATOM     76  F   UNL A   1      39.704  30.192  33.142  1.00  0.00    -0.203 F 
ATOM     77  C   UNL A   1      37.564  31.176  33.083  1.00  0.00     0.198 A 
ATOM     78  C   UNL A   1      36.615  31.848  30.983  1.00  0.00     0.198 A 
ATOM     79  F   UNL A   1      37.814  31.499  28.987  1.00  0.00    -0.203 F 
ATOM     80  F   UNL A   1      37.464  31.041  34.412  1.00  0.00    -0.200 F 
ATOM     81  C   UNL A   1      36.520  31.735  32.362  1.00  0.00     0.200 A 
ATOM     82  F   UNL A   1      35.612  32.397  30.284  1.00  0.00    -0.200 F 
ATOM     83  F   UNL A   1      35.417  32.159  32.995  1.00  0.00    -0.200 F 
ENDBRANCH  49  73
BRANCH  61  84
ATOM     84  C   UNL A   1      44.894  33.844  29.399  1.00  0.00     0.064 A 
ATOM     85  C   UNL A   1      45.678  34.140  30.524  1.00  0.00     0.173 A 
ATOM     86  C   UNL A   1      44.658  34.870  28.473  1.00  0.00     0.173 A 
ATOM     87  F   UNL A   1      45.920  33.195  31.445  1.00  0.00    -0.203 F 
ATOM     88  C   UNL A   1      46.184  35.421  30.724  1.00  0.00     0.198 A 
ATOM     89  C   UNL A   1      45.188  36.144  28.664  1.00  0.00     0.198 A 
ATOM     90  F   UNL A   1      43.920  34.636  27.377  1.00  0.00    -0.203 F 
ATOM     91  F   UNL A   1      46.892  35.694  31.829  1.00  0.00    -0.200 F 
ATOM     92  C   UNL A   1      45.944  36.420  29.792  1.00  0.00     0.200 A 
ATOM     93  F   UNL A   1      44.965  37.103  27.756  1.00  0.00    -0.200 F 
ATOM     94  F   UNL A   1      46.436  37.651  29.986  1.00  0.00    -0.200 F 
ENDBRANCH  61  84
ENDBRANCH  35  36
ENDBRANCH  28  30
ENDBRANCH  27  28
ENDBRANCH  26  27
ENDBRANCH  25  26
ENDBRANCH   1  25
TORSDOF 17
ENDMDL
