MODEL 1
REMARK VINA RESULT:     -12.6      0.000      0.000
REMARK SMILES CC(C)[C@H](NC(=O)c1cc2cc(Cl)ccc2n1C)C(=O)N[C@@H](C(=O)OCCOCCOC(=O)c1ccc(-c2c3nc(c(-c4c(F)c(F)c(F)c(F)c4F)c4ccc([nH]4)c(-c4c(F)c(F)c(F)c(F)c4F)c4nc(c(-c5c(F)c(F)c(F)c(F)c5F)c5ccc2[nH]5)C=C4)C=C3)cc1)c1ccccc1
REMARK SMILES IDX 27 1 26 2 25 3 23 4 24 5 22 6 21 7 19 8 20 9 4 11 2 12 1 13
REMARK SMILES IDX 3 14 5 15 6 16 7 18 8 19 9 20 17 21 10 22 16 23 18 24 11 25
REMARK SMILES IDX 15 26 12 27 14 28 13 29 97 30 98 31 102 32 99 33 101 34
REMARK SMILES IDX 100 35 28 36 29 37 30 38 31 39 32 40 33 41 34 42 35 43 96 44
REMARK SMILES IDX 36 45 95 46 37 47 38 48 39 49 89 50 40 51 94 52 88 53 90 54
REMARK SMILES IDX 41 55 93 56 87 57 86 58 42 60 74 61 54 62 73 63 55 64 58 65
REMARK SMILES IDX 72 66 91 67 56 68 57 69 71 71 92 72 59 73 43 74 44 75 52 76
REMARK SMILES IDX 45 77 46 78 50 79 53 80 47 81 48 82 51 83 49 84 75 85 76 86
REMARK SMILES IDX 84 87 77 88 78 89 82 90 85 91 79 92 80 93 83 94 81 95 60 96
REMARK SMILES IDX 61 97 69 98 62 99 63 100 67 101 70 102 64 103 65 104 68 105
REMARK SMILES IDX 66 106
REMARK H PARENT 21 10 5 17 90 59 58 70
REMARK Flexibility Score: inf
ROOT
ATOM      1  C   UNL A   1      33.625  29.053  23.166  1.00  0.00     0.202 C 
ENDROOT
BRANCH   1   2
ATOM      2  C   UNL A   1      34.032  27.826  22.341  1.00  0.00     0.261 C 
BRANCH   2   3
ATOM      3  O   UNL A   1      32.932  26.947  22.092  1.00  0.00    -0.461 OA
BRANCH   3   4
ATOM      4  C   UNL A   1      33.253  25.631  22.181  1.00  0.00     0.333 C 
ATOM      5  O   UNL A   1      33.587  24.927  21.233  1.00  0.00    -0.249 OA
BRANCH   4   6
ATOM      6  C   UNL A   1      33.250  25.113  23.626  1.00  0.00     0.223 C 
BRANCH   6   7
ATOM      7  N   UNL A   1      32.995  26.017  24.746  1.00  0.00    -0.337 N 
ATOM      8  C   UNL A   1      31.989  25.965  25.660  1.00  0.00     0.243 C 
ATOM      9  O   UNL A   1      32.298  26.236  26.827  1.00  0.00    -0.273 OA
ATOM     10  H   UNL A   1      33.633  26.759  24.852  1.00  0.00     0.164 HD
BRANCH   8  11
ATOM     11  C   UNL A   1      30.544  25.548  25.318  1.00  0.00     0.174 C 
BRANCH  11  12
ATOM     12  C   UNL A   1      29.631  26.703  24.782  1.00  0.00     0.015 C 
ATOM     13  C   UNL A   1      30.233  27.721  23.802  1.00  0.00     0.010 C 
ATOM     14  C   UNL A   1      28.318  26.178  24.181  1.00  0.00     0.010 C 
ENDBRANCH  11  12
BRANCH  11  15
ATOM     15  N   UNL A   1      29.946  24.749  26.390  1.00  0.00    -0.339 N 
ATOM     16  C   UNL A   1      30.159  23.454  26.803  1.00  0.00     0.268 C 
ATOM     17  H   UNL A   1      29.264  25.229  26.913  1.00  0.00     0.164 HD
ATOM     18  O   UNL A   1      29.387  23.044  27.673  1.00  0.00    -0.268 OA
BRANCH  16  19
ATOM     19  C   UNL A   1      31.178  22.582  26.238  1.00  0.00     0.107 A 
ATOM     20  C   UNL A   1      30.925  21.540  25.343  1.00  0.00     0.042 A 
ATOM     21  N   UNL A   1      32.494  22.400  26.622  1.00  0.00    -0.340 N 
ATOM     22  C   UNL A   1      32.118  20.806  25.109  1.00  0.00     0.002 A 
ATOM     23  C   UNL A   1      33.115  21.428  25.852  1.00  0.00     0.048 A 
ATOM     24  C   UNL A   1      33.111  22.874  27.839  1.00  0.00     0.150 C 
ATOM     25  C   UNL A   1      32.446  19.657  24.358  1.00  0.00     0.030 A 
ATOM     26  C   UNL A   1      34.452  20.995  25.829  1.00  0.00     0.028 A 
ATOM     27  C   UNL A   1      33.771  19.202  24.354  1.00  0.00     0.041 A 
ATOM     28  C   UNL A   1      34.764  19.871  25.061  1.00  0.00     0.023 A 
ATOM     29  Cl  UNL A   1      34.180  17.781  23.468  1.00  0.00    -0.084 Cl
ENDBRANCH  16  19
ENDBRANCH  11  15
ENDBRANCH   8  11
ENDBRANCH   6   7
BRANCH   6  30
ATOM     30  C   UNL A   1      34.532  24.355  23.969  1.00  0.00    -0.014 A 
ATOM     31  C   UNL A   1      35.178  24.635  25.185  1.00  0.00     0.006 A 
ATOM     32  C   UNL A   1      35.152  23.473  23.070  1.00  0.00     0.006 A 
ATOM     33  C   UNL A   1      36.399  24.041  25.500  1.00  0.00     0.000 A 
ATOM     34  C   UNL A   1      36.371  22.873  23.391  1.00  0.00     0.000 A 
ATOM     35  C   UNL A   1      36.993  23.158  24.604  1.00  0.00     0.000 A 
ENDBRANCH   6  30
ENDBRANCH   4   6
ENDBRANCH   3   4
ENDBRANCH   2   3
ENDBRANCH   1   2
BRANCH   1  36
ATOM     36  O   UNL A   1      33.601  28.927  24.585  1.00  0.00    -0.374 OA
BRANCH  36  37
ATOM     37  C   UNL A   1      32.634  29.696  25.312  1.00  0.00     0.202 C 
BRANCH  37  38
ATOM     38  C   UNL A   1      32.989  30.197  26.721  1.00  0.00     0.261 C 
BRANCH  38  39
ATOM     39  O   UNL A   1      34.412  30.265  26.888  1.00  0.00    -0.460 OA
BRANCH  39  40
ATOM     40  C   UNL A   1      34.847  31.232  27.742  1.00  0.00     0.338 C 
ATOM     41  O   UNL A   1      34.209  32.165  28.191  1.00  0.00    -0.246 OA
BRANCH  40  42
ATOM     42  C   UNL A   1      36.080  30.680  28.332  1.00  0.00     0.060 A 
ATOM     43  C   UNL A   1      37.039  31.529  28.887  1.00  0.00     0.016 A 
ATOM     44  C   UNL A   1      36.393  29.355  27.985  1.00  0.00     0.016 A 
ATOM     45  C   UNL A   1      38.344  31.070  29.000  1.00  0.00     0.010 A 
ATOM     46  C   UNL A   1      37.709  28.915  28.062  1.00  0.00     0.010 A 
ATOM     47  C   UNL A   1      38.692  29.788  28.531  1.00  0.00    -0.014 A 
BRANCH  47  48
ATOM     48  C   UNL A   1      40.069  29.346  28.761  1.00  0.00     0.031 A 
ATOM     49  C   UNL A   1      40.355  29.112  30.202  1.00  0.00     0.074 A 
ATOM     50  C   UNL A   1      41.002  29.034  27.838  1.00  0.00     0.049 A 
ATOM     51  N   UNL A   1      41.245  29.679  30.948  1.00  0.00    -0.248 NA
ATOM     52  C   UNL A   1      39.448  28.202  30.919  1.00  0.00     0.031 C 
ATOM     53  C   UNL A   1      40.849  28.897  26.389  1.00  0.00     0.029 A 
ATOM     54  N   UNL A   1      42.310  28.683  28.044  1.00  0.00    -0.354 N 
ATOM     55  C   UNL A   1      41.098  29.106  32.206  1.00  0.00     0.074 A 
ATOM     56  C   UNL A   1      39.908  28.296  32.163  1.00  0.00     0.031 C 
ATOM     57  C   UNL A   1      41.957  28.307  25.878  1.00  0.00     0.029 A 
ATOM     58  C   UNL A   1      42.941  28.132  26.938  1.00  0.00     0.049 A 
ATOM     59  H   UNL A   1      42.766  28.812  28.907  1.00  0.00     0.167 HD
ATOM     60  C   UNL A   1      42.070  29.179  33.149  1.00  0.00     0.037 A 
ATOM     61  C   UNL A   1      44.152  27.521  26.915  1.00  0.00     0.037 A 
ATOM     62  C   UNL A   1      42.983  30.260  32.905  1.00  0.00     0.049 A 
ATOM     63  C   UNL A   1      44.903  27.944  28.120  1.00  0.00     0.074 A 
ATOM     64  C   UNL A   1      42.865  31.634  32.834  1.00  0.00     0.029 A 
ATOM     65  N   UNL A   1      44.212  29.964  32.376  1.00  0.00    -0.354 N 
ATOM     66  N   UNL A   1      45.405  29.131  28.304  1.00  0.00    -0.248 NA
ATOM     67  C   UNL A   1      44.823  27.107  29.308  1.00  0.00     0.031 C 
ATOM     68  C   UNL A   1      43.822  32.045  31.861  1.00  0.00     0.029 A 
ATOM     69  C   UNL A   1      44.475  30.898  31.410  1.00  0.00     0.049 A 
ATOM     70  H   UNL A   1      44.797  29.219  32.642  1.00  0.00     0.167 HD
ATOM     71  C   UNL A   1      45.307  29.342  29.668  1.00  0.00     0.074 A 
ATOM     72  C   UNL A   1      45.070  28.024  30.244  1.00  0.00     0.031 C 
ATOM     73  C   UNL A   1      45.151  30.599  30.170  1.00  0.00     0.037 A 
BRANCH  60  74
ATOM     74  C   UNL A   1      42.372  28.055  34.103  1.00  0.00     0.064 A 
ATOM     75  C   UNL A   1      43.032  26.904  33.636  1.00  0.00     0.173 A 
ATOM     76  C   UNL A   1      41.784  27.950  35.383  1.00  0.00     0.173 A 
ATOM     77  F   UNL A   1      43.589  26.883  32.416  1.00  0.00    -0.203 F 
ATOM     78  C   UNL A   1      43.051  25.718  34.375  1.00  0.00     0.198 A 
ATOM     79  C   UNL A   1      41.857  26.786  36.142  1.00  0.00     0.198 A 
ATOM     80  F   UNL A   1      41.022  28.924  35.897  1.00  0.00    -0.203 F 
ATOM     81  F   UNL A   1      43.584  24.611  33.842  1.00  0.00    -0.200 F 
ATOM     82  C   UNL A   1      42.464  25.661  35.627  1.00  0.00     0.200 A 
ATOM     83  F   UNL A   1      41.260  26.743  37.342  1.00  0.00    -0.200 F 
ATOM     84  F   UNL A   1      42.435  24.512  36.313  1.00  0.00    -0.200 F 
ENDBRANCH  60  74
BRANCH  61  85
ATOM     85  C   UNL A   1      44.642  26.402  26.071  1.00  0.00     0.064 A 
ATOM     86  C   UNL A   1      45.896  26.469  25.434  1.00  0.00     0.173 A 
ATOM     87  C   UNL A   1      44.037  25.134  26.121  1.00  0.00     0.173 A 
ATOM     88  F   UNL A   1      46.564  27.631  25.374  1.00  0.00    -0.203 F 
ATOM     89  C   UNL A   1      46.523  25.329  24.921  1.00  0.00     0.198 A 
ATOM     90  C   UNL A   1      44.660  23.998  25.599  1.00  0.00     0.198 A 
ATOM     91  F   UNL A   1      42.877  24.951  26.768  1.00  0.00    -0.203 F 
ATOM     92  F   UNL A   1      47.751  25.422  24.391  1.00  0.00    -0.200 F 
ATOM     93  C   UNL A   1      45.910  24.091  25.015  1.00  0.00     0.200 A 
ATOM     94  F   UNL A   1      44.071  22.800  25.727  1.00  0.00    -0.200 F 
ATOM     95  F   UNL A   1      46.538  22.989  24.587  1.00  0.00    -0.200 F 
ENDBRANCH  61  85
BRANCH  73  96
ATOM     96  C   UNL A   1      45.440  31.756  29.260  1.00  0.00     0.064 A 
ATOM     97  C   UNL A   1      46.703  32.361  29.132  1.00  0.00     0.173 A 
ATOM     98  C   UNL A   1      44.428  32.175  28.384  1.00  0.00     0.173 A 
ATOM     99  F   UNL A   1      47.743  31.950  29.870  1.00  0.00    -0.203 F 
ATOM    100  C   UNL A   1      46.926  33.365  28.192  1.00  0.00     0.198 A 
ATOM    101  C   UNL A   1      44.666  33.151  27.422  1.00  0.00     0.198 A 
ATOM    102  F   UNL A   1      43.217  31.598  28.431  1.00  0.00    -0.203 F 
ATOM    103  F   UNL A   1      48.134  33.938  28.095  1.00  0.00    -0.200 F 
ATOM    104  C   UNL A   1      45.911  33.751  27.332  1.00  0.00     0.200 A 
ATOM    105  F   UNL A   1      43.695  33.489  26.561  1.00  0.00    -0.200 F 
ATOM    106  F   UNL A   1      46.140  34.685  26.397  1.00  0.00    -0.200 F 
ENDBRANCH  73  96
ENDBRANCH  47  48
ENDBRANCH  40  42
ENDBRANCH  39  40
ENDBRANCH  38  39
ENDBRANCH  37  38
ENDBRANCH  36  37
ENDBRANCH   1  36
TORSDOF 20
ENDMDL
MODEL 2
REMARK VINA RESULT:     -12.1      3.402      8.813
REMARK SMILES CC(C)[C@H](NC(=O)c1cc2cc(Cl)ccc2n1C)C(=O)N[C@@H](C(=O)OCCOCCOC(=O)c1ccc(-c2c3nc(c(-c4c(F)c(F)c(F)c(F)c4F)c4ccc([nH]4)c(-c4c(F)c(F)c(F)c(F)c4F)c4nc(c(-c5c(F)c(F)c(F)c(F)c5F)c5ccc2[nH]5)C=C4)C=C3)cc1)c1ccccc1
REMARK SMILES IDX 27 1 26 2 25 3 23 4 24 5 22 6 21 7 19 8 20 9 4 11 2 12 1 13
REMARK SMILES IDX 3 14 5 15 6 16 7 18 8 19 9 20 17 21 10 22 16 23 18 24 11 25
REMARK SMILES IDX 15 26 12 27 14 28 13 29 97 30 98 31 102 32 99 33 101 34
REMARK SMILES IDX 100 35 28 36 29 37 30 38 31 39 32 40 33 41 34 42 35 43 96 44
REMARK SMILES IDX 36 45 95 46 37 47 38 48 39 49 89 50 40 51 94 52 88 53 90 54
REMARK SMILES IDX 41 55 93 56 87 57 86 58 42 60 74 61 54 62 73 63 55 64 58 65
REMARK SMILES IDX 72 66 91 67 56 68 57 69 71 71 92 72 59 73 43 74 44 75 52 76
REMARK SMILES IDX 45 77 46 78 50 79 53 80 47 81 48 82 51 83 49 84 75 85 76 86
REMARK SMILES IDX 84 87 77 88 78 89 82 90 85 91 79 92 80 93 83 94 81 95 60 96
REMARK SMILES IDX 61 97 69 98 62 99 63 100 67 101 70 102 64 103 65 104 68 105
REMARK SMILES IDX 66 106
REMARK H PARENT 21 10 5 17 90 59 58 70
REMARK Flexibility Score: inf
ROOT
ATOM      1  C   UNL A   1      37.520  21.906  24.919  1.00  0.00     0.202 C 
ENDROOT
BRANCH   1   2
ATOM      2  C   UNL A   1      36.153  22.224  25.537  1.00  0.00     0.261 C 
BRANCH   2   3
ATOM      3  O   UNL A   1      35.546  21.078  26.138  1.00  0.00    -0.461 OA
BRANCH   3   4
ATOM      4  C   UNL A   1      34.190  21.086  26.086  1.00  0.00     0.333 C 
ATOM      5  O   UNL A   1      33.455  21.325  27.040  1.00  0.00    -0.249 OA
BRANCH   4   6
ATOM      6  C   UNL A   1      33.646  20.856  24.669  1.00  0.00     0.223 C 
BRANCH   6   7
ATOM      7  N   UNL A   1      32.358  21.412  24.261  1.00  0.00    -0.337 N 
ATOM      8  C   UNL A   1      32.116  22.534  23.531  1.00  0.00     0.243 C 
ATOM      9  O   UNL A   1      31.204  22.457  22.700  1.00  0.00    -0.273 OA
ATOM     10  H   UNL A   1      31.563  20.910  24.553  1.00  0.00     0.164 HD
BRANCH   8  11
ATOM     11  C   UNL A   1      32.938  23.832  23.662  1.00  0.00     0.174 C 
BRANCH  11  12
ATOM     12  C   UNL A   1      32.450  24.816  24.779  1.00  0.00     0.015 C 
ATOM     13  C   UNL A   1      30.983  24.749  25.227  1.00  0.00     0.010 C 
ATOM     14  C   UNL A   1      33.337  24.763  26.033  1.00  0.00     0.010 C 
ENDBRANCH  11  12
BRANCH  11  15
ATOM     15  N   UNL A   1      33.167  24.459  22.358  1.00  0.00    -0.339 N 
ATOM     16  C   UNL A   1      33.166  25.774  21.955  1.00  0.00     0.268 C 
ATOM     17  H   UNL A   1      33.357  23.819  21.634  1.00  0.00     0.164 HD
ATOM     18  O   UNL A   1      33.275  25.954  20.740  1.00  0.00    -0.268 OA
BRANCH  16  19
ATOM     19  C   UNL A   1      32.996  26.899  22.864  1.00  0.00     0.107 A 
ATOM     20  C   UNL A   1      33.927  27.287  23.830  1.00  0.00     0.042 A 
ATOM     21  N   UNL A   1      31.860  27.627  23.161  1.00  0.00    -0.340 N 
ATOM     22  C   UNL A   1      33.383  28.325  24.632  1.00  0.00     0.002 A 
ATOM     23  C   UNL A   1      32.115  28.588  24.129  1.00  0.00     0.048 A 
ATOM     24  C   UNL A   1      30.500  27.290  22.806  1.00  0.00     0.150 C 
ATOM     25  C   UNL A   1      33.834  29.051  25.755  1.00  0.00     0.030 A 
ATOM     26  C   UNL A   1      31.291  29.599  24.654  1.00  0.00     0.028 A 
ATOM     27  C   UNL A   1      33.005  30.039  26.303  1.00  0.00     0.041 A 
ATOM     28  C   UNL A   1      31.762  30.324  25.751  1.00  0.00     0.023 A 
ATOM     29  Cl  UNL A   1      33.528  30.911  27.695  1.00  0.00    -0.084 Cl
ENDBRANCH  16  19
ENDBRANCH  11  15
ENDBRANCH   8  11
ENDBRANCH   6   7
BRANCH   6  30
ATOM     30  C   UNL A   1      33.612  19.374  24.298  1.00  0.00    -0.014 A 
ATOM     31  C   UNL A   1      34.715  18.569  24.628  1.00  0.00     0.006 A 
ATOM     32  C   UNL A   1      32.574  18.808  23.541  1.00  0.00     0.006 A 
ATOM     33  C   UNL A   1      34.774  17.236  24.225  1.00  0.00     0.000 A 
ATOM     34  C   UNL A   1      32.631  17.470  23.146  1.00  0.00     0.000 A 
ATOM     35  C   UNL A   1      33.729  16.686  23.488  1.00  0.00     0.000 A 
ENDBRANCH   6  30
ENDBRANCH   4   6
ENDBRANCH   3   4
ENDBRANCH   2   3
ENDBRANCH   1   2
BRANCH   1  36
ATOM     36  O   UNL A   1      38.686  22.300  25.636  1.00  0.00    -0.374 OA
BRANCH  36  37
ATOM     37  C   UNL A   1      39.544  21.269  26.141  1.00  0.00     0.202 C 
BRANCH  37  38
ATOM     38  C   UNL A   1      41.067  21.458  26.053  1.00  0.00     0.261 C 
BRANCH  38  39
ATOM     39  O   UNL A   1      41.436  22.776  26.484  1.00  0.00    -0.460 OA
BRANCH  39  40
ATOM     40  C   UNL A   1      42.425  23.365  25.757  1.00  0.00     0.338 C 
ATOM     41  O   UNL A   1      42.923  22.964  24.723  1.00  0.00    -0.246 OA
BRANCH  40  42
ATOM     42  C   UNL A   1      42.456  24.760  26.234  1.00  0.00     0.060 A 
ATOM     43  C   UNL A   1      43.122  25.087  27.416  1.00  0.00     0.016 A 
ATOM     44  C   UNL A   1      41.513  25.631  25.663  1.00  0.00     0.016 A 
ATOM     45  C   UNL A   1      42.761  26.251  28.079  1.00  0.00     0.010 A 
ATOM     46  C   UNL A   1      41.126  26.774  26.353  1.00  0.00     0.010 A 
ATOM     47  C   UNL A   1      41.722  27.063  27.582  1.00  0.00    -0.014 A 
BRANCH  47  48
ATOM     48  C   UNL A   1      41.456  28.315  28.292  1.00  0.00     0.031 A 
ATOM     49  C   UNL A   1      42.524  29.328  28.070  1.00  0.00     0.074 A 
ATOM     50  C   UNL A   1      40.348  28.656  28.982  1.00  0.00     0.049 A 
ATOM     51  N   UNL A   1      43.277  29.906  28.946  1.00  0.00    -0.248 NA
ATOM     52  C   UNL A   1      42.857  29.646  26.673  1.00  0.00     0.031 C 
ATOM     53  C   UNL A   1      39.070  27.949  29.071  1.00  0.00     0.029 A 
ATOM     54  N   UNL A   1      40.120  29.799  29.701  1.00  0.00    -0.354 N 
ATOM     55  C   UNL A   1      44.101  30.762  28.223  1.00  0.00     0.074 A 
ATOM     56  C   UNL A   1      43.884  30.476  26.828  1.00  0.00     0.031 C 
ATOM     57  C   UNL A   1      38.147  28.767  29.634  1.00  0.00     0.029 A 
ATOM     58  C   UNL A   1      38.792  30.005  30.050  1.00  0.00     0.049 A 
ATOM     59  H   UNL A   1      40.838  30.423  29.952  1.00  0.00     0.167 HD
ATOM     60  C   UNL A   1      44.769  31.786  28.810  1.00  0.00     0.037 A 
ATOM     61  C   UNL A   1      38.258  31.134  30.580  1.00  0.00     0.037 A 
ATOM     62  C   UNL A   1      44.922  31.594  30.224  1.00  0.00     0.049 A 
ATOM     63  C   UNL A   1      39.360  31.930  31.168  1.00  0.00     0.074 A 
ATOM     64  C   UNL A   1      45.551  30.653  31.015  1.00  0.00     0.029 A 
ATOM     65  N   UNL A   1      44.106  32.302  31.067  1.00  0.00    -0.354 N 
ATOM     66  N   UNL A   1      40.005  31.618  32.255  1.00  0.00    -0.248 NA
ATOM     67  C   UNL A   1      39.983  32.955  30.343  1.00  0.00     0.031 C 
ATOM     68  C   UNL A   1      44.748  30.547  32.186  1.00  0.00     0.029 A 
ATOM     69  C   UNL A   1      43.687  31.441  32.046  1.00  0.00     0.049 A 
ATOM     70  H   UNL A   1      43.866  33.252  30.984  1.00  0.00     0.167 HD
ATOM     71  C   UNL A   1      41.291  32.081  32.041  1.00  0.00     0.074 A 
ATOM     72  C   UNL A   1      41.185  33.004  30.919  1.00  0.00     0.031 C 
ATOM     73  C   UNL A   1      42.360  31.459  32.614  1.00  0.00     0.037 A 
BRANCH  60  74
ATOM     74  C   UNL A   1      44.983  33.116  28.138  1.00  0.00     0.064 A 
ATOM     75  C   UNL A   1      46.284  33.512  27.776  1.00  0.00     0.173 A 
ATOM     76  C   UNL A   1      44.000  34.129  28.101  1.00  0.00     0.173 A 
ATOM     77  F   UNL A   1      47.300  32.638  27.818  1.00  0.00    -0.203 F 
ATOM     78  C   UNL A   1      46.584  34.838  27.454  1.00  0.00     0.198 A 
ATOM     79  C   UNL A   1      44.291  35.436  27.721  1.00  0.00     0.198 A 
ATOM     80  F   UNL A   1      42.750  33.923  28.537  1.00  0.00    -0.203 F 
ATOM     81  F   UNL A   1      47.855  35.196  27.233  1.00  0.00    -0.200 F 
ATOM     82  C   UNL A   1      45.588  35.797  27.426  1.00  0.00     0.200 A 
ATOM     83  F   UNL A   1      43.316  36.356  27.725  1.00  0.00    -0.200 F 
ATOM     84  F   UNL A   1      45.883  37.078  27.171  1.00  0.00    -0.200 F 
ENDBRANCH  60  74
BRANCH  61  85
ATOM     85  C   UNL A   1      36.904  31.720  30.413  1.00  0.00     0.064 A 
ATOM     86  C   UNL A   1      36.003  31.784  31.493  1.00  0.00     0.173 A 
ATOM     87  C   UNL A   1      36.583  32.500  29.288  1.00  0.00     0.173 A 
ATOM     88  F   UNL A   1      36.250  31.102  32.623  1.00  0.00    -0.203 F 
ATOM     89  C   UNL A   1      34.876  32.611  31.464  1.00  0.00     0.198 A 
ATOM     90  C   UNL A   1      35.451  33.318  29.256  1.00  0.00     0.198 A 
ATOM     91  F   UNL A   1      37.412  32.564  28.237  1.00  0.00    -0.203 F 
ATOM     92  F   UNL A   1      34.084  32.702  32.542  1.00  0.00    -0.200 F 
ATOM     93  C   UNL A   1      34.607  33.387  30.350  1.00  0.00     0.200 A 
ATOM     94  F   UNL A   1      35.221  34.091  28.186  1.00  0.00    -0.200 F 
ATOM     95  F   UNL A   1      33.567  34.232  30.347  1.00  0.00    -0.200 F 
ENDBRANCH  61  85
BRANCH  73  96
ATOM     96  C   UNL A   1      42.093  30.506  33.742  1.00  0.00     0.064 A 
ATOM     97  C   UNL A   1      41.686  29.171  33.565  1.00  0.00     0.173 A 
ATOM     98  C   UNL A   1      42.395  30.925  35.044  1.00  0.00     0.173 A 
ATOM     99  F   UNL A   1      41.467  28.672  32.341  1.00  0.00    -0.203 F 
ATOM    100  C   UNL A   1      41.554  28.312  34.654  1.00  0.00     0.198 A 
ATOM    101  C   UNL A   1      42.300  30.052  36.124  1.00  0.00     0.198 A 
ATOM    102  F   UNL A   1      42.834  32.175  35.264  1.00  0.00    -0.203 F 
ATOM    103  F   UNL A   1      41.152  27.046  34.466  1.00  0.00    -0.200 F 
ATOM    104  C   UNL A   1      41.871  28.750  35.929  1.00  0.00     0.200 A 
ATOM    105  F   UNL A   1      42.652  30.466  37.349  1.00  0.00    -0.200 F 
ATOM    106  F   UNL A   1      41.789  27.908  36.970  1.00  0.00    -0.200 F 
ENDBRANCH  73  96
ENDBRANCH  47  48
ENDBRANCH  40  42
ENDBRANCH  39  40
ENDBRANCH  38  39
ENDBRANCH  37  38
ENDBRANCH  36  37
ENDBRANCH   1  36
TORSDOF 20
ENDMDL
MODEL 3
REMARK VINA RESULT:     -11.9      3.404      8.806
REMARK SMILES CC(C)[C@H](NC(=O)c1cc2cc(Cl)ccc2n1C)C(=O)N[C@@H](C(=O)OCCOCCOC(=O)c1ccc(-c2c3nc(c(-c4c(F)c(F)c(F)c(F)c4F)c4ccc([nH]4)c(-c4c(F)c(F)c(F)c(F)c4F)c4nc(c(-c5c(F)c(F)c(F)c(F)c5F)c5ccc2[nH]5)C=C4)C=C3)cc1)c1ccccc1
REMARK SMILES IDX 27 1 26 2 25 3 23 4 24 5 22 6 21 7 19 8 20 9 4 11 2 12 1 13
REMARK SMILES IDX 3 14 5 15 6 16 7 18 8 19 9 20 17 21 10 22 16 23 18 24 11 25
REMARK SMILES IDX 15 26 12 27 14 28 13 29 97 30 98 31 102 32 99 33 101 34
REMARK SMILES IDX 100 35 28 36 29 37 30 38 31 39 32 40 33 41 34 42 35 43 96 44
REMARK SMILES IDX 36 45 95 46 37 47 38 48 39 49 89 50 40 51 94 52 88 53 90 54
REMARK SMILES IDX 41 55 93 56 87 57 86 58 42 60 74 61 54 62 73 63 55 64 58 65
REMARK SMILES IDX 72 66 91 67 56 68 57 69 71 71 92 72 59 73 43 74 44 75 52 76
REMARK SMILES IDX 45 77 46 78 50 79 53 80 47 81 48 82 51 83 49 84 75 85 76 86
REMARK SMILES IDX 84 87 77 88 78 89 82 90 85 91 79 92 80 93 83 94 81 95 60 96
REMARK SMILES IDX 61 97 69 98 62 99 63 100 67 101 70 102 64 103 65 104 68 105
REMARK SMILES IDX 66 106
REMARK H PARENT 21 10 5 17 90 59 58 70
REMARK Flexibility Score: inf
ROOT
ATOM      1  C   UNL A   1      36.857  23.432  25.276  1.00  0.00     0.202 C 
ENDROOT
BRANCH   1   2
ATOM      2  C   UNL A   1      35.363  23.775  25.216  1.00  0.00     0.261 C 
BRANCH   2   3
ATOM      3  O   UNL A   1      34.706  23.569  26.468  1.00  0.00    -0.461 OA
BRANCH   3   4
ATOM      4  C   UNL A   1      33.794  22.564  26.449  1.00  0.00     0.333 C 
ATOM      5  O   UNL A   1      33.397  21.960  27.441  1.00  0.00    -0.249 OA
BRANCH   4   6
ATOM      6  C   UNL A   1      33.218  22.308  25.049  1.00  0.00     0.223 C 
BRANCH   6   7
ATOM      7  N   UNL A   1      31.829  22.640  24.737  1.00  0.00    -0.337 N 
ATOM      8  C   UNL A   1      31.360  23.574  23.868  1.00  0.00     0.243 C 
ATOM      9  O   UNL A   1      30.372  23.249  23.198  1.00  0.00    -0.273 OA
ATOM     10  H   UNL A   1      31.146  22.120  25.219  1.00  0.00     0.164 HD
BRANCH   8  11
ATOM     11  C   UNL A   1      32.017  24.953  23.658  1.00  0.00     0.174 C 
BRANCH  11  12
ATOM     12  C   UNL A   1      33.322  24.940  22.792  1.00  0.00     0.015 C 
ATOM     13  C   UNL A   1      33.442  23.910  21.659  1.00  0.00     0.010 C 
ATOM     14  C   UNL A   1      33.656  26.325  22.217  1.00  0.00     0.010 C 
ENDBRANCH  11  12
BRANCH  11  15
ATOM     15  N   UNL A   1      32.133  25.693  24.918  1.00  0.00    -0.339 N 
ATOM     16  C   UNL A   1      31.688  26.937  25.300  1.00  0.00     0.268 C 
ATOM     17  H   UNL A   1      32.620  25.207  25.623  1.00  0.00     0.164 HD
ATOM     18  O   UNL A   1      32.066  27.314  26.412  1.00  0.00    -0.268 OA
BRANCH  16  19
ATOM     19  C   UNL A   1      30.871  27.799  24.458  1.00  0.00     0.107 A 
ATOM     20  C   UNL A   1      31.073  29.171  24.294  1.00  0.00     0.042 A 
ATOM     21  N   UNL A   1      29.639  27.556  23.882  1.00  0.00    -0.340 N 
ATOM     22  C   UNL A   1      30.016  29.724  23.524  1.00  0.00     0.002 A 
ATOM     23  C   UNL A   1      29.174  28.667  23.194  1.00  0.00     0.048 A 
ATOM     24  C   UNL A   1      28.751  26.453  24.175  1.00  0.00     0.150 C 
ATOM     25  C   UNL A   1      29.675  31.024  23.094  1.00  0.00     0.030 A 
ATOM     26  C   UNL A   1      28.033  28.836  22.391  1.00  0.00     0.028 A 
ATOM     27  C   UNL A   1      28.521  31.204  22.319  1.00  0.00     0.041 A 
ATOM     28  C   UNL A   1      27.723  30.126  21.955  1.00  0.00     0.023 A 
ATOM     29  Cl  UNL A   1      28.075  32.790  21.816  1.00  0.00    -0.084 Cl
ENDBRANCH  16  19
ENDBRANCH  11  15
ENDBRANCH   8  11
ENDBRANCH   6   7
BRANCH   6  30
ATOM     30  C   UNL A   1      33.428  20.864  24.594  1.00  0.00    -0.014 A 
ATOM     31  C   UNL A   1      32.410  20.232  23.860  1.00  0.00     0.006 A 
ATOM     32  C   UNL A   1      34.547  20.106  24.975  1.00  0.00     0.006 A 
ATOM     33  C   UNL A   1      32.512  18.888  23.507  1.00  0.00     0.000 A 
ATOM     34  C   UNL A   1      34.650  18.763  24.613  1.00  0.00     0.000 A 
ATOM     35  C   UNL A   1      33.634  18.155  23.880  1.00  0.00     0.000 A 
ENDBRANCH   6  30
ENDBRANCH   4   6
ENDBRANCH   3   4
ENDBRANCH   2   3
ENDBRANCH   1   2
BRANCH   1  36
ATOM     36  O   UNL A   1      37.252  22.290  26.029  1.00  0.00    -0.374 OA
BRANCH  36  37
ATOM     37  C   UNL A   1      38.060  21.301  25.377  1.00  0.00     0.202 C 
BRANCH  37  38
ATOM     38  C   UNL A   1      39.505  21.087  25.856  1.00  0.00     0.261 C 
BRANCH  38  39
ATOM     39  O   UNL A   1      40.031  22.295  26.423  1.00  0.00    -0.460 OA
BRANCH  39  40
ATOM     40  C   UNL A   1      41.341  22.542  26.142  1.00  0.00     0.338 C 
ATOM     41  O   UNL A   1      42.064  21.924  25.384  1.00  0.00    -0.246 OA
BRANCH  40  42
ATOM     42  C   UNL A   1      41.564  23.927  26.595  1.00  0.00     0.060 A 
ATOM     43  C   UNL A   1      42.450  24.193  27.639  1.00  0.00     0.016 A 
ATOM     44  C   UNL A   1      40.605  24.872  26.192  1.00  0.00     0.016 A 
ATOM     45  C   UNL A   1      42.303  25.379  28.346  1.00  0.00     0.010 A 
ATOM     46  C   UNL A   1      40.436  26.038  26.930  1.00  0.00     0.010 A 
ATOM     47  C   UNL A   1      41.259  26.272  28.032  1.00  0.00    -0.014 A 
BRANCH  47  48
ATOM     48  C   UNL A   1      41.220  27.537  28.768  1.00  0.00     0.031 A 
ATOM     49  C   UNL A   1      42.356  28.431  28.415  1.00  0.00     0.074 A 
ATOM     50  C   UNL A   1      40.249  27.987  29.589  1.00  0.00     0.049 A 
ATOM     51  N   UNL A   1      43.270  28.914  29.190  1.00  0.00    -0.248 NA
ATOM     52  C   UNL A   1      42.548  28.728  26.987  1.00  0.00     0.031 C 
ATOM     53  C   UNL A   1      38.923  27.422  29.836  1.00  0.00     0.029 A 
ATOM     54  N   UNL A   1      40.237  29.139  30.330  1.00  0.00    -0.354 N 
ATOM     55  C   UNL A   1      44.087  29.684  28.370  1.00  0.00     0.074 A 
ATOM     56  C   UNL A   1      43.670  29.440  27.014  1.00  0.00     0.031 C 
ATOM     57  C   UNL A   1      38.170  28.328  30.508  1.00  0.00     0.029 A 
ATOM     58  C   UNL A   1      38.992  29.483  30.840  1.00  0.00     0.049 A 
ATOM     59  H   UNL A   1      41.044  29.679  30.489  1.00  0.00     0.167 HD
ATOM     60  C   UNL A   1      44.930  30.623  28.869  1.00  0.00     0.037 A 
ATOM     61  C   UNL A   1      38.654  30.657  31.431  1.00  0.00     0.037 A 
ATOM     62  C   UNL A   1      45.234  30.398  30.254  1.00  0.00     0.049 A 
ATOM     63  C   UNL A   1      39.900  31.322  31.877  1.00  0.00     0.074 A 
ATOM     64  C   UNL A   1      45.849  29.384  30.962  1.00  0.00     0.029 A 
ATOM     65  N   UNL A   1      44.609  31.179  31.190  1.00  0.00    -0.354 N 
ATOM     66  N   UNL A   1      40.635  30.928  32.876  1.00  0.00    -0.248 NA
ATOM     67  C   UNL A   1      40.524  32.284  30.980  1.00  0.00     0.031 C 
ATOM     68  C   UNL A   1      45.189  29.352  32.224  1.00  0.00     0.029 A 
ATOM     69  C   UNL A   1      44.222  30.357  32.215  1.00  0.00     0.049 A 
ATOM     70  H   UNL A   1      44.465  32.151  31.136  1.00  0.00     0.167 HD
ATOM     71  C   UNL A   1      41.928  31.252  32.504  1.00  0.00     0.074 A 
ATOM     72  C   UNL A   1      41.786  32.195  31.403  1.00  0.00     0.031 C 
ATOM     73  C   UNL A   1      42.985  30.511  32.942  1.00  0.00     0.037 A 
BRANCH  60  74
ATOM     74  C   UNL A   1      45.203  31.929  28.174  1.00  0.00     0.064 A 
ATOM     75  C   UNL A   1      44.148  32.832  27.947  1.00  0.00     0.173 A 
ATOM     76  C   UNL A   1      46.401  32.195  27.474  1.00  0.00     0.173 A 
ATOM     77  F   UNL A   1      42.955  32.648  28.531  1.00  0.00    -0.203 F 
ATOM     78  C   UNL A   1      44.269  33.889  27.042  1.00  0.00     0.198 A 
ATOM     79  C   UNL A   1      46.537  33.284  26.618  1.00  0.00     0.198 A 
ATOM     80  F   UNL A   1      47.441  31.352  27.500  1.00  0.00    -0.203 F 
ATOM     81  F   UNL A   1      43.204  34.651  26.765  1.00  0.00    -0.200 F 
ATOM     82  C   UNL A   1      45.463  34.114  26.380  1.00  0.00     0.200 A 
ATOM     83  F   UNL A   1      47.694  33.470  25.966  1.00  0.00    -0.200 F 
ATOM     84  F   UNL A   1      45.564  35.094  25.472  1.00  0.00    -0.200 F 
ENDBRANCH  60  74
BRANCH  61  85
ATOM     85  C   UNL A   1      37.361  31.388  31.431  1.00  0.00     0.064 A 
ATOM     86  C   UNL A   1      36.686  31.666  32.635  1.00  0.00     0.173 A 
ATOM     87  C   UNL A   1      36.922  32.091  30.295  1.00  0.00     0.173 A 
ATOM     88  F   UNL A   1      37.063  31.071  33.777  1.00  0.00    -0.203 F 
ATOM     89  C   UNL A   1      35.666  32.620  32.703  1.00  0.00     0.198 A 
ATOM     90  C   UNL A   1      35.896  33.036  30.363  1.00  0.00     0.198 A 
ATOM     91  F   UNL A   1      37.546  31.950  29.117  1.00  0.00    -0.203 F 
ATOM     92  F   UNL A   1      35.100  32.912  33.884  1.00  0.00    -0.200 F 
ATOM     93  C   UNL A   1      35.280  33.314  31.570  1.00  0.00     0.200 A 
ATOM     94  F   UNL A   1      35.556  33.726  29.265  1.00  0.00    -0.200 F 
ATOM     95  F   UNL A   1      34.352  34.277  31.646  1.00  0.00    -0.200 F 
ENDBRANCH  61  85
BRANCH  73  96
ATOM     96  C   UNL A   1      42.756  29.579  34.095  1.00  0.00     0.064 A 
ATOM     97  C   UNL A   1      42.141  28.320  33.980  1.00  0.00     0.173 A 
ATOM     98  C   UNL A   1      43.308  29.921  35.338  1.00  0.00     0.173 A 
ATOM     99  F   UNL A   1      41.672  27.886  32.802  1.00  0.00    -0.203 F 
ATOM    100  C   UNL A   1      42.052  27.462  35.074  1.00  0.00     0.198 A 
ATOM    101  C   UNL A   1      43.251  29.045  36.417  1.00  0.00     0.198 A 
ATOM    102  F   UNL A   1      43.949  31.091  35.491  1.00  0.00    -0.203 F 
ATOM    103  F   UNL A   1      41.450  26.271  34.947  1.00  0.00    -0.200 F 
ATOM    104  C   UNL A   1      42.616  27.821  36.288  1.00  0.00     0.200 A 
ATOM    105  F   UNL A   1      43.839  29.376  37.576  1.00  0.00    -0.200 F 
ATOM    106  F   UNL A   1      42.572  26.974  37.327  1.00  0.00    -0.200 F 
ENDBRANCH  73  96
ENDBRANCH  47  48
ENDBRANCH  40  42
ENDBRANCH  39  40
ENDBRANCH  38  39
ENDBRANCH  37  38
ENDBRANCH  36  37
ENDBRANCH   1  36
TORSDOF 20
ENDMDL
