MODEL 1
REMARK VINA RESULT:     -12.5      0.000      0.000
REMARK SMILES COc1ccc2c(c1)c(CC(=O)OCCOCCOC(=O)c1ccc(-c3c4nc(c(-c5c(F)c(F)c(F)c(F)c5F)c5ccc([nH]5)c(-c5c(F)c(F)c(F)c(F)c5F)c5nc(c(-c6c(F)c(F)c(F)c(F)c6F)c6ccc3[nH]6)C=C5)C=C4)cc1)c(C(F)(F)F)n2C(=O)c1ccc(Cl)cc1
REMARK SMILES IDX 15 1 14 2 13 3 11 4 12 5 10 6 9 7 3 8 4 9 8 10 5 11 7 12
REMARK SMILES IDX 6 13 90 14 85 15 2 16 1 17 91 18 92 19 93 20 94 21 99 22
REMARK SMILES IDX 95 23 98 24 96 25 97 26 86 27 87 28 88 29 89 30 16 31 17 32
REMARK SMILES IDX 18 33 19 34 20 35 21 36 22 37 23 38 84 39 24 40 83 41 25 42
REMARK SMILES IDX 26 43 27 44 77 45 28 46 82 47 76 48 78 49 29 50 81 51 75 52
REMARK SMILES IDX 74 53 30 55 62 56 42 57 61 58 43 59 46 60 60 61 79 62 44 63
REMARK SMILES IDX 45 64 59 66 80 67 47 68 31 69 32 70 40 71 33 72 34 73 38 74
REMARK SMILES IDX 41 75 35 76 36 77 39 78 37 79 63 80 64 81 72 82 65 83 66 84
REMARK SMILES IDX 70 85 73 86 67 87 68 88 71 89 69 90 48 91 49 92 57 93 50 94
REMARK SMILES IDX 51 95 55 96 58 97 52 98 53 99 56 100 54 101
REMARK H PARENT 78 54 46 65
REMARK Flexibility Score: inf
ROOT
ATOM      1  C   UNL A   1      31.890  28.711  27.344  1.00  0.00     0.202 C 
ENDROOT
BRANCH   1   2
ATOM      2  C   UNL A   1      31.970  27.730  26.158  1.00  0.00     0.261 C 
BRANCH   2   3
ATOM      3  O   UNL A   1      33.225  27.686  25.457  1.00  0.00    -0.463 OA
BRANCH   3   4
ATOM      4  C   UNL A   1      33.566  26.453  24.997  1.00  0.00     0.310 C 
ATOM      5  O   UNL A   1      33.887  26.217  23.834  1.00  0.00    -0.252 OA
BRANCH   4   6
ATOM      6  C   UNL A   1      33.512  25.336  26.015  1.00  0.00     0.161 C 
BRANCH   6   7
ATOM      7  C   UNL A   1      33.737  23.907  25.579  1.00  0.00     0.002 A 
ATOM      8  C   UNL A   1      37.393  22.778  25.636  1.00  0.00     0.119 A 
ATOM      9  C   UNL A   1      37.170  21.522  25.104  1.00  0.00     0.048 A 
ATOM     10  C   UNL A   1      36.317  23.659  25.762  1.00  0.00     0.057 A 
ATOM     11  C   UNL A   1      35.884  21.132  24.710  1.00  0.00     0.031 A 
ATOM     12  C   UNL A   1      34.994  23.256  25.463  1.00  0.00     0.008 A 
ATOM     13  C   UNL A   1      34.778  21.985  24.923  1.00  0.00     0.057 A 
ATOM     14  N   UNL A   1      33.406  21.869  24.617  1.00  0.00    -0.271 N 
ATOM     15  C   UNL A   1      32.772  23.030  25.081  1.00  0.00     0.135 A 
BRANCH   8  16
ATOM     16  O   UNL A   1      38.578  23.247  26.125  1.00  0.00    -0.497 OA
ATOM     17  C   UNL A   1      38.536  24.455  26.875  1.00  0.00     0.278 C 
ENDBRANCH   8  16
BRANCH  14  18
ATOM     18  C   UNL A   1      32.813  20.808  23.870  1.00  0.00     0.262 C 
ATOM     19  O   UNL A   1      32.406  21.055  22.740  1.00  0.00    -0.268 OA
BRANCH  18  20
ATOM     20  C   UNL A   1      32.753  19.388  24.276  1.00  0.00     0.040 A 
ATOM     21  C   UNL A   1      32.634  19.008  25.619  1.00  0.00     0.015 A 
ATOM     22  C   UNL A   1      32.853  18.418  23.270  1.00  0.00     0.015 A 
ATOM     23  C   UNL A   1      32.702  17.651  25.955  1.00  0.00     0.021 A 
ATOM     24  C   UNL A   1      32.912  17.065  23.612  1.00  0.00     0.021 A 
ATOM     25  C   UNL A   1      32.855  16.689  24.953  1.00  0.00     0.041 A 
ATOM     26  Cl  UNL A   1      32.998  15.027  25.375  1.00  0.00    -0.084 Cl
ENDBRANCH  18  20
ENDBRANCH  14  18
BRANCH  15  27
ATOM     27  C   UNL A   1      31.308  23.332  24.988  1.00  0.00     0.432 C 
ATOM     28  F   UNL A   1      30.957  23.435  23.672  1.00  0.00    -0.165 F 
ATOM     29  F   UNL A   1      30.574  22.302  25.482  1.00  0.00    -0.165 F 
ATOM     30  F   UNL A   1      30.869  24.474  25.550  1.00  0.00    -0.165 F 
ENDBRANCH  15  27
ENDBRANCH   6   7
ENDBRANCH   4   6
ENDBRANCH   3   4
ENDBRANCH   2   3
ENDBRANCH   1   2
BRANCH   1  31
ATOM     31  O   UNL A   1      31.674  30.099  27.128  1.00  0.00    -0.374 OA
BRANCH  31  32
ATOM     32  C   UNL A   1      32.759  30.871  26.615  1.00  0.00     0.202 C 
BRANCH  32  33
ATOM     33  C   UNL A   1      33.495  31.855  27.538  1.00  0.00     0.261 C 
BRANCH  33  34
ATOM     34  O   UNL A   1      34.393  31.183  28.423  1.00  0.00    -0.460 OA
BRANCH  34  35
ATOM     35  C   UNL A   1      35.191  32.016  29.139  1.00  0.00     0.338 C 
ATOM     36  O   UNL A   1      34.884  33.060  29.690  1.00  0.00    -0.246 OA
BRANCH  35  37
ATOM     37  C   UNL A   1      36.379  31.211  29.455  1.00  0.00     0.060 A 
ATOM     38  C   UNL A   1      37.634  31.819  29.520  1.00  0.00     0.016 A 
ATOM     39  C   UNL A   1      36.242  29.816  29.352  1.00  0.00     0.016 A 
ATOM     40  C   UNL A   1      38.760  31.019  29.407  1.00  0.00     0.010 A 
ATOM     41  C   UNL A   1      37.376  29.021  29.233  1.00  0.00     0.010 A 
ATOM     42  C   UNL A   1      38.634  29.626  29.234  1.00  0.00    -0.014 A 
BRANCH  42  43
ATOM     43  C   UNL A   1      39.870  28.848  29.301  1.00  0.00     0.031 A 
ATOM     44  C   UNL A   1      40.318  28.613  30.702  1.00  0.00     0.074 A 
ATOM     45  C   UNL A   1      40.542  28.264  28.290  1.00  0.00     0.049 A 
ATOM     46  N   UNL A   1      41.408  29.017  31.269  1.00  0.00    -0.248 NA
ATOM     47  C   UNL A   1      39.366  27.954  31.609  1.00  0.00     0.031 C 
ATOM     48  C   UNL A   1      40.140  28.094  26.896  1.00  0.00     0.029 A 
ATOM     49  N   UNL A   1      41.741  27.607  28.354  1.00  0.00    -0.354 N 
ATOM     50  C   UNL A   1      41.346  28.548  32.578  1.00  0.00     0.074 A 
ATOM     51  C   UNL A   1      40.025  28.008  32.765  1.00  0.00     0.031 C 
ATOM     52  C   UNL A   1      40.978  27.213  26.298  1.00  0.00     0.029 A 
ATOM     53  C   UNL A   1      42.046  26.863  27.224  1.00  0.00     0.049 A 
ATOM     54  H   UNL A   1      42.337  27.659  29.136  1.00  0.00     0.167 HD
ATOM     55  C   UNL A   1      42.452  28.472  33.363  1.00  0.00     0.037 A 
ATOM     56  C   UNL A   1      43.070  25.984  27.095  1.00  0.00     0.037 A 
ATOM     57  C   UNL A   1      43.516  29.305  32.874  1.00  0.00     0.049 A 
ATOM     58  C   UNL A   1      44.089  26.314  28.119  1.00  0.00     0.074 A 
ATOM     59  C   UNL A   1      43.697  30.661  32.695  1.00  0.00     0.029 A 
ATOM     60  N   UNL A   1      44.532  28.697  32.184  1.00  0.00    -0.354 N 
ATOM     61  N   UNL A   1      44.845  27.375  28.096  1.00  0.00    -0.248 NA
ATOM     62  C   UNL A   1      44.069  25.590  29.381  1.00  0.00     0.031 C 
ATOM     63  C   UNL A   1      44.548  30.784  31.559  1.00  0.00     0.029 A 
ATOM     64  C   UNL A   1      44.846  29.494  31.117  1.00  0.00     0.049 A 
ATOM     65  H   UNL A   1      44.959  27.840  32.416  1.00  0.00     0.167 HD
ATOM     66  C   UNL A   1      45.049  27.686  29.430  1.00  0.00     0.074 A 
ATOM     67  C   UNL A   1      44.681  26.481  30.161  1.00  0.00     0.031 C 
ATOM     68  C   UNL A   1      45.226  28.978  29.823  1.00  0.00     0.037 A 
BRANCH  55  69
ATOM     69  C   UNL A   1      42.690  27.375  34.369  1.00  0.00     0.064 A 
ATOM     70  C   UNL A   1      43.155  26.121  33.924  1.00  0.00     0.173 A 
ATOM     71  C   UNL A   1      42.186  27.407  35.688  1.00  0.00     0.173 A 
ATOM     72  F   UNL A   1      43.631  25.971  32.679  1.00  0.00    -0.203 F 
ATOM     73  C   UNL A   1      43.051  24.974  34.715  1.00  0.00     0.198 A 
ATOM     74  C   UNL A   1      42.136  26.271  36.494  1.00  0.00     0.198 A 
ATOM     75  F   UNL A   1      41.619  28.502  36.207  1.00  0.00    -0.203 F 
ATOM     76  F   UNL A   1      43.385  23.781  34.203  1.00  0.00    -0.200 F 
ATOM     77  C   UNL A   1      42.537  25.049  35.996  1.00  0.00     0.200 A 
ATOM     78  F   UNL A   1      41.615  26.361  37.725  1.00  0.00    -0.200 F 
ATOM     79  F   UNL A   1      42.377  23.942  36.732  1.00  0.00    -0.200 F 
ENDBRANCH  55  69
BRANCH  56  80
ATOM     80  C   UNL A   1      43.133  24.715  26.331  1.00  0.00     0.064 A 
ATOM     81  C   UNL A   1      44.078  24.538  25.303  1.00  0.00     0.173 A 
ATOM     82  C   UNL A   1      42.491  23.553  26.796  1.00  0.00     0.173 A 
ATOM     83  F   UNL A   1      44.765  25.588  24.827  1.00  0.00    -0.203 F 
ATOM     84  C   UNL A   1      44.394  23.270  24.806  1.00  0.00     0.198 A 
ATOM     85  C   UNL A   1      42.800  22.289  26.291  1.00  0.00     0.198 A 
ATOM     86  F   UNL A   1      41.626  23.608  27.818  1.00  0.00    -0.203 F 
ATOM     87  F   UNL A   1      45.358  23.134  23.884  1.00  0.00    -0.200 F 
ATOM     88  C   UNL A   1      43.765  22.145  25.311  1.00  0.00     0.200 A 
ATOM     89  F   UNL A   1      42.210  21.204  26.812  1.00  0.00    -0.200 F 
ATOM     90  F   UNL A   1      44.119  20.924  24.889  1.00  0.00    -0.200 F 
ENDBRANCH  56  80
BRANCH  68  91
ATOM     91  C   UNL A   1      45.582  29.984  28.767  1.00  0.00     0.064 A 
ATOM     92  C   UNL A   1      44.640  30.697  28.009  1.00  0.00     0.173 A 
ATOM     93  C   UNL A   1      46.934  30.324  28.610  1.00  0.00     0.173 A 
ATOM     94  F   UNL A   1      43.325  30.498  28.175  1.00  0.00    -0.203 F 
ATOM     95  C   UNL A   1      45.041  31.678  27.102  1.00  0.00     0.198 A 
ATOM     96  C   UNL A   1      47.328  31.329  27.734  1.00  0.00     0.198 A 
ATOM     97  F   UNL A   1      47.871  29.707  29.348  1.00  0.00    -0.203 F 
ATOM     98  F   UNL A   1      44.126  32.335  26.377  1.00  0.00    -0.200 F 
ATOM     99  C   UNL A   1      46.383  31.997  26.972  1.00  0.00     0.200 A 
ATOM    100  F   UNL A   1      48.621  31.667  27.647  1.00  0.00    -0.200 F 
ATOM    101  F   UNL A   1      46.765  32.969  26.132  1.00  0.00    -0.200 F 
ENDBRANCH  68  91
ENDBRANCH  42  43
ENDBRANCH  35  37
ENDBRANCH  34  35
ENDBRANCH  33  34
ENDBRANCH  32  33
ENDBRANCH  31  32
ENDBRANCH   1  31
TORSDOF 19
ENDMDL
MODEL 2
REMARK VINA RESULT:     -12.4      3.534      9.209
REMARK SMILES COc1ccc2c(c1)c(CC(=O)OCCOCCOC(=O)c1ccc(-c3c4nc(c(-c5c(F)c(F)c(F)c(F)c5F)c5ccc([nH]5)c(-c5c(F)c(F)c(F)c(F)c5F)c5nc(c(-c6c(F)c(F)c(F)c(F)c6F)c6ccc3[nH]6)C=C5)C=C4)cc1)c(C(F)(F)F)n2C(=O)c1ccc(Cl)cc1
REMARK SMILES IDX 15 1 14 2 13 3 11 4 12 5 10 6 9 7 3 8 4 9 8 10 5 11 7 12
REMARK SMILES IDX 6 13 90 14 85 15 2 16 1 17 91 18 92 19 93 20 94 21 99 22
REMARK SMILES IDX 95 23 98 24 96 25 97 26 86 27 87 28 88 29 89 30 16 31 17 32
REMARK SMILES IDX 18 33 19 34 20 35 21 36 22 37 23 38 84 39 24 40 83 41 25 42
REMARK SMILES IDX 26 43 27 44 77 45 28 46 82 47 76 48 78 49 29 50 81 51 75 52
REMARK SMILES IDX 74 53 30 55 62 56 42 57 61 58 43 59 46 60 60 61 79 62 44 63
REMARK SMILES IDX 45 64 59 66 80 67 47 68 31 69 32 70 40 71 33 72 34 73 38 74
REMARK SMILES IDX 41 75 35 76 36 77 39 78 37 79 63 80 64 81 72 82 65 83 66 84
REMARK SMILES IDX 70 85 73 86 67 87 68 88 71 89 69 90 48 91 49 92 57 93 50 94
REMARK SMILES IDX 51 95 55 96 58 97 52 98 53 99 56 100 54 101
REMARK H PARENT 78 54 46 65
REMARK Flexibility Score: inf
ROOT
ATOM      1  C   UNL A   1      35.465  21.038  25.536  1.00  0.00     0.202 C 
ENDROOT
BRANCH   1   2
ATOM      2  C   UNL A   1      34.813  21.958  26.585  1.00  0.00     0.261 C 
BRANCH   2   3
ATOM      3  O   UNL A   1      35.136  23.357  26.488  1.00  0.00    -0.463 OA
BRANCH   3   4
ATOM      4  C   UNL A   1      34.075  24.160  26.209  1.00  0.00     0.310 C 
ATOM      5  O   UNL A   1      32.947  23.995  26.670  1.00  0.00    -0.252 OA
BRANCH   4   6
ATOM      6  C   UNL A   1      34.350  25.298  25.252  1.00  0.00     0.161 C 
BRANCH   6   7
ATOM      7  C   UNL A   1      33.275  26.322  24.972  1.00  0.00     0.002 A 
ATOM      8  C   UNL A   1      33.697  29.633  26.844  1.00  0.00     0.119 A 
ATOM      9  C   UNL A   1      32.521  30.206  26.402  1.00  0.00     0.048 A 
ATOM     10  C   UNL A   1      33.990  28.319  26.473  1.00  0.00     0.057 A 
ATOM     11  C   UNL A   1      31.641  29.488  25.583  1.00  0.00     0.031 A 
ATOM     12  C   UNL A   1      33.168  27.607  25.568  1.00  0.00     0.008 A 
ATOM     13  C   UNL A   1      31.978  28.193  25.128  1.00  0.00     0.057 A 
ATOM     14  N   UNL A   1      31.296  27.251  24.331  1.00  0.00    -0.271 N 
ATOM     15  C   UNL A   1      32.131  26.133  24.194  1.00  0.00     0.135 A 
BRANCH   8  16
ATOM     16  O   UNL A   1      34.668  30.250  27.580  1.00  0.00    -0.497 OA
ATOM     17  C   UNL A   1      35.658  29.418  28.173  1.00  0.00     0.278 C 
ENDBRANCH   8  16
BRANCH  14  18
ATOM     18  C   UNL A   1      29.957  27.384  23.857  1.00  0.00     0.262 C 
ATOM     19  O   UNL A   1      29.116  26.591  24.269  1.00  0.00    -0.268 OA
BRANCH  18  20
ATOM     20  C   UNL A   1      29.442  28.476  23.004  1.00  0.00     0.040 A 
ATOM     21  C   UNL A   1      30.282  29.210  22.157  1.00  0.00     0.015 A 
ATOM     22  C   UNL A   1      28.078  28.784  23.092  1.00  0.00     0.015 A 
ATOM     23  C   UNL A   1      29.763  30.309  21.462  1.00  0.00     0.021 A 
ATOM     24  C   UNL A   1      27.565  29.876  22.390  1.00  0.00     0.021 A 
ATOM     25  C   UNL A   1      28.413  30.645  21.593  1.00  0.00     0.041 A 
ATOM     26  Cl  UNL A   1      27.792  32.031  20.786  1.00  0.00    -0.084 Cl
ENDBRANCH  18  20
ENDBRANCH  14  18
BRANCH  15  27
ATOM     27  C   UNL A   1      31.823  24.892  23.413  1.00  0.00     0.432 C 
ATOM     28  F   UNL A   1      32.993  24.304  23.029  1.00  0.00    -0.165 F 
ATOM     29  F   UNL A   1      31.193  23.978  24.196  1.00  0.00    -0.165 F 
ATOM     30  F   UNL A   1      31.118  25.032  22.274  1.00  0.00    -0.165 F 
ENDBRANCH  15  27
ENDBRANCH   6   7
ENDBRANCH   4   6
ENDBRANCH   3   4
ENDBRANCH   2   3
ENDBRANCH   1   2
BRANCH   1  31
ATOM     31  O   UNL A   1      36.033  21.574  24.349  1.00  0.00    -0.374 OA
BRANCH  31  32
ATOM     32  C   UNL A   1      37.394  21.999  24.394  1.00  0.00     0.202 C 
BRANCH  32  33
ATOM     33  C   UNL A   1      38.328  21.448  25.483  1.00  0.00     0.261 C 
BRANCH  33  34
ATOM     34  O   UNL A   1      38.755  22.471  26.383  1.00  0.00    -0.460 OA
BRANCH  34  35
ATOM     35  C   UNL A   1      40.099  22.518  26.572  1.00  0.00     0.338 C 
ATOM     36  O   UNL A   1      40.943  21.742  26.154  1.00  0.00    -0.246 OA
BRANCH  35  37
ATOM     37  C   UNL A   1      40.363  23.889  27.027  1.00  0.00     0.060 A 
ATOM     38  C   UNL A   1      41.497  24.162  27.794  1.00  0.00     0.016 A 
ATOM     39  C   UNL A   1      39.294  24.798  26.947  1.00  0.00     0.016 A 
ATOM     40  C   UNL A   1      41.521  25.327  28.543  1.00  0.00     0.010 A 
ATOM     41  C   UNL A   1      39.323  25.962  27.707  1.00  0.00     0.010 A 
ATOM     42  C   UNL A   1      40.425  26.213  28.525  1.00  0.00    -0.014 A 
BRANCH  42  43
ATOM     43  C   UNL A   1      40.612  27.493  29.205  1.00  0.00     0.031 A 
ATOM     44  C   UNL A   1      41.707  28.302  28.601  1.00  0.00     0.074 A 
ATOM     45  C   UNL A   1      39.867  28.029  30.191  1.00  0.00     0.049 A 
ATOM     46  N   UNL A   1      42.813  28.685  29.151  1.00  0.00    -0.248 NA
ATOM     47  C   UNL A   1      41.602  28.608  27.166  1.00  0.00     0.031 C 
ATOM     48  C   UNL A   1      38.586  27.575  30.725  1.00  0.00     0.029 A 
ATOM     49  N   UNL A   1      40.099  29.191  30.876  1.00  0.00    -0.354 N 
ATOM     50  C   UNL A   1      43.493  29.400  28.170  1.00  0.00     0.074 A 
ATOM     51  C   UNL A   1      42.763  29.221  26.943  1.00  0.00     0.031 C 
ATOM     52  C   UNL A   1      38.059  28.553  31.503  1.00  0.00     0.029 A 
ATOM     53  C   UNL A   1      39.021  29.638  31.626  1.00  0.00     0.049 A 
ATOM     54  H   UNL A   1      40.959  29.669  30.840  1.00  0.00     0.167 HD
ATOM     55  C   UNL A   1      44.514  30.242  28.477  1.00  0.00     0.037 A 
ATOM     56  C   UNL A   1      38.919  30.839  32.246  1.00  0.00     0.037 A 
ATOM     57  C   UNL A   1      45.064  29.967  29.776  1.00  0.00     0.049 A 
ATOM     58  C   UNL A   1      40.288  31.373  32.440  1.00  0.00     0.074 A 
ATOM     59  C   UNL A   1      45.725  28.904  30.356  1.00  0.00     0.029 A 
ATOM     60  N   UNL A   1      44.692  30.787  30.809  1.00  0.00    -0.354 N 
ATOM     61  N   UNL A   1      41.161  30.885  33.274  1.00  0.00    -0.248 NA
ATOM     62  C   UNL A   1      40.818  32.305  31.456  1.00  0.00     0.031 C 
ATOM     63  C   UNL A   1      45.338  28.920  31.728  1.00  0.00     0.029 A 
ATOM     64  C   UNL A   1      44.471  30.000  31.907  1.00  0.00     0.049 A 
ATOM     65  H   UNL A   1      44.600  31.767  30.768  1.00  0.00     0.167 HD
ATOM     66  C   UNL A   1      42.385  31.108  32.667  1.00  0.00     0.074 A 
ATOM     67  C   UNL A   1      42.124  32.106  31.640  1.00  0.00     0.031 C 
ATOM     68  C   UNL A   1      43.427  30.253  32.871  1.00  0.00     0.037 A 
BRANCH  55  69
ATOM     69  C   UNL A   1      44.776  31.538  27.751  1.00  0.00     0.064 A 
ATOM     70  C   UNL A   1      45.991  31.704  27.057  1.00  0.00     0.173 A 
ATOM     71  C   UNL A   1      44.032  32.717  27.973  1.00  0.00     0.173 A 
ATOM     72  F   UNL A   1      46.789  30.654  26.814  1.00  0.00    -0.203 F 
ATOM     73  C   UNL A   1      46.457  32.966  26.681  1.00  0.00     0.198 A 
ATOM     74  C   UNL A   1      44.474  33.967  27.546  1.00  0.00     0.198 A 
ATOM     75  F   UNL A   1      42.912  32.725  28.705  1.00  0.00    -0.203 F 
ATOM     76  F   UNL A   1      47.676  33.090  26.140  1.00  0.00    -0.200 F 
ATOM     77  C   UNL A   1      45.701  34.097  26.931  1.00  0.00     0.200 A 
ATOM     78  F   UNL A   1      43.736  35.053  27.816  1.00  0.00    -0.200 F 
ATOM     79  F   UNL A   1      46.174  35.313  26.630  1.00  0.00    -0.200 F 
ENDBRANCH  55  69
BRANCH  56  80
ATOM     80  C   UNL A   1      37.726  31.693  32.458  1.00  0.00     0.064 A 
ATOM     81  C   UNL A   1      37.328  32.067  33.755  1.00  0.00     0.173 A 
ATOM     82  C   UNL A   1      37.145  32.408  31.396  1.00  0.00     0.173 A 
ATOM     83  F   UNL A   1      37.862  31.464  34.828  1.00  0.00    -0.203 F 
ATOM     84  C   UNL A   1      36.441  33.126  33.975  1.00  0.00     0.198 A 
ATOM     85  C   UNL A   1      36.251  33.457  31.616  1.00  0.00     0.198 A 
ATOM     86  F   UNL A   1      37.510  32.172  30.128  1.00  0.00    -0.203 F 
ATOM     87  F   UNL A   1      36.150  33.505  35.227  1.00  0.00    -0.200 F 
ATOM     88  C   UNL A   1      35.914  33.829  32.905  1.00  0.00     0.200 A 
ATOM     89  F   UNL A   1      35.774  34.154  30.574  1.00  0.00    -0.200 F 
ATOM     90  F   UNL A   1      35.122  34.889  33.115  1.00  0.00    -0.200 F 
ENDBRANCH  56  80
BRANCH  68  91
ATOM     91  C   UNL A   1      43.343  29.320  34.043  1.00  0.00     0.064 A 
ATOM     92  C   UNL A   1      43.844  29.614  35.322  1.00  0.00     0.173 A 
ATOM     93  C   UNL A   1      42.612  28.133  33.889  1.00  0.00     0.173 A 
ATOM     94  F   UNL A   1      44.467  30.774  35.571  1.00  0.00    -0.203 F 
ATOM     95  C   UNL A   1      43.657  28.733  36.387  1.00  0.00     0.198 A 
ATOM     96  C   UNL A   1      42.394  27.276  34.962  1.00  0.00     0.198 A 
ATOM     97  F   UNL A   1      42.068  27.829  32.699  1.00  0.00    -0.203 F 
ATOM     98  F   UNL A   1      44.158  29.025  37.595  1.00  0.00    -0.200 F 
ATOM     99  C   UNL A   1      42.926  27.570  36.206  1.00  0.00     0.200 A 
ATOM    100  F   UNL A   1      41.646  26.177  34.794  1.00  0.00    -0.200 F 
ATOM    101  F   UNL A   1      42.709  26.745  37.240  1.00  0.00    -0.200 F 
ENDBRANCH  68  91
ENDBRANCH  42  43
ENDBRANCH  35  37
ENDBRANCH  34  35
ENDBRANCH  33  34
ENDBRANCH  32  33
ENDBRANCH  31  32
ENDBRANCH   1  31
TORSDOF 19
ENDMDL
MODEL 3
REMARK VINA RESULT:     -12.3      3.560      9.269
REMARK SMILES COc1ccc2c(c1)c(CC(=O)OCCOCCOC(=O)c1ccc(-c3c4nc(c(-c5c(F)c(F)c(F)c(F)c5F)c5ccc([nH]5)c(-c5c(F)c(F)c(F)c(F)c5F)c5nc(c(-c6c(F)c(F)c(F)c(F)c6F)c6ccc3[nH]6)C=C5)C=C4)cc1)c(C(F)(F)F)n2C(=O)c1ccc(Cl)cc1
REMARK SMILES IDX 15 1 14 2 13 3 11 4 12 5 10 6 9 7 3 8 4 9 8 10 5 11 7 12
REMARK SMILES IDX 6 13 90 14 85 15 2 16 1 17 91 18 92 19 93 20 94 21 99 22
REMARK SMILES IDX 95 23 98 24 96 25 97 26 86 27 87 28 88 29 89 30 16 31 17 32
REMARK SMILES IDX 18 33 19 34 20 35 21 36 22 37 23 38 84 39 24 40 83 41 25 42
REMARK SMILES IDX 26 43 27 44 77 45 28 46 82 47 76 48 78 49 29 50 81 51 75 52
REMARK SMILES IDX 74 53 30 55 62 56 42 57 61 58 43 59 46 60 60 61 79 62 44 63
REMARK SMILES IDX 45 64 59 66 80 67 47 68 31 69 32 70 40 71 33 72 34 73 38 74
REMARK SMILES IDX 41 75 35 76 36 77 39 78 37 79 63 80 64 81 72 82 65 83 66 84
REMARK SMILES IDX 70 85 73 86 67 87 68 88 71 89 69 90 48 91 49 92 57 93 50 94
REMARK SMILES IDX 51 95 55 96 58 97 52 98 53 99 56 100 54 101
REMARK H PARENT 78 54 46 65
REMARK Flexibility Score: inf
ROOT
ATOM      1  C   UNL A   1      36.625  20.950  25.022  1.00  0.00     0.202 C 
ENDROOT
BRANCH   1   2
ATOM      2  C   UNL A   1      35.467  21.764  25.632  1.00  0.00     0.261 C 
BRANCH   2   3
ATOM      3  O   UNL A   1      34.743  22.612  24.724  1.00  0.00    -0.463 OA
BRANCH   3   4
ATOM      4  C   UNL A   1      34.279  23.763  25.280  1.00  0.00     0.310 C 
ATOM      5  O   UNL A   1      33.811  23.839  26.414  1.00  0.00    -0.252 OA
BRANCH   4   6
ATOM      6  C   UNL A   1      34.347  24.990  24.398  1.00  0.00     0.161 C 
BRANCH   6   7
ATOM      7  C   UNL A   1      33.243  26.020  24.455  1.00  0.00     0.002 A 
ATOM      8  C   UNL A   1      33.707  28.714  27.132  1.00  0.00     0.119 A 
ATOM      9  C   UNL A   1      32.501  29.351  26.915  1.00  0.00     0.048 A 
ATOM     10  C   UNL A   1      34.002  27.559  26.406  1.00  0.00     0.057 A 
ATOM     11  C   UNL A   1      31.592  28.855  25.972  1.00  0.00     0.031 A 
ATOM     12  C   UNL A   1      33.146  27.093  25.381  1.00  0.00     0.008 A 
ATOM     13  C   UNL A   1      31.926  27.741  25.170  1.00  0.00     0.057 A 
ATOM     14  N   UNL A   1      31.219  27.028  24.178  1.00  0.00    -0.271 N 
ATOM     15  C   UNL A   1      32.064  26.013  23.707  1.00  0.00     0.135 A 
BRANCH   8  16
ATOM     16  O   UNL A   1      34.704  29.139  27.962  1.00  0.00    -0.497 OA
ATOM     17  C   UNL A   1      35.453  30.276  27.548  1.00  0.00     0.278 C 
ENDBRANCH   8  16
BRANCH  14  18
ATOM     18  C   UNL A   1      29.855  27.244  23.819  1.00  0.00     0.262 C 
ATOM     19  O   UNL A   1      29.019  26.439  24.215  1.00  0.00    -0.268 OA
BRANCH  18  20
ATOM     20  C   UNL A   1      29.321  28.428  23.113  1.00  0.00     0.040 A 
ATOM     21  C   UNL A   1      27.955  28.737  23.118  1.00  0.00     0.015 A 
ATOM     22  C   UNL A   1      30.227  29.226  22.401  1.00  0.00     0.015 A 
ATOM     23  C   UNL A   1      27.490  29.800  22.336  1.00  0.00     0.021 A 
ATOM     24  C   UNL A   1      29.758  30.290  21.629  1.00  0.00     0.021 A 
ATOM     25  C   UNL A   1      28.390  30.562  21.585  1.00  0.00     0.041 A 
ATOM     26  Cl  UNL A   1      27.809  31.830  20.578  1.00  0.00    -0.084 Cl
ENDBRANCH  18  20
ENDBRANCH  14  18
BRANCH  15  27
ATOM     27  C   UNL A   1      31.736  25.020  22.635  1.00  0.00     0.432 C 
ATOM     28  F   UNL A   1      31.445  25.690  21.481  1.00  0.00    -0.165 F 
ATOM     29  F   UNL A   1      32.817  24.250  22.348  1.00  0.00    -0.165 F 
ATOM     30  F   UNL A   1      30.679  24.210  22.837  1.00  0.00    -0.165 F 
ENDBRANCH  15  27
ENDBRANCH   6   7
ENDBRANCH   4   6
ENDBRANCH   3   4
ENDBRANCH   2   3
ENDBRANCH   1   2
BRANCH   1  31
ATOM     31  O   UNL A   1      37.944  21.475  24.986  1.00  0.00    -0.374 OA
BRANCH  31  32
ATOM     32  C   UNL A   1      38.415  22.178  26.134  1.00  0.00     0.202 C 
BRANCH  32  33
ATOM     33  C   UNL A   1      39.857  21.962  26.620  1.00  0.00     0.261 C 
BRANCH  33  34
ATOM     34  O   UNL A   1      40.812  22.503  25.706  1.00  0.00    -0.460 OA
BRANCH  34  35
ATOM     35  C   UNL A   1      42.058  22.644  26.224  1.00  0.00     0.338 C 
ATOM     36  O   UNL A   1      43.033  21.934  26.038  1.00  0.00    -0.246 OA
BRANCH  35  37
ATOM     37  C   UNL A   1      42.103  24.027  26.717  1.00  0.00     0.060 A 
ATOM     38  C   UNL A   1      42.626  24.299  27.982  1.00  0.00     0.016 A 
ATOM     39  C   UNL A   1      41.317  24.967  26.029  1.00  0.00     0.016 A 
ATOM     40  C   UNL A   1      42.293  25.499  28.588  1.00  0.00     0.010 A 
ATOM     41  C   UNL A   1      40.982  26.167  26.647  1.00  0.00     0.010 A 
ATOM     42  C   UNL A   1      41.449  26.421  27.937  1.00  0.00    -0.014 A 
BRANCH  42  43
ATOM     43  C   UNL A   1      41.298  27.728  28.574  1.00  0.00     0.031 A 
ATOM     44  C   UNL A   1      42.414  28.655  28.241  1.00  0.00     0.074 A 
ATOM     45  C   UNL A   1      40.258  28.185  29.298  1.00  0.00     0.049 A 
ATOM     46  N   UNL A   1      43.280  29.183  29.044  1.00  0.00    -0.248 NA
ATOM     47  C   UNL A   1      42.665  28.919  26.815  1.00  0.00     0.031 C 
ATOM     48  C   UNL A   1      38.941  27.586  29.497  1.00  0.00     0.029 A 
ATOM     49  N   UNL A   1      40.162  29.380  29.959  1.00  0.00    -0.354 N 
ATOM     50  C   UNL A   1      44.112  29.959  28.242  1.00  0.00     0.074 A 
ATOM     51  C   UNL A   1      43.765  29.667  26.876  1.00  0.00     0.031 C 
ATOM     52  C   UNL A   1      38.116  28.504  30.055  1.00  0.00     0.029 A 
ATOM     53  C   UNL A   1      38.878  29.703  30.372  1.00  0.00     0.049 A 
ATOM     54  H   UNL A   1      40.939  29.961  30.127  1.00  0.00     0.167 HD
ATOM     55  C   UNL A   1      44.908  30.928  28.764  1.00  0.00     0.037 A 
ATOM     56  C   UNL A   1      38.475  30.894  30.880  1.00  0.00     0.037 A 
ATOM     57  C   UNL A   1      45.116  30.748  30.175  1.00  0.00     0.049 A 
ATOM     58  C   UNL A   1      39.670  31.598  31.401  1.00  0.00     0.074 A 
ATOM     59  C   UNL A   1      45.714  29.788  30.964  1.00  0.00     0.029 A 
ATOM     60  N   UNL A   1      44.388  31.535  31.028  1.00  0.00    -0.354 N 
ATOM     61  N   UNL A   1      40.337  31.239  32.462  1.00  0.00    -0.248 NA
ATOM     62  C   UNL A   1      40.335  32.570  30.546  1.00  0.00     0.031 C 
ATOM     63  C   UNL A   1      44.972  29.782  32.181  1.00  0.00     0.029 A 
ATOM     64  C   UNL A   1      43.972  30.748  32.068  1.00  0.00     0.049 A 
ATOM     65  H   UNL A   1      44.198  32.495  30.914  1.00  0.00     0.167 HD
ATOM     66  C   UNL A   1      41.645  31.601  32.190  1.00  0.00     0.074 A 
ATOM     67  C   UNL A   1      41.557  32.539  31.079  1.00  0.00     0.031 C 
ATOM     68  C   UNL A   1      42.685  30.888  32.707  1.00  0.00     0.037 A 
BRANCH  55  69
ATOM     69  C   UNL A   1      45.205  32.232  28.068  1.00  0.00     0.064 A 
ATOM     70  C   UNL A   1      44.147  33.119  27.787  1.00  0.00     0.173 A 
ATOM     71  C   UNL A   1      46.419  32.495  27.396  1.00  0.00     0.173 A 
ATOM     72  F   UNL A   1      42.942  32.947  28.351  1.00  0.00    -0.203 F 
ATOM     73  C   UNL A   1      44.276  34.144  26.847  1.00  0.00     0.198 A 
ATOM     74  C   UNL A   1      46.559  33.554  26.501  1.00  0.00     0.198 A 
ATOM     75  F   UNL A   1      47.475  31.679  27.488  1.00  0.00    -0.203 F 
ATOM     76  F   UNL A   1      43.207  34.881  26.515  1.00  0.00    -0.200 F 
ATOM     77  C   UNL A   1      45.480  34.357  26.201  1.00  0.00     0.200 A 
ATOM     78  F   UNL A   1      47.729  33.730  25.870  1.00  0.00    -0.200 F 
ATOM     79  F   UNL A   1      45.588  35.297  25.253  1.00  0.00    -0.200 F 
ENDBRANCH  55  69
BRANCH  56  80
ATOM     80  C   UNL A   1      37.179  31.596  30.724  1.00  0.00     0.064 A 
ATOM     81  C   UNL A   1      36.260  31.660  31.788  1.00  0.00     0.173 A 
ATOM     82  C   UNL A   1      36.952  32.474  29.649  1.00  0.00     0.173 A 
ATOM     83  F   UNL A   1      36.423  30.885  32.871  1.00  0.00    -0.203 F 
ATOM     84  C   UNL A   1      35.208  32.582  31.797  1.00  0.00     0.198 A 
ATOM     85  C   UNL A   1      35.895  33.387  29.655  1.00  0.00     0.198 A 
ATOM     86  F   UNL A   1      37.808  32.537  28.621  1.00  0.00    -0.203 F 
ATOM     87  F   UNL A   1      34.404  32.668  32.865  1.00  0.00    -0.200 F 
ATOM     88  C   UNL A   1      35.036  33.455  30.736  1.00  0.00     0.200 A 
ATOM     89  F   UNL A   1      35.759  34.250  28.638  1.00  0.00    -0.200 F 
ATOM     90  F   UNL A   1      34.075  34.387  30.775  1.00  0.00    -0.200 F 
ENDBRANCH  56  80
BRANCH  68  91
ATOM     91  C   UNL A   1      42.396  29.974  33.862  1.00  0.00     0.064 A 
ATOM     92  C   UNL A   1      41.874  28.677  33.729  1.00  0.00     0.173 A 
ATOM     93  C   UNL A   1      42.783  30.391  35.143  1.00  0.00     0.173 A 
ATOM     94  F   UNL A   1      41.573  28.173  32.525  1.00  0.00    -0.203 F 
ATOM     95  C   UNL A   1      41.707  27.852  34.841  1.00  0.00     0.198 A 
ATOM     96  C   UNL A   1      42.652  29.552  36.245  1.00  0.00     0.198 A 
ATOM     97  F   UNL A   1      43.335  31.602  35.318  1.00  0.00    -0.203 F 
ATOM     98  F   UNL A   1      41.192  26.624  34.695  1.00  0.00    -0.200 F 
ATOM     99  C   UNL A   1      42.104  28.288  36.095  1.00  0.00     0.200 A 
ATOM    100  F   UNL A   1      43.082  29.959  37.447  1.00  0.00    -0.200 F 
ATOM    101  F   UNL A   1      41.985  27.480  37.157  1.00  0.00    -0.200 F 
ENDBRANCH  68  91
ENDBRANCH  42  43
ENDBRANCH  35  37
ENDBRANCH  34  35
ENDBRANCH  33  34
ENDBRANCH  32  33
ENDBRANCH  31  32
ENDBRANCH   1  31
TORSDOF 19
ENDMDL
