MODEL 1
REMARK VINA RESULT:     -11.2      0.000      0.000
REMARK SMILES Nc1ccc(Cl)c(SC[C@H]2CC[C@@H](C(=O)OCCOCCOC(=O)c3ccc(-c4c5nc(c(-c6c(F)c(F)c(F)c(F)c6F)c6ccc([nH]6)c(-c6c(F)c(F)c(F)c(F)c6F)c6nc(c(-c7c(F)c(F)c(F)c(F)c7F)c7ccc4[nH]7)C=C6)C=C5)cc3)O2)c1
REMARK SMILES IDX 18 1 17 2 16 3 14 4 15 5 13 6 10 7 11 8 88 9 12 10 9 11 8 12
REMARK SMILES IDX 7 13 2 14 3 15 89 16 4 17 5 18 6 19 1 20 19 23 20 24 21 25
REMARK SMILES IDX 22 26 23 27 24 28 25 29 26 30 87 31 27 32 86 33 28 34 29 35
REMARK SMILES IDX 30 36 80 37 31 38 85 39 79 40 81 41 32 42 84 43 78 44 77 45
REMARK SMILES IDX 33 47 65 48 45 49 64 50 46 51 49 52 63 53 82 54 47 55 48 56
REMARK SMILES IDX 62 58 83 59 50 60 34 61 35 62 43 63 36 64 37 65 41 66 44 67
REMARK SMILES IDX 38 68 39 69 42 70 40 71 66 72 67 73 75 74 68 75 69 76 73 77
REMARK SMILES IDX 76 78 70 79 71 80 74 81 72 82 51 83 52 84 60 85 53 86 54 87
REMARK SMILES IDX 58 88 61 89 55 90 56 91 59 92 57 93
REMARK H PARENT 1 21 1 22 81 46 49 57
REMARK Flexibility Score: inf
ROOT
ATOM      1  C   UNL A   1      40.594  19.892  26.275  1.00  0.00     0.202 C 
ENDROOT
BRANCH   1   2
ATOM      2  C   UNL A   1      39.499  20.884  25.869  1.00  0.00     0.261 C 
BRANCH   2   3
ATOM      3  O   UNL A   1      39.657  22.162  26.514  1.00  0.00    -0.461 OA
BRANCH   3   4
ATOM      4  C   UNL A   1      38.642  23.049  26.309  1.00  0.00     0.335 C 
ATOM      5  O   UNL A   1      38.641  24.210  26.704  1.00  0.00    -0.249 OA
BRANCH   4   6
ATOM      6  C   UNL A   1      37.502  22.460  25.466  1.00  0.00     0.228 C 
ATOM      7  C   UNL A   1      35.283  21.884  25.097  1.00  0.00     0.129 C 
ATOM      8  C   UNL A   1      35.859  22.560  23.829  1.00  0.00     0.036 C 
ATOM      9  O   UNL A   1      36.268  22.114  26.122  1.00  0.00    -0.362 OA
ATOM     10  C   UNL A   1      37.040  23.358  24.344  1.00  0.00     0.047 C 
BRANCH   7  11
ATOM     11  C   UNL A   1      33.866  22.431  25.377  1.00  0.00     0.107 C 
BRANCH  11  12
ATOM     12  S   UNL A   1      32.221  21.593  25.269  1.00  0.00    -0.122 SA
BRANCH  12  13
ATOM     13  C   UNL A   1      32.430  19.921  24.685  1.00  0.00     0.028 A 
ATOM     14  C   UNL A   1      33.128  17.623  25.125  1.00  0.00     0.033 A 
ATOM     15  C   UNL A   1      32.831  17.278  23.808  1.00  0.00     0.027 A 
ATOM     16  C   UNL A   1      32.875  18.928  25.563  1.00  0.00     0.042 A 
ATOM     17  C   UNL A   1      32.451  18.258  22.896  1.00  0.00     0.024 A 
ATOM     18  C   UNL A   1      32.309  19.583  23.319  1.00  0.00     0.054 A 
ATOM     19  Cl  UNL A   1      32.012  20.754  22.073  1.00  0.00    -0.083 Cl
BRANCH  14  20
ATOM     20  N   UNL A   1      33.563  16.660  26.021  1.00  0.00    -0.399 N 
ATOM     21  H   UNL A   1      33.062  15.819  26.122  1.00  0.00     0.156 HD
ATOM     22  H   UNL A   1      34.373  16.818  26.557  1.00  0.00     0.156 HD
ENDBRANCH  14  20
ENDBRANCH  12  13
ENDBRANCH  11  12
ENDBRANCH   7  11
ENDBRANCH   4   6
ENDBRANCH   3   4
ENDBRANCH   2   3
ENDBRANCH   1   2
BRANCH   1  23
ATOM     23  O   UNL A   1      41.719  19.728  25.420  1.00  0.00    -0.374 OA
BRANCH  23  24
ATOM     24  C   UNL A   1      42.998  20.093  25.917  1.00  0.00     0.202 C 
BRANCH  24  25
ATOM     25  C   UNL A   1      43.633  21.418  25.465  1.00  0.00     0.261 C 
BRANCH  25  26
ATOM     26  O   UNL A   1      42.811  22.574  25.519  1.00  0.00    -0.460 OA
BRANCH  26  27
ATOM     27  C   UNL A   1      43.472  23.728  25.281  1.00  0.00     0.338 C 
ATOM     28  O   UNL A   1      44.209  24.027  24.359  1.00  0.00    -0.246 OA
BRANCH  27  29
ATOM     29  C   UNL A   1      43.081  24.637  26.349  1.00  0.00     0.060 A 
ATOM     30  C   UNL A   1      43.638  25.916  26.362  1.00  0.00     0.016 A 
ATOM     31  C   UNL A   1      42.133  24.226  27.287  1.00  0.00     0.016 A 
ATOM     32  C   UNL A   1      43.225  26.819  27.330  1.00  0.00     0.010 A 
ATOM     33  C   UNL A   1      41.724  25.130  28.257  1.00  0.00     0.010 A 
ATOM     34  C   UNL A   1      42.272  26.423  28.278  1.00  0.00    -0.014 A 
BRANCH  34  35
ATOM     35  C   UNL A   1      41.876  27.357  29.345  1.00  0.00     0.031 A 
ATOM     36  C   UNL A   1      42.642  27.350  30.628  1.00  0.00     0.074 A 
ATOM     37  C   UNL A   1      40.828  28.171  29.143  1.00  0.00     0.049 A 
ATOM     38  N   UNL A   1      42.417  28.019  31.726  1.00  0.00    -0.248 NA
ATOM     39  C   UNL A   1      43.814  26.461  30.686  1.00  0.00     0.031 C 
ATOM     40  C   UNL A   1      40.048  28.248  27.906  1.00  0.00     0.029 A 
ATOM     41  N   UNL A   1      40.230  29.076  29.977  1.00  0.00    -0.354 N 
ATOM     42  C   UNL A   1      43.414  27.629  32.608  1.00  0.00     0.074 A 
ATOM     43  C   UNL A   1      44.226  26.641  31.932  1.00  0.00     0.031 C 
ATOM     44  C   UNL A   1      39.063  29.146  28.068  1.00  0.00     0.029 A 
ATOM     45  C   UNL A   1      39.120  29.669  29.429  1.00  0.00     0.049 A 
ATOM     46  H   UNL A   1      40.564  29.281  30.880  1.00  0.00     0.167 HD
ATOM     47  C   UNL A   1      43.626  28.071  33.869  1.00  0.00     0.037 A 
ATOM     48  C   UNL A   1      38.234  30.512  29.989  1.00  0.00     0.037 A 
ATOM     49  C   UNL A   1      42.791  29.049  34.515  1.00  0.00     0.049 A 
ATOM     50  C   UNL A   1      38.450  30.927  31.421  1.00  0.00     0.074 A 
ATOM     51  C   UNL A   1      42.921  29.596  35.777  1.00  0.00     0.029 A 
ATOM     52  N   UNL A   1      41.658  29.614  33.945  1.00  0.00    -0.354 N 
ATOM     53  N   UNL A   1      39.418  30.592  32.241  1.00  0.00    -0.248 NA
ATOM     54  C   UNL A   1      37.452  31.830  32.006  1.00  0.00     0.031 C 
ATOM     55  C   UNL A   1      41.830  30.445  35.995  1.00  0.00     0.029 A 
ATOM     56  C   UNL A   1      41.054  30.475  34.845  1.00  0.00     0.049 A 
ATOM     57  H   UNL A   1      41.331  29.430  33.034  1.00  0.00     0.167 HD
ATOM     58  C   UNL A   1      39.158  31.256  33.431  1.00  0.00     0.074 A 
ATOM     59  C   UNL A   1      37.951  32.031  33.218  1.00  0.00     0.031 C 
ATOM     60  C   UNL A   1      39.849  31.229  34.598  1.00  0.00     0.037 A 
BRANCH  47  61
ATOM     61  C   UNL A   1      44.774  27.478  34.631  1.00  0.00     0.064 A 
ATOM     62  C   UNL A   1      46.066  28.021  34.566  1.00  0.00     0.173 A 
ATOM     63  C   UNL A   1      44.575  26.361  35.456  1.00  0.00     0.173 A 
ATOM     64  F   UNL A   1      46.315  29.079  33.780  1.00  0.00    -0.203 F 
ATOM     65  C   UNL A   1      47.120  27.453  35.278  1.00  0.00     0.198 A 
ATOM     66  C   UNL A   1      45.623  25.814  36.191  1.00  0.00     0.198 A 
ATOM     67  F   UNL A   1      43.360  25.800  35.555  1.00  0.00    -0.203 F 
ATOM     68  F   UNL A   1      48.355  27.959  35.161  1.00  0.00    -0.200 F 
ATOM     69  C   UNL A   1      46.896  26.355  36.096  1.00  0.00     0.200 A 
ATOM     70  F   UNL A   1      45.403  24.761  36.990  1.00  0.00    -0.200 F 
ATOM     71  F   UNL A   1      47.910  25.815  36.786  1.00  0.00    -0.200 F 
ENDBRANCH  47  61
BRANCH  48  72
ATOM     72  C   UNL A   1      37.068  30.995  29.206  1.00  0.00     0.064 A 
ATOM     73  C   UNL A   1      35.981  30.152  28.935  1.00  0.00     0.173 A 
ATOM     74  C   UNL A   1      37.011  32.308  28.715  1.00  0.00     0.173 A 
ATOM     75  F   UNL A   1      35.995  28.883  29.367  1.00  0.00    -0.203 F 
ATOM     76  C   UNL A   1      34.892  30.598  28.189  1.00  0.00     0.198 A 
ATOM     77  C   UNL A   1      35.908  32.762  27.995  1.00  0.00     0.198 A 
ATOM     78  F   UNL A   1      38.021  33.159  28.949  1.00  0.00    -0.203 F 
ATOM     79  F   UNL A   1      33.888  29.758  27.906  1.00  0.00    -0.200 F 
ATOM     80  C   UNL A   1      34.853  31.905  27.725  1.00  0.00     0.200 A 
ATOM     81  F   UNL A   1      35.867  34.031  27.565  1.00  0.00    -0.200 F 
ATOM     82  F   UNL A   1      33.803  32.335  27.012  1.00  0.00    -0.200 F 
ENDBRANCH  48  72
BRANCH  60  83
ATOM     83  C   UNL A   1      39.323  32.069  35.724  1.00  0.00     0.064 A 
ATOM     84  C   UNL A   1      38.457  31.539  36.691  1.00  0.00     0.173 A 
ATOM     85  C   UNL A   1      39.737  33.402  35.868  1.00  0.00     0.173 A 
ATOM     86  F   UNL A   1      38.020  30.275  36.586  1.00  0.00    -0.203 F 
ATOM     87  C   UNL A   1      38.012  32.319  37.754  1.00  0.00     0.198 A 
ATOM     88  C   UNL A   1      39.317  34.167  36.951  1.00  0.00     0.198 A 
ATOM     89  F   UNL A   1      40.569  33.953  34.972  1.00  0.00    -0.203 F 
ATOM     90  F   UNL A   1      37.150  31.805  38.643  1.00  0.00    -0.200 F 
ATOM     91  C   UNL A   1      38.450  33.628  37.889  1.00  0.00     0.200 A 
ATOM     92  F   UNL A   1      39.754  35.426  37.090  1.00  0.00    -0.200 F 
ATOM     93  F   UNL A   1      38.031  34.371  38.922  1.00  0.00    -0.200 F 
ENDBRANCH  60  83
ENDBRANCH  34  35
ENDBRANCH  27  29
ENDBRANCH  26  27
ENDBRANCH  25  26
ENDBRANCH  24  25
ENDBRANCH  23  24
ENDBRANCH   1  23
TORSDOF 18
ENDMDL
MODEL 2
REMARK VINA RESULT:     -10.9      5.207     10.007
REMARK SMILES Nc1ccc(Cl)c(SC[C@H]2CC[C@@H](C(=O)OCCOCCOC(=O)c3ccc(-c4c5nc(c(-c6c(F)c(F)c(F)c(F)c6F)c6ccc([nH]6)c(-c6c(F)c(F)c(F)c(F)c6F)c6nc(c(-c7c(F)c(F)c(F)c(F)c7F)c7ccc4[nH]7)C=C6)C=C5)cc3)O2)c1
REMARK SMILES IDX 18 1 17 2 16 3 14 4 15 5 13 6 10 7 11 8 88 9 12 10 9 11 8 12
REMARK SMILES IDX 7 13 2 14 3 15 89 16 4 17 5 18 6 19 1 20 19 23 20 24 21 25
REMARK SMILES IDX 22 26 23 27 24 28 25 29 26 30 87 31 27 32 86 33 28 34 29 35
REMARK SMILES IDX 30 36 80 37 31 38 85 39 79 40 81 41 32 42 84 43 78 44 77 45
REMARK SMILES IDX 33 47 65 48 45 49 64 50 46 51 49 52 63 53 82 54 47 55 48 56
REMARK SMILES IDX 62 58 83 59 50 60 34 61 35 62 43 63 36 64 37 65 41 66 44 67
REMARK SMILES IDX 38 68 39 69 42 70 40 71 66 72 67 73 75 74 68 75 69 76 73 77
REMARK SMILES IDX 76 78 70 79 71 80 74 81 72 82 51 83 52 84 60 85 53 86 54 87
REMARK SMILES IDX 58 88 61 89 55 90 56 91 59 92 57 93
REMARK H PARENT 1 21 1 22 81 46 49 57
REMARK Flexibility Score: inf
ROOT
ATOM      1  C   UNL A   1      35.164  34.377  28.726  1.00  0.00     0.202 C 
ENDROOT
BRANCH   1   2
ATOM      2  C   UNL A   1      34.811  32.932  29.094  1.00  0.00     0.261 C 
BRANCH   2   3
ATOM      3  O   UNL A   1      33.898  32.338  28.151  1.00  0.00    -0.461 OA
BRANCH   3   4
ATOM      4  C   UNL A   1      34.290  31.139  27.635  1.00  0.00     0.335 C 
ATOM      5  O   UNL A   1      35.449  30.741  27.598  1.00  0.00    -0.249 OA
BRANCH   4   6
ATOM      6  C   UNL A   1      33.107  30.288  27.149  1.00  0.00     0.228 C 
ATOM      7  C   UNL A   1      31.996  28.994  25.574  1.00  0.00     0.129 C 
ATOM      8  C   UNL A   1      31.906  28.311  26.960  1.00  0.00     0.036 C 
ATOM      9  O   UNL A   1      32.969  30.042  25.738  1.00  0.00    -0.362 OA
ATOM     10  C   UNL A   1      33.071  28.896  27.733  1.00  0.00     0.047 C 
BRANCH   7  11
ATOM     11  C   UNL A   1      32.307  27.936  24.493  1.00  0.00     0.107 C 
BRANCH  11  12
ATOM     12  S   UNL A   1      31.763  27.837  22.728  1.00  0.00    -0.122 SA
BRANCH  12  13
ATOM     13  C   UNL A   1      30.182  28.640  22.536  1.00  0.00     0.028 A 
ATOM     14  C   UNL A   1      28.904  30.610  21.870  1.00  0.00     0.033 A 
ATOM     15  C   UNL A   1      27.723  29.978  22.256  1.00  0.00     0.027 A 
ATOM     16  C   UNL A   1      30.114  29.915  21.966  1.00  0.00     0.042 A 
ATOM     17  C   UNL A   1      27.767  28.738  22.887  1.00  0.00     0.024 A 
ATOM     18  C   UNL A   1      28.996  28.099  23.079  1.00  0.00     0.054 A 
ATOM     19  Cl  UNL A   1      28.962  26.651  24.034  1.00  0.00    -0.083 Cl
BRANCH  14  20
ATOM     20  N   UNL A   1      28.869  31.870  21.295  1.00  0.00    -0.399 N 
ATOM     21  H   UNL A   1      28.014  32.351  21.214  1.00  0.00     0.156 HD
ATOM     22  H   UNL A   1      29.699  32.285  20.968  1.00  0.00     0.156 HD
ENDBRANCH  14  20
ENDBRANCH  12  13
ENDBRANCH  11  12
ENDBRANCH   7  11
ENDBRANCH   4   6
ENDBRANCH   3   4
ENDBRANCH   2   3
ENDBRANCH   1   2
BRANCH   1  23
ATOM     23  O   UNL A   1      34.186  35.173  28.068  1.00  0.00    -0.374 OA
BRANCH  23  24
ATOM     24  C   UNL A   1      33.711  36.335  28.731  1.00  0.00     0.202 C 
BRANCH  24  25
ATOM     25  C   UNL A   1      32.669  36.191  29.851  1.00  0.00     0.261 C 
BRANCH  25  26
ATOM     26  O   UNL A   1      33.085  36.537  31.163  1.00  0.00    -0.460 OA
BRANCH  26  27
ATOM     27  C   UNL A   1      32.703  35.653  32.110  1.00  0.00     0.338 C 
ATOM     28  O   UNL A   1      31.595  35.425  32.560  1.00  0.00    -0.246 OA
BRANCH  27  29
ATOM     29  C   UNL A   1      33.908  34.926  32.484  1.00  0.00     0.060 A 
ATOM     30  C   UNL A   1      33.768  33.626  32.973  1.00  0.00     0.016 A 
ATOM     31  C   UNL A   1      35.156  35.522  32.296  1.00  0.00     0.016 A 
ATOM     32  C   UNL A   1      34.907  32.893  33.268  1.00  0.00     0.010 A 
ATOM     33  C   UNL A   1      36.294  34.788  32.595  1.00  0.00     0.010 A 
ATOM     34  C   UNL A   1      36.168  33.476  33.082  1.00  0.00    -0.014 A 
BRANCH  34  35
ATOM     35  C   UNL A   1      37.378  32.725  33.452  1.00  0.00     0.031 A 
ATOM     36  C   UNL A   1      38.064  33.053  34.739  1.00  0.00     0.074 A 
ATOM     37  C   UNL A   1      37.843  31.783  32.616  1.00  0.00     0.049 A 
ATOM     38  N   UNL A   1      39.183  32.583  35.220  1.00  0.00    -0.248 NA
ATOM     39  C   UNL A   1      37.405  34.053  35.595  1.00  0.00     0.031 C 
ATOM     40  C   UNL A   1      37.211  31.394  31.353  1.00  0.00     0.029 A 
ATOM     41  N   UNL A   1      38.958  30.995  32.693  1.00  0.00    -0.354 N 
ATOM     42  C   UNL A   1      39.367  33.233  36.432  1.00  0.00     0.074 A 
ATOM     43  C   UNL A   1      38.264  34.155  36.598  1.00  0.00     0.031 C 
ATOM     44  C   UNL A   1      37.960  30.446  30.766  1.00  0.00     0.029 A 
ATOM     45  C   UNL A   1      39.139  30.198  31.590  1.00  0.00     0.049 A 
ATOM     46  H   UNL A   1      39.571  31.000  33.464  1.00  0.00     0.167 HD
ATOM     47  C   UNL A   1      40.371  33.062  37.321  1.00  0.00     0.037 A 
ATOM     48  C   UNL A   1      40.166  29.389  31.276  1.00  0.00     0.037 A 
ATOM     49  C   UNL A   1      41.459  32.142  37.118  1.00  0.00     0.049 A 
ATOM     50  C   UNL A   1      41.310  29.276  32.249  1.00  0.00     0.074 A 
ATOM     51  C   UNL A   1      42.519  31.859  37.959  1.00  0.00     0.029 A 
ATOM     52  N   UNL A   1      41.630  31.366  35.980  1.00  0.00    -0.354 N 
ATOM     53  N   UNL A   1      41.463  29.858  33.415  1.00  0.00    -0.248 NA
ATOM     54  C   UNL A   1      42.423  28.402  31.863  1.00  0.00     0.031 C 
ATOM     55  C   UNL A   1      43.365  30.959  37.301  1.00  0.00     0.029 A 
ATOM     56  C   UNL A   1      42.800  30.633  36.076  1.00  0.00     0.049 A 
ATOM     57  H   UNL A   1      41.010  31.340  35.215  1.00  0.00     0.167 HD
ATOM     58  C   UNL A   1      42.677  29.407  33.912  1.00  0.00     0.074 A 
ATOM     59  C   UNL A   1      43.210  28.486  32.927  1.00  0.00     0.031 C 
ATOM     60  C   UNL A   1      43.301  29.725  35.073  1.00  0.00     0.037 A 
BRANCH  47  61
ATOM     61  C   UNL A   1      40.353  33.903  38.563  1.00  0.00     0.064 A 
ATOM     62  C   UNL A   1      41.001  35.146  38.626  1.00  0.00     0.173 A 
ATOM     63  C   UNL A   1      39.657  33.470  39.702  1.00  0.00     0.173 A 
ATOM     64  F   UNL A   1      41.694  35.601  37.571  1.00  0.00    -0.203 F 
ATOM     65  C   UNL A   1      40.976  35.911  39.790  1.00  0.00     0.198 A 
ATOM     66  C   UNL A   1      39.608  34.250  40.854  1.00  0.00     0.198 A 
ATOM     67  F   UNL A   1      39.020  32.288  39.698  1.00  0.00    -0.203 F 
ATOM     68  F   UNL A   1      41.644  37.071  39.843  1.00  0.00    -0.200 F 
ATOM     69  C   UNL A   1      40.273  35.466  40.900  1.00  0.00     0.200 A 
ATOM     70  F   UNL A   1      38.918  33.824  41.921  1.00  0.00    -0.200 F 
ATOM     71  F   UNL A   1      40.243  36.206  42.017  1.00  0.00    -0.200 F 
ENDBRANCH  47  61
BRANCH  48  72
ATOM     72  C   UNL A   1      40.164  28.649  29.987  1.00  0.00     0.064 A 
ATOM     73  C   UNL A   1      40.786  29.179  28.849  1.00  0.00     0.173 A 
ATOM     74  C   UNL A   1      39.546  27.396  29.866  1.00  0.00     0.173 A 
ATOM     75  F   UNL A   1      41.377  30.382  28.908  1.00  0.00    -0.203 F 
ATOM     76  C   UNL A   1      40.774  28.494  27.636  1.00  0.00     0.198 A 
ATOM     77  C   UNL A   1      39.560  26.697  28.660  1.00  0.00     0.198 A 
ATOM     78  F   UNL A   1      38.939  26.838  30.925  1.00  0.00    -0.203 F 
ATOM     79  F   UNL A   1      41.337  29.045  26.552  1.00  0.00    -0.200 F 
ATOM     80  C   UNL A   1      40.167  27.251  27.544  1.00  0.00     0.200 A 
ATOM     81  F   UNL A   1      38.987  25.488  28.582  1.00  0.00    -0.200 F 
ATOM     82  F   UNL A   1      40.159  26.589  26.379  1.00  0.00    -0.200 F 
ENDBRANCH  48  72
BRANCH  60  83
ATOM     83  C   UNL A   1      44.619  29.063  35.345  1.00  0.00     0.064 A 
ATOM     84  C   UNL A   1      45.831  29.667  34.982  1.00  0.00     0.173 A 
ATOM     85  C   UNL A   1      44.671  27.839  36.029  1.00  0.00     0.173 A 
ATOM     86  F   UNL A   1      45.833  30.829  34.311  1.00  0.00    -0.203 F 
ATOM     87  C   UNL A   1      47.048  29.060  35.279  1.00  0.00     0.198 A 
ATOM     88  C   UNL A   1      45.890  27.253  36.354  1.00  0.00     0.198 A 
ATOM     89  F   UNL A   1      43.538  27.224  36.402  1.00  0.00    -0.203 F 
ATOM     90  F   UNL A   1      48.194  29.634  34.885  1.00  0.00    -0.200 F 
ATOM     91  C   UNL A   1      47.076  27.860  35.974  1.00  0.00     0.200 A 
ATOM     92  F   UNL A   1      45.916  26.102  37.040  1.00  0.00    -0.200 F 
ATOM     93  F   UNL A   1      48.250  27.286  36.272  1.00  0.00    -0.200 F 
ENDBRANCH  60  83
ENDBRANCH  34  35
ENDBRANCH  27  29
ENDBRANCH  26  27
ENDBRANCH  25  26
ENDBRANCH  24  25
ENDBRANCH  23  24
ENDBRANCH   1  23
TORSDOF 18
ENDMDL
MODEL 3
REMARK VINA RESULT:     -10.7      5.163      7.425
REMARK SMILES Nc1ccc(Cl)c(SC[C@H]2CC[C@@H](C(=O)OCCOCCOC(=O)c3ccc(-c4c5nc(c(-c6c(F)c(F)c(F)c(F)c6F)c6ccc([nH]6)c(-c6c(F)c(F)c(F)c(F)c6F)c6nc(c(-c7c(F)c(F)c(F)c(F)c7F)c7ccc4[nH]7)C=C6)C=C5)cc3)O2)c1
REMARK SMILES IDX 18 1 17 2 16 3 14 4 15 5 13 6 10 7 11 8 88 9 12 10 9 11 8 12
REMARK SMILES IDX 7 13 2 14 3 15 89 16 4 17 5 18 6 19 1 20 19 23 20 24 21 25
REMARK SMILES IDX 22 26 23 27 24 28 25 29 26 30 87 31 27 32 86 33 28 34 29 35
REMARK SMILES IDX 30 36 80 37 31 38 85 39 79 40 81 41 32 42 84 43 78 44 77 45
REMARK SMILES IDX 33 47 65 48 45 49 64 50 46 51 49 52 63 53 82 54 47 55 48 56
REMARK SMILES IDX 62 58 83 59 50 60 34 61 35 62 43 63 36 64 37 65 41 66 44 67
REMARK SMILES IDX 38 68 39 69 42 70 40 71 66 72 67 73 75 74 68 75 69 76 73 77
REMARK SMILES IDX 76 78 70 79 71 80 74 81 72 82 51 83 52 84 60 85 53 86 54 87
REMARK SMILES IDX 58 88 61 89 55 90 56 91 59 92 57 93
REMARK H PARENT 1 21 1 22 81 46 49 57
REMARK Flexibility Score: inf
ROOT
ATOM      1  C   UNL A   1      40.560  21.396  26.898  1.00  0.00     0.202 C 
ENDROOT
BRANCH   1   2
ATOM      2  C   UNL A   1      39.663  22.487  26.302  1.00  0.00     0.261 C 
BRANCH   2   3
ATOM      3  O   UNL A   1      38.264  22.162  26.413  1.00  0.00    -0.461 OA
BRANCH   3   4
ATOM      4  C   UNL A   1      37.728  21.520  25.337  1.00  0.00     0.335 C 
ATOM      5  O   UNL A   1      37.982  20.364  25.017  1.00  0.00    -0.249 OA
BRANCH   4   6
ATOM      6  C   UNL A   1      36.705  22.382  24.582  1.00  0.00     0.228 C 
ATOM      7  C   UNL A   1      34.572  22.854  23.797  1.00  0.00     0.129 C 
ATOM      8  C   UNL A   1      35.198  24.137  24.396  1.00  0.00     0.036 C 
ATOM      9  O   UNL A   1      35.451  21.788  24.200  1.00  0.00    -0.362 OA
ATOM     10  C   UNL A   1      36.272  23.619  25.331  1.00  0.00     0.047 C 
BRANCH   7  11
ATOM     11  C   UNL A   1      33.101  22.735  24.251  1.00  0.00     0.107 C 
BRANCH  11  12
ATOM     12  S   UNL A   1      32.253  21.402  25.214  1.00  0.00    -0.122 SA
BRANCH  12  13
ATOM     13  C   UNL A   1      32.591  19.815  24.475  1.00  0.00     0.028 A 
ATOM     14  C   UNL A   1      33.596  17.597  24.652  1.00  0.00     0.033 A 
ATOM     15  C   UNL A   1      33.198  17.310  23.347  1.00  0.00     0.027 A 
ATOM     16  C   UNL A   1      33.242  18.826  25.219  1.00  0.00     0.042 A 
ATOM     17  C   UNL A   1      32.609  18.296  22.562  1.00  0.00     0.024 A 
ATOM     18  C   UNL A   1      32.360  19.560  23.105  1.00  0.00     0.054 A 
ATOM     19  Cl  UNL A   1      31.794  20.770  21.997  1.00  0.00    -0.083 Cl
BRANCH  14  20
ATOM     20  N   UNL A   1      34.236  16.635  25.417  1.00  0.00    -0.399 N 
ATOM     21  H   UNL A   1      34.768  15.932  24.980  1.00  0.00     0.156 HD
ATOM     22  H   UNL A   1      34.159  16.656  26.398  1.00  0.00     0.156 HD
ENDBRANCH  14  20
ENDBRANCH  12  13
ENDBRANCH  11  12
ENDBRANCH   7  11
ENDBRANCH   4   6
ENDBRANCH   3   4
ENDBRANCH   2   3
ENDBRANCH   1   2
BRANCH   1  23
ATOM     23  O   UNL A   1      41.456  20.702  26.038  1.00  0.00    -0.374 OA
BRANCH  23  24
ATOM     24  C   UNL A   1      42.009  19.477  26.494  1.00  0.00     0.202 C 
BRANCH  24  25
ATOM     25  C   UNL A   1      43.105  18.790  25.665  1.00  0.00     0.261 C 
BRANCH  25  26
ATOM     26  O   UNL A   1      43.469  19.412  24.442  1.00  0.00    -0.460 OA
BRANCH  26  27
ATOM     27  C   UNL A   1      44.791  19.669  24.330  1.00  0.00     0.338 C 
ATOM     28  O   UNL A   1      45.689  18.959  23.917  1.00  0.00    -0.246 OA
BRANCH  27  29
ATOM     29  C   UNL A   1      44.963  21.052  24.752  1.00  0.00     0.060 A 
ATOM     30  C   UNL A   1      44.692  22.062  23.828  1.00  0.00     0.016 A 
ATOM     31  C   UNL A   1      45.340  21.326  26.068  1.00  0.00     0.016 A 
ATOM     32  C   UNL A   1      44.782  23.385  24.233  1.00  0.00     0.010 A 
ATOM     33  C   UNL A   1      45.434  22.650  26.469  1.00  0.00     0.010 A 
ATOM     34  C   UNL A   1      45.157  23.677  25.551  1.00  0.00    -0.014 A 
BRANCH  34  35
ATOM     35  C   UNL A   1      45.315  25.079  25.969  1.00  0.00     0.031 A 
ATOM     36  C   UNL A   1      46.670  25.705  25.891  1.00  0.00     0.074 A 
ATOM     37  C   UNL A   1      44.245  25.749  26.426  1.00  0.00     0.049 A 
ATOM     38  N   UNL A   1      47.056  26.888  26.284  1.00  0.00    -0.248 NA
ATOM     39  C   UNL A   1      47.738  24.882  25.300  1.00  0.00     0.031 C 
ATOM     40  C   UNL A   1      42.887  25.208  26.508  1.00  0.00     0.029 A 
ATOM     41  N   UNL A   1      44.134  27.019  26.921  1.00  0.00    -0.354 N 
ATOM     42  C   UNL A   1      48.411  26.952  25.994  1.00  0.00     0.074 A 
ATOM     43  C   UNL A   1      48.790  25.677  25.424  1.00  0.00     0.031 C 
ATOM     44  C   UNL A   1      42.078  26.141  27.036  1.00  0.00     0.029 A 
ATOM     45  C   UNL A   1      42.871  27.320  27.367  1.00  0.00     0.049 A 
ATOM     46  H   UNL A   1      44.885  27.654  26.953  1.00  0.00     0.167 HD
ATOM     47  C   UNL A   1      49.253  27.993  26.187  1.00  0.00     0.037 A 
ATOM     48  C   UNL A   1      42.426  28.419  28.004  1.00  0.00     0.037 A 
ATOM     49  C   UNL A   1      48.843  29.244  26.767  1.00  0.00     0.049 A 
ATOM     50  C   UNL A   1      43.404  29.531  28.277  1.00  0.00     0.074 A 
ATOM     51  C   UNL A   1      49.597  30.382  26.987  1.00  0.00     0.029 A 
ATOM     52  N   UNL A   1      47.563  29.513  27.234  1.00  0.00    -0.354 N 
ATOM     53  N   UNL A   1      44.676  29.609  27.963  1.00  0.00    -0.248 NA
ATOM     54  C   UNL A   1      42.889  30.704  28.994  1.00  0.00     0.031 C 
ATOM     55  C   UNL A   1      48.789  31.316  27.645  1.00  0.00     0.029 A 
ATOM     56  C   UNL A   1      47.514  30.784  27.779  1.00  0.00     0.049 A 
ATOM     57  H   UNL A   1      46.801  28.890  27.185  1.00  0.00     0.167 HD
ATOM     58  C   UNL A   1      45.110  30.842  28.426  1.00  0.00     0.074 A 
ATOM     59  C   UNL A   1      43.957  31.488  29.023  1.00  0.00     0.031 C 
ATOM     60  C   UNL A   1      46.347  31.394  28.368  1.00  0.00     0.037 A 
BRANCH  47  61
ATOM     61  C   UNL A   1      50.690  27.806  25.802  1.00  0.00     0.064 A 
ATOM     62  C   UNL A   1      51.122  27.925  24.472  1.00  0.00     0.173 A 
ATOM     63  C   UNL A   1      51.656  27.525  26.780  1.00  0.00     0.173 A 
ATOM     64  F   UNL A   1      50.238  28.177  23.495  1.00  0.00    -0.203 F 
ATOM     65  C   UNL A   1      52.462  27.744  24.133  1.00  0.00     0.198 A 
ATOM     66  C   UNL A   1      52.998  27.375  26.443  1.00  0.00     0.198 A 
ATOM     67  F   UNL A   1      51.298  27.399  28.068  1.00  0.00    -0.203 F 
ATOM     68  F   UNL A   1      52.842  27.813  22.850  1.00  0.00    -0.200 F 
ATOM     69  C   UNL A   1      53.399  27.477  25.120  1.00  0.00     0.200 A 
ATOM     70  F   UNL A   1      53.905  27.129  27.399  1.00  0.00    -0.200 F 
ATOM     71  F   UNL A   1      54.688  27.311  24.793  1.00  0.00    -0.200 F 
ENDBRANCH  47  61
BRANCH  48  72
ATOM     72  C   UNL A   1      41.008  28.504  28.438  1.00  0.00     0.064 A 
ATOM     73  C   UNL A   1      40.615  28.066  29.710  1.00  0.00     0.173 A 
ATOM     74  C   UNL A   1      40.017  29.029  27.596  1.00  0.00     0.173 A 
ATOM     75  F   UNL A   1      41.521  27.541  30.547  1.00  0.00    -0.203 F 
ATOM     76  C   UNL A   1      39.283  28.132  30.115  1.00  0.00     0.198 A 
ATOM     77  C   UNL A   1      38.691  29.122  28.013  1.00  0.00     0.198 A 
ATOM     78  F   UNL A   1      40.338  29.467  26.369  1.00  0.00    -0.203 F 
ATOM     79  F   UNL A   1      38.928  27.664  31.319  1.00  0.00    -0.200 F 
ATOM     80  C   UNL A   1      38.323  28.666  29.269  1.00  0.00     0.200 A 
ATOM     81  F   UNL A   1      37.770  29.656  27.197  1.00  0.00    -0.200 F 
ATOM     82  F   UNL A   1      37.043  28.735  29.660  1.00  0.00    -0.200 F 
ENDBRANCH  48  72
BRANCH  60  83
ATOM     83  C   UNL A   1      46.512  32.766  28.953  1.00  0.00     0.064 A 
ATOM     84  C   UNL A   1      46.277  33.919  28.192  1.00  0.00     0.173 A 
ATOM     85  C   UNL A   1      46.851  32.925  30.306  1.00  0.00     0.173 A 
ATOM     86  F   UNL A   1      45.967  33.819  26.891  1.00  0.00    -0.203 F 
ATOM     87  C   UNL A   1      46.392  35.185  28.761  1.00  0.00     0.198 A 
ATOM     88  C   UNL A   1      46.931  34.190  30.879  1.00  0.00     0.198 A 
ATOM     89  F   UNL A   1      47.080  31.851  31.077  1.00  0.00    -0.203 F 
ATOM     90  F   UNL A   1      46.206  36.276  28.004  1.00  0.00    -0.200 F 
ATOM     91  C   UNL A   1      46.708  35.318  30.105  1.00  0.00     0.200 A 
ATOM     92  F   UNL A   1      47.220  34.317  32.181  1.00  0.00    -0.200 F 
ATOM     93  F   UNL A   1      46.803  36.537  30.653  1.00  0.00    -0.200 F 
ENDBRANCH  60  83
ENDBRANCH  34  35
ENDBRANCH  27  29
ENDBRANCH  26  27
ENDBRANCH  25  26
ENDBRANCH  24  25
ENDBRANCH  23  24
ENDBRANCH   1  23
TORSDOF 18
ENDMDL
