MODEL 1
REMARK VINA RESULT:     -12.0      0.000      0.000
REMARK SMILES Cc1c(Br)c(C)c2c(c1Br)O[C@H](C(F)(F)F)C(C(=O)OCCOCCOC(=O)c1ccc(-c3c4nc(c(-c5c(F)c(F)c(F)c(F)c5F)c5ccc([nH]5)c(-c5c(F)c(F)c(F)c(F)c5F)c5nc(c(-c6c(F)c(F)c(F)c(F)c6F)c6ccc3[nH]6)C=C5)C=C4)cc1)=C2
REMARK SMILES IDX 24 1 23 2 22 3 21 4 20 5 18 6 19 7 17 8 1 9 2 10 3 11 9 12
REMARK SMILES IDX 4 13 5 14 8 15 10 16 6 17 7 18 11 19 92 20 12 21 13 22 14 23
REMARK SMILES IDX 15 24 16 25 25 26 26 27 27 28 28 29 29 30 30 31 91 32 31 33
REMARK SMILES IDX 90 34 32 35 33 36 34 37 84 38 35 39 89 40 83 41 85 42 36 43
REMARK SMILES IDX 88 44 82 45 81 46 37 48 69 49 49 50 68 51 50 52 53 53 67 54
REMARK SMILES IDX 86 55 51 56 52 57 66 59 87 60 54 61 38 62 39 63 47 64 40 65
REMARK SMILES IDX 41 66 45 67 48 68 42 69 43 70 46 71 44 72 70 73 71 74 79 75
REMARK SMILES IDX 72 76 73 77 77 78 80 79 74 80 75 81 78 82 76 83 55 84 56 85
REMARK SMILES IDX 64 86 57 87 58 88 62 89 65 90 59 91 60 92 63 93 61 94
REMARK H PARENT 85 47 53 58
REMARK Flexibility Score: inf
ROOT
ATOM      1  C   UNL A   1      31.771  29.921  25.420  1.00  0.00     0.202 C 
ENDROOT
BRANCH   1   2
ATOM      2  O   UNL A   1      33.020  29.481  24.883  1.00  0.00    -0.374 OA
BRANCH   2   3
ATOM      3  C   UNL A   1      33.043  29.013  23.538  1.00  0.00     0.202 C 
BRANCH   3   4
ATOM      4  C   UNL A   1      32.802  27.517  23.322  1.00  0.00     0.261 C 
BRANCH   4   5
ATOM      5  O   UNL A   1      33.568  26.715  24.235  1.00  0.00    -0.460 OA
BRANCH   5   6
ATOM      6  C   UNL A   1      32.823  25.988  25.100  1.00  0.00     0.338 C 
ATOM      7  O   UNL A   1      31.799  26.343  25.665  1.00  0.00    -0.246 OA
BRANCH   6   8
ATOM      8  C   UNL A   1      33.350  24.614  25.186  1.00  0.00     0.087 C 
ATOM      9  C   UNL A   1      37.173  19.332  24.900  1.00  0.00     0.047 C 
ATOM     10  C   UNL A   1      36.488  20.655  25.158  1.00  0.00    -0.019 A 
ATOM     11  C   UNL A   1      37.256  21.775  25.571  1.00  0.00     0.025 A 
ATOM     12  C   UNL A   1      35.098  20.823  25.002  1.00  0.00     0.064 A 
ATOM     13  Br  UNL A   1      39.143  21.545  25.855  1.00  0.00    -0.050 Br
ATOM     14  C   UNL A   1      36.665  23.047  25.764  1.00  0.00    -0.026 A 
ATOM     15  C   UNL A   1      34.498  22.086  25.164  1.00  0.00     0.142 A 
ATOM     16  Br  UNL A   1      33.961  19.350  24.539  1.00  0.00    -0.046 Br
ATOM     17  C   UNL A   1      37.459  24.250  26.231  1.00  0.00     0.046 C 
ATOM     18  C   UNL A   1      35.281  23.199  25.503  1.00  0.00     0.022 A 
ATOM     19  O   UNL A   1      33.137  22.159  24.999  1.00  0.00    -0.474 OA
ATOM     20  C   UNL A   1      34.641  24.512  25.519  1.00  0.00     0.027 C 
ATOM     21  C   UNL A   1      32.474  23.442  24.887  1.00  0.00     0.316 C 
BRANCH  21  22
ATOM     22  C   UNL A   1      31.807  23.532  23.506  1.00  0.00     0.430 C 
ATOM     23  F   UNL A   1      30.624  24.190  23.574  1.00  0.00    -0.167 F 
ATOM     24  F   UNL A   1      32.576  24.215  22.623  1.00  0.00    -0.167 F 
ATOM     25  F   UNL A   1      31.567  22.313  22.977  1.00  0.00    -0.167 F 
ENDBRANCH  21  22
ENDBRANCH   6   8
ENDBRANCH   5   6
ENDBRANCH   4   5
ENDBRANCH   3   4
ENDBRANCH   2   3
ENDBRANCH   1   2
BRANCH   1  26
ATOM     26  C   UNL A   1      31.809  31.071  26.434  1.00  0.00     0.261 C 
BRANCH  26  27
ATOM     27  O   UNL A   1      32.826  30.871  27.435  1.00  0.00    -0.460 OA
BRANCH  27  28
ATOM     28  C   UNL A   1      33.637  31.933  27.644  1.00  0.00     0.338 C 
ATOM     29  O   UNL A   1      33.322  33.115  27.690  1.00  0.00    -0.246 OA
BRANCH  28  30
ATOM     30  C   UNL A   1      34.983  31.468  28.013  1.00  0.00     0.060 A 
ATOM     31  C   UNL A   1      35.145  30.108  28.306  1.00  0.00     0.016 A 
ATOM     32  C   UNL A   1      36.045  32.361  28.160  1.00  0.00     0.016 A 
ATOM     33  C   UNL A   1      36.366  29.640  28.783  1.00  0.00     0.010 A 
ATOM     34  C   UNL A   1      37.268  31.891  28.653  1.00  0.00     0.010 A 
ATOM     35  C   UNL A   1      37.422  30.536  28.998  1.00  0.00    -0.014 A 
BRANCH  35  36
ATOM     36  C   UNL A   1      38.624  30.069  29.728  1.00  0.00     0.031 A 
ATOM     37  C   UNL A   1      38.877  30.582  31.117  1.00  0.00     0.074 A 
ATOM     38  C   UNL A   1      39.441  29.149  29.185  1.00  0.00     0.049 A 
ATOM     39  N   UNL A   1      39.840  30.281  31.950  1.00  0.00    -0.248 NA
ATOM     40  C   UNL A   1      37.913  31.562  31.641  1.00  0.00     0.031 C 
ATOM     41  C   UNL A   1      39.271  28.546  27.866  1.00  0.00     0.029 A 
ATOM     42  N   UNL A   1      40.573  28.556  29.685  1.00  0.00    -0.354 N 
ATOM     43  C   UNL A   1      39.590  31.022  33.097  1.00  0.00     0.074 A 
ATOM     44  C   UNL A   1      38.412  31.820  32.841  1.00  0.00     0.031 C 
ATOM     45  C   UNL A   1      40.259  27.659  27.661  1.00  0.00     0.029 A 
ATOM     46  C   UNL A   1      41.147  27.653  28.825  1.00  0.00     0.049 A 
ATOM     47  H   UNL A   1      40.939  28.759  30.576  1.00  0.00     0.167 HD
ATOM     48  C   UNL A   1      40.274  31.021  34.266  1.00  0.00     0.037 A 
ATOM     49  C   UNL A   1      42.264  26.912  28.961  1.00  0.00     0.037 A 
ATOM     50  C   UNL A   1      41.448  30.229  34.518  1.00  0.00     0.049 A 
ATOM     51  C   UNL A   1      43.062  27.005  30.235  1.00  0.00     0.074 A 
ATOM     52  C   UNL A   1      42.202  30.152  35.675  1.00  0.00     0.029 A 
ATOM     53  N   UNL A   1      42.041  29.382  33.594  1.00  0.00    -0.354 N 
ATOM     54  N   UNL A   1      42.805  27.688  31.325  1.00  0.00    -0.248 NA
ATOM     55  C   UNL A   1      44.309  26.226  30.298  1.00  0.00     0.031 C 
ATOM     56  C   UNL A   1      43.280  29.296  35.435  1.00  0.00     0.029 A 
ATOM     57  C   UNL A   1      43.170  28.802  34.145  1.00  0.00     0.049 A 
ATOM     58  H   UNL A   1      41.708  29.218  32.682  1.00  0.00     0.167 HD
ATOM     59  C   UNL A   1      43.840  27.407  32.206  1.00  0.00     0.074 A 
ATOM     60  C   UNL A   1      44.725  26.481  31.532  1.00  0.00     0.031 C 
ATOM     61  C   UNL A   1      44.040  27.878  33.462  1.00  0.00     0.037 A 
BRANCH  48  62
ATOM     62  C   UNL A   1      39.773  31.909  35.365  1.00  0.00     0.064 A 
ATOM     63  C   UNL A   1      40.238  33.223  35.513  1.00  0.00     0.173 A 
ATOM     64  C   UNL A   1      38.773  31.462  36.242  1.00  0.00     0.173 A 
ATOM     65  F   UNL A   1      41.202  33.692  34.707  1.00  0.00    -0.203 F 
ATOM     66  C   UNL A   1      39.732  34.055  36.508  1.00  0.00     0.198 A 
ATOM     67  C   UNL A   1      38.251  32.304  37.221  1.00  0.00     0.198 A 
ATOM     68  F   UNL A   1      38.292  30.214  36.139  1.00  0.00    -0.203 F 
ATOM     69  F   UNL A   1      40.215  35.296  36.652  1.00  0.00    -0.200 F 
ATOM     70  C   UNL A   1      38.733  33.598  37.355  1.00  0.00     0.200 A 
ATOM     71  F   UNL A   1      37.278  31.865  38.030  1.00  0.00    -0.200 F 
ATOM     72  F   UNL A   1      38.236  34.404  38.304  1.00  0.00    -0.200 F 
ENDBRANCH  48  62
BRANCH  49  73
ATOM     73  C   UNL A   1      42.691  26.011  27.859  1.00  0.00     0.064 A 
ATOM     74  C   UNL A   1      43.527  26.474  26.834  1.00  0.00     0.173 A 
ATOM     75  C   UNL A   1      42.278  24.672  27.811  1.00  0.00     0.173 A 
ATOM     76  F   UNL A   1      43.928  27.754  26.823  1.00  0.00    -0.203 F 
ATOM     77  C   UNL A   1      43.927  25.632  25.798  1.00  0.00     0.198 A 
ATOM     78  C   UNL A   1      42.699  23.825  26.788  1.00  0.00     0.198 A 
ATOM     79  F   UNL A   1      41.474  24.182  28.766  1.00  0.00    -0.203 F 
ATOM     80  F   UNL A   1      44.699  26.109  24.811  1.00  0.00    -0.200 F 
ATOM     81  C   UNL A   1      43.519  24.307  25.779  1.00  0.00     0.200 A 
ATOM     82  F   UNL A   1      42.309  22.543  26.779  1.00  0.00    -0.200 F 
ATOM     83  F   UNL A   1      43.911  23.496  24.788  1.00  0.00    -0.200 F 
ENDBRANCH  49  73
BRANCH  61  84
ATOM     84  C   UNL A   1      45.255  27.404  34.203  1.00  0.00     0.064 A 
ATOM     85  C   UNL A   1      46.453  28.132  34.182  1.00  0.00     0.173 A 
ATOM     86  C   UNL A   1      45.191  26.266  35.022  1.00  0.00     0.173 A 
ATOM     87  F   UNL A   1      46.567  29.220  33.405  1.00  0.00    -0.203 F 
ATOM     88  C   UNL A   1      47.545  27.735  34.950  1.00  0.00     0.198 A 
ATOM     89  C   UNL A   1      46.275  25.887  35.809  1.00  0.00     0.198 A 
ATOM     90  F   UNL A   1      44.065  25.540  35.085  1.00  0.00    -0.203 F 
ATOM     91  F   UNL A   1      48.688  28.433  34.896  1.00  0.00    -0.200 F 
ATOM     92  C   UNL A   1      47.451  26.622  35.771  1.00  0.00     0.200 A 
ATOM     93  F   UNL A   1      46.178  24.821  36.615  1.00  0.00    -0.200 F 
ATOM     94  F   UNL A   1      48.496  26.255  36.527  1.00  0.00    -0.200 F 
ENDBRANCH  61  84
ENDBRANCH  35  36
ENDBRANCH  28  30
ENDBRANCH  27  28
ENDBRANCH  26  27
ENDBRANCH   1  26
TORSDOF 15
ENDMDL
MODEL 2
REMARK VINA RESULT:     -11.9      4.288      9.630
REMARK SMILES Cc1c(Br)c(C)c2c(c1Br)O[C@H](C(F)(F)F)C(C(=O)OCCOCCOC(=O)c1ccc(-c3c4nc(c(-c5c(F)c(F)c(F)c(F)c5F)c5ccc([nH]5)c(-c5c(F)c(F)c(F)c(F)c5F)c5nc(c(-c6c(F)c(F)c(F)c(F)c6F)c6ccc3[nH]6)C=C5)C=C4)cc1)=C2
REMARK SMILES IDX 24 1 23 2 22 3 21 4 20 5 18 6 19 7 17 8 1 9 2 10 3 11 9 12
REMARK SMILES IDX 4 13 5 14 8 15 10 16 6 17 7 18 11 19 92 20 12 21 13 22 14 23
REMARK SMILES IDX 15 24 16 25 25 26 26 27 27 28 28 29 29 30 30 31 91 32 31 33
REMARK SMILES IDX 90 34 32 35 33 36 34 37 84 38 35 39 89 40 83 41 85 42 36 43
REMARK SMILES IDX 88 44 82 45 81 46 37 48 69 49 49 50 68 51 50 52 53 53 67 54
REMARK SMILES IDX 86 55 51 56 52 57 66 59 87 60 54 61 38 62 39 63 47 64 40 65
REMARK SMILES IDX 41 66 45 67 48 68 42 69 43 70 46 71 44 72 70 73 71 74 79 75
REMARK SMILES IDX 72 76 73 77 77 78 80 79 74 80 75 81 78 82 76 83 55 84 56 85
REMARK SMILES IDX 64 86 57 87 58 88 62 89 65 90 59 91 60 92 63 93 61 94
REMARK H PARENT 85 47 53 58
REMARK Flexibility Score: inf
ROOT
ATOM      1  C   UNL A   1      35.809  20.729  25.171  1.00  0.00     0.202 C 
ENDROOT
BRANCH   1   2
ATOM      2  O   UNL A   1      35.468  21.485  26.335  1.00  0.00    -0.374 OA
BRANCH   2   3
ATOM      3  C   UNL A   1      34.105  21.499  26.747  1.00  0.00     0.202 C 
BRANCH   3   4
ATOM      4  C   UNL A   1      33.229  22.629  26.200  1.00  0.00     0.261 C 
BRANCH   4   5
ATOM      5  O   UNL A   1      33.976  23.841  26.009  1.00  0.00    -0.460 OA
BRANCH   5   6
ATOM      6  C   UNL A   1      34.029  24.268  24.727  1.00  0.00     0.338 C 
ATOM      7  O   UNL A   1      34.428  23.637  23.759  1.00  0.00    -0.246 OA
BRANCH   6   8
ATOM      8  C   UNL A   1      33.405  25.599  24.614  1.00  0.00     0.087 C 
ATOM      9  C   UNL A   1      31.027  31.541  25.892  1.00  0.00     0.047 C 
ATOM     10  C   UNL A   1      31.836  30.282  25.678  1.00  0.00    -0.019 A 
ATOM     11  C   UNL A   1      33.029  30.078  26.419  1.00  0.00     0.025 A 
ATOM     12  C   UNL A   1      31.445  29.287  24.760  1.00  0.00     0.064 A 
ATOM     13  Br  UNL A   1      33.612  31.456  27.625  1.00  0.00    -0.050 Br
ATOM     14  C   UNL A   1      33.784  28.887  26.295  1.00  0.00    -0.026 A 
ATOM     15  C   UNL A   1      32.169  28.085  24.643  1.00  0.00     0.142 A 
ATOM     16  Br  UNL A   1      29.902  29.509  23.645  1.00  0.00    -0.046 Br
ATOM     17  C   UNL A   1      35.075  28.659  27.053  1.00  0.00     0.046 C 
ATOM     18  C   UNL A   1      33.307  27.869  25.433  1.00  0.00     0.022 A 
ATOM     19  O   UNL A   1      31.723  27.173  23.719  1.00  0.00    -0.474 OA
ATOM     20  C   UNL A   1      33.940  26.554  25.383  1.00  0.00     0.027 C 
ATOM     21  C   UNL A   1      32.236  25.818  23.711  1.00  0.00     0.316 C 
BRANCH  21  22
ATOM     22  C   UNL A   1      31.075  24.851  23.991  1.00  0.00     0.430 C 
ATOM     23  F   UNL A   1      31.306  23.634  23.440  1.00  0.00    -0.167 F 
ATOM     24  F   UNL A   1      30.906  24.645  25.320  1.00  0.00    -0.167 F 
ATOM     25  F   UNL A   1      29.903  25.307  23.498  1.00  0.00    -0.167 F 
ENDBRANCH  21  22
ENDBRANCH   6   8
ENDBRANCH   5   6
ENDBRANCH   4   5
ENDBRANCH   3   4
ENDBRANCH   2   3
ENDBRANCH   1   2
BRANCH   1  26
ATOM     26  C   UNL A   1      37.280  20.328  25.001  1.00  0.00     0.261 C 
BRANCH  26  27
ATOM     27  O   UNL A   1      38.169  21.437  25.235  1.00  0.00    -0.460 OA
BRANCH  27  28
ATOM     28  C   UNL A   1      39.215  21.168  26.050  1.00  0.00     0.338 C 
ATOM     29  O   UNL A   1      39.826  20.113  26.155  1.00  0.00    -0.246 OA
BRANCH  28  30
ATOM     30  C   UNL A   1      39.676  22.407  26.695  1.00  0.00     0.060 A 
ATOM     31  C   UNL A   1      39.046  23.604  26.334  1.00  0.00     0.016 A 
ATOM     32  C   UNL A   1      40.767  22.410  27.566  1.00  0.00     0.016 A 
ATOM     33  C   UNL A   1      39.527  24.817  26.817  1.00  0.00     0.010 A 
ATOM     34  C   UNL A   1      41.258  23.632  28.039  1.00  0.00     0.010 A 
ATOM     35  C   UNL A   1      40.661  24.841  27.640  1.00  0.00    -0.014 A 
BRANCH  35  36
ATOM     36  C   UNL A   1      41.300  26.142  27.946  1.00  0.00     0.031 A 
ATOM     37  C   UNL A   1      42.699  26.398  27.461  1.00  0.00     0.074 A 
ATOM     38  C   UNL A   1      40.618  27.108  28.588  1.00  0.00     0.049 A 
ATOM     39  N   UNL A   1      43.436  27.473  27.581  1.00  0.00    -0.248 NA
ATOM     40  C   UNL A   1      43.356  25.295  26.740  1.00  0.00     0.031 C 
ATOM     41  C   UNL A   1      39.242  26.991  29.063  1.00  0.00     0.029 A 
ATOM     42  N   UNL A   1      40.991  28.379  28.939  1.00  0.00    -0.354 N 
ATOM     43  C   UNL A   1      44.633  27.181  26.941  1.00  0.00     0.074 A 
ATOM     44  C   UNL A   1      44.544  25.816  26.471  1.00  0.00     0.031 C 
ATOM     45  C   UNL A   1      38.881  28.150  29.640  1.00  0.00     0.029 A 
ATOM     46  C   UNL A   1      40.011  29.079  29.597  1.00  0.00     0.049 A 
ATOM     47  H   UNL A   1      41.880  28.755  28.740  1.00  0.00     0.167 HD
ATOM     48  C   UNL A   1      45.702  27.989  26.746  1.00  0.00     0.037 A 
ATOM     49  C   UNL A   1      40.027  30.325  30.110  1.00  0.00     0.037 A 
ATOM     50  C   UNL A   1      45.789  29.346  27.215  1.00  0.00     0.049 A 
ATOM     51  C   UNL A   1      41.267  31.168  29.966  1.00  0.00     0.074 A 
ATOM     52  C   UNL A   1      46.827  30.247  27.056  1.00  0.00     0.029 A 
ATOM     53  N   UNL A   1      44.803  29.993  27.942  1.00  0.00    -0.354 N 
ATOM     54  N   UNL A   1      42.385  30.896  29.337  1.00  0.00    -0.248 NA
ATOM     55  C   UNL A   1      41.250  32.492  30.606  1.00  0.00     0.031 C 
ATOM     56  C   UNL A   1      46.489  31.423  27.729  1.00  0.00     0.029 A 
ATOM     57  C   UNL A   1      45.220  31.273  28.266  1.00  0.00     0.049 A 
ATOM     58  H   UNL A   1      43.934  29.602  28.191  1.00  0.00     0.167 HD
ATOM     59  C   UNL A   1      43.192  32.015  29.486  1.00  0.00     0.074 A 
ATOM     60  C   UNL A   1      42.433  32.979  30.255  1.00  0.00     0.031 C 
ATOM     61  C   UNL A   1      44.452  32.223  29.029  1.00  0.00     0.037 A 
BRANCH  48  62
ATOM     62  C   UNL A   1      46.871  27.426  25.994  1.00  0.00     0.064 A 
ATOM     63  C   UNL A   1      46.997  27.593  24.607  1.00  0.00     0.173 A 
ATOM     64  C   UNL A   1      47.905  26.767  26.675  1.00  0.00     0.173 A 
ATOM     65  F   UNL A   1      46.028  28.205  23.911  1.00  0.00    -0.203 F 
ATOM     66  C   UNL A   1      48.110  27.108  23.927  1.00  0.00     0.198 A 
ATOM     67  C   UNL A   1      49.029  26.305  25.994  1.00  0.00     0.198 A 
ATOM     68  F   UNL A   1      47.834  26.586  28.002  1.00  0.00    -0.203 F 
ATOM     69  F   UNL A   1      48.194  27.249  22.597  1.00  0.00    -0.200 F 
ATOM     70  C   UNL A   1      49.129  26.473  24.621  1.00  0.00     0.200 A 
ATOM     71  F   UNL A   1      50.018  25.702  26.668  1.00  0.00    -0.200 F 
ATOM     72  F   UNL A   1      50.206  26.018  23.966  1.00  0.00    -0.200 F 
ENDBRANCH  48  62
BRANCH  49  73
ATOM     73  C   UNL A   1      38.824  30.853  30.804  1.00  0.00     0.064 A 
ATOM     74  C   UNL A   1      37.799  31.487  30.087  1.00  0.00     0.173 A 
ATOM     75  C   UNL A   1      38.670  30.732  32.192  1.00  0.00     0.173 A 
ATOM     76  F   UNL A   1      37.913  31.650  28.760  1.00  0.00    -0.203 F 
ATOM     77  C   UNL A   1      36.671  31.986  30.735  1.00  0.00     0.198 A 
ATOM     78  C   UNL A   1      37.529  31.208  32.836  1.00  0.00     0.198 A 
ATOM     79  F   UNL A   1      39.623  30.137  32.924  1.00  0.00    -0.203 F 
ATOM     80  F   UNL A   1      35.722  32.619  30.030  1.00  0.00    -0.200 F 
ATOM     81  C   UNL A   1      36.533  31.840  32.107  1.00  0.00     0.200 A 
ATOM     82  F   UNL A   1      37.396  31.056  34.160  1.00  0.00    -0.200 F 
ATOM     83  F   UNL A   1      35.444  32.311  32.728  1.00  0.00    -0.200 F 
ENDBRANCH  49  73
BRANCH  61  84
ATOM     84  C   UNL A   1      45.099  33.541  29.335  1.00  0.00     0.064 A 
ATOM     85  C   UNL A   1      44.926  34.650  28.495  1.00  0.00     0.173 A 
ATOM     86  C   UNL A   1      45.814  33.725  30.529  1.00  0.00     0.173 A 
ATOM     87  F   UNL A   1      44.261  34.522  27.337  1.00  0.00    -0.203 F 
ATOM     88  C   UNL A   1      45.451  35.895  28.836  1.00  0.00     0.198 A 
ATOM     89  C   UNL A   1      46.313  34.976  30.880  1.00  0.00     0.198 A 
ATOM     90  F   UNL A   1      45.998  32.698  31.371  1.00  0.00    -0.203 F 
ATOM     91  F   UNL A   1      45.295  36.935  28.006  1.00  0.00    -0.200 F 
ATOM     92  C   UNL A   1      46.133  36.059  30.032  1.00  0.00     0.200 A 
ATOM     93  F   UNL A   1      46.957  35.137  32.044  1.00  0.00    -0.200 F 
ATOM     94  F   UNL A   1      46.616  37.263  30.370  1.00  0.00    -0.200 F 
ENDBRANCH  61  84
ENDBRANCH  35  36
ENDBRANCH  28  30
ENDBRANCH  27  28
ENDBRANCH  26  27
ENDBRANCH   1  26
TORSDOF 15
ENDMDL
MODEL 3
REMARK VINA RESULT:     -11.8      0.675      2.062
REMARK SMILES Cc1c(Br)c(C)c2c(c1Br)O[C@H](C(F)(F)F)C(C(=O)OCCOCCOC(=O)c1ccc(-c3c4nc(c(-c5c(F)c(F)c(F)c(F)c5F)c5ccc([nH]5)c(-c5c(F)c(F)c(F)c(F)c5F)c5nc(c(-c6c(F)c(F)c(F)c(F)c6F)c6ccc3[nH]6)C=C5)C=C4)cc1)=C2
REMARK SMILES IDX 24 1 23 2 22 3 21 4 20 5 18 6 19 7 17 8 1 9 2 10 3 11 9 12
REMARK SMILES IDX 4 13 5 14 8 15 10 16 6 17 7 18 11 19 92 20 12 21 13 22 14 23
REMARK SMILES IDX 15 24 16 25 25 26 26 27 27 28 28 29 29 30 30 31 91 32 31 33
REMARK SMILES IDX 90 34 32 35 33 36 34 37 84 38 35 39 89 40 83 41 85 42 36 43
REMARK SMILES IDX 88 44 82 45 81 46 37 48 69 49 49 50 68 51 50 52 53 53 67 54
REMARK SMILES IDX 86 55 51 56 52 57 66 59 87 60 54 61 38 62 39 63 47 64 40 65
REMARK SMILES IDX 41 66 45 67 48 68 42 69 43 70 46 71 44 72 70 73 71 74 79 75
REMARK SMILES IDX 72 76 73 77 77 78 80 79 74 80 75 81 78 82 76 83 55 84 56 85
REMARK SMILES IDX 64 86 57 87 58 88 62 89 65 90 59 91 60 92 63 93 61 94
REMARK H PARENT 85 47 53 58
REMARK Flexibility Score: inf
ROOT
ATOM      1  C   UNL A   1      31.060  31.021  25.431  1.00  0.00     0.202 C 
ENDROOT
BRANCH   1   2
ATOM      2  O   UNL A   1      31.609  29.704  25.507  1.00  0.00    -0.374 OA
BRANCH   2   3
ATOM      3  C   UNL A   1      32.668  29.369  24.615  1.00  0.00     0.202 C 
BRANCH   3   4
ATOM      4  C   UNL A   1      33.701  28.357  25.118  1.00  0.00     0.261 C 
BRANCH   4   5
ATOM      5  O   UNL A   1      33.325  27.007  24.803  1.00  0.00    -0.460 OA
BRANCH   5   6
ATOM      6  C   UNL A   1      32.807  26.315  25.843  1.00  0.00     0.338 C 
ATOM      7  O   UNL A   1      32.016  26.727  26.679  1.00  0.00    -0.246 OA
BRANCH   6   8
ATOM      8  C   UNL A   1      33.236  24.906  25.772  1.00  0.00     0.087 C 
ATOM      9  C   UNL A   1      36.614  19.422  24.718  1.00  0.00     0.047 C 
ATOM     10  C   UNL A   1      36.056  20.761  25.141  1.00  0.00    -0.019 A 
ATOM     11  C   UNL A   1      36.937  21.788  25.567  1.00  0.00     0.025 A 
ATOM     12  C   UNL A   1      34.673  21.035  25.129  1.00  0.00     0.064 A 
ATOM     13  Br  UNL A   1      38.820  21.409  25.655  1.00  0.00    -0.050 Br
ATOM     14  C   UNL A   1      36.462  23.076  25.913  1.00  0.00    -0.026 A 
ATOM     15  C   UNL A   1      34.186  22.318  25.445  1.00  0.00     0.142 A 
ATOM     16  Br  UNL A   1      33.394  19.686  24.660  1.00  0.00    -0.046 Br
ATOM     17  C   UNL A   1      37.381  24.179  26.397  1.00  0.00     0.046 C 
ATOM     18  C   UNL A   1      35.076  23.342  25.795  1.00  0.00     0.022 A 
ATOM     19  O   UNL A   1      32.825  22.496  25.414  1.00  0.00    -0.474 OA
ATOM     20  C   UNL A   1      34.540  24.689  25.973  1.00  0.00     0.027 C 
ATOM     21  C   UNL A   1      32.252  23.824  25.464  1.00  0.00     0.316 C 
BRANCH  21  22
ATOM     22  C   UNL A   1      31.476  24.077  24.163  1.00  0.00     0.430 C 
ATOM     23  F   UNL A   1      30.960  22.926  23.668  1.00  0.00    -0.167 F 
ATOM     24  F   UNL A   1      30.429  24.914  24.360  1.00  0.00    -0.167 F 
ATOM     25  F   UNL A   1      32.256  24.620  23.203  1.00  0.00    -0.167 F 
ENDBRANCH  21  22
ENDBRANCH   6   8
ENDBRANCH   5   6
ENDBRANCH   4   5
ENDBRANCH   3   4
ENDBRANCH   2   3
ENDBRANCH   1   2
BRANCH   1  26
ATOM     26  C   UNL A   1      31.421  31.999  26.557  1.00  0.00     0.261 C 
BRANCH  26  27
ATOM     27  O   UNL A   1      32.620  31.600  27.249  1.00  0.00    -0.460 OA
BRANCH  27  28
ATOM     28  C   UNL A   1      33.429  32.619  27.621  1.00  0.00     0.338 C 
ATOM     29  O   UNL A   1      33.122  33.791  27.794  1.00  0.00    -0.246 OA
BRANCH  28  30
ATOM     30  C   UNL A   1      34.752  32.095  27.992  1.00  0.00     0.060 A 
ATOM     31  C   UNL A   1      34.862  30.722  28.248  1.00  0.00     0.016 A 
ATOM     32  C   UNL A   1      35.845  32.944  28.177  1.00  0.00     0.016 A 
ATOM     33  C   UNL A   1      36.058  30.197  28.726  1.00  0.00     0.010 A 
ATOM     34  C   UNL A   1      37.043  32.416  28.671  1.00  0.00     0.010 A 
ATOM     35  C   UNL A   1      37.143  31.047  28.978  1.00  0.00    -0.014 A 
BRANCH  35  36
ATOM     36  C   UNL A   1      38.318  30.515  29.708  1.00  0.00     0.031 A 
ATOM     37  C   UNL A   1      38.550  30.948  31.128  1.00  0.00     0.074 A 
ATOM     38  C   UNL A   1      39.129  29.608  29.135  1.00  0.00     0.049 A 
ATOM     39  N   UNL A   1      39.487  30.583  31.965  1.00  0.00    -0.248 NA
ATOM     40  C   UNL A   1      37.593  31.920  31.683  1.00  0.00     0.031 C 
ATOM     41  C   UNL A   1      38.977  29.080  27.782  1.00  0.00     0.029 A 
ATOM     42  N   UNL A   1      40.236  28.965  29.627  1.00  0.00    -0.354 N 
ATOM     43  C   UNL A   1      39.225  31.267  33.144  1.00  0.00     0.074 A 
ATOM     44  C   UNL A   1      38.069  32.103  32.906  1.00  0.00     0.031 C 
ATOM     45  C   UNL A   1      39.952  28.185  27.553  1.00  0.00     0.029 A 
ATOM     46  C   UNL A   1      40.812  28.098  28.733  1.00  0.00     0.049 A 
ATOM     47  H   UNL A   1      40.586  29.113  30.536  1.00  0.00     0.167 HD
ATOM     48  C   UNL A   1      39.881  31.190  34.327  1.00  0.00     0.037 A 
ATOM     49  C   UNL A   1      41.911  27.326  28.854  1.00  0.00     0.037 A 
ATOM     50  C   UNL A   1      41.033  30.360  34.562  1.00  0.00     0.049 A 
ATOM     51  C   UNL A   1      42.680  27.334  30.149  1.00  0.00     0.074 A 
ATOM     52  C   UNL A   1      41.758  30.205  35.729  1.00  0.00     0.029 A 
ATOM     53  N   UNL A   1      41.630  29.551  33.608  1.00  0.00    -0.354 N 
ATOM     54  N   UNL A   1      42.412  27.963  31.268  1.00  0.00    -0.248 NA
ATOM     55  C   UNL A   1      43.909  26.526  30.198  1.00  0.00     0.031 C 
ATOM     56  C   UNL A   1      42.824  29.340  35.468  1.00  0.00     0.029 A 
ATOM     57  C   UNL A   1      42.734  28.918  34.151  1.00  0.00     0.049 A 
ATOM     58  H   UNL A   1      41.314  29.442  32.681  1.00  0.00     0.167 HD
ATOM     59  C   UNL A   1      43.420  27.614  32.156  1.00  0.00     0.074 A 
ATOM     60  C   UNL A   1      44.302  26.706  31.453  1.00  0.00     0.031 C 
ATOM     61  C   UNL A   1      43.600  28.013  33.439  1.00  0.00     0.037 A 
BRANCH  48  62
ATOM     62  C   UNL A   1      39.373  32.028  35.461  1.00  0.00     0.064 A 
ATOM     63  C   UNL A   1      38.476  31.511  36.407  1.00  0.00     0.173 A 
ATOM     64  C   UNL A   1      39.834  33.341  35.639  1.00  0.00     0.173 A 
ATOM     65  F   UNL A   1      37.997  30.266  36.273  1.00  0.00    -0.203 F 
ATOM     66  C   UNL A   1      38.047  32.283  37.483  1.00  0.00     0.198 A 
ATOM     67  C   UNL A   1      39.423  34.102  36.730  1.00  0.00     0.198 A 
ATOM     68  F   UNL A   1      40.696  33.879  34.764  1.00  0.00    -0.203 F 
ATOM     69  F   UNL A   1      37.164  31.781  38.357  1.00  0.00    -0.200 F 
ATOM     70  C   UNL A   1      38.527  33.574  37.649  1.00  0.00     0.200 A 
ATOM     71  F   UNL A   1      39.896  35.344  36.895  1.00  0.00    -0.200 F 
ATOM     72  F   UNL A   1      38.124  34.312  38.692  1.00  0.00    -0.200 F 
ENDBRANCH  48  62
BRANCH  49  73
ATOM     73  C   UNL A   1      42.344  26.476  27.716  1.00  0.00     0.064 A 
ATOM     74  C   UNL A   1      41.774  25.214  27.501  1.00  0.00     0.173 A 
ATOM     75  C   UNL A   1      43.332  26.908  26.818  1.00  0.00     0.173 A 
ATOM     76  F   UNL A   1      40.844  24.747  28.348  1.00  0.00    -0.203 F 
ATOM     77  C   UNL A   1      42.180  24.413  26.436  1.00  0.00     0.198 A 
ATOM     78  C   UNL A   1      43.719  26.116  25.738  1.00  0.00     0.198 A 
ATOM     79  F   UNL A   1      43.912  28.105  26.982  1.00  0.00    -0.203 F 
ATOM     80  F   UNL A   1      41.643  23.195  26.274  1.00  0.00    -0.200 F 
ATOM     81  C   UNL A   1      43.147  24.867  25.551  1.00  0.00     0.200 A 
ATOM     82  F   UNL A   1      44.646  26.563  24.881  1.00  0.00    -0.200 F 
ATOM     83  F   UNL A   1      43.530  24.100  24.522  1.00  0.00    -0.200 F 
ENDBRANCH  49  73
BRANCH  61  84
ATOM     84  C   UNL A   1      44.788  27.474  34.181  1.00  0.00     0.064 A 
ATOM     85  C   UNL A   1      44.717  26.265  34.888  1.00  0.00     0.173 A 
ATOM     86  C   UNL A   1      46.032  28.118  34.100  1.00  0.00     0.173 A 
ATOM     87  F   UNL A   1      43.548  25.618  35.003  1.00  0.00    -0.203 F 
ATOM     88  C   UNL A   1      45.849  25.724  35.493  1.00  0.00     0.198 A 
ATOM     89  C   UNL A   1      47.166  27.561  34.683  1.00  0.00     0.198 A 
ATOM     90  F   UNL A   1      46.154  29.272  33.428  1.00  0.00    -0.203 F 
ATOM     91  F   UNL A   1      45.755  24.579  36.184  1.00  0.00    -0.200 F 
ATOM     92  C   UNL A   1      47.074  26.365  35.380  1.00  0.00     0.200 A 
ATOM     93  F   UNL A   1      48.352  28.173  34.558  1.00  0.00    -0.200 F 
ATOM     94  F   UNL A   1      48.167  25.830  35.942  1.00  0.00    -0.200 F 
ENDBRANCH  61  84
ENDBRANCH  35  36
ENDBRANCH  28  30
ENDBRANCH  27  28
ENDBRANCH  26  27
ENDBRANCH   1  26
TORSDOF 15
ENDMDL
