MODEL 1
REMARK VINA RESULT:     -12.9      0.000      0.000
REMARK SMILES COc1ccc(Cl)c2c1N[C@@H](c1ccc(C(=O)OCCOCCOC(=O)c3ccc(-c4c5nc(c(-c6c(F)c(F)c(F)c(F)c6F)c6ccc([nH]6)c(-c6c(F)c(F)c(F)c(F)c6F)c6nc(c(-c7c(F)c(F)c(F)c(F)c7F)c7ccc4[nH]7)C=C6)C=C5)cc3)cc1)[C@@H]1CC=C[C@H]21
REMARK SMILES IDX 21 1 20 2 19 3 18 4 16 5 17 6 15 7 12 8 13 9 91 10 14 11
REMARK SMILES IDX 90 12 11 13 3 14 4 15 9 16 5 17 8 18 10 19 6 20 96 21 7 23
REMARK SMILES IDX 92 24 95 25 93 26 94 27 2 28 1 29 22 30 23 31 24 32 25 33
REMARK SMILES IDX 26 34 27 35 28 36 89 37 29 38 88 39 30 40 31 41 32 42 82 43
REMARK SMILES IDX 33 44 87 45 81 46 83 47 34 48 86 49 80 50 79 51 35 53 67 54
REMARK SMILES IDX 47 55 66 56 48 57 51 58 65 59 84 60 49 61 50 62 64 64 85 65
REMARK SMILES IDX 52 66 36 67 37 68 45 69 38 70 39 71 43 72 46 73 40 74 41 75
REMARK SMILES IDX 44 76 42 77 68 78 69 79 77 80 70 81 71 82 75 83 78 84 72 85
REMARK SMILES IDX 73 86 76 87 74 88 53 89 54 90 62 91 55 92 56 93 60 94 63 95
REMARK SMILES IDX 57 96 58 97 61 98 59 99
REMARK H PARENT 10 22 83 52 51 63
REMARK Flexibility Score: inf
ROOT
ATOM      1  O   UNL A   1      42.663  21.115  25.397  1.00  0.00    -0.374 OA
ENDROOT
BRANCH   1   2
ATOM      2  C   UNL A   1      42.329  20.002  26.222  1.00  0.00     0.202 C 
BRANCH   2   3
ATOM      3  C   UNL A   1      40.878  19.923  26.701  1.00  0.00     0.261 C 
BRANCH   3   4
ATOM      4  O   UNL A   1      40.030  20.746  25.887  1.00  0.00    -0.460 OA
BRANCH   4   5
ATOM      5  C   UNL A   1      39.607  21.878  26.496  1.00  0.00     0.338 C 
ATOM      6  O   UNL A   1      40.221  22.530  27.331  1.00  0.00    -0.246 OA
BRANCH   5   7
ATOM      7  C   UNL A   1      38.326  22.338  25.919  1.00  0.00     0.060 A 
ATOM      8  C   UNL A   1      35.804  23.269  25.086  1.00  0.00    -0.025 A 
ATOM      9  C   UNL A   1      36.609  24.038  25.944  1.00  0.00     0.007 A 
ATOM     10  C   UNL A   1      36.338  22.074  24.569  1.00  0.00     0.007 A 
ATOM     11  C   UNL A   1      37.863  23.587  26.340  1.00  0.00     0.016 A 
ATOM     12  C   UNL A   1      37.580  21.594  25.001  1.00  0.00     0.016 A 
BRANCH   8  13
ATOM     13  C   UNL A   1      34.345  23.654  24.812  1.00  0.00     0.114 C 
ATOM     14  C   UNL A   1      33.030  27.089  23.993  1.00  0.00     0.142 A 
ATOM     15  C   UNL A   1      31.869  27.857  24.078  1.00  0.00     0.050 A 
ATOM     16  C   UNL A   1      33.095  25.793  24.550  1.00  0.00     0.083 A 
ATOM     17  C   UNL A   1      30.739  27.331  24.693  1.00  0.00     0.025 A 
ATOM     18  C   UNL A   1      31.957  25.270  25.189  1.00  0.00     0.005 A 
ATOM     19  N   UNL A   1      34.273  25.071  24.501  1.00  0.00    -0.375 N 
ATOM     20  C   UNL A   1      30.782  26.051  25.249  1.00  0.00     0.047 A 
ATOM     21  C   UNL A   1      32.043  23.936  25.887  1.00  0.00     0.051 C 
ATOM     22  H   UNL A   1      35.100  25.539  24.244  1.00  0.00     0.161 HD
ATOM     23  Cl  UNL A   1      29.350  25.502  26.054  1.00  0.00    -0.084 Cl
ATOM     24  C   UNL A   1      33.462  23.344  26.043  1.00  0.00     0.031 C 
ATOM     25  C   UNL A   1      31.311  22.804  25.214  1.00  0.00    -0.023 C 
ATOM     26  C   UNL A   1      33.178  21.838  26.228  1.00  0.00     0.034 C 
ATOM     27  C   UNL A   1      31.935  21.639  25.422  1.00  0.00    -0.030 C 
BRANCH  14  28
ATOM     28  O   UNL A   1      34.128  27.709  23.446  1.00  0.00    -0.495 OA
ATOM     29  C   UNL A   1      33.800  28.937  22.796  1.00  0.00     0.278 C 
ENDBRANCH  14  28
ENDBRANCH   8  13
ENDBRANCH   5   7
ENDBRANCH   4   5
ENDBRANCH   3   4
ENDBRANCH   2   3
ENDBRANCH   1   2
BRANCH   1  30
ATOM     30  C   UNL A   1      44.039  21.502  25.341  1.00  0.00     0.202 C 
BRANCH  30  31
ATOM     31  C   UNL A   1      44.404  22.574  24.307  1.00  0.00     0.261 C 
BRANCH  31  32
ATOM     32  O   UNL A   1      43.636  23.778  24.500  1.00  0.00    -0.460 OA
BRANCH  32  33
ATOM     33  C   UNL A   1      44.328  24.829  24.991  1.00  0.00     0.338 C 
ATOM     34  O   UNL A   1      45.457  25.193  24.684  1.00  0.00    -0.246 OA
BRANCH  33  35
ATOM     35  C   UNL A   1      43.455  25.637  25.856  1.00  0.00     0.060 A 
ATOM     36  C   UNL A   1      43.635  27.028  25.851  1.00  0.00     0.016 A 
ATOM     37  C   UNL A   1      42.553  25.037  26.735  1.00  0.00     0.016 A 
ATOM     38  C   UNL A   1      42.941  27.823  26.758  1.00  0.00     0.010 A 
ATOM     39  C   UNL A   1      41.877  25.835  27.664  1.00  0.00     0.010 A 
ATOM     40  C   UNL A   1      42.100  27.223  27.703  1.00  0.00    -0.014 A 
BRANCH  40  41
ATOM     41  C   UNL A   1      41.624  28.023  28.855  1.00  0.00     0.031 A 
ATOM     42  C   UNL A   1      42.399  27.954  30.142  1.00  0.00     0.074 A 
ATOM     43  C   UNL A   1      40.544  28.815  28.750  1.00  0.00     0.049 A 
ATOM     44  N   UNL A   1      42.151  28.527  31.291  1.00  0.00    -0.248 NA
ATOM     45  C   UNL A   1      43.620  27.130  30.131  1.00  0.00     0.031 C 
ATOM     46  C   UNL A   1      39.745  29.001  27.541  1.00  0.00     0.029 A 
ATOM     47  N   UNL A   1      39.928  29.607  29.688  1.00  0.00    -0.354 N 
ATOM     48  C   UNL A   1      43.181  28.135  32.135  1.00  0.00     0.074 A 
ATOM     49  C   UNL A   1      44.048  27.259  31.379  1.00  0.00     0.031 C 
ATOM     50  C   UNL A   1      38.728  29.836  27.815  1.00  0.00     0.029 A 
ATOM     51  C   UNL A   1      38.790  30.221  29.225  1.00  0.00     0.049 A 
ATOM     52  H   UNL A   1      40.269  29.724  30.603  1.00  0.00     0.167 HD
ATOM     53  C   UNL A   1      43.389  28.486  33.424  1.00  0.00     0.037 A 
ATOM     54  C   UNL A   1      37.890  30.983  29.878  1.00  0.00     0.037 A 
ATOM     55  C   UNL A   1      42.528  29.360  34.174  1.00  0.00     0.049 A 
ATOM     56  C   UNL A   1      38.104  31.291  31.338  1.00  0.00     0.074 A 
ATOM     57  C   UNL A   1      42.669  29.791  35.481  1.00  0.00     0.029 A 
ATOM     58  N   UNL A   1      41.365  29.931  33.684  1.00  0.00    -0.354 N 
ATOM     59  N   UNL A   1      39.094  30.939  32.122  1.00  0.00    -0.248 NA
ATOM     60  C   UNL A   1      37.074  32.102  32.005  1.00  0.00     0.031 C 
ATOM     61  C   UNL A   1      41.562  30.583  35.798  1.00  0.00     0.029 A 
ATOM     62  C   UNL A   1      40.760  30.687  34.673  1.00  0.00     0.049 A 
ATOM     63  H   UNL A   1      41.019  29.816  32.769  1.00  0.00     0.167 HD
ATOM     64  C   UNL A   1      38.819  31.499  33.364  1.00  0.00     0.074 A 
ATOM     65  C   UNL A   1      37.578  32.232  33.225  1.00  0.00     0.031 C 
ATOM     66  C   UNL A   1      39.527  31.412  34.516  1.00  0.00     0.037 A 
BRANCH  53  67
ATOM     67  C   UNL A   1      44.587  27.921  34.126  1.00  0.00     0.064 A 
ATOM     68  C   UNL A   1      45.806  28.610  34.158  1.00  0.00     0.173 A 
ATOM     69  C   UNL A   1      44.481  26.727  34.854  1.00  0.00     0.173 A 
ATOM     70  F   UNL A   1      45.958  29.748  33.464  1.00  0.00    -0.203 F 
ATOM     71  C   UNL A   1      46.880  28.125  34.901  1.00  0.00     0.198 A 
ATOM     72  C   UNL A   1      45.550  26.257  35.613  1.00  0.00     0.198 A 
ATOM     73  F   UNL A   1      43.333  26.033  34.854  1.00  0.00    -0.203 F 
ATOM     74  F   UNL A   1      48.042  28.791  34.909  1.00  0.00    -0.200 F 
ATOM     75  C   UNL A   1      46.747  26.957  35.637  1.00  0.00     0.200 A 
ATOM     76  F   UNL A   1      45.416  25.135  36.333  1.00  0.00    -0.200 F 
ATOM     77  F   UNL A   1      47.772  26.506  36.372  1.00  0.00    -0.200 F 
ENDBRANCH  53  67
BRANCH  54  78
ATOM     78  C   UNL A   1      36.685  31.485  29.168  1.00  0.00     0.064 A 
ATOM     79  C   UNL A   1      36.554  32.839  28.830  1.00  0.00     0.173 A 
ATOM     80  C   UNL A   1      35.627  30.626  28.837  1.00  0.00     0.173 A 
ATOM     81  F   UNL A   1      37.526  33.706  29.149  1.00  0.00    -0.203 F 
ATOM     82  C   UNL A   1      35.402  33.318  28.208  1.00  0.00     0.198 A 
ATOM     83  C   UNL A   1      34.488  31.100  28.190  1.00  0.00     0.198 A 
ATOM     84  F   UNL A   1      35.700  29.322  29.143  1.00  0.00    -0.203 F 
ATOM     85  F   UNL A   1      35.281  34.625  27.942  1.00  0.00    -0.200 F 
ATOM     86  C   UNL A   1      34.372  32.447  27.884  1.00  0.00     0.200 A 
ATOM     87  F   UNL A   1      33.501  30.252  27.870  1.00  0.00    -0.200 F 
ATOM     88  F   UNL A   1      33.265  32.907  27.286  1.00  0.00    -0.200 F 
ENDBRANCH  54  78
BRANCH  66  89
ATOM     89  C   UNL A   1      38.993  32.132  35.720  1.00  0.00     0.064 A 
ATOM     90  C   UNL A   1      38.204  31.474  36.674  1.00  0.00     0.173 A 
ATOM     91  C   UNL A   1      39.338  33.471  35.960  1.00  0.00     0.173 A 
ATOM     92  F   UNL A   1      37.839  30.197  36.483  1.00  0.00    -0.203 F 
ATOM     93  C   UNL A   1      37.769  32.135  37.819  1.00  0.00     0.198 A 
ATOM     94  C   UNL A   1      38.927  34.119  37.121  1.00  0.00     0.198 A 
ATOM     95  F   UNL A   1      40.100  34.141  35.083  1.00  0.00    -0.203 F 
ATOM     96  F   UNL A   1      36.989  31.496  38.702  1.00  0.00    -0.200 F 
ATOM     97  C   UNL A   1      38.138  33.452  38.047  1.00  0.00     0.200 A 
ATOM     98  F   UNL A   1      39.299  35.386  37.348  1.00  0.00    -0.200 F 
ATOM     99  F   UNL A   1      37.733  34.080  39.159  1.00  0.00    -0.200 F 
ENDBRANCH  66  89
ENDBRANCH  40  41
ENDBRANCH  33  35
ENDBRANCH  32  33
ENDBRANCH  31  32
ENDBRANCH  30  31
ENDBRANCH   1  30
TORSDOF 16
ENDMDL
MODEL 2
REMARK VINA RESULT:     -12.8      0.349      7.125
REMARK SMILES COc1ccc(Cl)c2c1N[C@@H](c1ccc(C(=O)OCCOCCOC(=O)c3ccc(-c4c5nc(c(-c6c(F)c(F)c(F)c(F)c6F)c6ccc([nH]6)c(-c6c(F)c(F)c(F)c(F)c6F)c6nc(c(-c7c(F)c(F)c(F)c(F)c7F)c7ccc4[nH]7)C=C6)C=C5)cc3)cc1)[C@@H]1CC=C[C@H]21
REMARK SMILES IDX 21 1 20 2 19 3 18 4 16 5 17 6 15 7 12 8 13 9 91 10 14 11
REMARK SMILES IDX 90 12 11 13 3 14 4 15 9 16 5 17 8 18 10 19 6 20 96 21 7 23
REMARK SMILES IDX 92 24 95 25 93 26 94 27 2 28 1 29 22 30 23 31 24 32 25 33
REMARK SMILES IDX 26 34 27 35 28 36 89 37 29 38 88 39 30 40 31 41 32 42 82 43
REMARK SMILES IDX 33 44 87 45 81 46 83 47 34 48 86 49 80 50 79 51 35 53 67 54
REMARK SMILES IDX 47 55 66 56 48 57 51 58 65 59 84 60 49 61 50 62 64 64 85 65
REMARK SMILES IDX 52 66 36 67 37 68 45 69 38 70 39 71 43 72 46 73 40 74 41 75
REMARK SMILES IDX 44 76 42 77 68 78 69 79 77 80 70 81 71 82 75 83 78 84 72 85
REMARK SMILES IDX 73 86 76 87 74 88 53 89 54 90 62 91 55 92 56 93 60 94 63 95
REMARK SMILES IDX 57 96 58 97 61 98 59 99
REMARK H PARENT 10 22 83 52 51 63
REMARK Flexibility Score: inf
ROOT
ATOM      1  O   UNL A   1      42.723  21.122  25.373  1.00  0.00    -0.374 OA
ENDROOT
BRANCH   1   2
ATOM      2  C   UNL A   1      42.363  20.033  26.219  1.00  0.00     0.202 C 
BRANCH   2   3
ATOM      3  C   UNL A   1      40.883  19.922  26.592  1.00  0.00     0.261 C 
BRANCH   3   4
ATOM      4  O   UNL A   1      40.094  20.827  25.807  1.00  0.00    -0.460 OA
BRANCH   4   5
ATOM      5  C   UNL A   1      39.641  21.904  26.490  1.00  0.00     0.338 C 
ATOM      6  O   UNL A   1      40.223  22.493  27.391  1.00  0.00    -0.246 OA
BRANCH   5   7
ATOM      7  C   UNL A   1      38.372  22.397  25.914  1.00  0.00     0.060 A 
ATOM      8  C   UNL A   1      35.862  23.361  25.084  1.00  0.00    -0.025 A 
ATOM      9  C   UNL A   1      36.617  24.052  26.046  1.00  0.00     0.007 A 
ATOM     10  C   UNL A   1      36.440  22.235  24.469  1.00  0.00     0.007 A 
ATOM     11  C   UNL A   1      37.866  23.587  26.442  1.00  0.00     0.016 A 
ATOM     12  C   UNL A   1      37.677  21.736  24.897  1.00  0.00     0.016 A 
BRANCH   8  13
ATOM     13  C   UNL A   1      34.405  23.744  24.794  1.00  0.00     0.114 C 
ATOM     14  C   UNL A   1      33.083  27.191  24.038  1.00  0.00     0.142 A 
ATOM     15  C   UNL A   1      31.916  27.950  24.122  1.00  0.00     0.050 A 
ATOM     16  C   UNL A   1      33.147  25.882  24.564  1.00  0.00     0.083 A 
ATOM     17  C   UNL A   1      30.780  27.403  24.705  1.00  0.00     0.025 A 
ATOM     18  C   UNL A   1      32.001  25.337  25.171  1.00  0.00     0.005 A 
ATOM     19  N   UNL A   1      34.329  25.168  24.517  1.00  0.00    -0.375 N 
ATOM     20  C   UNL A   1      30.820  26.109  25.230  1.00  0.00     0.047 A 
ATOM     21  C   UNL A   1      32.083  23.987  25.837  1.00  0.00     0.051 C 
ATOM     22  H   UNL A   1      35.158  25.647  24.286  1.00  0.00     0.161 HD
ATOM     23  Cl  UNL A   1      29.378  25.533  25.996  1.00  0.00    -0.084 Cl
ATOM     24  C   UNL A   1      33.503  23.399  26.003  1.00  0.00     0.031 C 
ATOM     25  C   UNL A   1      31.369  22.868  25.124  1.00  0.00    -0.023 C 
ATOM     26  C   UNL A   1      33.225  21.887  26.145  1.00  0.00     0.034 C 
ATOM     27  C   UNL A   1      31.997  21.701  25.314  1.00  0.00    -0.030 C 
BRANCH  14  28
ATOM     28  O   UNL A   1      34.187  27.831  23.525  1.00  0.00    -0.495 OA
ATOM     29  C   UNL A   1      33.872  28.661  22.408  1.00  0.00     0.278 C 
ENDBRANCH  14  28
ENDBRANCH   8  13
ENDBRANCH   5   7
ENDBRANCH   4   5
ENDBRANCH   3   4
ENDBRANCH   2   3
ENDBRANCH   1   2
BRANCH   1  30
ATOM     30  C   UNL A   1      44.109  21.469  25.301  1.00  0.00     0.202 C 
BRANCH  30  31
ATOM     31  C   UNL A   1      44.475  22.616  24.352  1.00  0.00     0.261 C 
BRANCH  31  32
ATOM     32  O   UNL A   1      43.693  23.796  24.622  1.00  0.00    -0.460 OA
BRANCH  32  33
ATOM     33  C   UNL A   1      44.393  24.861  25.069  1.00  0.00     0.338 C 
ATOM     34  O   UNL A   1      45.487  25.256  24.682  1.00  0.00    -0.246 OA
BRANCH  33  35
ATOM     35  C   UNL A   1      43.568  25.640  26.004  1.00  0.00     0.060 A 
ATOM     36  C   UNL A   1      43.918  26.979  26.228  1.00  0.00     0.016 A 
ATOM     37  C   UNL A   1      42.536  25.041  26.729  1.00  0.00     0.016 A 
ATOM     38  C   UNL A   1      43.265  27.715  27.212  1.00  0.00     0.010 A 
ATOM     39  C   UNL A   1      41.900  25.774  27.736  1.00  0.00     0.010 A 
ATOM     40  C   UNL A   1      42.290  27.098  28.005  1.00  0.00    -0.014 A 
BRANCH  40  41
ATOM     41  C   UNL A   1      41.835  27.774  29.242  1.00  0.00     0.031 A 
ATOM     42  C   UNL A   1      40.600  28.630  29.175  1.00  0.00     0.074 A 
ATOM     43  C   UNL A   1      42.488  27.606  30.405  1.00  0.00     0.049 A 
ATOM     44  N   UNL A   1      40.039  29.351  30.111  1.00  0.00    -0.248 NA
ATOM     45  C   UNL A   1      39.902  28.678  27.879  1.00  0.00     0.031 C 
ATOM     46  C   UNL A   1      43.663  26.762  30.600  1.00  0.00     0.029 A 
ATOM     47  N   UNL A   1      42.253  28.153  31.643  1.00  0.00    -0.354 N 
ATOM     48  C   UNL A   1      38.927  29.933  29.519  1.00  0.00     0.074 A 
ATOM     49  C   UNL A   1      38.899  29.504  28.139  1.00  0.00     0.031 C 
ATOM     50  C   UNL A   1      44.063  26.863  31.879  1.00  0.00     0.029 A 
ATOM     51  C   UNL A   1      43.188  27.800  32.584  1.00  0.00     0.049 A 
ATOM     52  H   UNL A   1      41.487  28.740  31.837  1.00  0.00     0.167 HD
ATOM     53  C   UNL A   1      38.006  30.747  30.083  1.00  0.00     0.037 A 
ATOM     54  C   UNL A   1      43.333  28.213  33.859  1.00  0.00     0.037 A 
ATOM     55  C   UNL A   1      38.033  31.171  31.457  1.00  0.00     0.049 A 
ATOM     56  C   UNL A   1      42.336  29.185  34.437  1.00  0.00     0.074 A 
ATOM     57  C   UNL A   1      37.129  31.978  32.125  1.00  0.00     0.029 A 
ATOM     58  N   UNL A   1      39.017  30.825  32.369  1.00  0.00    -0.354 N 
ATOM     59  N   UNL A   1      41.272  29.711  33.880  1.00  0.00    -0.248 NA
ATOM     60  C   UNL A   1      42.560  29.622  35.824  1.00  0.00     0.031 C 
ATOM     61  C   UNL A   1      37.595  32.162  33.430  1.00  0.00     0.029 A 
ATOM     62  C   UNL A   1      38.760  31.428  33.588  1.00  0.00     0.049 A 
ATOM     63  H   UNL A   1      39.784  30.238  32.179  1.00  0.00     0.167 HD
ATOM     64  C   UNL A   1      40.692  30.521  34.848  1.00  0.00     0.074 A 
ATOM     65  C   UNL A   1      41.510  30.402  36.037  1.00  0.00     0.031 C 
ATOM     66  C   UNL A   1      39.583  31.296  34.761  1.00  0.00     0.037 A 
BRANCH  53  67
ATOM     67  C   UNL A   1      36.888  31.252  29.223  1.00  0.00     0.064 A 
ATOM     68  C   UNL A   1      35.803  30.434  28.881  1.00  0.00     0.173 A 
ATOM     69  C   UNL A   1      36.856  32.595  28.820  1.00  0.00     0.173 A 
ATOM     70  F   UNL A   1      35.796  29.138  29.231  1.00  0.00    -0.203 F 
ATOM     71  C   UNL A   1      34.720  30.945  28.169  1.00  0.00     0.198 A 
ATOM     72  C   UNL A   1      35.763  33.108  28.128  1.00  0.00     0.198 A 
ATOM     73  F   UNL A   1      37.872  33.417  29.126  1.00  0.00    -0.203 F 
ATOM     74  F   UNL A   1      33.698  30.144  27.840  1.00  0.00    -0.200 F 
ATOM     75  C   UNL A   1      34.696  32.283  27.805  1.00  0.00     0.200 A 
ATOM     76  F   UNL A   1      35.735  34.404  27.788  1.00  0.00    -0.200 F 
ATOM     77  F   UNL A   1      33.641  32.779  27.143  1.00  0.00    -0.200 F 
ENDBRANCH  53  67
BRANCH  54  78
ATOM     78  C   UNL A   1      44.482  27.734  34.670  1.00  0.00     0.064 A 
ATOM     79  C   UNL A   1      45.700  28.429  34.684  1.00  0.00     0.173 A 
ATOM     80  C   UNL A   1      44.395  26.557  35.427  1.00  0.00     0.173 A 
ATOM     81  F   UNL A   1      45.842  29.545  33.955  1.00  0.00    -0.203 F 
ATOM     82  C   UNL A   1      46.792  27.952  35.406  1.00  0.00     0.198 A 
ATOM     83  C   UNL A   1      45.478  26.097  36.171  1.00  0.00     0.198 A 
ATOM     84  F   UNL A   1      43.254  25.853  35.444  1.00  0.00    -0.203 F 
ATOM     85  F   UNL A   1      47.960  28.607  35.361  1.00  0.00    -0.200 F 
ATOM     86  C   UNL A   1      46.679  26.789  36.154  1.00  0.00     0.200 A 
ATOM     87  F   UNL A   1      45.360  24.978  36.900  1.00  0.00    -0.200 F 
ATOM     88  F   UNL A   1      47.729  26.331  36.849  1.00  0.00    -0.200 F 
ENDBRANCH  54  78
BRANCH  66  89
ATOM     89  C   UNL A   1      39.176  32.071  35.980  1.00  0.00     0.064 A 
ATOM     90  C   UNL A   1      39.625  33.382  36.196  1.00  0.00     0.173 A 
ATOM     91  C   UNL A   1      38.266  31.527  36.899  1.00  0.00     0.173 A 
ATOM     92  F   UNL A   1      40.504  33.942  35.351  1.00  0.00    -0.203 F 
ATOM     93  C   UNL A   1      39.188  34.113  37.297  1.00  0.00     0.198 A 
ATOM     94  C   UNL A   1      37.808  32.273  37.981  1.00  0.00     0.198 A 
ATOM     95  F   UNL A   1      37.798  30.280  36.730  1.00  0.00    -0.203 F 
ATOM     96  F   UNL A   1      39.656  35.353  37.502  1.00  0.00    -0.200 F 
ATOM     97  C   UNL A   1      38.273  33.563  38.182  1.00  0.00     0.200 A 
ATOM     98  F   UNL A   1      36.911  31.745  38.826  1.00  0.00    -0.200 F 
ATOM     99  F   UNL A   1      37.841  34.277  39.230  1.00  0.00    -0.200 F 
ENDBRANCH  66  89
ENDBRANCH  40  41
ENDBRANCH  33  35
ENDBRANCH  32  33
ENDBRANCH  31  32
ENDBRANCH  30  31
ENDBRANCH   1  30
TORSDOF 16
ENDMDL
MODEL 3
REMARK VINA RESULT:     -12.3      1.240      2.018
REMARK SMILES COc1ccc(Cl)c2c1N[C@@H](c1ccc(C(=O)OCCOCCOC(=O)c3ccc(-c4c5nc(c(-c6c(F)c(F)c(F)c(F)c6F)c6ccc([nH]6)c(-c6c(F)c(F)c(F)c(F)c6F)c6nc(c(-c7c(F)c(F)c(F)c(F)c7F)c7ccc4[nH]7)C=C6)C=C5)cc3)cc1)[C@@H]1CC=C[C@H]21
REMARK SMILES IDX 21 1 20 2 19 3 18 4 16 5 17 6 15 7 12 8 13 9 91 10 14 11
REMARK SMILES IDX 90 12 11 13 3 14 4 15 9 16 5 17 8 18 10 19 6 20 96 21 7 23
REMARK SMILES IDX 92 24 95 25 93 26 94 27 2 28 1 29 22 30 23 31 24 32 25 33
REMARK SMILES IDX 26 34 27 35 28 36 89 37 29 38 88 39 30 40 31 41 32 42 82 43
REMARK SMILES IDX 33 44 87 45 81 46 83 47 34 48 86 49 80 50 79 51 35 53 67 54
REMARK SMILES IDX 47 55 66 56 48 57 51 58 65 59 84 60 49 61 50 62 64 64 85 65
REMARK SMILES IDX 52 66 36 67 37 68 45 69 38 70 39 71 43 72 46 73 40 74 41 75
REMARK SMILES IDX 44 76 42 77 68 78 69 79 77 80 70 81 71 82 75 83 78 84 72 85
REMARK SMILES IDX 73 86 76 87 74 88 53 89 54 90 62 91 55 92 56 93 60 94 63 95
REMARK SMILES IDX 57 96 58 97 61 98 59 99
REMARK H PARENT 10 22 83 52 51 63
REMARK Flexibility Score: inf
ROOT
ATOM      1  O   UNL A   1      42.566  21.759  26.899  1.00  0.00    -0.374 OA
ENDROOT
BRANCH   1   2
ATOM      2  C   UNL A   1      41.382  21.613  26.118  1.00  0.00     0.202 C 
BRANCH   2   3
ATOM      3  C   UNL A   1      40.055  21.689  26.875  1.00  0.00     0.261 C 
BRANCH   3   4
ATOM      4  O   UNL A   1      39.104  22.482  26.152  1.00  0.00    -0.460 OA
BRANCH   4   5
ATOM      5  C   UNL A   1      38.164  21.761  25.497  1.00  0.00     0.338 C 
ATOM      6  O   UNL A   1      38.151  20.546  25.349  1.00  0.00    -0.246 OA
BRANCH   5   7
ATOM      7  C   UNL A   1      37.037  22.622  25.079  1.00  0.00     0.060 A 
ATOM      8  C   UNL A   1      35.052  24.339  24.063  1.00  0.00    -0.025 A 
ATOM      9  C   UNL A   1      35.662  23.376  23.241  1.00  0.00     0.007 A 
ATOM     10  C   UNL A   1      35.383  24.349  25.431  1.00  0.00     0.007 A 
ATOM     11  C   UNL A   1      36.629  22.515  23.748  1.00  0.00     0.016 A 
ATOM     12  C   UNL A   1      36.388  23.515  25.936  1.00  0.00     0.016 A 
BRANCH   8  13
ATOM     13  C   UNL A   1      34.145  25.425  23.473  1.00  0.00     0.114 C 
ATOM     14  C   UNL A   1      33.060  28.620  25.152  1.00  0.00     0.142 A 
ATOM     15  C   UNL A   1      32.031  29.562  25.136  1.00  0.00     0.050 A 
ATOM     16  C   UNL A   1      33.000  27.453  24.360  1.00  0.00     0.083 A 
ATOM     17  C   UNL A   1      30.937  29.371  24.301  1.00  0.00     0.025 A 
ATOM     18  C   UNL A   1      31.882  27.251  23.530  1.00  0.00     0.005 A 
ATOM     19  N   UNL A   1      34.006  26.507  24.433  1.00  0.00    -0.375 N 
ATOM     20  C   UNL A   1      30.858  28.224  23.508  1.00  0.00     0.047 A 
ATOM     21  C   UNL A   1      31.747  25.960  22.764  1.00  0.00     0.051 C 
ATOM     22  H   UNL A   1      34.657  26.570  25.169  1.00  0.00     0.161 HD
ATOM     23  Cl  UNL A   1      29.428  28.035  22.549  1.00  0.00    -0.084 Cl
ATOM     24  C   UNL A   1      32.752  24.845  23.135  1.00  0.00     0.031 C 
ATOM     25  C   UNL A   1      31.943  26.066  21.275  1.00  0.00    -0.023 C 
ATOM     26  C   UNL A   1      32.750  23.959  21.872  1.00  0.00     0.034 C 
ATOM     27  C   UNL A   1      32.483  24.945  20.781  1.00  0.00    -0.030 C 
BRANCH  14  28
ATOM     28  O   UNL A   1      34.066  28.837  26.064  1.00  0.00    -0.495 OA
ATOM     29  C   UNL A   1      33.858  28.136  27.290  1.00  0.00     0.278 C 
ENDBRANCH  14  28
ENDBRANCH   8  13
ENDBRANCH   5   7
ENDBRANCH   4   5
ENDBRANCH   3   4
ENDBRANCH   2   3
ENDBRANCH   1   2
BRANCH   1  30
ATOM     30  C   UNL A   1      43.767  22.119  26.210  1.00  0.00     0.202 C 
BRANCH  30  31
ATOM     31  C   UNL A   1      43.610  22.555  24.748  1.00  0.00     0.261 C 
BRANCH  31  32
ATOM     32  O   UNL A   1      42.988  23.851  24.647  1.00  0.00    -0.460 OA
BRANCH  32  33
ATOM     33  C   UNL A   1      43.748  24.888  25.064  1.00  0.00     0.338 C 
ATOM     34  O   UNL A   1      44.877  25.186  24.693  1.00  0.00    -0.246 OA
BRANCH  33  35
ATOM     35  C   UNL A   1      42.951  25.770  25.930  1.00  0.00     0.060 A 
ATOM     36  C   UNL A   1      43.375  27.097  26.079  1.00  0.00     0.016 A 
ATOM     37  C   UNL A   1      41.873  25.277  26.667  1.00  0.00     0.016 A 
ATOM     38  C   UNL A   1      42.747  27.930  27.001  1.00  0.00     0.010 A 
ATOM     39  C   UNL A   1      41.262  26.106  27.612  1.00  0.00     0.010 A 
ATOM     40  C   UNL A   1      41.723  27.420  27.808  1.00  0.00    -0.014 A 
BRANCH  40  41
ATOM     41  C   UNL A   1      41.285  28.197  28.991  1.00  0.00     0.031 A 
ATOM     42  C   UNL A   1      42.035  28.016  30.282  1.00  0.00     0.074 A 
ATOM     43  C   UNL A   1      40.261  29.063  28.912  1.00  0.00     0.049 A 
ATOM     44  N   UNL A   1      41.810  28.550  31.455  1.00  0.00    -0.248 NA
ATOM     45  C   UNL A   1      43.199  27.114  30.246  1.00  0.00     0.031 C 
ATOM     46  C   UNL A   1      39.494  29.358  27.704  1.00  0.00     0.029 A 
ATOM     47  N   UNL A   1      39.686  29.851  29.879  1.00  0.00    -0.354 N 
ATOM     48  C   UNL A   1      42.800  28.052  32.290  1.00  0.00     0.074 A 
ATOM     49  C   UNL A   1      43.617  27.156  31.503  1.00  0.00     0.031 C 
ATOM     50  C   UNL A   1      38.531  30.246  28.007  1.00  0.00     0.029 A 
ATOM     51  C   UNL A   1      38.598  30.560  29.434  1.00  0.00     0.049 A 
ATOM     52  H   UNL A   1      40.022  29.902  30.803  1.00  0.00     0.167 HD
ATOM     53  C   UNL A   1      43.012  28.328  33.597  1.00  0.00     0.037 A 
ATOM     54  C   UNL A   1      37.742  31.349  30.112  1.00  0.00     0.037 A 
ATOM     55  C   UNL A   1      42.201  29.222  34.377  1.00  0.00     0.049 A 
ATOM     56  C   UNL A   1      37.956  31.574  31.587  1.00  0.00     0.074 A 
ATOM     57  C   UNL A   1      42.352  29.581  35.705  1.00  0.00     0.029 A 
ATOM     58  N   UNL A   1      41.085  29.892  33.902  1.00  0.00    -0.354 N 
ATOM     59  N   UNL A   1      38.908  31.121  32.365  1.00  0.00    -0.248 NA
ATOM     60  C   UNL A   1      36.972  32.421  32.281  1.00  0.00     0.031 C 
ATOM     61  C   UNL A   1      41.295  30.430  36.047  1.00  0.00     0.029 A 
ATOM     62  C   UNL A   1      40.518  30.640  34.919  1.00  0.00     0.049 A 
ATOM     63  H   UNL A   1      40.746  29.843  32.979  1.00  0.00     0.167 HD
ATOM     64  C   UNL A   1      38.654  31.640  33.628  1.00  0.00     0.074 A 
ATOM     65  C   UNL A   1      37.467  32.460  33.510  1.00  0.00     0.031 C 
ATOM     66  C   UNL A   1      39.338  31.453  34.783  1.00  0.00     0.037 A 
BRANCH  53  67
ATOM     67  C   UNL A   1      44.160  27.652  34.284  1.00  0.00     0.064 A 
ATOM     68  C   UNL A   1      44.020  26.384  34.864  1.00  0.00     0.173 A 
ATOM     69  C   UNL A   1      45.434  28.238  34.274  1.00  0.00     0.173 A 
ATOM     70  F   UNL A   1      42.817  25.791  34.911  1.00  0.00    -0.203 F 
ATOM     71  C   UNL A   1      45.119  25.723  35.407  1.00  0.00     0.198 A 
ATOM     72  C   UNL A   1      46.534  27.565  34.797  1.00  0.00     0.198 A 
ATOM     73  F   UNL A   1      45.617  29.450  33.728  1.00  0.00    -0.203 F 
ATOM     74  F   UNL A   1      44.962  24.517  35.969  1.00  0.00    -0.200 F 
ATOM     75  C   UNL A   1      46.376  26.308  35.362  1.00  0.00     0.200 A 
ATOM     76  F   UNL A   1      47.750  28.125  34.742  1.00  0.00    -0.200 F 
ATOM     77  F   UNL A   1      47.436  25.658  35.860  1.00  0.00    -0.200 F 
ENDBRANCH  53  67
BRANCH  54  78
ATOM     78  C   UNL A   1      36.583  31.963  29.413  1.00  0.00     0.064 A 
ATOM     79  C   UNL A   1      36.549  33.337  29.133  1.00  0.00     0.173 A 
ATOM     80  C   UNL A   1      35.473  31.194  29.035  1.00  0.00     0.173 A 
ATOM     81  F   UNL A   1      37.575  34.120  29.499  1.00  0.00    -0.203 F 
ATOM     82  C   UNL A   1      35.441  33.920  28.523  1.00  0.00     0.198 A 
ATOM     83  C   UNL A   1      34.378  31.773  28.399  1.00  0.00     0.198 A 
ATOM     84  F   UNL A   1      35.453  29.876  29.284  1.00  0.00    -0.203 F 
ATOM     85  F   UNL A   1      35.412  35.243  28.313  1.00  0.00    -0.200 F 
ATOM     86  C   UNL A   1      34.358  33.136  28.151  1.00  0.00     0.200 A 
ATOM     87  F   UNL A   1      33.338  31.010  28.033  1.00  0.00    -0.200 F 
ATOM     88  F   UNL A   1      33.292  33.697  27.563  1.00  0.00    -0.200 F 
ENDBRANCH  54  78
BRANCH  66  89
ATOM     89  C   UNL A   1      38.836  32.150  36.013  1.00  0.00     0.064 A 
ATOM     90  C   UNL A   1      38.086  31.471  36.983  1.00  0.00     0.173 A 
ATOM     91  C   UNL A   1      39.175  33.489  36.261  1.00  0.00     0.173 A 
ATOM     92  F   UNL A   1      37.728  30.193  36.787  1.00  0.00    -0.203 F 
ATOM     93  C   UNL A   1      37.682  32.111  38.151  1.00  0.00     0.198 A 
ATOM     94  C   UNL A   1      38.795  34.117  37.444  1.00  0.00     0.198 A 
ATOM     95  F   UNL A   1      39.901  34.180  35.368  1.00  0.00    -0.203 F 
ATOM     96  F   UNL A   1      36.937  31.452  39.050  1.00  0.00    -0.200 F 
ATOM     97  C   UNL A   1      38.045  33.429  38.385  1.00  0.00     0.200 A 
ATOM     98  F   UNL A   1      39.161  35.385  37.676  1.00  0.00    -0.200 F 
ATOM     99  F   UNL A   1      37.669  34.038  39.518  1.00  0.00    -0.200 F 
ENDBRANCH  66  89
ENDBRANCH  40  41
ENDBRANCH  33  35
ENDBRANCH  32  33
ENDBRANCH  31  32
ENDBRANCH  30  31
ENDBRANCH   1  30
TORSDOF 16
ENDMDL
