MODEL 1
REMARK VINA RESULT:     -11.0      0.000      0.000
REMARK SMILES C=CCN(CC(=O)OCCOCCOC(=O)c1ccc(-c2c3nc(c(-c4c(F)c(F)c(F)c(F)c4F)c4ccc([nH]4)c(-c4c(F)c(F)c(F)c(F)c4F)c4nc(c(-c5c(F)c(F)c(F)c(F)c5F)c5ccc2[nH]5)C=C4)C=C3)cc1)c1nc2ccccc2s1
REMARK SMILES IDX 10 1 9 2 8 3 6 4 7 5 5 6 4 7 3 8 2 9 1 10 80 11 81 12 88 13
REMARK SMILES IDX 82 14 87 15 83 16 86 17 84 18 85 19 11 20 12 21 13 22 14 23
REMARK SMILES IDX 15 24 16 25 17 26 18 27 79 28 19 29 78 30 20 31 21 32 22 33
REMARK SMILES IDX 72 34 23 35 77 36 71 37 73 38 24 39 76 40 70 41 69 42 25 44
REMARK SMILES IDX 57 45 37 46 56 47 38 48 41 49 55 50 74 51 39 52 40 53 54 55
REMARK SMILES IDX 75 56 42 57 26 58 27 59 35 60 28 61 29 62 33 63 36 64 30 65
REMARK SMILES IDX 31 66 34 67 32 68 58 69 59 70 67 71 60 72 61 73 65 74 68 75
REMARK SMILES IDX 62 76 63 77 66 78 64 79 43 80 44 81 52 82 45 83 46 84 50 85
REMARK SMILES IDX 53 86 47 87 48 88 51 89 49 90
REMARK H PARENT 73 43 41 54
REMARK Flexibility Score: inf
ROOT
ATOM      1  C   UNL A   1      33.606  27.894  23.666  1.00  0.00     0.202 C 
ENDROOT
BRANCH   1   2
ATOM      2  C   UNL A   1      32.976  26.520  23.388  1.00  0.00     0.261 C 
BRANCH   2   3
ATOM      3  O   UNL A   1      33.912  25.428  23.242  1.00  0.00    -0.462 OA
BRANCH   3   4
ATOM      4  C   UNL A   1      33.356  24.253  22.822  1.00  0.00     0.325 C 
ATOM      5  O   UNL A   1      33.646  23.711  21.755  1.00  0.00    -0.250 OA
BRANCH   4   6
ATOM      6  C   UNL A   1      32.279  23.646  23.721  1.00  0.00     0.241 C 
BRANCH   6   7
ATOM      7  N   UNL A   1      32.685  22.933  24.942  1.00  0.00    -0.333 N 
BRANCH   7   8
ATOM      8  C   UNL A   1      32.770  23.704  26.175  1.00  0.00     0.146 C 
BRANCH   8   9
ATOM      9  C   UNL A   1      31.397  23.917  26.753  1.00  0.00    -0.014 C 
ATOM     10  C   UNL A   1      30.418  23.001  26.725  1.00  0.00     0.006 C 
ENDBRANCH   8   9
ENDBRANCH   7   8
BRANCH   7  11
ATOM     11  C   UNL A   1      32.956  21.591  24.881  1.00  0.00     0.187 A 
ATOM     12  N   UNL A   1      32.121  20.699  24.384  1.00  0.00    -0.220 NA
ATOM     13  S   UNL A   1      34.445  20.878  25.427  1.00  0.00    -0.097 S 
ATOM     14  C   UNL A   1      32.765  19.484  24.159  1.00  0.00     0.084 A 
ATOM     15  C   UNL A   1      34.057  19.396  24.668  1.00  0.00     0.056 A 
ATOM     16  C   UNL A   1      32.276  18.412  23.380  1.00  0.00     0.030 A 
ATOM     17  C   UNL A   1      34.861  18.261  24.484  1.00  0.00     0.021 A 
ATOM     18  C   UNL A   1      33.107  17.319  23.104  1.00  0.00     0.002 A 
ATOM     19  C   UNL A   1      34.376  17.238  23.666  1.00  0.00     0.002 A 
ENDBRANCH   7  11
ENDBRANCH   6   7
ENDBRANCH   4   6
ENDBRANCH   3   4
ENDBRANCH   2   3
ENDBRANCH   1   2
BRANCH   1  20
ATOM     20  O   UNL A   1      32.775  29.045  23.745  1.00  0.00    -0.374 OA
BRANCH  20  21
ATOM     21  C   UNL A   1      31.843  29.120  24.814  1.00  0.00     0.202 C 
BRANCH  21  22
ATOM     22  C   UNL A   1      31.896  30.328  25.761  1.00  0.00     0.261 C 
BRANCH  22  23
ATOM     23  O   UNL A   1      32.791  30.207  26.855  1.00  0.00    -0.460 OA
BRANCH  23  24
ATOM     24  C   UNL A   1      33.343  31.373  27.242  1.00  0.00     0.338 C 
ATOM     25  O   UNL A   1      32.867  32.495  27.232  1.00  0.00    -0.246 OA
BRANCH  24  26
ATOM     26  C   UNL A   1      34.645  31.036  27.802  1.00  0.00     0.060 A 
ATOM     27  C   UNL A   1      34.898  29.699  28.121  1.00  0.00     0.016 A 
ATOM     28  C   UNL A   1      35.596  32.040  27.999  1.00  0.00     0.016 A 
ATOM     29  C   UNL A   1      36.113  29.363  28.695  1.00  0.00     0.010 A 
ATOM     30  C   UNL A   1      36.812  31.701  28.570  1.00  0.00     0.010 A 
ATOM     31  C   UNL A   1      37.052  30.370  28.954  1.00  0.00    -0.014 A 
BRANCH  31  32
ATOM     32  C   UNL A   1      38.226  30.071  29.787  1.00  0.00     0.031 A 
ATOM     33  C   UNL A   1      39.259  29.136  29.236  1.00  0.00     0.074 A 
ATOM     34  C   UNL A   1      38.340  30.620  31.005  1.00  0.00     0.049 A 
ATOM     35  N   UNL A   1      40.332  28.656  29.805  1.00  0.00    -0.248 NA
ATOM     36  C   UNL A   1      39.044  28.665  27.856  1.00  0.00     0.031 C 
ATOM     37  C   UNL A   1      37.394  31.567  31.594  1.00  0.00     0.029 A 
ATOM     38  N   UNL A   1      39.299  30.453  31.967  1.00  0.00    -0.354 N 
ATOM     39  C   UNL A   1      40.907  27.815  28.862  1.00  0.00     0.074 A 
ATOM     40  C   UNL A   1      40.048  27.818  27.700  1.00  0.00     0.031 C 
ATOM     41  C   UNL A   1      37.822  31.898  32.824  1.00  0.00     0.029 A 
ATOM     42  C   UNL A   1      39.042  31.153  33.117  1.00  0.00     0.049 A 
ATOM     43  H   UNL A   1      40.093  29.886  31.844  1.00  0.00     0.167 HD
ATOM     44  C   UNL A   1      42.058  27.112  28.966  1.00  0.00     0.037 A 
ATOM     45  C   UNL A   1      39.718  31.162  34.280  1.00  0.00     0.037 A 
ATOM     46  C   UNL A   1      42.889  27.133  30.138  1.00  0.00     0.049 A 
ATOM     47  C   UNL A   1      40.955  30.311  34.397  1.00  0.00     0.074 A 
ATOM     48  C   UNL A   1      44.093  26.489  30.356  1.00  0.00     0.029 A 
ATOM     49  N   UNL A   1      42.588  27.831  31.301  1.00  0.00    -0.354 N 
ATOM     50  N   UNL A   1      41.521  29.544  33.495  1.00  0.00    -0.248 NA
ATOM     51  C   UNL A   1      41.647  30.323  35.692  1.00  0.00     0.031 C 
ATOM     52  C   UNL A   1      44.484  26.742  31.674  1.00  0.00     0.029 A 
ATOM     53  C   UNL A   1      43.565  27.604  32.254  1.00  0.00     0.049 A 
ATOM     54  H   UNL A   1      41.798  28.403  31.427  1.00  0.00     0.167 HD
ATOM     55  C   UNL A   1      42.655  29.016  34.096  1.00  0.00     0.074 A 
ATOM     56  C   UNL A   1      42.695  29.551  35.442  1.00  0.00     0.031 C 
ATOM     57  C   UNL A   1      43.583  28.171  33.581  1.00  0.00     0.037 A 
BRANCH  44  58
ATOM     58  C   UNL A   1      42.446  26.239  27.807  1.00  0.00     0.064 A 
ATOM     59  C   UNL A   1      43.345  26.669  26.818  1.00  0.00     0.173 A 
ATOM     60  C   UNL A   1      41.906  24.951  27.681  1.00  0.00     0.173 A 
ATOM     61  F   UNL A   1      43.881  27.898  26.879  1.00  0.00    -0.203 F 
ATOM     62  C   UNL A   1      43.655  25.858  25.728  1.00  0.00     0.198 A 
ATOM     63  C   UNL A   1      42.247  24.129  26.610  1.00  0.00     0.198 A 
ATOM     64  F   UNL A   1      41.042  24.487  28.596  1.00  0.00    -0.203 F 
ATOM     65  F   UNL A   1      44.464  26.318  24.761  1.00  0.00    -0.200 F 
ATOM     66  C   UNL A   1      43.111  24.588  25.628  1.00  0.00     0.200 A 
ATOM     67  F   UNL A   1      41.729  22.896  26.523  1.00  0.00    -0.200 F 
ATOM     68  F   UNL A   1      43.410  23.809  24.580  1.00  0.00    -0.200 F 
ENDBRANCH  44  58
BRANCH  45  69
ATOM     69  C   UNL A   1      39.249  32.010  35.405  1.00  0.00     0.064 A 
ATOM     70  C   UNL A   1      39.596  33.366  35.475  1.00  0.00     0.173 A 
ATOM     71  C   UNL A   1      38.437  31.492  36.426  1.00  0.00     0.173 A 
ATOM     72  F   UNL A   1      40.381  33.904  34.531  1.00  0.00    -0.203 F 
ATOM     73  C   UNL A   1      39.165  34.167  36.530  1.00  0.00     0.198 A 
ATOM     74  C   UNL A   1      37.982  32.301  37.465  1.00  0.00     0.198 A 
ATOM     75  F   UNL A   1      38.069  30.202  36.404  1.00  0.00    -0.203 F 
ATOM     76  F   UNL A   1      39.546  35.450  36.592  1.00  0.00    -0.200 F 
ATOM     77  C   UNL A   1      38.353  33.636  37.521  1.00  0.00     0.200 A 
ATOM     78  F   UNL A   1      37.182  31.788  38.410  1.00  0.00    -0.200 F 
ATOM     79  F   UNL A   1      37.933  34.409  38.531  1.00  0.00    -0.200 F 
ENDBRANCH  45  69
BRANCH  57  80
ATOM     80  C   UNL A   1      44.753  27.818  34.452  1.00  0.00     0.064 A 
ATOM     81  C   UNL A   1      44.758  26.668  35.254  1.00  0.00     0.173 A 
ATOM     82  C   UNL A   1      45.917  28.602  34.416  1.00  0.00     0.173 A 
ATOM     83  F   UNL A   1      43.666  25.895  35.334  1.00  0.00    -0.203 F 
ATOM     84  C   UNL A   1      45.883  26.325  36.000  1.00  0.00     0.198 A 
ATOM     85  C   UNL A   1      47.050  28.237  35.134  1.00  0.00     0.198 A 
ATOM     86  F   UNL A   1      45.963  29.708  33.658  1.00  0.00    -0.203 F 
ATOM     87  F   UNL A   1      45.856  25.243  36.789  1.00  0.00    -0.200 F 
ATOM     88  C   UNL A   1      47.030  27.101  35.928  1.00  0.00     0.200 A 
ATOM     89  F   UNL A   1      48.163  28.977  35.047  1.00  0.00    -0.200 F 
ATOM     90  F   UNL A   1      48.120  26.755  36.628  1.00  0.00    -0.200 F 
ENDBRANCH  57  80
ENDBRANCH  31  32
ENDBRANCH  24  26
ENDBRANCH  23  24
ENDBRANCH  22  23
ENDBRANCH  21  22
ENDBRANCH  20  21
ENDBRANCH   1  20
TORSDOF 18
ENDMDL
MODEL 2
REMARK VINA RESULT:     -11.0      3.123      8.130
REMARK SMILES C=CCN(CC(=O)OCCOCCOC(=O)c1ccc(-c2c3nc(c(-c4c(F)c(F)c(F)c(F)c4F)c4ccc([nH]4)c(-c4c(F)c(F)c(F)c(F)c4F)c4nc(c(-c5c(F)c(F)c(F)c(F)c5F)c5ccc2[nH]5)C=C4)C=C3)cc1)c1nc2ccccc2s1
REMARK SMILES IDX 10 1 9 2 8 3 6 4 7 5 5 6 4 7 3 8 2 9 1 10 80 11 81 12 88 13
REMARK SMILES IDX 82 14 87 15 83 16 86 17 84 18 85 19 11 20 12 21 13 22 14 23
REMARK SMILES IDX 15 24 16 25 17 26 18 27 79 28 19 29 78 30 20 31 21 32 22 33
REMARK SMILES IDX 72 34 23 35 77 36 71 37 73 38 24 39 76 40 70 41 69 42 25 44
REMARK SMILES IDX 57 45 37 46 56 47 38 48 41 49 55 50 74 51 39 52 40 53 54 55
REMARK SMILES IDX 75 56 42 57 26 58 27 59 35 60 28 61 29 62 33 63 36 64 30 65
REMARK SMILES IDX 31 66 34 67 32 68 58 69 59 70 67 71 60 72 61 73 65 74 68 75
REMARK SMILES IDX 62 76 63 77 66 78 64 79 43 80 44 81 52 82 45 83 46 84 50 85
REMARK SMILES IDX 53 86 47 87 48 88 51 89 49 90
REMARK H PARENT 73 43 41 54
REMARK Flexibility Score: inf
ROOT
ATOM      1  C   UNL A   1      40.203  21.006  26.265  1.00  0.00     0.202 C 
ENDROOT
BRANCH   1   2
ATOM      2  C   UNL A   1      39.153  22.119  26.128  1.00  0.00     0.261 C 
BRANCH   2   3
ATOM      3  O   UNL A   1      37.941  21.746  25.432  1.00  0.00    -0.462 OA
BRANCH   3   4
ATOM      4  C   UNL A   1      37.147  22.796  25.069  1.00  0.00     0.325 C 
ATOM      5  O   UNL A   1      37.233  23.915  25.574  1.00  0.00    -0.250 OA
BRANCH   4   6
ATOM      6  C   UNL A   1      36.069  22.509  24.023  1.00  0.00     0.241 C 
BRANCH   6   7
ATOM      7  N   UNL A   1      34.702  22.201  24.470  1.00  0.00    -0.333 N 
BRANCH   7   8
ATOM      8  C   UNL A   1      34.381  20.805  24.741  1.00  0.00     0.146 C 
BRANCH   8   9
ATOM      9  C   UNL A   1      32.954  20.516  24.363  1.00  0.00    -0.014 C 
ATOM     10  C   UNL A   1      32.505  19.313  23.976  1.00  0.00     0.006 C 
ENDBRANCH   8   9
ENDBRANCH   7   8
BRANCH   7  11
ATOM     11  C   UNL A   1      33.796  23.218  24.621  1.00  0.00     0.187 A 
ATOM     12  N   UNL A   1      33.186  23.809  23.612  1.00  0.00    -0.220 NA
ATOM     13  S   UNL A   1      33.308  23.859  26.162  1.00  0.00    -0.097 S 
ATOM     14  C   UNL A   1      32.108  24.571  24.057  1.00  0.00     0.084 A 
ATOM     15  C   UNL A   1      32.015  24.713  25.438  1.00  0.00     0.056 A 
ATOM     16  C   UNL A   1      31.070  25.096  23.258  1.00  0.00     0.030 A 
ATOM     17  C   UNL A   1      30.961  25.407  26.053  1.00  0.00     0.021 A 
ATOM     18  C   UNL A   1      29.962  25.700  23.865  1.00  0.00     0.002 A 
ATOM     19  C   UNL A   1      29.920  25.869  25.245  1.00  0.00     0.002 A 
ENDBRANCH   7  11
ENDBRANCH   6   7
ENDBRANCH   4   6
ENDBRANCH   3   4
ENDBRANCH   2   3
ENDBRANCH   1   2
BRANCH   1  20
ATOM     20  O   UNL A   1      41.450  21.288  26.887  1.00  0.00    -0.374 OA
BRANCH  20  21
ATOM     21  C   UNL A   1      42.635  20.919  26.195  1.00  0.00     0.202 C 
BRANCH  21  22
ATOM     22  C   UNL A   1      43.357  21.974  25.344  1.00  0.00     0.261 C 
BRANCH  22  23
ATOM     23  O   UNL A   1      42.664  23.199  25.174  1.00  0.00    -0.460 OA
BRANCH  23  24
ATOM     24  C   UNL A   1      43.459  24.286  25.199  1.00  0.00     0.338 C 
ATOM     25  O   UNL A   1      44.450  24.534  24.536  1.00  0.00    -0.246 OA
BRANCH  24  26
ATOM     26  C   UNL A   1      42.842  25.215  26.137  1.00  0.00     0.060 A 
ATOM     27  C   UNL A   1      43.327  26.525  26.179  1.00  0.00     0.016 A 
ATOM     28  C   UNL A   1      41.794  24.784  26.953  1.00  0.00     0.016 A 
ATOM     29  C   UNL A   1      42.785  27.414  27.093  1.00  0.00     0.010 A 
ATOM     30  C   UNL A   1      41.251  25.675  27.864  1.00  0.00     0.010 A 
ATOM     31  C   UNL A   1      41.774  26.976  27.960  1.00  0.00    -0.014 A 
BRANCH  31  32
ATOM     32  C   UNL A   1      41.374  27.822  29.094  1.00  0.00     0.031 A 
ATOM     33  C   UNL A   1      42.162  27.717  30.363  1.00  0.00     0.074 A 
ATOM     34  C   UNL A   1      40.323  28.647  28.975  1.00  0.00     0.049 A 
ATOM     35  N   UNL A   1      41.957  28.291  31.518  1.00  0.00    -0.248 NA
ATOM     36  C   UNL A   1      43.336  26.827  30.331  1.00  0.00     0.031 C 
ATOM     37  C   UNL A   1      39.530  28.830  27.760  1.00  0.00     0.029 A 
ATOM     38  N   UNL A   1      39.739  29.477  29.892  1.00  0.00    -0.354 N 
ATOM     39  C   UNL A   1      42.962  27.819  32.351  1.00  0.00     0.074 A 
ATOM     40  C   UNL A   1      43.753  26.883  31.585  1.00  0.00     0.031 C 
ATOM     41  C   UNL A   1      38.557  29.723  28.009  1.00  0.00     0.029 A 
ATOM     42  C   UNL A   1      38.637  30.133  29.407  1.00  0.00     0.049 A 
ATOM     43  H   UNL A   1      40.078  29.592  30.809  1.00  0.00     0.167 HD
ATOM     44  C   UNL A   1      43.200  28.152  33.640  1.00  0.00     0.037 A 
ATOM     45  C   UNL A   1      37.783  30.954  30.044  1.00  0.00     0.037 A 
ATOM     46  C   UNL A   1      42.392  29.089  34.372  1.00  0.00     0.049 A 
ATOM     47  C   UNL A   1      38.025  31.250  31.501  1.00  0.00     0.074 A 
ATOM     48  C   UNL A   1      42.546  29.532  35.672  1.00  0.00     0.029 A 
ATOM     49  N   UNL A   1      41.263  29.718  33.862  1.00  0.00    -0.354 N 
ATOM     50  N   UNL A   1      38.995  30.833  32.281  1.00  0.00    -0.248 NA
ATOM     51  C   UNL A   1      37.054  32.124  32.170  1.00  0.00     0.031 C 
ATOM     52  C   UNL A   1      41.470  30.374  35.970  1.00  0.00     0.029 A 
ATOM     53  C   UNL A   1      40.688  30.517  34.834  1.00  0.00     0.049 A 
ATOM     54  H   UNL A   1      40.923  29.610  32.945  1.00  0.00     0.167 HD
ATOM     55  C   UNL A   1      38.777  31.427  33.516  1.00  0.00     0.074 A 
ATOM     56  C   UNL A   1      37.580  32.232  33.381  1.00  0.00     0.031 C 
ATOM     57  C   UNL A   1      39.504  31.323  34.658  1.00  0.00     0.037 A 
BRANCH  44  58
ATOM     58  C   UNL A   1      44.340  27.466  34.337  1.00  0.00     0.064 A 
ATOM     59  C   UNL A   1      44.183  26.232  34.987  1.00  0.00     0.173 A 
ATOM     60  C   UNL A   1      45.612  28.057  34.357  1.00  0.00     0.173 A 
ATOM     61  F   UNL A   1      42.984  25.629  35.012  1.00  0.00    -0.203 F 
ATOM     62  C   UNL A   1      45.245  25.637  35.666  1.00  0.00     0.198 A 
ATOM     63  C   UNL A   1      46.680  27.441  35.005  1.00  0.00     0.198 A 
ATOM     64  F   UNL A   1      45.822  29.235  33.753  1.00  0.00    -0.203 F 
ATOM     65  F   UNL A   1      45.052  24.492  36.336  1.00  0.00    -0.200 F 
ATOM     66  C   UNL A   1      46.494  26.238  35.669  1.00  0.00     0.200 A 
ATOM     67  F   UNL A   1      47.890  28.019  34.995  1.00  0.00    -0.200 F 
ATOM     68  F   UNL A   1      47.514  25.666  36.321  1.00  0.00    -0.200 F 
ENDBRANCH  44  58
BRANCH  45  69
ATOM     69  C   UNL A   1      36.645  31.558  29.308  1.00  0.00     0.064 A 
ATOM     70  C   UNL A   1      35.547  30.778  28.919  1.00  0.00     0.173 A 
ATOM     71  C   UNL A   1      36.619  32.924  28.986  1.00  0.00     0.173 A 
ATOM     72  F   UNL A   1      35.531  29.465  29.190  1.00  0.00    -0.203 F 
ATOM     73  C   UNL A   1      34.478  31.336  28.222  1.00  0.00     0.198 A 
ATOM     74  C   UNL A   1      35.535  33.486  28.316  1.00  0.00     0.198 A 
ATOM     75  F   UNL A   1      37.640  33.718  29.342  1.00  0.00    -0.203 F 
ATOM     76  F   UNL A   1      33.461  30.557  27.827  1.00  0.00    -0.200 F 
ATOM     77  C   UNL A   1      34.468  32.690  27.927  1.00  0.00     0.200 A 
ATOM     78  F   UNL A   1      35.522  34.800  28.050  1.00  0.00    -0.200 F 
ATOM     79  F   UNL A   1      33.436  33.227  27.264  1.00  0.00    -0.200 F 
ENDBRANCH  45  69
BRANCH  57  80
ATOM     80  C   UNL A   1      39.061  32.142  35.834  1.00  0.00     0.064 A 
ATOM     81  C   UNL A   1      38.260  31.605  36.850  1.00  0.00     0.173 A 
ATOM     82  C   UNL A   1      39.519  33.461  35.983  1.00  0.00     0.173 A 
ATOM     83  F   UNL A   1      37.786  30.354  36.747  1.00  0.00    -0.203 F 
ATOM     84  C   UNL A   1      37.920  32.364  37.967  1.00  0.00     0.198 A 
ATOM     85  C   UNL A   1      39.207  34.204  37.116  1.00  0.00     0.198 A 
ATOM     86  F   UNL A   1      40.295  34.017  35.040  1.00  0.00    -0.203 F 
ATOM     87  F   UNL A   1      37.122  31.845  38.910  1.00  0.00    -0.200 F 
ATOM     88  C   UNL A   1      38.405  33.657  38.105  1.00  0.00     0.200 A 
ATOM     89  F   UNL A   1      39.693  35.444  37.255  1.00  0.00    -0.200 F 
ATOM     90  F   UNL A   1      38.097  34.377  39.192  1.00  0.00    -0.200 F 
ENDBRANCH  57  80
ENDBRANCH  31  32
ENDBRANCH  24  26
ENDBRANCH  23  24
ENDBRANCH  22  23
ENDBRANCH  21  22
ENDBRANCH  20  21
ENDBRANCH   1  20
TORSDOF 18
ENDMDL
MODEL 3
REMARK VINA RESULT:     -10.9      1.198      2.178
REMARK SMILES C=CCN(CC(=O)OCCOCCOC(=O)c1ccc(-c2c3nc(c(-c4c(F)c(F)c(F)c(F)c4F)c4ccc([nH]4)c(-c4c(F)c(F)c(F)c(F)c4F)c4nc(c(-c5c(F)c(F)c(F)c(F)c5F)c5ccc2[nH]5)C=C4)C=C3)cc1)c1nc2ccccc2s1
REMARK SMILES IDX 10 1 9 2 8 3 6 4 7 5 5 6 4 7 3 8 2 9 1 10 80 11 81 12 88 13
REMARK SMILES IDX 82 14 87 15 83 16 86 17 84 18 85 19 11 20 12 21 13 22 14 23
REMARK SMILES IDX 15 24 16 25 17 26 18 27 79 28 19 29 78 30 20 31 21 32 22 33
REMARK SMILES IDX 72 34 23 35 77 36 71 37 73 38 24 39 76 40 70 41 69 42 25 44
REMARK SMILES IDX 57 45 37 46 56 47 38 48 41 49 55 50 74 51 39 52 40 53 54 55
REMARK SMILES IDX 75 56 42 57 26 58 27 59 35 60 28 61 29 62 33 63 36 64 30 65
REMARK SMILES IDX 31 66 34 67 32 68 58 69 59 70 67 71 60 72 61 73 65 74 68 75
REMARK SMILES IDX 62 76 63 77 66 78 64 79 43 80 44 81 52 82 45 83 46 84 50 85
REMARK SMILES IDX 53 86 47 87 48 88 51 89 49 90
REMARK H PARENT 73 43 41 54
REMARK Flexibility Score: inf
ROOT
ATOM      1  C   UNL A   1      31.901  28.301  23.304  1.00  0.00     0.202 C 
ENDROOT
BRANCH   1   2
ATOM      2  C   UNL A   1      33.425  28.109  23.234  1.00  0.00     0.261 C 
BRANCH   2   3
ATOM      3  O   UNL A   1      33.893  26.766  23.493  1.00  0.00    -0.462 OA
BRANCH   3   4
ATOM      4  C   UNL A   1      33.485  25.835  22.580  1.00  0.00     0.325 C 
ATOM      5  O   UNL A   1      33.572  25.999  21.363  1.00  0.00    -0.250 OA
BRANCH   4   6
ATOM      6  C   UNL A   1      32.840  24.566  23.138  1.00  0.00     0.241 C 
BRANCH   6   7
ATOM      7  N   UNL A   1      33.001  24.251  24.567  1.00  0.00    -0.333 N 
BRANCH   7   8
ATOM      8  C   UNL A   1      31.982  24.745  25.483  1.00  0.00     0.146 C 
BRANCH   8   9
ATOM      9  C   UNL A   1      30.799  23.816  25.497  1.00  0.00    -0.014 C 
ATOM     10  C   UNL A   1      30.652  22.795  26.355  1.00  0.00     0.006 C 
ENDBRANCH   8   9
ENDBRANCH   7   8
BRANCH   7  11
ATOM     11  C   UNL A   1      34.079  23.510  24.977  1.00  0.00     0.187 A 
ATOM     12  N   UNL A   1      34.077  22.193  25.045  1.00  0.00    -0.220 NA
ATOM     13  S   UNL A   1      35.605  24.199  25.443  1.00  0.00    -0.097 S 
ATOM     14  C   UNL A   1      35.371  21.698  25.184  1.00  0.00     0.084 A 
ATOM     15  C   UNL A   1      36.350  22.660  25.414  1.00  0.00     0.056 A 
ATOM     16  C   UNL A   1      35.778  20.359  24.998  1.00  0.00     0.030 A 
ATOM     17  C   UNL A   1      37.711  22.335  25.526  1.00  0.00     0.021 A 
ATOM     18  C   UNL A   1      37.141  20.039  25.006  1.00  0.00     0.002 A 
ATOM     19  C   UNL A   1      38.092  21.013  25.285  1.00  0.00     0.002 A 
ENDBRANCH   7  11
ENDBRANCH   6   7
ENDBRANCH   4   6
ENDBRANCH   3   4
ENDBRANCH   2   3
ENDBRANCH   1   2
BRANCH   1  20
ATOM     20  O   UNL A   1      31.286  28.595  24.551  1.00  0.00    -0.374 OA
BRANCH  20  21
ATOM     21  C   UNL A   1      31.301  29.944  24.996  1.00  0.00     0.202 C 
BRANCH  21  22
ATOM     22  C   UNL A   1      31.863  30.260  26.390  1.00  0.00     0.261 C 
BRANCH  22  23
ATOM     23  O   UNL A   1      33.263  30.477  26.448  1.00  0.00    -0.460 OA
BRANCH  23  24
ATOM     24  C   UNL A   1      33.628  31.477  27.273  1.00  0.00     0.338 C 
ATOM     25  O   UNL A   1      33.018  32.485  27.582  1.00  0.00    -0.246 OA
BRANCH  24  26
ATOM     26  C   UNL A   1      34.908  31.080  27.846  1.00  0.00     0.060 A 
ATOM     27  C   UNL A   1      35.082  29.740  28.202  1.00  0.00     0.016 A 
ATOM     28  C   UNL A   1      35.915  32.032  28.017  1.00  0.00     0.016 A 
ATOM     29  C   UNL A   1      36.275  29.350  28.788  1.00  0.00     0.010 A 
ATOM     30  C   UNL A   1      37.109  31.639  28.602  1.00  0.00     0.010 A 
ATOM     31  C   UNL A   1      37.271  30.307  29.022  1.00  0.00    -0.014 A 
BRANCH  31  32
ATOM     32  C   UNL A   1      38.424  29.963  29.867  1.00  0.00     0.031 A 
ATOM     33  C   UNL A   1      39.438  29.006  29.316  1.00  0.00     0.074 A 
ATOM     34  C   UNL A   1      38.537  30.493  31.093  1.00  0.00     0.049 A 
ATOM     35  N   UNL A   1      40.488  28.488  29.893  1.00  0.00    -0.248 NA
ATOM     36  C   UNL A   1      39.228  28.560  27.928  1.00  0.00     0.031 C 
ATOM     37  C   UNL A   1      37.611  31.458  31.682  1.00  0.00     0.029 A 
ATOM     38  N   UNL A   1      39.478  30.285  32.065  1.00  0.00    -0.354 N 
ATOM     39  C   UNL A   1      41.052  27.643  28.946  1.00  0.00     0.074 A 
ATOM     40  C   UNL A   1      40.209  27.686  27.773  1.00  0.00     0.031 C 
ATOM     41  C   UNL A   1      38.031  31.760  32.922  1.00  0.00     0.029 A 
ATOM     42  C   UNL A   1      39.226  30.977  33.221  1.00  0.00     0.049 A 
ATOM     43  H   UNL A   1      40.258  29.697  31.945  1.00  0.00     0.167 HD
ATOM     44  C   UNL A   1      42.181  26.906  29.055  1.00  0.00     0.037 A 
ATOM     45  C   UNL A   1      39.886  30.951  34.394  1.00  0.00     0.037 A 
ATOM     46  C   UNL A   1      42.996  26.887  30.239  1.00  0.00     0.049 A 
ATOM     47  C   UNL A   1      41.096  30.063  34.515  1.00  0.00     0.074 A 
ATOM     48  C   UNL A   1      44.178  26.206  30.464  1.00  0.00     0.029 A 
ATOM     49  N   UNL A   1      42.700  27.579  31.407  1.00  0.00    -0.354 N 
ATOM     50  N   UNL A   1      41.652  29.292  33.610  1.00  0.00    -0.248 NA
ATOM     51  C   UNL A   1      41.770  30.037  35.819  1.00  0.00     0.031 C 
ATOM     52  C   UNL A   1      44.558  26.430  31.790  1.00  0.00     0.029 A 
ATOM     53  C   UNL A   1      43.657  27.310  32.370  1.00  0.00     0.049 A 
ATOM     54  H   UNL A   1      41.924  28.171  31.531  1.00  0.00     0.167 HD
ATOM     55  C   UNL A   1      42.762  28.723  34.218  1.00  0.00     0.074 A 
ATOM     56  C   UNL A   1      42.799  29.239  35.572  1.00  0.00     0.031 C 
ATOM     57  C   UNL A   1      43.673  27.858  33.704  1.00  0.00     0.037 A 
BRANCH  44  58
ATOM     58  C   UNL A   1      42.560  26.038  27.890  1.00  0.00     0.064 A 
ATOM     59  C   UNL A   1      42.004  24.763  27.698  1.00  0.00     0.173 A 
ATOM     60  C   UNL A   1      43.499  26.488  26.950  1.00  0.00     0.173 A 
ATOM     61  F   UNL A   1      41.112  24.275  28.573  1.00  0.00    -0.203 F 
ATOM     62  C   UNL A   1      42.405  23.958  26.633  1.00  0.00     0.198 A 
ATOM     63  C   UNL A   1      43.870  25.696  25.867  1.00  0.00     0.198 A 
ATOM     64  F   UNL A   1      44.063  27.698  27.083  1.00  0.00    -0.203 F 
ATOM     65  F   UNL A   1      41.911  22.718  26.510  1.00  0.00    -0.200 F 
ATOM     66  C   UNL A   1      43.333  24.427  25.716  1.00  0.00     0.200 A 
ATOM     67  F   UNL A   1      44.757  26.157  24.975  1.00  0.00    -0.200 F 
ATOM     68  F   UNL A   1      43.718  23.652  24.693  1.00  0.00    -0.200 F 
ENDBRANCH  44  58
BRANCH  45  69
ATOM     69  C   UNL A   1      39.426  31.796  35.524  1.00  0.00     0.064 A 
ATOM     70  C   UNL A   1      39.904  33.104  35.682  1.00  0.00     0.173 A 
ATOM     71  C   UNL A   1      38.494  31.326  36.461  1.00  0.00     0.173 A 
ATOM     72  F   UNL A   1      40.807  33.595  34.821  1.00  0.00    -0.203 F 
ATOM     73  C   UNL A   1      39.482  33.902  36.744  1.00  0.00     0.198 A 
ATOM     74  C   UNL A   1      38.050  32.136  37.505  1.00  0.00     0.198 A 
ATOM     75  F   UNL A   1      37.997  30.084  36.353  1.00  0.00    -0.203 F 
ATOM     76  F   UNL A   1      39.988  35.134  36.893  1.00  0.00    -0.200 F 
ATOM     77  C   UNL A   1      38.551  33.420  37.650  1.00  0.00     0.200 A 
ATOM     78  F   UNL A   1      37.135  31.672  38.367  1.00  0.00    -0.200 F 
ATOM     79  F   UNL A   1      38.140  34.191  38.666  1.00  0.00    -0.200 F 
ENDBRANCH  45  69
BRANCH  57  80
ATOM     80  C   UNL A   1      44.820  27.460  34.586  1.00  0.00     0.064 A 
ATOM     81  C   UNL A   1      45.989  28.229  34.672  1.00  0.00     0.173 A 
ATOM     82  C   UNL A   1      44.708  26.336  35.419  1.00  0.00     0.173 A 
ATOM     83  F   UNL A   1      46.150  29.304  33.886  1.00  0.00    -0.203 F 
ATOM     84  C   UNL A   1      47.011  27.877  35.550  1.00  0.00     0.198 A 
ATOM     85  C   UNL A   1      45.714  26.008  36.320  1.00  0.00     0.198 A 
ATOM     86  F   UNL A   1      43.605  25.573  35.379  1.00  0.00    -0.203 F 
ATOM     87  F   UNL A   1      48.136  28.603  35.590  1.00  0.00    -0.200 F 
ATOM     88  C   UNL A   1      46.867  26.776  36.381  1.00  0.00     0.200 A 
ATOM     89  F   UNL A   1      45.564  24.957  37.136  1.00  0.00    -0.200 F 
ATOM     90  F   UNL A   1      47.841  26.453  37.243  1.00  0.00    -0.200 F 
ENDBRANCH  57  80
ENDBRANCH  31  32
ENDBRANCH  24  26
ENDBRANCH  23  24
ENDBRANCH  22  23
ENDBRANCH  21  22
ENDBRANCH  20  21
ENDBRANCH   1  20
TORSDOF 18
ENDMDL
