MODEL 1
REMARK VINA RESULT:     -10.9      0.000      0.000
REMARK SMILES COCc1nc2ccccc2n1CC(=O)OCCOCCOC(=O)c1ccc(-c2c3nc(c(-c4c(F)c(F)c(F)c(F)c4F)c4ccc([nH]4)c(-c4c(F)c(F)c(F)c(F)c4F)c4nc(c(-c5c(F)c(F)c(F)c(F)c5F)c5ccc2[nH]5)C=C4)C=C3)cc1
REMARK SMILES IDX 18 1 17 2 16 3 14 4 15 5 13 6 12 7 4 8 5 9 6 10 11 11 7 12
REMARK SMILES IDX 10 13 8 14 9 15 3 16 2 17 1 18 19 19 20 20 21 21 22 22 23 23
REMARK SMILES IDX 24 24 25 25 26 26 87 27 27 28 86 29 28 30 29 31 30 32 80 33
REMARK SMILES IDX 31 34 85 35 79 36 81 37 32 38 84 39 78 40 77 41 33 43 65 44
REMARK SMILES IDX 45 45 64 46 46 47 49 48 63 49 82 50 47 51 48 52 62 54 83 55
REMARK SMILES IDX 50 56 34 57 35 58 43 59 36 60 37 61 41 62 44 63 38 64 39 65
REMARK SMILES IDX 42 66 40 67 66 68 67 69 75 70 68 71 69 72 73 73 76 74 70 75
REMARK SMILES IDX 71 76 74 77 72 78 51 79 52 80 60 81 53 82 54 83 58 84 61 85
REMARK SMILES IDX 55 86 56 87 59 88 57 89
REMARK H PARENT 81 42 49 53
REMARK Flexibility Score: inf
ROOT
ATOM      1  C   UNL A   1      32.754  29.085  24.675  1.00  0.00     0.202 C 
ENDROOT
BRANCH   1   2
ATOM      2  C   UNL A   1      33.474  27.947  23.960  1.00  0.00     0.261 C 
BRANCH   2   3
ATOM      3  O   UNL A   1      32.494  27.054  23.396  1.00  0.00    -0.462 OA
BRANCH   3   4
ATOM      4  C   UNL A   1      32.998  26.001  22.720  1.00  0.00     0.326 C 
ATOM      5  O   UNL A   1      33.803  26.104  21.798  1.00  0.00    -0.250 OA
BRANCH   4   6
ATOM      6  C   UNL A   1      32.560  24.656  23.235  1.00  0.00     0.246 C 
BRANCH   6   7
ATOM      7  N   UNL A   1      33.303  24.096  24.354  1.00  0.00    -0.315 N 
ATOM      8  C   UNL A   1      33.101  24.352  25.703  1.00  0.00     0.136 A 
ATOM      9  N   UNL A   1      34.024  23.740  26.426  1.00  0.00    -0.231 NA
ATOM     10  C   UNL A   1      34.963  23.290  25.539  1.00  0.00     0.089 A 
ATOM     11  C   UNL A   1      34.546  23.499  24.229  1.00  0.00     0.069 A 
ATOM     12  C   UNL A   1      36.239  22.760  25.787  1.00  0.00     0.030 A 
ATOM     13  C   UNL A   1      35.358  23.194  23.127  1.00  0.00     0.028 A 
ATOM     14  C   UNL A   1      37.083  22.500  24.700  1.00  0.00     0.002 A 
ATOM     15  C   UNL A   1      36.645  22.714  23.394  1.00  0.00     0.002 A 
BRANCH   8  16
ATOM     16  C   UNL A   1      32.140  25.356  26.273  1.00  0.00     0.235 C 
BRANCH  16  17
ATOM     17  O   UNL A   1      31.059  24.699  26.915  1.00  0.00    -0.377 OA
ATOM     18  C   UNL A   1      30.663  23.469  26.334  1.00  0.00     0.195 C 
ENDBRANCH  16  17
ENDBRANCH   8  16
ENDBRANCH   6   7
ENDBRANCH   4   6
ENDBRANCH   3   4
ENDBRANCH   2   3
ENDBRANCH   1   2
BRANCH   1  19
ATOM     19  O   UNL A   1      31.955  28.774  25.813  1.00  0.00    -0.374 OA
BRANCH  19  20
ATOM     20  C   UNL A   1      31.950  29.788  26.817  1.00  0.00     0.202 C 
BRANCH  20  21
ATOM     21  C   UNL A   1      33.054  30.857  26.773  1.00  0.00     0.261 C 
BRANCH  21  22
ATOM     22  O   UNL A   1      34.204  30.455  27.524  1.00  0.00    -0.460 OA
BRANCH  22  23
ATOM     23  C   UNL A   1      34.867  31.467  28.145  1.00  0.00     0.338 C 
ATOM     24  O   UNL A   1      34.434  32.546  28.483  1.00  0.00    -0.246 OA
BRANCH  23  25
ATOM     25  C   UNL A   1      36.070  30.827  28.716  1.00  0.00     0.060 A 
ATOM     26  C   UNL A   1      37.137  31.599  29.189  1.00  0.00     0.016 A 
ATOM     27  C   UNL A   1      36.232  29.470  28.402  1.00  0.00     0.016 A 
ATOM     28  C   UNL A   1      38.407  31.035  29.202  1.00  0.00     0.010 A 
ATOM     29  C   UNL A   1      37.503  28.911  28.416  1.00  0.00     0.010 A 
ATOM     30  C   UNL A   1      38.597  29.711  28.755  1.00  0.00    -0.014 A 
BRANCH  30  31
ATOM     31  C   UNL A   1      39.941  29.143  28.869  1.00  0.00     0.031 A 
ATOM     32  C   UNL A   1      40.301  28.878  30.289  1.00  0.00     0.074 A 
ATOM     33  C   UNL A   1      40.741  28.716  27.869  1.00  0.00     0.049 A 
ATOM     34  N   UNL A   1      41.304  29.322  30.974  1.00  0.00    -0.248 NA
ATOM     35  C   UNL A   1      39.319  28.106  31.071  1.00  0.00     0.031 C 
ATOM     36  C   UNL A   1      40.437  28.577  26.445  1.00  0.00     0.029 A 
ATOM     37  N   UNL A   1      42.009  28.207  27.956  1.00  0.00    -0.354 N 
ATOM     38  C   UNL A   1      41.152  28.765  32.240  1.00  0.00     0.074 A 
ATOM     39  C   UNL A   1      39.846  28.164  32.289  1.00  0.00     0.031 C 
ATOM     40  C   UNL A   1      41.409  27.859  25.841  1.00  0.00     0.029 A 
ATOM     41  C   UNL A   1      42.437  27.544  26.813  1.00  0.00     0.049 A 
ATOM     42  H   UNL A   1      42.569  28.302  28.760  1.00  0.00     0.167 HD
ATOM     43  C   UNL A   1      42.188  28.626  33.106  1.00  0.00     0.037 A 
ATOM     44  C   UNL A   1      43.502  26.710  26.704  1.00  0.00     0.037 A 
ATOM     45  C   UNL A   1      43.274  29.514  32.815  1.00  0.00     0.049 A 
ATOM     46  C   UNL A   1      44.394  26.962  27.859  1.00  0.00     0.074 A 
ATOM     47  C   UNL A   1      43.419  30.887  32.768  1.00  0.00     0.029 A 
ATOM     48  N   UNL A   1      44.383  29.005  32.190  1.00  0.00    -0.354 N 
ATOM     49  N   UNL A   1      45.109  28.038  28.024  1.00  0.00    -0.248 NA
ATOM     50  C   UNL A   1      44.217  26.138  29.045  1.00  0.00     0.031 C 
ATOM     51  C   UNL A   1      44.356  31.132  31.721  1.00  0.00     0.029 A 
ATOM     52  C   UNL A   1      44.735  29.893  31.205  1.00  0.00     0.049 A 
ATOM     53  H   UNL A   1      44.840  28.161  32.408  1.00  0.00     0.167 HD
ATOM     54  C   UNL A   1      45.122  28.242  29.395  1.00  0.00     0.074 A 
ATOM     55  C   UNL A   1      44.662  26.987  29.974  1.00  0.00     0.031 C 
ATOM     56  C   UNL A   1      45.238  29.497  29.913  1.00  0.00     0.037 A 
BRANCH  43  57
ATOM     57  C   UNL A   1      42.303  27.437  34.017  1.00  0.00     0.064 A 
ATOM     58  C   UNL A   1      41.902  27.533  35.359  1.00  0.00     0.173 A 
ATOM     59  C   UNL A   1      43.029  26.272  33.673  1.00  0.00     0.173 A 
ATOM     60  F   UNL A   1      41.267  28.627  35.802  1.00  0.00    -0.203 F 
ATOM     61  C   UNL A   1      42.216  26.537  36.288  1.00  0.00     0.198 A 
ATOM     62  C   UNL A   1      43.281  25.252  34.583  1.00  0.00     0.198 A 
ATOM     63  F   UNL A   1      43.609  26.129  32.473  1.00  0.00    -0.203 F 
ATOM     64  F   UNL A   1      41.906  26.713  37.580  1.00  0.00    -0.200 F 
ATOM     65  C   UNL A   1      42.894  25.394  35.898  1.00  0.00     0.200 A 
ATOM     66  F   UNL A   1      43.964  24.168  34.189  1.00  0.00    -0.200 F 
ATOM     67  F   UNL A   1      43.224  24.457  36.797  1.00  0.00    -0.200 F 
ENDBRANCH  43  57
BRANCH  44  68
ATOM     68  C   UNL A   1      43.648  25.498  25.858  1.00  0.00     0.064 A 
ATOM     69  C   UNL A   1      44.846  25.248  25.164  1.00  0.00     0.173 A 
ATOM     70  C   UNL A   1      42.741  24.424  25.937  1.00  0.00     0.173 A 
ATOM     71  F   UNL A   1      45.784  26.202  25.068  1.00  0.00    -0.203 F 
ATOM     72  C   UNL A   1      45.135  23.990  24.625  1.00  0.00     0.198 A 
ATOM     73  C   UNL A   1      43.024  23.173  25.385  1.00  0.00     0.198 A 
ATOM     74  F   UNL A   1      41.604  24.527  26.638  1.00  0.00    -0.203 F 
ATOM     75  F   UNL A   1      46.322  23.770  24.042  1.00  0.00    -0.200 F 
ATOM     76  C   UNL A   1      44.229  22.950  24.747  1.00  0.00     0.200 A 
ATOM     77  F   UNL A   1      42.150  22.169  25.537  1.00  0.00    -0.200 F 
ATOM     78  F   UNL A   1      44.533  21.728  24.292  1.00  0.00    -0.200 F 
ENDBRANCH  44  68
BRANCH  56  79
ATOM     79  C   UNL A   1      45.665  30.593  28.980  1.00  0.00     0.064 A 
ATOM     80  C   UNL A   1      47.007  30.937  28.739  1.00  0.00     0.173 A 
ATOM     81  C   UNL A   1      44.685  31.234  28.210  1.00  0.00     0.173 A 
ATOM     82  F   UNL A   1      48.006  30.297  29.360  1.00  0.00    -0.203 F 
ATOM     83  C   UNL A   1      47.344  31.914  27.803  1.00  0.00     0.198 A 
ATOM     84  C   UNL A   1      45.027  32.182  27.250  1.00  0.00     0.198 A 
ATOM     85  F   UNL A   1      43.391  30.905  28.359  1.00  0.00    -0.203 F 
ATOM     86  F   UNL A   1      48.629  32.237  27.600  1.00  0.00    -0.200 F 
ATOM     87  C   UNL A   1      46.353  32.531  27.055  1.00  0.00     0.200 A 
ATOM     88  F   UNL A   1      44.070  32.739  26.493  1.00  0.00    -0.200 F 
ATOM     89  F   UNL A   1      46.680  33.439  26.125  1.00  0.00    -0.200 F 
ENDBRANCH  56  79
ENDBRANCH  30  31
ENDBRANCH  23  25
ENDBRANCH  22  23
ENDBRANCH  21  22
ENDBRANCH  20  21
ENDBRANCH  19  20
ENDBRANCH   1  19
TORSDOF 17
ENDMDL
MODEL 2
REMARK VINA RESULT:     -10.7      3.014      8.647
REMARK SMILES COCc1nc2ccccc2n1CC(=O)OCCOCCOC(=O)c1ccc(-c2c3nc(c(-c4c(F)c(F)c(F)c(F)c4F)c4ccc([nH]4)c(-c4c(F)c(F)c(F)c(F)c4F)c4nc(c(-c5c(F)c(F)c(F)c(F)c5F)c5ccc2[nH]5)C=C4)C=C3)cc1
REMARK SMILES IDX 18 1 17 2 16 3 14 4 15 5 13 6 12 7 4 8 5 9 6 10 11 11 7 12
REMARK SMILES IDX 10 13 8 14 9 15 3 16 2 17 1 18 19 19 20 20 21 21 22 22 23 23
REMARK SMILES IDX 24 24 25 25 26 26 87 27 27 28 86 29 28 30 29 31 30 32 80 33
REMARK SMILES IDX 31 34 85 35 79 36 81 37 32 38 84 39 78 40 77 41 33 43 65 44
REMARK SMILES IDX 45 45 64 46 46 47 49 48 63 49 82 50 47 51 48 52 62 54 83 55
REMARK SMILES IDX 50 56 34 57 35 58 43 59 36 60 37 61 41 62 44 63 38 64 39 65
REMARK SMILES IDX 42 66 40 67 66 68 67 69 75 70 68 71 69 72 73 73 76 74 70 75
REMARK SMILES IDX 71 76 74 77 72 78 51 79 52 80 60 81 53 82 54 83 58 84 61 85
REMARK SMILES IDX 55 86 56 87 59 88 57 89
REMARK H PARENT 81 42 49 53
REMARK Flexibility Score: inf
ROOT
ATOM      1  C   UNL A   1      35.438  22.659  23.598  1.00  0.00     0.202 C 
ENDROOT
BRANCH   1   2
ATOM      2  C   UNL A   1      34.115  23.264  23.143  1.00  0.00     0.261 C 
BRANCH   2   3
ATOM      3  O   UNL A   1      34.378  24.499  22.452  1.00  0.00    -0.462 OA
BRANCH   3   4
ATOM      4  C   UNL A   1      33.287  25.139  21.983  1.00  0.00     0.326 C 
ATOM      5  O   UNL A   1      33.149  25.487  20.813  1.00  0.00    -0.250 OA
BRANCH   4   6
ATOM      6  C   UNL A   1      32.189  25.334  22.995  1.00  0.00     0.246 C 
BRANCH   6   7
ATOM      7  N   UNL A   1      32.190  26.578  23.749  1.00  0.00    -0.315 N 
ATOM      8  C   UNL A   1      32.696  26.782  25.025  1.00  0.00     0.136 A 
ATOM      9  N   UNL A   1      32.437  28.015  25.426  1.00  0.00    -0.231 NA
ATOM     10  C   UNL A   1      31.556  28.532  24.517  1.00  0.00     0.089 A 
ATOM     11  C   UNL A   1      31.374  27.656  23.452  1.00  0.00     0.069 A 
ATOM     12  C   UNL A   1      30.808  29.718  24.578  1.00  0.00     0.030 A 
ATOM     13  C   UNL A   1      30.463  27.915  22.418  1.00  0.00     0.028 A 
ATOM     14  C   UNL A   1      29.855  29.966  23.582  1.00  0.00     0.002 A 
ATOM     15  C   UNL A   1      29.690  29.077  22.521  1.00  0.00     0.002 A 
BRANCH   8  16
ATOM     16  C   UNL A   1      33.246  25.719  25.933  1.00  0.00     0.235 C 
BRANCH  16  17
ATOM     17  O   UNL A   1      32.195  24.925  26.459  1.00  0.00    -0.377 OA
ATOM     18  C   UNL A   1      32.447  23.531  26.500  1.00  0.00     0.195 C 
ENDBRANCH  16  17
ENDBRANCH   8  16
ENDBRANCH   6   7
ENDBRANCH   4   6
ENDBRANCH   3   4
ENDBRANCH   2   3
ENDBRANCH   1   2
BRANCH   1  19
ATOM     19  O   UNL A   1      35.407  21.491  24.412  1.00  0.00    -0.374 OA
BRANCH  19  20
ATOM     20  C   UNL A   1      36.206  21.579  25.591  1.00  0.00     0.202 C 
BRANCH  20  21
ATOM     21  C   UNL A   1      37.734  21.497  25.438  1.00  0.00     0.261 C 
BRANCH  21  22
ATOM     22  O   UNL A   1      38.381  22.638  26.010  1.00  0.00    -0.460 OA
BRANCH  22  23
ATOM     23  C   UNL A   1      39.613  22.397  26.533  1.00  0.00     0.338 C 
ATOM     24  O   UNL A   1      40.296  21.405  26.409  1.00  0.00    -0.246 OA
BRANCH  23  25
ATOM     25  C   UNL A   1      40.130  23.734  26.894  1.00  0.00     0.060 A 
ATOM     26  C   UNL A   1      41.343  23.873  27.577  1.00  0.00     0.016 A 
ATOM     27  C   UNL A   1      39.184  24.769  26.863  1.00  0.00     0.016 A 
ATOM     28  C   UNL A   1      41.536  25.007  28.358  1.00  0.00     0.010 A 
ATOM     29  C   UNL A   1      39.382  25.899  27.646  1.00  0.00     0.010 A 
ATOM     30  C   UNL A   1      40.528  25.988  28.440  1.00  0.00    -0.014 A 
BRANCH  30  31
ATOM     31  C   UNL A   1      40.820  27.198  29.210  1.00  0.00     0.031 A 
ATOM     32  C   UNL A   1      42.000  27.920  28.663  1.00  0.00     0.074 A 
ATOM     33  C   UNL A   1      40.068  27.754  30.185  1.00  0.00     0.049 A 
ATOM     34  N   UNL A   1      43.104  28.249  29.252  1.00  0.00    -0.248 NA
ATOM     35  C   UNL A   1      41.975  28.194  27.214  1.00  0.00     0.031 C 
ATOM     36  C   UNL A   1      38.723  27.390  30.628  1.00  0.00     0.029 A 
ATOM     37  N   UNL A   1      40.340  28.869  30.932  1.00  0.00    -0.354 N 
ATOM     38  C   UNL A   1      43.855  28.900  28.278  1.00  0.00     0.074 A 
ATOM     39  C   UNL A   1      43.188  28.698  27.019  1.00  0.00     0.031 C 
ATOM     40  C   UNL A   1      38.228  28.363  31.423  1.00  0.00     0.029 A 
ATOM     41  C   UNL A   1      39.239  29.386  31.603  1.00  0.00     0.049 A 
ATOM     42  H   UNL A   1      41.237  29.269  30.988  1.00  0.00     0.167 HD
ATOM     43  C   UNL A   1      44.858  29.761  28.584  1.00  0.00     0.037 A 
ATOM     44  C   UNL A   1      39.134  30.613  32.173  1.00  0.00     0.037 A 
ATOM     45  C   UNL A   1      45.378  29.557  29.903  1.00  0.00     0.049 A 
ATOM     46  C   UNL A   1      40.504  31.143  32.364  1.00  0.00     0.074 A 
ATOM     47  C   UNL A   1      46.000  28.507  30.549  1.00  0.00     0.029 A 
ATOM     48  N   UNL A   1      45.005  30.429  30.893  1.00  0.00    -0.354 N 
ATOM     49  N   UNL A   1      41.361  30.687  33.233  1.00  0.00    -0.248 NA
ATOM     50  C   UNL A   1      41.061  31.980  31.313  1.00  0.00     0.031 C 
ATOM     51  C   UNL A   1      45.556  28.579  31.902  1.00  0.00     0.029 A 
ATOM     52  C   UNL A   1      44.702  29.678  32.000  1.00  0.00     0.049 A 
ATOM     53  H   UNL A   1      44.962  31.410  30.821  1.00  0.00     0.167 HD
ATOM     54  C   UNL A   1      42.593  30.830  32.615  1.00  0.00     0.074 A 
ATOM     55  C   UNL A   1      42.359  31.733  31.496  1.00  0.00     0.031 C 
ATOM     56  C   UNL A   1      43.623  29.985  32.906  1.00  0.00     0.037 A 
BRANCH  43  57
ATOM     57  C   UNL A   1      45.122  30.992  27.764  1.00  0.00     0.064 A 
ATOM     58  C   UNL A   1      46.392  31.214  27.209  1.00  0.00     0.173 A 
ATOM     59  C   UNL A   1      44.228  32.086  27.711  1.00  0.00     0.173 A 
ATOM     60  F   UNL A   1      47.335  30.262  27.267  1.00  0.00    -0.203 F 
ATOM     61  C   UNL A   1      46.742  32.448  26.654  1.00  0.00     0.198 A 
ATOM     62  C   UNL A   1      44.555  33.290  27.098  1.00  0.00     0.198 A 
ATOM     63  F   UNL A   1      43.046  32.066  28.345  1.00  0.00    -0.203 F 
ATOM     64  F   UNL A   1      47.996  32.652  26.229  1.00  0.00    -0.200 F 
ATOM     65  C   UNL A   1      45.821  33.480  26.588  1.00  0.00     0.200 A 
ATOM     66  F   UNL A   1      43.656  34.285  27.072  1.00  0.00    -0.200 F 
ATOM     67  F   UNL A   1      46.168  34.672  26.086  1.00  0.00    -0.200 F 
ENDBRANCH  43  57
BRANCH  44  68
ATOM     68  C   UNL A   1      37.940  31.492  32.270  1.00  0.00     0.064 A 
ATOM     69  C   UNL A   1      37.434  31.878  33.525  1.00  0.00     0.173 A 
ATOM     70  C   UNL A   1      37.448  32.201  31.157  1.00  0.00     0.173 A 
ATOM     71  F   UNL A   1      37.872  31.282  34.643  1.00  0.00    -0.203 F 
ATOM     72  C   UNL A   1      36.529  32.936  33.658  1.00  0.00     0.198 A 
ATOM     73  C   UNL A   1      36.533  33.246  31.291  1.00  0.00     0.198 A 
ATOM     74  F   UNL A   1      37.916  31.968  29.925  1.00  0.00    -0.203 F 
ATOM     75  F   UNL A   1      36.133  33.326  34.879  1.00  0.00    -0.200 F 
ATOM     76  C   UNL A   1      36.088  33.627  32.543  1.00  0.00     0.200 A 
ATOM     77  F   UNL A   1      36.138  33.924  30.204  1.00  0.00    -0.200 F 
ATOM     78  F   UNL A   1      35.276  34.684  32.675  1.00  0.00    -0.200 F 
ENDBRANCH  44  68
BRANCH  56  79
ATOM     79  C   UNL A   1      43.481  29.116  34.122  1.00  0.00     0.064 A 
ATOM     80  C   UNL A   1      43.946  29.476  35.399  1.00  0.00     0.173 A 
ATOM     81  C   UNL A   1      42.739  27.932  34.014  1.00  0.00     0.173 A 
ATOM     82  F   UNL A   1      44.574  30.641  35.602  1.00  0.00    -0.203 F 
ATOM     83  C   UNL A   1      43.717  28.660  36.506  1.00  0.00     0.198 A 
ATOM     84  C   UNL A   1      42.480  27.139  35.127  1.00  0.00     0.198 A 
ATOM     85  F   UNL A   1      42.223  27.568  32.828  1.00  0.00    -0.203 F 
ATOM     86  F   UNL A   1      44.183  29.015  37.712  1.00  0.00    -0.200 F 
ATOM     87  C   UNL A   1      42.979  27.495  36.370  1.00  0.00     0.200 A 
ATOM     88  F   UNL A   1      41.722  26.040  35.000  1.00  0.00    -0.200 F 
ATOM     89  F   UNL A   1      42.722  26.732  37.441  1.00  0.00    -0.200 F 
ENDBRANCH  56  79
ENDBRANCH  30  31
ENDBRANCH  23  25
ENDBRANCH  22  23
ENDBRANCH  21  22
ENDBRANCH  20  21
ENDBRANCH  19  20
ENDBRANCH   1  19
TORSDOF 17
ENDMDL
MODEL 3
REMARK VINA RESULT:     -10.6      3.200      8.695
REMARK SMILES COCc1nc2ccccc2n1CC(=O)OCCOCCOC(=O)c1ccc(-c2c3nc(c(-c4c(F)c(F)c(F)c(F)c4F)c4ccc([nH]4)c(-c4c(F)c(F)c(F)c(F)c4F)c4nc(c(-c5c(F)c(F)c(F)c(F)c5F)c5ccc2[nH]5)C=C4)C=C3)cc1
REMARK SMILES IDX 18 1 17 2 16 3 14 4 15 5 13 6 12 7 4 8 5 9 6 10 11 11 7 12
REMARK SMILES IDX 10 13 8 14 9 15 3 16 2 17 1 18 19 19 20 20 21 21 22 22 23 23
REMARK SMILES IDX 24 24 25 25 26 26 87 27 27 28 86 29 28 30 29 31 30 32 80 33
REMARK SMILES IDX 31 34 85 35 79 36 81 37 32 38 84 39 78 40 77 41 33 43 65 44
REMARK SMILES IDX 45 45 64 46 46 47 49 48 63 49 82 50 47 51 48 52 62 54 83 55
REMARK SMILES IDX 50 56 34 57 35 58 43 59 36 60 37 61 41 62 44 63 38 64 39 65
REMARK SMILES IDX 42 66 40 67 66 68 67 69 75 70 68 71 69 72 73 73 76 74 70 75
REMARK SMILES IDX 71 76 74 77 72 78 51 79 52 80 60 81 53 82 54 83 58 84 61 85
REMARK SMILES IDX 55 86 56 87 59 88 57 89
REMARK H PARENT 81 42 49 53
REMARK Flexibility Score: inf
ROOT
ATOM      1  C   UNL A   1      37.787  22.067  25.584  1.00  0.00     0.202 C 
ENDROOT
BRANCH   1   2
ATOM      2  C   UNL A   1      37.023  23.384  25.519  1.00  0.00     0.261 C 
BRANCH   2   3
ATOM      3  O   UNL A   1      35.903  23.321  26.423  1.00  0.00    -0.462 OA
BRANCH   3   4
ATOM      4  C   UNL A   1      34.716  23.037  25.847  1.00  0.00     0.326 C 
ATOM      5  O   UNL A   1      34.150  21.951  25.949  1.00  0.00    -0.250 OA
BRANCH   4   6
ATOM      6  C   UNL A   1      34.077  24.191  25.121  1.00  0.00     0.246 C 
BRANCH   6   7
ATOM      7  N   UNL A   1      32.994  24.888  25.799  1.00  0.00    -0.315 N 
ATOM      8  C   UNL A   1      31.674  24.473  25.911  1.00  0.00     0.136 A 
ATOM      9  N   UNL A   1      30.954  25.405  26.513  1.00  0.00    -0.231 NA
ATOM     10  C   UNL A   1      31.748  26.517  26.573  1.00  0.00     0.089 A 
ATOM     11  C   UNL A   1      33.034  26.231  26.130  1.00  0.00     0.069 A 
ATOM     12  C   UNL A   1      31.409  27.834  26.924  1.00  0.00     0.030 A 
ATOM     13  C   UNL A   1      34.025  27.218  26.021  1.00  0.00     0.028 A 
ATOM     14  C   UNL A   1      32.370  28.840  26.769  1.00  0.00     0.002 A 
ATOM     15  C   UNL A   1      33.656  28.533  26.326  1.00  0.00     0.002 A 
BRANCH   8  16
ATOM     16  C   UNL A   1      31.073  23.267  25.250  1.00  0.00     0.235 C 
BRANCH  16  17
ATOM     17  O   UNL A   1      31.026  23.444  23.843  1.00  0.00    -0.377 OA
ATOM     18  C   UNL A   1      31.719  22.471  23.083  1.00  0.00     0.195 C 
ENDBRANCH  16  17
ENDBRANCH   8  16
ENDBRANCH   6   7
ENDBRANCH   4   6
ENDBRANCH   3   4
ENDBRANCH   2   3
ENDBRANCH   1   2
BRANCH   1  19
ATOM     19  O   UNL A   1      39.109  22.074  26.113  1.00  0.00    -0.374 OA
BRANCH  19  20
ATOM     20  C   UNL A   1      39.740  20.795  26.126  1.00  0.00     0.202 C 
BRANCH  20  21
ATOM     21  C   UNL A   1      41.277  20.744  26.157  1.00  0.00     0.261 C 
BRANCH  21  22
ATOM     22  O   UNL A   1      41.833  21.985  26.604  1.00  0.00    -0.460 OA
BRANCH  22  23
ATOM     23  C   UNL A   1      42.683  22.582  25.726  1.00  0.00     0.338 C 
ATOM     24  O   UNL A   1      43.022  22.191  24.632  1.00  0.00    -0.246 OA
BRANCH  23  25
ATOM     25  C   UNL A   1      42.751  23.989  26.175  1.00  0.00     0.060 A 
ATOM     26  C   UNL A   1      43.599  24.367  27.221  1.00  0.00     0.016 A 
ATOM     27  C   UNL A   1      41.677  24.797  25.775  1.00  0.00     0.016 A 
ATOM     28  C   UNL A   1      43.271  25.495  27.964  1.00  0.00     0.010 A 
ATOM     29  C   UNL A   1      41.353  25.922  26.521  1.00  0.00     0.010 A 
ATOM     30  C   UNL A   1      42.112  26.234  27.651  1.00  0.00    -0.014 A 
BRANCH  30  31
ATOM     31  C   UNL A   1      41.862  27.458  28.414  1.00  0.00     0.031 A 
ATOM     32  C   UNL A   1      42.932  28.468  28.190  1.00  0.00     0.074 A 
ATOM     33  C   UNL A   1      40.749  27.782  29.107  1.00  0.00     0.049 A 
ATOM     34  N   UNL A   1      43.703  29.047  29.053  1.00  0.00    -0.248 NA
ATOM     35  C   UNL A   1      43.256  28.764  26.783  1.00  0.00     0.031 C 
ATOM     36  C   UNL A   1      39.467  27.080  29.166  1.00  0.00     0.029 A 
ATOM     37  N   UNL A   1      40.509  28.910  29.846  1.00  0.00    -0.354 N 
ATOM     38  C   UNL A   1      44.516  29.891  28.302  1.00  0.00     0.074 A 
ATOM     39  C   UNL A   1      44.310  29.562  26.917  1.00  0.00     0.031 C 
ATOM     40  C   UNL A   1      38.540  27.877  29.741  1.00  0.00     0.029 A 
ATOM     41  C   UNL A   1      39.170  29.116  30.152  1.00  0.00     0.049 A 
ATOM     42  H   UNL A   1      41.224  29.520  30.135  1.00  0.00     0.167 HD
ATOM     43  C   UNL A   1      45.143  30.968  28.839  1.00  0.00     0.037 A 
ATOM     44  C   UNL A   1      38.605  30.262  30.609  1.00  0.00     0.037 A 
ATOM     45  C   UNL A   1      45.297  30.866  30.260  1.00  0.00     0.049 A 
ATOM     46  C   UNL A   1      39.687  31.113  31.156  1.00  0.00     0.074 A 
ATOM     47  C   UNL A   1      45.947  29.989  31.106  1.00  0.00     0.029 A 
ATOM     48  N   UNL A   1      44.451  31.590  31.060  1.00  0.00    -0.354 N 
ATOM     49  N   UNL A   1      40.344  30.864  32.253  1.00  0.00    -0.248 NA
ATOM     50  C   UNL A   1      40.296  32.090  30.268  1.00  0.00     0.031 C 
ATOM     51  C   UNL A   1      45.130  29.913  32.271  1.00  0.00     0.029 A 
ATOM     52  C   UNL A   1      44.039  30.759  32.070  1.00  0.00     0.049 A 
ATOM     53  H   UNL A   1      44.189  32.531  30.932  1.00  0.00     0.167 HD
ATOM     54  C   UNL A   1      41.626  31.328  32.005  1.00  0.00     0.074 A 
ATOM     55  C   UNL A   1      41.506  32.173  30.824  1.00  0.00     0.031 C 
ATOM     56  C   UNL A   1      42.705  30.761  32.616  1.00  0.00     0.037 A 
BRANCH  43  57
ATOM     57  C   UNL A   1      45.317  32.247  28.070  1.00  0.00     0.064 A 
ATOM     58  C   UNL A   1      44.215  33.079  27.823  1.00  0.00     0.173 A 
ATOM     59  C   UNL A   1      46.497  32.558  27.353  1.00  0.00     0.173 A 
ATOM     60  F   UNL A   1      43.031  32.830  28.401  1.00  0.00    -0.203 F 
ATOM     61  C   UNL A   1      44.288  34.139  26.915  1.00  0.00     0.198 A 
ATOM     62  C   UNL A   1      46.587  33.654  26.502  1.00  0.00     0.198 A 
ATOM     63  F   UNL A   1      47.568  31.753  27.370  1.00  0.00    -0.203 F 
ATOM     64  F   UNL A   1      43.186  34.846  26.630  1.00  0.00    -0.200 F 
ATOM     65  C   UNL A   1      45.475  34.433  26.264  1.00  0.00     0.200 A 
ATOM     66  F   UNL A   1      47.739  33.900  25.862  1.00  0.00    -0.200 F 
ATOM     67  F   UNL A   1      45.535  35.427  25.369  1.00  0.00    -0.200 F 
ENDBRANCH  43  57
BRANCH  44  68
ATOM     68  C   UNL A   1      37.255  30.810  30.321  1.00  0.00     0.064 A 
ATOM     69  C   UNL A   1      36.408  31.218  31.368  1.00  0.00     0.173 A 
ATOM     70  C   UNL A   1      36.879  31.214  29.025  1.00  0.00     0.173 A 
ATOM     71  F   UNL A   1      36.707  30.909  32.638  1.00  0.00    -0.203 F 
ATOM     72  C   UNL A   1      35.284  32.016  31.135  1.00  0.00     0.198 A 
ATOM     73  C   UNL A   1      35.748  31.998  28.794  1.00  0.00     0.198 A 
ATOM     74  F   UNL A   1      37.651  30.946  27.965  1.00  0.00    -0.203 F 
ATOM     75  F   UNL A   1      34.548  32.451  32.169  1.00  0.00    -0.200 F 
ATOM     76  C   UNL A   1      34.961  32.416  29.850  1.00  0.00     0.200 A 
ATOM     77  F   UNL A   1      35.465  32.400  27.546  1.00  0.00    -0.200 F 
ATOM     78  F   UNL A   1      33.925  33.237  29.633  1.00  0.00    -0.200 F 
ENDBRANCH  44  68
BRANCH  56  79
ATOM     79  C   UNL A   1      42.440  29.853  33.782  1.00  0.00     0.064 A 
ATOM     80  C   UNL A   1      42.034  28.513  33.654  1.00  0.00     0.173 A 
ATOM     81  C   UNL A   1      42.727  30.321  35.071  1.00  0.00     0.173 A 
ATOM     82  F   UNL A   1      41.839  27.963  32.448  1.00  0.00    -0.203 F 
ATOM     83  C   UNL A   1      41.877  27.697  34.774  1.00  0.00     0.198 A 
ATOM     84  C   UNL A   1      42.606  29.494  36.183  1.00  0.00     0.198 A 
ATOM     85  F   UNL A   1      43.172  31.577  35.246  1.00  0.00    -0.203 F 
ATOM     86  F   UNL A   1      41.474  26.427  34.629  1.00  0.00    -0.200 F 
ATOM     87  C   UNL A   1      42.169  28.187  36.037  1.00  0.00     0.200 A 
ATOM     88  F   UNL A   1      42.939  29.956  37.397  1.00  0.00    -0.200 F 
ATOM     89  F   UNL A   1      42.060  27.390  37.109  1.00  0.00    -0.200 F 
ENDBRANCH  56  79
ENDBRANCH  30  31
ENDBRANCH  23  25
ENDBRANCH  22  23
ENDBRANCH  21  22
ENDBRANCH  20  21
ENDBRANCH  19  20
ENDBRANCH   1  19
TORSDOF 17
ENDMDL
