MODEL 1
REMARK VINA RESULT:     -12.1      0.000      0.000
REMARK SMILES O=C(OCCOCCOC(=O)c1cnccc1C(=O)N1CCC(Cc2ccccc2)CC1)c1ccc(-c2c3nc(c(-c4c(F)c(F)c(F)c(F)c4F)c4ccc([nH]4)c(-c4c(F)c(F)c(F)c(F)c4F)c4nc(c(-c5c(F)c(F)c(F)c(F)c5F)c5ccc2[nH]5)C=C4)C=C3)cc1
REMARK SMILES IDX 7 1 6 2 5 3 4 4 3 5 2 6 1 7 33 8 34 9 95 10 35 11 94 12
REMARK SMILES IDX 36 13 37 14 38 15 88 16 39 17 93 18 87 19 89 20 40 21 92 22
REMARK SMILES IDX 86 23 85 24 41 26 73 27 53 28 72 29 54 30 57 31 71 32 90 33
REMARK SMILES IDX 55 34 56 35 70 37 91 38 58 39 42 40 43 41 51 42 44 43 45 44
REMARK SMILES IDX 49 45 52 46 46 47 47 48 50 49 48 50 74 51 75 52 83 53 76 54
REMARK SMILES IDX 77 55 81 56 84 57 78 58 79 59 82 60 80 61 59 62 60 63 68 64
REMARK SMILES IDX 61 65 62 66 66 67 69 68 63 69 64 70 67 71 65 72 8 73 9 74
REMARK SMILES IDX 10 75 11 76 12 77 13 78 17 79 14 80 16 81 15 82 18 83 19 84
REMARK SMILES IDX 20 85 21 86 32 87 22 88 31 89 23 90 24 91 25 92 26 93 30 94
REMARK SMILES IDX 27 95 29 96 28 97
REMARK H PARENT 89 25 57 36
REMARK Flexibility Score: inf
ROOT
ATOM      1  C   UNL A   1      32.579  29.864  25.908  1.00  0.00     0.202 C 
ENDROOT
BRANCH   1   2
ATOM      2  O   UNL A   1      31.411  30.630  25.607  1.00  0.00    -0.374 OA
BRANCH   2   3
ATOM      3  C   UNL A   1      31.209  31.776  26.429  1.00  0.00     0.202 C 
BRANCH   3   4
ATOM      4  C   UNL A   1      32.510  32.330  27.019  1.00  0.00     0.261 C 
BRANCH   4   5
ATOM      5  O   UNL A   1      32.321  33.653  27.555  1.00  0.00    -0.460 OA
BRANCH   5   6
ATOM      6  C   UNL A   1      33.059  34.335  28.462  1.00  0.00     0.338 C 
ATOM      7  O   UNL A   1      32.764  35.511  28.676  1.00  0.00    -0.246 OA
BRANCH   6   8
ATOM      8  C   UNL A   1      34.268  33.793  29.171  1.00  0.00     0.060 A 
ATOM      9  C   UNL A   1      35.590  34.162  28.919  1.00  0.00     0.016 A 
ATOM     10  C   UNL A   1      34.031  32.944  30.269  1.00  0.00     0.016 A 
ATOM     11  C   UNL A   1      36.633  33.770  29.741  1.00  0.00     0.010 A 
ATOM     12  C   UNL A   1      35.081  32.496  31.079  1.00  0.00     0.010 A 
ATOM     13  C   UNL A   1      36.384  32.920  30.810  1.00  0.00    -0.014 A 
BRANCH  13  14
ATOM     14  C   UNL A   1      37.558  32.356  31.482  1.00  0.00     0.031 A 
ATOM     15  C   UNL A   1      38.348  31.337  30.726  1.00  0.00     0.074 A 
ATOM     16  C   UNL A   1      37.986  32.888  32.639  1.00  0.00     0.049 A 
ATOM     17  N   UNL A   1      39.405  30.669  31.092  1.00  0.00    -0.248 NA
ATOM     18  C   UNL A   1      37.902  31.053  29.348  1.00  0.00     0.031 C 
ATOM     19  C   UNL A   1      37.358  34.015  33.331  1.00  0.00     0.029 A 
ATOM     20  N   UNL A   1      39.062  32.572  33.420  1.00  0.00    -0.354 N 
ATOM     21  C   UNL A   1      39.731  29.869  30.006  1.00  0.00     0.074 A 
ATOM     22  C   UNL A   1      38.783  30.149  28.955  1.00  0.00     0.031 C 
ATOM     23  C   UNL A   1      38.056  34.286  34.447  1.00  0.00     0.029 A 
ATOM     24  C   UNL A   1      39.134  33.311  34.576  1.00  0.00     0.049 A 
ATOM     25  H   UNL A   1      39.722  31.882  33.179  1.00  0.00     0.167 HD
ATOM     26  C   UNL A   1      40.728  28.963  29.922  1.00  0.00     0.037 A 
ATOM     27  C   UNL A   1      39.954  33.160  35.632  1.00  0.00     0.037 A 
ATOM     28  C   UNL A   1      41.641  28.709  31.001  1.00  0.00     0.049 A 
ATOM     29  C   UNL A   1      40.974  32.048  35.563  1.00  0.00     0.074 A 
ATOM     30  C   UNL A   1      42.652  27.774  31.080  1.00  0.00     0.029 A 
ATOM     31  N   UNL A   1      41.634  29.408  32.202  1.00  0.00    -0.354 N 
ATOM     32  N   UNL A   1      41.248  31.239  34.564  1.00  0.00    -0.248 NA
ATOM     33  C   UNL A   1      41.777  31.807  36.767  1.00  0.00     0.031 C 
ATOM     34  C   UNL A   1      43.219  27.867  32.355  1.00  0.00     0.029 A 
ATOM     35  C   UNL A   1      42.599  28.899  33.048  1.00  0.00     0.049 A 
ATOM     36  H   UNL A   1      41.031  30.155  32.418  1.00  0.00     0.167 HD
ATOM     37  C   UNL A   1      42.259  30.403  35.014  1.00  0.00     0.074 A 
ATOM     38  C   UNL A   1      42.571  30.825  36.364  1.00  0.00     0.031 C 
ATOM     39  C   UNL A   1      42.870  29.369  34.383  1.00  0.00     0.037 A 
BRANCH  26  40
ATOM     40  C   UNL A   1      40.796  28.126  28.682  1.00  0.00     0.064 A 
ATOM     41  C   UNL A   1      41.549  28.503  27.561  1.00  0.00     0.173 A 
ATOM     42  C   UNL A   1      40.070  26.928  28.613  1.00  0.00     0.173 A 
ATOM     43  F   UNL A   1      42.229  29.660  27.562  1.00  0.00    -0.203 F 
ATOM     44  C   UNL A   1      41.561  27.716  26.412  1.00  0.00     0.198 A 
ATOM     45  C   UNL A   1      40.104  26.131  27.472  1.00  0.00     0.198 A 
ATOM     46  F   UNL A   1      39.319  26.532  29.652  1.00  0.00    -0.203 F 
ATOM     47  F   UNL A   1      42.250  28.117  25.333  1.00  0.00    -0.200 F 
ATOM     48  C   UNL A   1      40.845  26.528  26.371  1.00  0.00     0.200 A 
ATOM     49  F   UNL A   1      39.408  24.987  27.436  1.00  0.00    -0.200 F 
ATOM     50  F   UNL A   1      40.858  25.772  25.264  1.00  0.00    -0.200 F 
ENDBRANCH  26  40
BRANCH  27  51
ATOM     51  C   UNL A   1      39.785  33.984  36.862  1.00  0.00     0.064 A 
ATOM     52  C   UNL A   1      38.969  33.565  37.922  1.00  0.00     0.173 A 
ATOM     53  C   UNL A   1      40.388  35.249  36.975  1.00  0.00     0.173 A 
ATOM     54  F   UNL A   1      38.349  32.378  37.862  1.00  0.00    -0.203 F 
ATOM     55  C   UNL A   1      38.734  34.390  39.024  1.00  0.00     0.198 A 
ATOM     56  C   UNL A   1      40.182  36.055  38.093  1.00  0.00     0.198 A 
ATOM     57  F   UNL A   1      41.174  35.710  35.992  1.00  0.00    -0.203 F 
ATOM     58  F   UNL A   1      37.893  33.991  39.989  1.00  0.00    -0.200 F 
ATOM     59  C   UNL A   1      39.343  35.632  39.110  1.00  0.00     0.200 A 
ATOM     60  F   UNL A   1      40.785  37.250  38.174  1.00  0.00    -0.200 F 
ATOM     61  F   UNL A   1      39.109  36.427  40.162  1.00  0.00    -0.200 F 
ENDBRANCH  27  51
BRANCH  39  62
ATOM     62  C   UNL A   1      43.938  28.649  35.147  1.00  0.00     0.064 A 
ATOM     63  C   UNL A   1      45.274  29.071  35.107  1.00  0.00     0.173 A 
ATOM     64  C   UNL A   1      43.606  27.570  35.979  1.00  0.00     0.173 A 
ATOM     65  F   UNL A   1      45.638  30.089  34.312  1.00  0.00    -0.203 F 
ATOM     66  C   UNL A   1      46.246  28.425  35.862  1.00  0.00     0.198 A 
ATOM     67  C   UNL A   1      44.575  26.949  36.758  1.00  0.00     0.198 A 
ATOM     68  F   UNL A   1      42.338  27.139  36.056  1.00  0.00    -0.203 F 
ATOM     69  F   UNL A   1      47.525  28.814  35.778  1.00  0.00    -0.200 F 
ATOM     70  C   UNL A   1      45.893  27.372  36.695  1.00  0.00     0.200 A 
ATOM     71  F   UNL A   1      44.230  25.945  37.577  1.00  0.00    -0.200 F 
ATOM     72  F   UNL A   1      46.829  26.761  37.434  1.00  0.00    -0.200 F 
ENDBRANCH  39  62
ENDBRANCH  13  14
ENDBRANCH   6   8
ENDBRANCH   5   6
ENDBRANCH   4   5
ENDBRANCH   3   4
ENDBRANCH   2   3
ENDBRANCH   1   2
BRANCH   1  73
ATOM     73  C   UNL A   1      32.131  28.622  26.633  1.00  0.00     0.261 C 
BRANCH  73  74
ATOM     74  O   UNL A   1      33.028  27.589  26.228  1.00  0.00    -0.460 OA
BRANCH  74  75
ATOM     75  C   UNL A   1      32.550  26.331  26.322  1.00  0.00     0.340 C 
ATOM     76  O   UNL A   1      31.651  25.909  27.017  1.00  0.00    -0.246 OA
BRANCH  75  77
ATOM     77  C   UNL A   1      33.285  25.516  25.368  1.00  0.00     0.091 A 
ATOM     78  C   UNL A   1      34.612  25.285  25.733  1.00  0.00     0.127 A 
ATOM     79  C   UNL A   1      32.754  24.868  24.252  1.00  0.00     0.057 A 
ATOM     80  N   UNL A   1      35.433  24.422  25.098  1.00  0.00    -0.264 NA
ATOM     81  C   UNL A   1      33.616  23.974  23.583  1.00  0.00     0.035 A 
ATOM     82  C   UNL A   1      34.910  23.773  24.042  1.00  0.00     0.112 A 
BRANCH  79  83
ATOM     83  C   UNL A   1      31.310  24.792  23.842  1.00  0.00     0.254 C 
ATOM     84  O   UNL A   1      30.839  23.646  23.839  1.00  0.00    -0.269 OA
ATOM     85  N   UNL A   1      30.458  25.885  23.587  1.00  0.00    -0.339 N 
ATOM     86  C   UNL A   1      29.118  25.713  24.159  1.00  0.00     0.120 C 
ATOM     87  C   UNL A   1      30.846  27.183  23.023  1.00  0.00     0.120 C 
ATOM     88  C   UNL A   1      28.027  26.660  23.695  1.00  0.00     0.025 C 
ATOM     89  C   UNL A   1      29.703  28.119  22.618  1.00  0.00     0.025 C 
ATOM     90  C   UNL A   1      28.502  28.104  23.578  1.00  0.00    -0.003 C 
BRANCH  90  91
ATOM     91  C   UNL A   1      27.401  29.055  23.055  1.00  0.00     0.039 C 
BRANCH  91  92
ATOM     92  C   UNL A   1      27.832  30.461  22.702  1.00  0.00    -0.048 A 
ATOM     93  C   UNL A   1      27.784  30.886  21.364  1.00  0.00     0.004 A 
ATOM     94  C   UNL A   1      28.311  31.351  23.672  1.00  0.00     0.004 A 
ATOM     95  C   UNL A   1      28.220  32.161  21.002  1.00  0.00     0.000 A 
ATOM     96  C   UNL A   1      28.751  32.628  23.305  1.00  0.00     0.000 A 
ATOM     97  C   UNL A   1      28.709  33.030  21.972  1.00  0.00     0.000 A 
ENDBRANCH  91  92
ENDBRANCH  90  91
ENDBRANCH  79  83
ENDBRANCH  75  77
ENDBRANCH  74  75
ENDBRANCH  73  74
ENDBRANCH   1  73
TORSDOF 17
ENDMDL
MODEL 2
REMARK VINA RESULT:     -12.0      1.821      2.914
REMARK SMILES O=C(OCCOCCOC(=O)c1cnccc1C(=O)N1CCC(Cc2ccccc2)CC1)c1ccc(-c2c3nc(c(-c4c(F)c(F)c(F)c(F)c4F)c4ccc([nH]4)c(-c4c(F)c(F)c(F)c(F)c4F)c4nc(c(-c5c(F)c(F)c(F)c(F)c5F)c5ccc2[nH]5)C=C4)C=C3)cc1
REMARK SMILES IDX 7 1 6 2 5 3 4 4 3 5 2 6 1 7 33 8 34 9 95 10 35 11 94 12
REMARK SMILES IDX 36 13 37 14 38 15 88 16 39 17 93 18 87 19 89 20 40 21 92 22
REMARK SMILES IDX 86 23 85 24 41 26 73 27 53 28 72 29 54 30 57 31 71 32 90 33
REMARK SMILES IDX 55 34 56 35 70 37 91 38 58 39 42 40 43 41 51 42 44 43 45 44
REMARK SMILES IDX 49 45 52 46 46 47 47 48 50 49 48 50 74 51 75 52 83 53 76 54
REMARK SMILES IDX 77 55 81 56 84 57 78 58 79 59 82 60 80 61 59 62 60 63 68 64
REMARK SMILES IDX 61 65 62 66 66 67 69 68 63 69 64 70 67 71 65 72 8 73 9 74
REMARK SMILES IDX 10 75 11 76 12 77 13 78 17 79 14 80 16 81 15 82 18 83 19 84
REMARK SMILES IDX 20 85 21 86 32 87 22 88 31 89 23 90 24 91 25 92 26 93 30 94
REMARK SMILES IDX 27 95 29 96 28 97
REMARK H PARENT 89 25 57 36
REMARK Flexibility Score: inf
ROOT
ATOM      1  C   UNL A   1      33.628  27.011  25.903  1.00  0.00     0.202 C 
ENDROOT
BRANCH   1   2
ATOM      2  O   UNL A   1      33.368  28.415  25.861  1.00  0.00    -0.374 OA
BRANCH   2   3
ATOM      3  C   UNL A   1      31.992  28.779  25.939  1.00  0.00     0.202 C 
BRANCH   3   4
ATOM      4  C   UNL A   1      31.771  30.166  26.553  1.00  0.00     0.261 C 
BRANCH   4   5
ATOM      5  O   UNL A   1      32.937  30.999  26.402  1.00  0.00    -0.460 OA
BRANCH   5   6
ATOM      6  C   UNL A   1      33.581  31.762  27.315  1.00  0.00     0.338 C 
ATOM      7  O   UNL A   1      33.212  32.930  27.451  1.00  0.00    -0.246 OA
BRANCH   6   8
ATOM      8  C   UNL A   1      34.772  31.324  28.119  1.00  0.00     0.060 A 
ATOM      9  C   UNL A   1      34.946  30.062  28.691  1.00  0.00     0.016 A 
ATOM     10  C   UNL A   1      35.857  32.219  28.184  1.00  0.00     0.016 A 
ATOM     11  C   UNL A   1      36.150  29.667  29.248  1.00  0.00     0.010 A 
ATOM     12  C   UNL A   1      37.063  31.853  28.790  1.00  0.00     0.010 A 
ATOM     13  C   UNL A   1      37.204  30.568  29.318  1.00  0.00    -0.014 A 
BRANCH  13  14
ATOM     14  C   UNL A   1      38.354  30.164  30.133  1.00  0.00     0.031 A 
ATOM     15  C   UNL A   1      39.363  29.270  29.487  1.00  0.00     0.074 A 
ATOM     16  C   UNL A   1      38.559  30.738  31.330  1.00  0.00     0.049 A 
ATOM     17  N   UNL A   1      40.449  28.750  29.985  1.00  0.00    -0.248 NA
ATOM     18  C   UNL A   1      39.132  28.942  28.067  1.00  0.00     0.031 C 
ATOM     19  C   UNL A   1      37.701  31.761  31.932  1.00  0.00     0.029 A 
ATOM     20  N   UNL A   1      39.564  30.566  32.240  1.00  0.00    -0.354 N 
ATOM     21  C   UNL A   1      41.013  28.014  28.953  1.00  0.00     0.074 A 
ATOM     22  C   UNL A   1      40.172  28.171  27.792  1.00  0.00     0.031 C 
ATOM     23  C   UNL A   1      38.214  32.115  33.123  1.00  0.00     0.029 A 
ATOM     24  C   UNL A   1      39.392  31.296  33.390  1.00  0.00     0.049 A 
ATOM     25  H   UNL A   1      40.337  29.975  32.087  1.00  0.00     0.167 HD
ATOM     26  C   UNL A   1      42.128  27.254  28.999  1.00  0.00     0.037 A 
ATOM     27  C   UNL A   1      40.089  31.249  34.540  1.00  0.00     0.037 A 
ATOM     28  C   UNL A   1      42.928  27.118  30.183  1.00  0.00     0.049 A 
ATOM     29  C   UNL A   1      41.253  30.289  34.604  1.00  0.00     0.074 A 
ATOM     30  C   UNL A   1      44.041  26.330  30.393  1.00  0.00     0.029 A 
ATOM     31  N   UNL A   1      42.677  27.797  31.369  1.00  0.00    -0.354 N 
ATOM     32  N   UNL A   1      41.756  29.535  33.653  1.00  0.00    -0.248 NA
ATOM     33  C   UNL A   1      41.928  30.149  35.900  1.00  0.00     0.031 C 
ATOM     34  C   UNL A   1      44.428  26.487  31.727  1.00  0.00     0.029 A 
ATOM     35  C   UNL A   1      43.592  27.418  32.331  1.00  0.00     0.049 A 
ATOM     36  H   UNL A   1      41.955  28.453  31.505  1.00  0.00     0.167 HD
ATOM     37  C   UNL A   1      42.810  28.841  34.230  1.00  0.00     0.074 A 
ATOM     38  C   UNL A   1      42.893  29.290  35.605  1.00  0.00     0.031 C 
ATOM     39  C   UNL A   1      43.630  27.907  33.686  1.00  0.00     0.037 A 
BRANCH  26  40
ATOM     40  C   UNL A   1      42.462  26.447  27.783  1.00  0.00     0.064 A 
ATOM     41  C   UNL A   1      41.870  25.203  27.520  1.00  0.00     0.173 A 
ATOM     42  C   UNL A   1      43.415  26.926  26.872  1.00  0.00     0.173 A 
ATOM     43  F   UNL A   1      40.982  24.683  28.381  1.00  0.00    -0.203 F 
ATOM     44  C   UNL A   1      42.231  24.464  26.395  1.00  0.00     0.198 A 
ATOM     45  C   UNL A   1      43.755  26.197  25.737  1.00  0.00     0.198 A 
ATOM     46  F   UNL A   1      44.025  28.102  27.089  1.00  0.00    -0.203 F 
ATOM     47  F   UNL A   1      41.687  23.257  26.186  1.00  0.00    -0.200 F 
ATOM     48  C   UNL A   1      43.167  24.965  25.501  1.00  0.00     0.200 A 
ATOM     49  F   UNL A   1      44.663  26.682  24.879  1.00  0.00    -0.200 F 
ATOM     50  F   UNL A   1      43.513  24.252  24.420  1.00  0.00    -0.200 F 
ENDBRANCH  26  40
BRANCH  27  51
ATOM     51  C   UNL A   1      39.659  32.030  35.734  1.00  0.00     0.064 A 
ATOM     52  C   UNL A   1      38.646  31.570  36.588  1.00  0.00     0.173 A 
ATOM     53  C   UNL A   1      40.208  33.294  36.010  1.00  0.00     0.173 A 
ATOM     54  F   UNL A   1      38.068  30.382  36.363  1.00  0.00    -0.203 F 
ATOM     55  C   UNL A   1      38.178  32.356  37.643  1.00  0.00     0.198 A 
ATOM     56  C   UNL A   1      39.766  34.061  37.086  1.00  0.00     0.198 A 
ATOM     57  F   UNL A   1      41.175  33.793  35.226  1.00  0.00    -0.203 F 
ATOM     58  F   UNL A   1      37.161  31.920  38.400  1.00  0.00    -0.200 F 
ATOM     59  C   UNL A   1      38.740  33.598  37.893  1.00  0.00     0.200 A 
ATOM     60  F   UNL A   1      40.323  35.255  37.328  1.00  0.00    -0.200 F 
ATOM     61  F   UNL A   1      38.283  34.356  38.898  1.00  0.00    -0.200 F 
ENDBRANCH  27  51
BRANCH  39  62
ATOM     62  C   UNL A   1      44.685  27.334  34.581  1.00  0.00     0.064 A 
ATOM     63  C   UNL A   1      45.927  27.964  34.740  1.00  0.00     0.173 A 
ATOM     64  C   UNL A   1      44.421  26.182  35.334  1.00  0.00     0.173 A 
ATOM     65  F   UNL A   1      46.226  29.059  34.027  1.00  0.00    -0.203 F 
ATOM     66  C   UNL A   1      46.878  27.448  35.613  1.00  0.00     0.198 A 
ATOM     67  C   UNL A   1      45.362  25.689  36.232  1.00  0.00     0.198 A 
ATOM     68  F   UNL A   1      43.242  25.552  35.221  1.00  0.00    -0.203 F 
ATOM     69  F   UNL A   1      48.075  28.039  35.721  1.00  0.00    -0.200 F 
ATOM     70  C   UNL A   1      46.590  26.318  36.366  1.00  0.00     0.200 A 
ATOM     71  F   UNL A   1      45.076  24.609  36.973  1.00  0.00    -0.200 F 
ATOM     72  F   UNL A   1      47.501  25.832  37.220  1.00  0.00    -0.200 F 
ENDBRANCH  39  62
ENDBRANCH  13  14
ENDBRANCH   6   8
ENDBRANCH   5   6
ENDBRANCH   4   5
ENDBRANCH   3   4
ENDBRANCH   2   3
ENDBRANCH   1   2
BRANCH   1  73
ATOM     73  C   UNL A   1      33.933  26.566  24.498  1.00  0.00     0.261 C 
BRANCH  73  74
ATOM     74  O   UNL A   1      34.650  25.339  24.624  1.00  0.00    -0.460 OA
BRANCH  74  75
ATOM     75  C   UNL A   1      34.473  24.453  23.620  1.00  0.00     0.340 C 
ATOM     76  O   UNL A   1      34.179  24.664  22.464  1.00  0.00    -0.246 OA
BRANCH  75  77
ATOM     77  C   UNL A   1      34.754  23.131  24.156  1.00  0.00     0.091 A 
ATOM     78  C   UNL A   1      36.020  22.648  23.825  1.00  0.00     0.127 A 
ATOM     79  C   UNL A   1      33.951  22.411  25.042  1.00  0.00     0.057 A 
ATOM     80  N   UNL A   1      36.565  21.529  24.348  1.00  0.00    -0.264 NA
ATOM     81  C   UNL A   1      34.517  21.236  25.579  1.00  0.00     0.035 A 
ATOM     82  C   UNL A   1      35.804  20.853  25.226  1.00  0.00     0.112 A 
BRANCH  79  83
ATOM     83  C   UNL A   1      32.681  22.870  25.704  1.00  0.00     0.254 C 
ATOM     84  O   UNL A   1      32.571  22.526  26.888  1.00  0.00    -0.269 OA
ATOM     85  N   UNL A   1      31.710  23.721  25.140  1.00  0.00    -0.339 N 
ATOM     86  C   UNL A   1      31.217  24.731  26.083  1.00  0.00     0.120 C 
ATOM     87  C   UNL A   1      31.340  23.808  23.723  1.00  0.00     0.120 C 
ATOM     88  C   UNL A   1      29.962  25.495  25.705  1.00  0.00     0.025 C 
ATOM     89  C   UNL A   1      30.092  24.634  23.395  1.00  0.00     0.025 C 
ATOM     90  C   UNL A   1      29.936  25.910  24.238  1.00  0.00    -0.003 C 
BRANCH  90  91
ATOM     91  C   UNL A   1      28.632  26.642  23.847  1.00  0.00     0.039 C 
BRANCH  91  92
ATOM     92  C   UNL A   1      28.786  27.991  23.183  1.00  0.00    -0.048 A 
ATOM     93  C   UNL A   1      27.659  28.811  23.007  1.00  0.00     0.004 A 
ATOM     94  C   UNL A   1      30.025  28.442  22.708  1.00  0.00     0.004 A 
ATOM     95  C   UNL A   1      27.763  30.040  22.355  1.00  0.00     0.000 A 
ATOM     96  C   UNL A   1      30.126  29.674  22.052  1.00  0.00     0.000 A 
ATOM     97  C   UNL A   1      28.996  30.470  21.873  1.00  0.00     0.000 A 
ENDBRANCH  91  92
ENDBRANCH  90  91
ENDBRANCH  79  83
ENDBRANCH  75  77
ENDBRANCH  74  75
ENDBRANCH  73  74
ENDBRANCH   1  73
TORSDOF 17
ENDMDL
MODEL 3
REMARK VINA RESULT:     -11.8      2.463      5.165
REMARK SMILES O=C(OCCOCCOC(=O)c1cnccc1C(=O)N1CCC(Cc2ccccc2)CC1)c1ccc(-c2c3nc(c(-c4c(F)c(F)c(F)c(F)c4F)c4ccc([nH]4)c(-c4c(F)c(F)c(F)c(F)c4F)c4nc(c(-c5c(F)c(F)c(F)c(F)c5F)c5ccc2[nH]5)C=C4)C=C3)cc1
REMARK SMILES IDX 7 1 6 2 5 3 4 4 3 5 2 6 1 7 33 8 34 9 95 10 35 11 94 12
REMARK SMILES IDX 36 13 37 14 38 15 88 16 39 17 93 18 87 19 89 20 40 21 92 22
REMARK SMILES IDX 86 23 85 24 41 26 73 27 53 28 72 29 54 30 57 31 71 32 90 33
REMARK SMILES IDX 55 34 56 35 70 37 91 38 58 39 42 40 43 41 51 42 44 43 45 44
REMARK SMILES IDX 49 45 52 46 46 47 47 48 50 49 48 50 74 51 75 52 83 53 76 54
REMARK SMILES IDX 77 55 81 56 84 57 78 58 79 59 82 60 80 61 59 62 60 63 68 64
REMARK SMILES IDX 61 65 62 66 66 67 69 68 63 69 64 70 67 71 65 72 8 73 9 74
REMARK SMILES IDX 10 75 11 76 12 77 13 78 17 79 14 80 16 81 15 82 18 83 19 84
REMARK SMILES IDX 20 85 21 86 32 87 22 88 31 89 23 90 24 91 25 92 26 93 30 94
REMARK SMILES IDX 27 95 29 96 28 97
REMARK H PARENT 89 25 57 36
REMARK Flexibility Score: inf
ROOT
ATOM      1  C   UNL A   1      29.835  29.322  22.541  1.00  0.00     0.202 C 
ENDROOT
BRANCH   1   2
ATOM      2  O   UNL A   1      29.890  30.036  23.777  1.00  0.00    -0.374 OA
BRANCH   2   3
ATOM      3  C   UNL A   1      30.990  29.705  24.620  1.00  0.00     0.202 C 
BRANCH   3   4
ATOM      4  C   UNL A   1      31.232  30.738  25.726  1.00  0.00     0.261 C 
BRANCH   4   5
ATOM      5  O   UNL A   1      32.559  30.620  26.273  1.00  0.00    -0.460 OA
BRANCH   5   6
ATOM      6  C   UNL A   1      33.233  31.452  27.101  1.00  0.00     0.338 C 
ATOM      7  O   UNL A   1      32.892  32.635  27.129  1.00  0.00    -0.246 OA
BRANCH   6   8
ATOM      8  C   UNL A   1      34.424  31.064  27.930  1.00  0.00     0.060 A 
ATOM      9  C   UNL A   1      34.718  29.774  28.376  1.00  0.00     0.016 A 
ATOM     10  C   UNL A   1      35.389  32.063  28.161  1.00  0.00     0.016 A 
ATOM     11  C   UNL A   1      35.930  29.458  28.966  1.00  0.00     0.010 A 
ATOM     12  C   UNL A   1      36.596  31.771  28.803  1.00  0.00     0.010 A 
ATOM     13  C   UNL A   1      36.863  30.459  29.199  1.00  0.00    -0.014 A 
BRANCH  13  14
ATOM     14  C   UNL A   1      38.008  30.099  30.040  1.00  0.00     0.031 A 
ATOM     15  C   UNL A   1      39.049  29.216  29.429  1.00  0.00     0.074 A 
ATOM     16  C   UNL A   1      38.182  30.702  31.228  1.00  0.00     0.049 A 
ATOM     17  N   UNL A   1      40.138  28.732  29.954  1.00  0.00    -0.248 NA
ATOM     18  C   UNL A   1      38.849  28.853  28.012  1.00  0.00     0.031 C 
ATOM     19  C   UNL A   1      37.290  31.717  31.795  1.00  0.00     0.029 A 
ATOM     20  N   UNL A   1      39.176  30.572  32.157  1.00  0.00    -0.354 N 
ATOM     21  C   UNL A   1      40.736  27.989  28.947  1.00  0.00     0.074 A 
ATOM     22  C   UNL A   1      39.910  28.102  27.769  1.00  0.00     0.031 C 
ATOM     23  C   UNL A   1      37.775  32.107  32.987  1.00  0.00     0.029 A 
ATOM     24  C   UNL A   1      38.968  31.322  33.289  1.00  0.00     0.049 A 
ATOM     25  H   UNL A   1      39.965  29.997  32.028  1.00  0.00     0.167 HD
ATOM     26  C   UNL A   1      41.867  27.256  29.026  1.00  0.00     0.037 A 
ATOM     27  C   UNL A   1      39.647  31.315  34.451  1.00  0.00     0.037 A 
ATOM     28  C   UNL A   1      42.651  27.164  30.225  1.00  0.00     0.049 A 
ATOM     29  C   UNL A   1      40.832  30.383  34.553  1.00  0.00     0.074 A 
ATOM     30  C   UNL A   1      43.778  26.406  30.468  1.00  0.00     0.029 A 
ATOM     31  N   UNL A   1      42.366  27.861  31.393  1.00  0.00    -0.354 N 
ATOM     32  N   UNL A   1      41.367  29.622  33.625  1.00  0.00    -0.248 NA
ATOM     33  C   UNL A   1      41.489  30.286  35.861  1.00  0.00     0.031 C 
ATOM     34  C   UNL A   1      44.140  26.600  31.805  1.00  0.00     0.029 A 
ATOM     35  C   UNL A   1      43.274  27.522  32.376  1.00  0.00     0.049 A 
ATOM     36  H   UNL A   1      41.626  28.501  31.503  1.00  0.00     0.167 HD
ATOM     37  C   UNL A   1      42.428  28.965  34.232  1.00  0.00     0.074 A 
ATOM     38  C   UNL A   1      42.479  29.444  35.600  1.00  0.00     0.031 C 
ATOM     39  C   UNL A   1      43.278  28.040  33.722  1.00  0.00     0.037 A 
BRANCH  26  40
ATOM     40  C   UNL A   1      42.239  26.433  27.832  1.00  0.00     0.064 A 
ATOM     41  C   UNL A   1      41.653  25.187  27.566  1.00  0.00     0.173 A 
ATOM     42  C   UNL A   1      43.224  26.898  26.948  1.00  0.00     0.173 A 
ATOM     43  F   UNL A   1      40.735  24.680  28.403  1.00  0.00    -0.203 F 
ATOM     44  C   UNL A   1      42.049  24.433  26.463  1.00  0.00     0.198 A 
ATOM     45  C   UNL A   1      43.600  26.153  25.834  1.00  0.00     0.198 A 
ATOM     46  F   UNL A   1      43.830  28.074  27.170  1.00  0.00    -0.203 F 
ATOM     47  F   UNL A   1      41.509  23.224  26.252  1.00  0.00    -0.200 F 
ATOM     48  C   UNL A   1      43.016  24.919  25.595  1.00  0.00     0.200 A 
ATOM     49  F   UNL A   1      44.537  26.624  25.001  1.00  0.00    -0.200 F 
ATOM     50  F   UNL A   1      43.395  24.191  24.536  1.00  0.00    -0.200 F 
ENDBRANCH  26  40
BRANCH  27  51
ATOM     51  C   UNL A   1      39.180  32.109  35.621  1.00  0.00     0.064 A 
ATOM     52  C   UNL A   1      39.659  33.403  35.870  1.00  0.00     0.173 A 
ATOM     53  C   UNL A   1      38.290  31.560  36.560  1.00  0.00     0.173 A 
ATOM     54  F   UNL A   1      40.528  33.971  35.022  1.00  0.00    -0.203 F 
ATOM     55  C   UNL A   1      39.295  34.099  37.025  1.00  0.00     0.198 A 
ATOM     56  C   UNL A   1      37.899  32.271  37.693  1.00  0.00     0.198 A 
ATOM     57  F   UNL A   1      37.802  30.324  36.383  1.00  0.00    -0.203 F 
ATOM     58  F   UNL A   1      39.824  35.306  37.271  1.00  0.00    -0.200 F 
ATOM     59  C   UNL A   1      38.414  33.534  37.933  1.00  0.00     0.200 A 
ATOM     60  F   UNL A   1      37.036  31.723  38.561  1.00  0.00    -0.200 F 
ATOM     61  F   UNL A   1      38.074  34.198  39.046  1.00  0.00    -0.200 F 
ENDBRANCH  27  51
BRANCH  39  62
ATOM     62  C   UNL A   1      44.332  27.510  34.644  1.00  0.00     0.064 A 
ATOM     63  C   UNL A   1      45.556  28.172  34.809  1.00  0.00     0.173 A 
ATOM     64  C   UNL A   1      44.083  26.368  35.418  1.00  0.00     0.173 A 
ATOM     65  F   UNL A   1      45.842  29.258  34.077  1.00  0.00    -0.203 F 
ATOM     66  C   UNL A   1      46.505  27.696  35.707  1.00  0.00     0.198 A 
ATOM     67  C   UNL A   1      45.019  25.916  36.340  1.00  0.00     0.198 A 
ATOM     68  F   UNL A   1      42.920  25.710  35.300  1.00  0.00    -0.203 F 
ATOM     69  F   UNL A   1      47.687  28.317  35.821  1.00  0.00    -0.200 F 
ATOM     70  C   UNL A   1      46.231  26.576  36.480  1.00  0.00     0.200 A 
ATOM     71  F   UNL A   1      44.746  24.846  37.100  1.00  0.00    -0.200 F 
ATOM     72  F   UNL A   1      47.140  26.129  37.358  1.00  0.00    -0.200 F 
ENDBRANCH  39  62
ENDBRANCH  13  14
ENDBRANCH   6   8
ENDBRANCH   5   6
ENDBRANCH   4   5
ENDBRANCH   3   4
ENDBRANCH   2   3
ENDBRANCH   1   2
BRANCH   1  73
ATOM     73  C   UNL A   1      30.067  27.866  22.848  1.00  0.00     0.261 C 
BRANCH  73  74
ATOM     74  O   UNL A   1      30.854  27.359  21.772  1.00  0.00    -0.460 OA
BRANCH  74  75
ATOM     75  C   UNL A   1      31.732  26.388  22.097  1.00  0.00     0.340 C 
ATOM     76  O   UNL A   1      31.758  25.233  21.731  1.00  0.00    -0.246 OA
BRANCH  75  77
ATOM     77  C   UNL A   1      32.734  26.983  22.967  1.00  0.00     0.091 A 
ATOM     78  C   UNL A   1      33.379  28.086  22.407  1.00  0.00     0.127 A 
ATOM     79  C   UNL A   1      32.983  26.640  24.297  1.00  0.00     0.057 A 
ATOM     80  N   UNL A   1      34.216  28.899  23.086  1.00  0.00    -0.264 NA
ATOM     81  C   UNL A   1      33.865  27.485  25.002  1.00  0.00     0.035 A 
ATOM     82  C   UNL A   1      34.430  28.587  24.376  1.00  0.00     0.112 A 
BRANCH  79  83
ATOM     83  C   UNL A   1      32.223  25.657  25.144  1.00  0.00     0.254 C 
ATOM     84  O   UNL A   1      31.200  26.119  25.668  1.00  0.00    -0.269 OA
ATOM     85  N   UNL A   1      32.508  24.284  25.284  1.00  0.00    -0.339 N 
ATOM     86  C   UNL A   1      31.307  23.444  25.254  1.00  0.00     0.120 C 
ATOM     87  C   UNL A   1      33.835  23.658  25.243  1.00  0.00     0.120 C 
ATOM     88  C   UNL A   1      31.445  22.001  25.704  1.00  0.00     0.025 C 
ATOM     89  C   UNL A   1      33.906  22.186  25.660  1.00  0.00     0.025 C 
ATOM     90  C   UNL A   1      32.716  21.335  25.189  1.00  0.00    -0.003 C 
BRANCH  90  91
ATOM     91  C   UNL A   1      32.876  19.883  25.694  1.00  0.00     0.039 C 
BRANCH  91  92
ATOM     92  C   UNL A   1      33.267  18.848  24.663  1.00  0.00    -0.048 A 
ATOM     93  C   UNL A   1      32.528  18.741  23.474  1.00  0.00     0.004 A 
ATOM     94  C   UNL A   1      34.334  17.965  24.872  1.00  0.00     0.004 A 
ATOM     95  C   UNL A   1      32.835  17.764  22.526  1.00  0.00     0.000 A 
ATOM     96  C   UNL A   1      34.638  16.983  23.921  1.00  0.00     0.000 A 
ATOM     97  C   UNL A   1      33.887  16.881  22.752  1.00  0.00     0.000 A 
ENDBRANCH  91  92
ENDBRANCH  90  91
ENDBRANCH  79  83
ENDBRANCH  75  77
ENDBRANCH  74  75
ENDBRANCH  73  74
ENDBRANCH   1  73
TORSDOF 17
ENDMDL
