MODEL 1
REMARK VINA RESULT:     -10.0      0.000      0.000
REMARK SMILES CC[C@H](C)[NH2+]CCc1ccc(C(=O)OCCOCCOC(=O)c2ccc(-c3c4nc(c(-c5c(F)c(F)c(F)c(F)c5F)c5ccc([nH]5)c(-c5c(F)c(F)c(F)c(F)c5F)c5nc(c(-c6c(F)c(F)c(F)c(F)c6F)c6ccc3[nH]6)C=C5)C=C4)cc2)cc1
REMARK SMILES IDX 15 1 14 2 12 3 13 4 11 5 8 6 9 7 87 8 10 9 86 10 7 11 6 12
REMARK SMILES IDX 5 13 3 16 4 17 2 18 1 19 16 20 17 21 18 22 19 23 20 24 21 25
REMARK SMILES IDX 22 26 23 27 24 28 85 29 25 30 84 31 26 32 27 33 28 34 78 35
REMARK SMILES IDX 29 36 83 37 77 38 79 39 30 40 82 41 76 42 75 43 31 45 63 46
REMARK SMILES IDX 43 47 62 48 44 49 47 50 61 51 80 52 45 53 46 54 60 56 81 57
REMARK SMILES IDX 48 58 32 59 33 60 41 61 34 62 35 63 39 64 42 65 36 66 37 67
REMARK SMILES IDX 40 68 38 69 64 70 65 71 73 72 66 73 67 74 71 75 74 76 68 77
REMARK SMILES IDX 69 78 72 79 70 80 49 81 50 82 58 83 51 84 52 85 56 86 59 87
REMARK SMILES IDX 53 88 54 89 57 90 55 91
REMARK H PARENT 5 14 5 15 79 44 47 55
REMARK Flexibility Score: inf
ROOT
ATOM      1  C   UNL A   1      42.128  19.553  26.776  1.00  0.00     0.261 C 
ENDROOT
BRANCH   1   2
ATOM      2  O   UNL A   1      40.924  20.166  26.288  1.00  0.00    -0.460 OA
BRANCH   2   3
ATOM      3  C   UNL A   1      40.509  21.234  27.005  1.00  0.00     0.338 C 
ATOM      4  O   UNL A   1      41.090  21.769  27.940  1.00  0.00    -0.246 OA
BRANCH   3   5
ATOM      5  C   UNL A   1      39.319  21.829  26.373  1.00  0.00     0.060 A 
ATOM      6  C   UNL A   1      37.193  22.863  24.896  1.00  0.00    -0.042 A 
ATOM      7  C   UNL A   1      37.432  21.484  24.916  1.00  0.00     0.005 A 
ATOM      8  C   UNL A   1      37.949  23.704  25.726  1.00  0.00     0.005 A 
ATOM      9  C   UNL A   1      38.516  20.974  25.614  1.00  0.00     0.016 A 
ATOM     10  C   UNL A   1      39.004  23.185  26.484  1.00  0.00     0.016 A 
BRANCH   6  11
ATOM     11  C   UNL A   1      36.246  23.427  23.860  1.00  0.00     0.097 C 
BRANCH  11  12
ATOM     12  C   UNL A   1      34.794  23.559  24.384  1.00  0.00     0.265 C 
BRANCH  12  13
ATOM     13  N   UNL A   1      33.897  22.414  24.206  1.00  0.00    -0.344 N 
ATOM     14  H   UNL A   1      33.136  22.713  23.598  1.00  0.00     0.346 HD
ATOM     15  H   UNL A   1      34.491  21.675  23.830  1.00  0.00     0.346 HD
BRANCH  13  16
ATOM     16  C   UNL A   1      33.296  21.831  25.410  1.00  0.00     0.178 C 
ATOM     17  C   UNL A   1      31.791  21.713  25.127  1.00  0.00     0.075 C 
BRANCH  16  18
ATOM     18  C   UNL A   1      33.891  20.462  25.781  1.00  0.00     0.061 C 
ATOM     19  C   UNL A   1      33.966  19.466  24.631  1.00  0.00     0.010 C 
ENDBRANCH  16  18
ENDBRANCH  13  16
ENDBRANCH  12  13
ENDBRANCH  11  12
ENDBRANCH   6  11
ENDBRANCH   3   5
ENDBRANCH   2   3
ENDBRANCH   1   2
BRANCH   1  20
ATOM     20  C   UNL A   1      42.960  18.972  25.628  1.00  0.00     0.202 C 
BRANCH  20  21
ATOM     21  O   UNL A   1      43.883  19.855  24.993  1.00  0.00    -0.374 OA
BRANCH  21  22
ATOM     22  C   UNL A   1      43.871  21.223  25.399  1.00  0.00     0.202 C 
BRANCH  22  23
ATOM     23  C   UNL A   1      45.222  21.947  25.436  1.00  0.00     0.261 C 
BRANCH  23  24
ATOM     24  O   UNL A   1      45.144  23.194  26.151  1.00  0.00    -0.460 OA
BRANCH  24  25
ATOM     25  C   UNL A   1      44.604  24.217  25.453  1.00  0.00     0.338 C 
ATOM     26  O   UNL A   1      44.617  24.381  24.240  1.00  0.00    -0.246 OA
BRANCH  25  27
ATOM     27  C   UNL A   1      43.803  25.066  26.351  1.00  0.00     0.060 A 
ATOM     28  C   UNL A   1      44.134  26.426  26.423  1.00  0.00     0.016 A 
ATOM     29  C   UNL A   1      42.797  24.536  27.160  1.00  0.00     0.016 A 
ATOM     30  C   UNL A   1      43.492  27.254  27.338  1.00  0.00     0.010 A 
ATOM     31  C   UNL A   1      42.160  25.366  28.088  1.00  0.00     0.010 A 
ATOM     32  C   UNL A   1      42.529  26.719  28.204  1.00  0.00    -0.014 A 
BRANCH  32  33
ATOM     33  C   UNL A   1      42.017  27.544  29.324  1.00  0.00     0.031 A 
ATOM     34  C   UNL A   1      42.729  27.500  30.648  1.00  0.00     0.074 A 
ATOM     35  C   UNL A   1      40.951  28.347  29.155  1.00  0.00     0.049 A 
ATOM     36  N   UNL A   1      42.440  28.109  31.769  1.00  0.00    -0.248 NA
ATOM     37  C   UNL A   1      43.929  26.651  30.715  1.00  0.00     0.031 C 
ATOM     38  C   UNL A   1      40.205  28.506  27.910  1.00  0.00     0.029 A 
ATOM     39  N   UNL A   1      40.311  29.175  30.042  1.00  0.00    -0.354 N 
ATOM     40  C   UNL A   1      43.416  27.714  32.674  1.00  0.00     0.074 A 
ATOM     41  C   UNL A   1      44.287  26.788  31.982  1.00  0.00     0.031 C 
ATOM     42  C   UNL A   1      39.198  29.372  28.115  1.00  0.00     0.029 A 
ATOM     43  C   UNL A   1      39.211  29.802  29.512  1.00  0.00     0.049 A 
ATOM     44  H   UNL A   1      40.611  29.306  30.971  1.00  0.00     0.167 HD
ATOM     45  C   UNL A   1      43.575  28.096  33.964  1.00  0.00     0.037 A 
ATOM     46  C   UNL A   1      38.308  30.611  30.096  1.00  0.00     0.037 A 
ATOM     47  C   UNL A   1      42.707  29.018  34.648  1.00  0.00     0.049 A 
ATOM     48  C   UNL A   1      38.466  30.965  31.553  1.00  0.00     0.074 A 
ATOM     49  C   UNL A   1      42.797  29.487  35.947  1.00  0.00     0.029 A 
ATOM     50  N   UNL A   1      41.584  29.607  34.088  1.00  0.00    -0.354 N 
ATOM     51  N   UNL A   1      39.406  30.609  32.396  1.00  0.00    -0.248 NA
ATOM     52  C   UNL A   1      37.437  31.835  32.139  1.00  0.00     0.031 C 
ATOM     53  C   UNL A   1      41.698  30.318  36.189  1.00  0.00     0.029 A 
ATOM     54  C   UNL A   1      40.955  30.412  35.025  1.00  0.00     0.049 A 
ATOM     55  H   UNL A   1      41.277  29.473  33.162  1.00  0.00     0.167 HD
ATOM     56  C   UNL A   1      39.098  31.233  33.599  1.00  0.00     0.074 A 
ATOM     57  C   UNL A   1      37.891  32.000  33.372  1.00  0.00     0.031 C 
ATOM     58  C   UNL A   1      39.756  31.175  34.783  1.00  0.00     0.037 A 
BRANCH  45  59
ATOM     59  C   UNL A   1      44.717  27.495  34.729  1.00  0.00     0.064 A 
ATOM     60  C   UNL A   1      45.957  28.144  34.837  1.00  0.00     0.173 A 
ATOM     61  C   UNL A   1      44.559  26.269  35.393  1.00  0.00     0.173 A 
ATOM     62  F   UNL A   1      46.164  29.312  34.210  1.00  0.00    -0.203 F 
ATOM     63  C   UNL A   1      47.004  27.575  35.559  1.00  0.00     0.198 A 
ATOM     64  C   UNL A   1      45.599  25.717  36.138  1.00  0.00     0.198 A 
ATOM     65  F   UNL A   1      43.394  25.609  35.325  1.00  0.00    -0.203 F 
ATOM     66  F   UNL A   1      48.193  28.190  35.610  1.00  0.00    -0.200 F 
ATOM     67  C   UNL A   1      46.821  26.366  36.215  1.00  0.00     0.200 A 
ATOM     68  F   UNL A   1      45.415  24.556  36.781  1.00  0.00    -0.200 F 
ATOM     69  F   UNL A   1      47.826  25.823  36.914  1.00  0.00    -0.200 F 
ENDBRANCH  45  59
BRANCH  46  70
ATOM     70  C   UNL A   1      37.161  31.135  29.309  1.00  0.00     0.064 A 
ATOM     71  C   UNL A   1      37.130  32.467  28.874  1.00  0.00     0.173 A 
ATOM     72  C   UNL A   1      36.064  30.320  28.993  1.00  0.00     0.173 A 
ATOM     73  F   UNL A   1      38.143  33.294  29.173  1.00  0.00    -0.203 F 
ATOM     74  C   UNL A   1      36.037  32.968  28.169  1.00  0.00     0.198 A 
ATOM     75  C   UNL A   1      34.985  30.814  28.263  1.00  0.00     0.198 A 
ATOM     76  F   UNL A   1      36.044  29.038  29.388  1.00  0.00    -0.203 F 
ATOM     77  F   UNL A   1      36.011  34.258  27.806  1.00  0.00    -0.200 F 
ATOM     78  C   UNL A   1      34.969  32.140  27.858  1.00  0.00     0.200 A 
ATOM     79  F   UNL A   1      33.961  30.007  27.956  1.00  0.00    -0.200 F 
ATOM     80  F   UNL A   1      33.920  32.622  27.179  1.00  0.00    -0.200 F 
ENDBRANCH  46  70
BRANCH  58  81
ATOM     81  C   UNL A   1      39.206  31.991  35.918  1.00  0.00     0.064 A 
ATOM     82  C   UNL A   1      38.297  31.452  36.841  1.00  0.00     0.173 A 
ATOM     83  C   UNL A   1      39.627  33.316  36.109  1.00  0.00     0.173 A 
ATOM     84  F   UNL A   1      37.853  30.193  36.694  1.00  0.00    -0.203 F 
ATOM     85  C   UNL A   1      37.810  32.218  37.896  1.00  0.00     0.198 A 
ATOM     86  C   UNL A   1      39.162  34.069  37.184  1.00  0.00     0.198 A 
ATOM     87  F   UNL A   1      40.501  33.876  35.261  1.00  0.00    -0.203 F 
ATOM     88  F   UNL A   1      36.905  31.698  38.738  1.00  0.00    -0.200 F 
ATOM     89  C   UNL A   1      38.248  33.522  38.071  1.00  0.00     0.200 A 
ATOM     90  F   UNL A   1      39.598  35.324  37.360  1.00  0.00    -0.200 F 
ATOM     91  F   UNL A   1      37.784  34.255  39.093  1.00  0.00    -0.200 F 
ENDBRANCH  58  81
ENDBRANCH  32  33
ENDBRANCH  25  27
ENDBRANCH  24  25
ENDBRANCH  23  24
ENDBRANCH  22  23
ENDBRANCH  21  22
ENDBRANCH  20  21
ENDBRANCH   1  20
TORSDOF 19
ENDMDL
MODEL 2
REMARK VINA RESULT:      -9.9      4.871      9.982
REMARK SMILES CC[C@H](C)[NH2+]CCc1ccc(C(=O)OCCOCCOC(=O)c2ccc(-c3c4nc(c(-c5c(F)c(F)c(F)c(F)c5F)c5ccc([nH]5)c(-c5c(F)c(F)c(F)c(F)c5F)c5nc(c(-c6c(F)c(F)c(F)c(F)c6F)c6ccc3[nH]6)C=C5)C=C4)cc2)cc1
REMARK SMILES IDX 15 1 14 2 12 3 13 4 11 5 8 6 9 7 87 8 10 9 86 10 7 11 6 12
REMARK SMILES IDX 5 13 3 16 4 17 2 18 1 19 16 20 17 21 18 22 19 23 20 24 21 25
REMARK SMILES IDX 22 26 23 27 24 28 85 29 25 30 84 31 26 32 27 33 28 34 78 35
REMARK SMILES IDX 29 36 83 37 77 38 79 39 30 40 82 41 76 42 75 43 31 45 63 46
REMARK SMILES IDX 43 47 62 48 44 49 47 50 61 51 80 52 45 53 46 54 60 56 81 57
REMARK SMILES IDX 48 58 32 59 33 60 41 61 34 62 35 63 39 64 42 65 36 66 37 67
REMARK SMILES IDX 40 68 38 69 64 70 65 71 73 72 66 73 67 74 71 75 74 76 68 77
REMARK SMILES IDX 69 78 72 79 70 80 49 81 50 82 58 83 51 84 52 85 56 86 59 87
REMARK SMILES IDX 53 88 54 89 57 90 55 91
REMARK H PARENT 5 14 5 15 79 44 47 55
REMARK Flexibility Score: inf
ROOT
ATOM      1  C   UNL A   1      35.323  32.645  28.046  1.00  0.00     0.261 C 
ENDROOT
BRANCH   1   2
ATOM      2  O   UNL A   1      34.587  31.495  28.489  1.00  0.00    -0.460 OA
BRANCH   2   3
ATOM      3  C   UNL A   1      35.009  30.323  27.963  1.00  0.00     0.338 C 
ATOM      4  O   UNL A   1      35.995  29.676  28.291  1.00  0.00    -0.246 OA
BRANCH   3   5
ATOM      5  C   UNL A   1      33.988  29.792  27.044  1.00  0.00     0.060 A 
ATOM      6  C   UNL A   1      32.278  28.806  25.074  1.00  0.00    -0.042 A 
ATOM      7  C   UNL A   1      33.416  28.081  25.446  1.00  0.00     0.005 A 
ATOM      8  C   UNL A   1      31.936  29.964  25.790  1.00  0.00     0.005 A 
ATOM      9  C   UNL A   1      34.291  28.593  26.394  1.00  0.00     0.016 A 
ATOM     10  C   UNL A   1      32.783  30.449  26.792  1.00  0.00     0.016 A 
BRANCH   6  11
ATOM     11  C   UNL A   1      31.545  28.420  23.810  1.00  0.00     0.097 C 
BRANCH  11  12
ATOM     12  C   UNL A   1      30.321  29.327  23.525  1.00  0.00     0.265 C 
BRANCH  12  13
ATOM     13  N   UNL A   1      30.311  30.086  22.272  1.00  0.00    -0.344 N 
ATOM     14  H   UNL A   1      30.717  31.001  22.465  1.00  0.00     0.346 HD
ATOM     15  H   UNL A   1      30.832  29.507  21.613  1.00  0.00     0.346 HD
BRANCH  13  16
ATOM     16  C   UNL A   1      29.014  30.308  21.626  1.00  0.00     0.178 C 
ATOM     17  C   UNL A   1      27.999  29.439  22.383  1.00  0.00     0.075 C 
BRANCH  16  18
ATOM     18  C   UNL A   1      28.581  31.784  21.633  1.00  0.00     0.061 C 
ATOM     19  C   UNL A   1      28.174  32.323  22.998  1.00  0.00     0.010 C 
ENDBRANCH  16  18
ENDBRANCH  13  16
ENDBRANCH  12  13
ENDBRANCH  11  12
ENDBRANCH   6  11
ENDBRANCH   3   5
ENDBRANCH   2   3
ENDBRANCH   1   2
BRANCH   1  20
ATOM     20  C   UNL A   1      34.847  33.917  28.756  1.00  0.00     0.202 C 
BRANCH  20  21
ATOM     21  O   UNL A   1      34.543  35.039  27.930  1.00  0.00    -0.374 OA
BRANCH  21  22
ATOM     22  C   UNL A   1      34.009  36.199  28.568  1.00  0.00     0.202 C 
BRANCH  22  23
ATOM     23  C   UNL A   1      32.869  35.977  29.569  1.00  0.00     0.261 C 
BRANCH  23  24
ATOM     24  O   UNL A   1      33.223  36.420  30.892  1.00  0.00    -0.460 OA
BRANCH  24  25
ATOM     25  C   UNL A   1      32.802  35.617  31.893  1.00  0.00     0.338 C 
ATOM     26  O   UNL A   1      31.648  35.325  32.180  1.00  0.00    -0.246 OA
BRANCH  25  27
ATOM     27  C   UNL A   1      33.958  34.958  32.525  1.00  0.00     0.060 A 
ATOM     28  C   UNL A   1      35.206  35.582  32.401  1.00  0.00     0.016 A 
ATOM     29  C   UNL A   1      33.841  33.722  33.163  1.00  0.00     0.016 A 
ATOM     30  C   UNL A   1      36.352  34.950  32.874  1.00  0.00     0.010 A 
ATOM     31  C   UNL A   1      34.994  33.083  33.628  1.00  0.00     0.010 A 
ATOM     32  C   UNL A   1      36.257  33.678  33.456  1.00  0.00    -0.014 A 
BRANCH  32  33
ATOM     33  C   UNL A   1      37.494  32.916  33.747  1.00  0.00     0.031 A 
ATOM     34  C   UNL A   1      38.226  33.177  35.034  1.00  0.00     0.074 A 
ATOM     35  C   UNL A   1      37.943  31.981  32.890  1.00  0.00     0.049 A 
ATOM     36  N   UNL A   1      39.339  32.653  35.479  1.00  0.00    -0.248 NA
ATOM     37  C   UNL A   1      37.619  34.163  35.942  1.00  0.00     0.031 C 
ATOM     38  C   UNL A   1      37.298  31.610  31.633  1.00  0.00     0.029 A 
ATOM     39  N   UNL A   1      39.053  31.177  32.951  1.00  0.00    -0.354 N 
ATOM     40  C   UNL A   1      39.569  33.249  36.712  1.00  0.00     0.074 A 
ATOM     41  C   UNL A   1      38.497  34.197  36.932  1.00  0.00     0.031 C 
ATOM     42  C   UNL A   1      38.031  30.658  31.033  1.00  0.00     0.029 A 
ATOM     43  C   UNL A   1      39.211  30.375  31.849  1.00  0.00     0.049 A 
ATOM     44  H   UNL A   1      39.677  31.175  33.713  1.00  0.00     0.167 HD
ATOM     45  C   UNL A   1      40.579  33.020  37.585  1.00  0.00     0.037 A 
ATOM     46  C   UNL A   1      40.207  29.528  31.527  1.00  0.00     0.037 A 
ATOM     47  C   UNL A   1      41.643  32.075  37.364  1.00  0.00     0.049 A 
ATOM     48  C   UNL A   1      41.357  29.343  32.484  1.00  0.00     0.074 A 
ATOM     49  C   UNL A   1      42.699  31.753  38.197  1.00  0.00     0.029 A 
ATOM     50  N   UNL A   1      41.787  31.305  36.219  1.00  0.00    -0.354 N 
ATOM     51  N   UNL A   1      41.554  29.890  33.660  1.00  0.00    -0.248 NA
ATOM     52  C   UNL A   1      42.423  28.422  32.067  1.00  0.00     0.031 C 
ATOM     53  C   UNL A   1      43.513  30.828  37.535  1.00  0.00     0.029 A 
ATOM     54  C   UNL A   1      42.933  30.530  36.313  1.00  0.00     0.049 A 
ATOM     55  H   UNL A   1      41.169  31.309  35.453  1.00  0.00     0.167 HD
ATOM     56  C   UNL A   1      42.747  29.359  34.134  1.00  0.00     0.074 A 
ATOM     57  C   UNL A   1      43.222  28.436  33.124  1.00  0.00     0.031 C 
ATOM     58  C   UNL A   1      43.390  29.611  35.300  1.00  0.00     0.037 A 
BRANCH  45  59
ATOM     59  C   UNL A   1      40.597  33.824  38.852  1.00  0.00     0.064 A 
ATOM     60  C   UNL A   1      39.874  33.430  39.989  1.00  0.00     0.173 A 
ATOM     61  C   UNL A   1      41.374  34.989  38.941  1.00  0.00     0.173 A 
ATOM     62  F   UNL A   1      39.105  32.331  39.950  1.00  0.00    -0.203 F 
ATOM     63  C   UNL A   1      39.910  34.185  41.158  1.00  0.00     0.198 A 
ATOM     64  C   UNL A   1      41.430  35.726  40.122  1.00  0.00     0.198 A 
ATOM     65  F   UNL A   1      42.087  35.409  37.886  1.00  0.00    -0.203 F 
ATOM     66  F   UNL A   1      39.175  33.814  42.216  1.00  0.00    -0.200 F 
ATOM     67  C   UNL A   1      40.693  35.327  41.226  1.00  0.00     0.200 A 
ATOM     68  F   UNL A   1      42.197  36.822  40.189  1.00  0.00    -0.200 F 
ATOM     69  F   UNL A   1      40.732  36.049  42.354  1.00  0.00    -0.200 F 
ENDBRANCH  45  59
BRANCH  46  70
ATOM     70  C   UNL A   1      40.171  28.797  30.234  1.00  0.00     0.064 A 
ATOM     71  C   UNL A   1      40.757  29.336  29.081  1.00  0.00     0.173 A 
ATOM     72  C   UNL A   1      39.532  27.553  30.120  1.00  0.00     0.173 A 
ATOM     73  F   UNL A   1      41.357  30.534  29.132  1.00  0.00    -0.203 F 
ATOM     74  C   UNL A   1      40.689  28.668  27.860  1.00  0.00     0.198 A 
ATOM     75  C   UNL A   1      39.489  26.872  28.906  1.00  0.00     0.198 A 
ATOM     76  F   UNL A   1      38.953  26.995  31.194  1.00  0.00    -0.203 F 
ATOM     77  F   UNL A   1      41.215  29.228  26.762  1.00  0.00    -0.200 F 
ATOM     78  C   UNL A   1      40.061  27.434  27.774  1.00  0.00     0.200 A 
ATOM     79  F   UNL A   1      38.891  25.676  28.831  1.00  0.00    -0.200 F 
ATOM     80  F   UNL A   1      39.998  26.792  26.600  1.00  0.00    -0.200 F 
ENDBRANCH  46  70
BRANCH  58  81
ATOM     81  C   UNL A   1      44.661  28.856  35.566  1.00  0.00     0.064 A 
ATOM     82  C   UNL A   1      44.657  27.607  36.204  1.00  0.00     0.173 A 
ATOM     83  C   UNL A   1      45.895  29.370  35.139  1.00  0.00     0.173 A 
ATOM     84  F   UNL A   1      43.505  27.077  36.644  1.00  0.00    -0.203 F 
ATOM     85  C   UNL A   1      45.844  26.914  36.428  1.00  0.00     0.198 A 
ATOM     86  C   UNL A   1      47.076  28.661  35.336  1.00  0.00     0.198 A 
ATOM     87  F   UNL A   1      45.953  30.557  34.516  1.00  0.00    -0.203 F 
ATOM     88  F   UNL A   1      45.821  25.744  37.083  1.00  0.00    -0.200 F 
ATOM     89  C   UNL A   1      47.050  27.437  35.988  1.00  0.00     0.200 A 
ATOM     90  F   UNL A   1      48.239  29.161  34.897  1.00  0.00    -0.200 F 
ATOM     91  F   UNL A   1      48.191  26.764  36.197  1.00  0.00    -0.200 F 
ENDBRANCH  58  81
ENDBRANCH  32  33
ENDBRANCH  25  27
ENDBRANCH  24  25
ENDBRANCH  23  24
ENDBRANCH  22  23
ENDBRANCH  21  22
ENDBRANCH  20  21
ENDBRANCH   1  20
TORSDOF 19
ENDMDL
MODEL 3
REMARK VINA RESULT:      -9.8      3.950      8.941
REMARK SMILES CC[C@H](C)[NH2+]CCc1ccc(C(=O)OCCOCCOC(=O)c2ccc(-c3c4nc(c(-c5c(F)c(F)c(F)c(F)c5F)c5ccc([nH]5)c(-c5c(F)c(F)c(F)c(F)c5F)c5nc(c(-c6c(F)c(F)c(F)c(F)c6F)c6ccc3[nH]6)C=C5)C=C4)cc2)cc1
REMARK SMILES IDX 15 1 14 2 12 3 13 4 11 5 8 6 9 7 87 8 10 9 86 10 7 11 6 12
REMARK SMILES IDX 5 13 3 16 4 17 2 18 1 19 16 20 17 21 18 22 19 23 20 24 21 25
REMARK SMILES IDX 22 26 23 27 24 28 85 29 25 30 84 31 26 32 27 33 28 34 78 35
REMARK SMILES IDX 29 36 83 37 77 38 79 39 30 40 82 41 76 42 75 43 31 45 63 46
REMARK SMILES IDX 43 47 62 48 44 49 47 50 61 51 80 52 45 53 46 54 60 56 81 57
REMARK SMILES IDX 48 58 32 59 33 60 41 61 34 62 35 63 39 64 42 65 36 66 37 67
REMARK SMILES IDX 40 68 38 69 64 70 65 71 73 72 66 73 67 74 71 75 74 76 68 77
REMARK SMILES IDX 69 78 72 79 70 80 49 81 50 82 58 83 51 84 52 85 56 86 59 87
REMARK SMILES IDX 53 88 54 89 57 90 55 91
REMARK H PARENT 5 14 5 15 79 44 47 55
REMARK Flexibility Score: inf
ROOT
ATOM      1  C   UNL A   1      32.260  28.626  25.304  1.00  0.00     0.261 C 
ENDROOT
BRANCH   1   2
ATOM      2  O   UNL A   1      31.897  27.254  25.082  1.00  0.00    -0.460 OA
BRANCH   2   3
ATOM      3  C   UNL A   1      32.876  26.498  24.536  1.00  0.00     0.338 C 
ATOM      4  O   UNL A   1      33.558  26.764  23.555  1.00  0.00    -0.246 OA
BRANCH   3   5
ATOM      5  C   UNL A   1      33.177  25.357  25.418  1.00  0.00     0.060 A 
ATOM      6  C   UNL A   1      33.834  23.040  26.822  1.00  0.00    -0.042 A 
ATOM      7  C   UNL A   1      34.827  23.762  26.150  1.00  0.00     0.005 A 
ATOM      8  C   UNL A   1      32.534  23.562  26.893  1.00  0.00     0.005 A 
ATOM      9  C   UNL A   1      34.494  24.889  25.414  1.00  0.00     0.016 A 
ATOM     10  C   UNL A   1      32.206  24.736  26.206  1.00  0.00     0.016 A 
BRANCH   6  11
ATOM     11  C   UNL A   1      34.147  21.643  27.308  1.00  0.00     0.097 C 
BRANCH  11  12
ATOM     12  C   UNL A   1      33.955  20.569  26.207  1.00  0.00     0.265 C 
BRANCH  12  13
ATOM     13  N   UNL A   1      32.584  20.201  25.844  1.00  0.00    -0.344 N 
ATOM     14  H   UNL A   1      32.417  19.258  26.195  1.00  0.00     0.346 HD
ATOM     15  H   UNL A   1      32.001  20.929  26.258  1.00  0.00     0.346 HD
BRANCH  13  16
ATOM     16  C   UNL A   1      32.235  20.208  24.420  1.00  0.00     0.178 C 
ATOM     17  C   UNL A   1      33.041  21.350  23.784  1.00  0.00     0.075 C 
BRANCH  16  18
ATOM     18  C   UNL A   1      32.533  18.872  23.719  1.00  0.00     0.061 C 
ATOM     19  C   UNL A   1      32.626  17.670  24.649  1.00  0.00     0.010 C 
ENDBRANCH  16  18
ENDBRANCH  13  16
ENDBRANCH  12  13
ENDBRANCH  11  12
ENDBRANCH   6  11
ENDBRANCH   3   5
ENDBRANCH   2   3
ENDBRANCH   1   2
BRANCH   1  20
ATOM     20  C   UNL A   1      31.107  29.570  24.949  1.00  0.00     0.202 C 
BRANCH  20  21
ATOM     21  O   UNL A   1      31.251  30.934  25.337  1.00  0.00    -0.374 OA
BRANCH  21  22
ATOM     22  C   UNL A   1      31.918  31.201  26.571  1.00  0.00     0.202 C 
BRANCH  22  23
ATOM     23  C   UNL A   1      31.693  32.583  27.195  1.00  0.00     0.261 C 
BRANCH  23  24
ATOM     24  O   UNL A   1      32.846  33.433  27.048  1.00  0.00    -0.460 OA
BRANCH  24  25
ATOM     25  C   UNL A   1      33.363  33.896  28.207  1.00  0.00     0.338 C 
ATOM     26  O   UNL A   1      32.864  34.709  28.974  1.00  0.00    -0.246 OA
BRANCH  25  27
ATOM     27  C   UNL A   1      34.580  33.139  28.548  1.00  0.00     0.060 A 
ATOM     28  C   UNL A   1      34.417  31.838  29.040  1.00  0.00     0.016 A 
ATOM     29  C   UNL A   1      35.850  33.710  28.456  1.00  0.00     0.016 A 
ATOM     30  C   UNL A   1      35.519  31.117  29.488  1.00  0.00     0.010 A 
ATOM     31  C   UNL A   1      36.956  32.990  28.917  1.00  0.00     0.010 A 
ATOM     32  C   UNL A   1      36.791  31.705  29.466  1.00  0.00    -0.014 A 
BRANCH  32  33
ATOM     33  C   UNL A   1      37.919  31.029  30.151  1.00  0.00     0.031 A 
ATOM     34  C   UNL A   1      38.195  31.353  31.593  1.00  0.00     0.074 A 
ATOM     35  C   UNL A   1      38.666  30.116  29.506  1.00  0.00     0.049 A 
ATOM     36  N   UNL A   1      39.144  30.910  32.378  1.00  0.00    -0.248 NA
ATOM     37  C   UNL A   1      37.278  32.308  32.235  1.00  0.00     0.031 C 
ATOM     38  C   UNL A   1      38.469  29.688  28.124  1.00  0.00     0.029 A 
ATOM     39  N   UNL A   1      39.747  29.388  29.935  1.00  0.00    -0.354 N 
ATOM     40  C   UNL A   1      38.942  31.535  33.601  1.00  0.00     0.074 A 
ATOM     41  C   UNL A   1      37.801  32.412  33.448  1.00  0.00     0.031 C 
ATOM     42  C   UNL A   1      39.407  28.779  27.812  1.00  0.00     0.029 A 
ATOM     43  C   UNL A   1      40.288  28.585  28.962  1.00  0.00     0.049 A 
ATOM     44  H   UNL A   1      40.102  29.437  30.853  1.00  0.00     0.167 HD
ATOM     45  C   UNL A   1      39.641  31.384  34.752  1.00  0.00     0.037 A 
ATOM     46  C   UNL A   1      41.383  27.802  28.993  1.00  0.00     0.037 A 
ATOM     47  C   UNL A   1      40.774  30.509  34.902  1.00  0.00     0.049 A 
ATOM     48  C   UNL A   1      42.187  27.705  30.265  1.00  0.00     0.074 A 
ATOM     49  C   UNL A   1      41.535  30.267  36.032  1.00  0.00     0.029 A 
ATOM     50  N   UNL A   1      41.314  29.737  33.884  1.00  0.00    -0.354 N 
ATOM     51  N   UNL A   1      41.975  28.278  31.426  1.00  0.00    -0.248 NA
ATOM     52  C   UNL A   1      43.382  26.851  30.230  1.00  0.00     0.031 C 
ATOM     53  C   UNL A   1      42.568  29.390  35.685  1.00  0.00     0.029 A 
ATOM     54  C   UNL A   1      42.417  29.040  34.353  1.00  0.00     0.049 A 
ATOM     55  H   UNL A   1      40.966  29.690  32.964  1.00  0.00     0.167 HD
ATOM     56  C   UNL A   1      42.989  27.833  32.264  1.00  0.00     0.074 A 
ATOM     57  C   UNL A   1      43.809  26.931  31.481  1.00  0.00     0.031 C 
ATOM     58  C   UNL A   1      43.220  28.141  33.563  1.00  0.00     0.037 A 
BRANCH  45  59
ATOM     59  C   UNL A   1      39.215  32.203  35.935  1.00  0.00     0.064 A 
ATOM     60  C   UNL A   1      39.698  33.503  36.147  1.00  0.00     0.173 A 
ATOM     61  C   UNL A   1      38.284  31.692  36.852  1.00  0.00     0.173 A 
ATOM     62  F   UNL A   1      40.601  34.032  35.307  1.00  0.00    -0.203 F 
ATOM     63  C   UNL A   1      39.285  34.251  37.247  1.00  0.00     0.198 A 
ATOM     64  C   UNL A   1      37.851  32.454  37.935  1.00  0.00     0.198 A 
ATOM     65  F   UNL A   1      37.788  30.456  36.695  1.00  0.00    -0.203 F 
ATOM     66  F   UNL A   1      39.795  35.473  37.455  1.00  0.00    -0.200 F 
ATOM     67  C   UNL A   1      38.356  33.729  38.135  1.00  0.00     0.200 A 
ATOM     68  F   UNL A   1      36.944  31.952  38.783  1.00  0.00    -0.200 F 
ATOM     69  F   UNL A   1      37.954  34.452  39.188  1.00  0.00    -0.200 F 
ENDBRANCH  45  59
BRANCH  46  70
ATOM     70  C   UNL A   1      41.796  27.054  27.777  1.00  0.00     0.064 A 
ATOM     71  C   UNL A   1      41.291  25.775  27.507  1.00  0.00     0.173 A 
ATOM     72  C   UNL A   1      42.719  27.596  26.870  1.00  0.00     0.173 A 
ATOM     73  F   UNL A   1      40.426  25.203  28.358  1.00  0.00    -0.203 F 
ATOM     74  C   UNL A   1      41.708  25.059  26.387  1.00  0.00     0.198 A 
ATOM     75  C   UNL A   1      43.114  26.891  25.735  1.00  0.00     0.198 A 
ATOM     76  F   UNL A   1      43.235  28.815  27.083  1.00  0.00    -0.203 F 
ATOM     77  F   UNL A   1      41.246  23.818  26.178  1.00  0.00    -0.200 F 
ATOM     78  C   UNL A   1      42.613  25.619  25.498  1.00  0.00     0.200 A 
ATOM     79  F   UNL A   1      43.980  27.440  24.874  1.00  0.00    -0.200 F 
ATOM     80  F   UNL A   1      43.012  24.930  24.421  1.00  0.00    -0.200 F 
ENDBRANCH  46  70
BRANCH  58  81
ATOM     81  C   UNL A   1      44.388  27.475  34.235  1.00  0.00     0.064 A 
ATOM     82  C   UNL A   1      44.268  26.218  34.845  1.00  0.00     0.173 A 
ATOM     83  C   UNL A   1      45.652  28.084  34.229  1.00  0.00     0.173 A 
ATOM     84  F   UNL A   1      43.078  25.599  34.889  1.00  0.00    -0.203 F 
ATOM     85  C   UNL A   1      45.365  25.609  35.448  1.00  0.00     0.198 A 
ATOM     86  C   UNL A   1      46.753  27.458  34.806  1.00  0.00     0.198 A 
ATOM     87  F   UNL A   1      45.822  29.283  33.651  1.00  0.00    -0.203 F 
ATOM     88  F   UNL A   1      45.216  24.429  36.069  1.00  0.00    -0.200 F 
ATOM     89  C   UNL A   1      46.607  26.225  35.423  1.00  0.00     0.200 A 
ATOM     90  F   UNL A   1      47.955  28.049  34.767  1.00  0.00    -0.200 F 
ATOM     91  F   UNL A   1      47.663  25.633  35.997  1.00  0.00    -0.200 F 
ENDBRANCH  58  81
ENDBRANCH  32  33
ENDBRANCH  25  27
ENDBRANCH  24  25
ENDBRANCH  23  24
ENDBRANCH  22  23
ENDBRANCH  21  22
ENDBRANCH  20  21
ENDBRANCH   1  20
TORSDOF 19
ENDMDL
