MODEL 1
REMARK VINA RESULT:     -11.8      0.000      0.000
REMARK SMILES CCc1[nH]nc(-n2cccc2)c1C(=O)OCCOCCOC(=O)c1ccc(-c2c3nc(c(-c4c(F)c(F)c(F)c(F)c4F)c4ccc([nH]4)c(-c4c(F)c(F)c(F)c(F)c4F)c4nc(c(-c5c(F)c(F)c(F)c(F)c5F)c5ccc2[nH]5)C=C4)C=C3)cc1
REMARK SMILES IDX 19 1 18 2 17 3 16 4 15 5 13 6 14 7 12 8 3 9 4 10 5 11 6 13
REMARK SMILES IDX 2 14 1 15 7 16 8 17 11 18 9 19 10 20 20 21 21 22 22 23 23 24
REMARK SMILES IDX 24 25 25 26 86 27 26 28 85 29 27 30 28 31 29 32 79 33 30 34
REMARK SMILES IDX 84 35 78 36 80 37 31 38 83 39 77 40 76 41 32 43 64 44 44 45
REMARK SMILES IDX 63 46 45 47 48 48 62 49 81 50 46 51 47 52 61 54 82 55 49 56
REMARK SMILES IDX 33 57 34 58 42 59 35 60 36 61 40 62 43 63 37 64 38 65 41 66
REMARK SMILES IDX 39 67 65 68 66 69 74 70 67 71 68 72 72 73 75 74 69 75 70 76
REMARK SMILES IDX 73 77 71 78 50 79 51 80 59 81 52 82 53 83 57 84 60 85 54 86
REMARK SMILES IDX 55 87 58 88 56 89
REMARK H PARENT 4 12 80 42 48 53
REMARK Flexibility Score: inf
ROOT
ATOM      1  C   UNL A   1      33.662  31.799  27.729  1.00  0.00     0.202 C 
ENDROOT
BRANCH   1   2
ATOM      2  O   UNL A   1      33.383  30.661  26.927  1.00  0.00    -0.374 OA
BRANCH   2   3
ATOM      3  C   UNL A   1      32.026  30.265  26.713  1.00  0.00     0.202 C 
BRANCH   3   4
ATOM      4  C   UNL A   1      31.771  29.296  25.563  1.00  0.00     0.261 C 
BRANCH   4   5
ATOM      5  O   UNL A   1      30.906  29.909  24.589  1.00  0.00    -0.459 OA
BRANCH   5   6
ATOM      6  C   UNL A   1      30.689  29.205  23.442  1.00  0.00     0.343 C 
ATOM      7  O   UNL A   1      31.547  28.961  22.620  1.00  0.00    -0.246 OA
BRANCH   6   8
ATOM      8  C   UNL A   1      29.347  28.637  23.369  1.00  0.00     0.125 A 
ATOM      9  C   UNL A   1      28.848  27.359  23.620  1.00  0.00     0.052 A 
ATOM     10  N   UNL A   1      27.481  27.479  23.477  1.00  0.00    -0.280 N 
ATOM     11  N   UNL A   1      27.070  28.659  23.007  1.00  0.00    -0.156 NA
ATOM     12  H   UNL A   1      26.857  26.751  23.704  1.00  0.00     0.190 HD
ATOM     13  C   UNL A   1      28.197  29.367  22.954  1.00  0.00     0.173 A 
BRANCH   9  14
ATOM     14  C   UNL A   1      29.368  26.013  24.031  1.00  0.00     0.053 C 
ATOM     15  C   UNL A   1      29.970  25.871  25.411  1.00  0.00     0.011 C 
ENDBRANCH   9  14
BRANCH  13  16
ATOM     16  N   UNL A   1      28.166  30.613  22.269  1.00  0.00    -0.306 N 
ATOM     17  C   UNL A   1      28.267  31.851  22.873  1.00  0.00     0.093 A 
ATOM     18  C   UNL A   1      28.104  30.811  20.909  1.00  0.00     0.093 A 
ATOM     19  C   UNL A   1      28.133  32.829  21.914  1.00  0.00     0.020 A 
ATOM     20  C   UNL A   1      28.041  32.169  20.666  1.00  0.00     0.020 A 
ENDBRANCH  13  16
ENDBRANCH   6   8
ENDBRANCH   5   6
ENDBRANCH   4   5
ENDBRANCH   3   4
ENDBRANCH   2   3
ENDBRANCH   1   2
BRANCH   1  21
ATOM     21  C   UNL A   1      32.728  33.004  27.665  1.00  0.00     0.261 C 
BRANCH  21  22
ATOM     22  O   UNL A   1      33.408  34.244  27.578  1.00  0.00    -0.460 OA
BRANCH  22  23
ATOM     23  C   UNL A   1      33.180  34.987  28.682  1.00  0.00     0.338 C 
ATOM     24  O   UNL A   1      32.321  35.839  28.846  1.00  0.00    -0.246 OA
BRANCH  23  25
ATOM     25  C   UNL A   1      34.284  34.836  29.618  1.00  0.00     0.060 A 
ATOM     26  C   UNL A   1      35.541  34.897  29.015  1.00  0.00     0.016 A 
ATOM     27  C   UNL A   1      34.036  34.128  30.803  1.00  0.00     0.016 A 
ATOM     28  C   UNL A   1      36.502  34.030  29.460  1.00  0.00     0.010 A 
ATOM     29  C   UNL A   1      34.988  33.235  31.231  1.00  0.00     0.010 A 
ATOM     30  C   UNL A   1      36.194  33.169  30.525  1.00  0.00    -0.014 A 
BRANCH  30  31
ATOM     31  C   UNL A   1      37.323  32.431  31.078  1.00  0.00     0.031 A 
ATOM     32  C   UNL A   1      37.494  31.161  30.211  1.00  0.00     0.074 A 
ATOM     33  C   UNL A   1      37.867  32.924  32.238  1.00  0.00     0.049 A 
ATOM     34  N   UNL A   1      37.880  29.980  30.564  1.00  0.00    -0.248 NA
ATOM     35  C   UNL A   1      37.069  31.154  28.773  1.00  0.00     0.031 C 
ATOM     36  C   UNL A   1      37.544  34.234  32.864  1.00  0.00     0.029 A 
ATOM     37  N   UNL A   1      38.788  32.433  33.143  1.00  0.00    -0.354 N 
ATOM     38  C   UNL A   1      37.992  29.200  29.393  1.00  0.00     0.074 A 
ATOM     39  C   UNL A   1      37.318  29.912  28.359  1.00  0.00     0.031 C 
ATOM     40  C   UNL A   1      38.173  34.381  34.057  1.00  0.00     0.029 A 
ATOM     41  C   UNL A   1      38.981  33.207  34.331  1.00  0.00     0.049 A 
ATOM     42  H   UNL A   1      39.283  31.598  32.980  1.00  0.00     0.167 HD
ATOM     43  C   UNL A   1      38.822  28.121  29.329  1.00  0.00     0.037 A 
ATOM     44  C   UNL A   1      39.716  32.885  35.451  1.00  0.00     0.037 A 
ATOM     45  C   UNL A   1      39.416  27.927  30.608  1.00  0.00     0.049 A 
ATOM     46  C   UNL A   1      40.440  31.685  35.039  1.00  0.00     0.074 A 
ATOM     47  C   UNL A   1      38.860  27.552  31.804  1.00  0.00     0.029 A 
ATOM     48  N   UNL A   1      40.596  28.600  30.830  1.00  0.00    -0.354 N 
ATOM     49  N   UNL A   1      41.455  31.698  34.230  1.00  0.00    -0.248 NA
ATOM     50  C   UNL A   1      39.981  30.378  35.521  1.00  0.00     0.031 C 
ATOM     51  C   UNL A   1      39.442  28.466  32.699  1.00  0.00     0.029 A 
ATOM     52  C   UNL A   1      40.551  29.084  32.106  1.00  0.00     0.049 A 
ATOM     53  H   UNL A   1      41.333  28.713  30.187  1.00  0.00     0.167 HD
ATOM     54  C   UNL A   1      41.490  30.391  33.823  1.00  0.00     0.074 A 
ATOM     55  C   UNL A   1      40.846  29.611  34.863  1.00  0.00     0.031 C 
ATOM     56  C   UNL A   1      41.448  30.142  32.489  1.00  0.00     0.037 A 
BRANCH  43  57
ATOM     57  C   UNL A   1      39.434  27.375  28.182  1.00  0.00     0.064 A 
ATOM     58  C   UNL A   1      39.593  25.974  28.332  1.00  0.00     0.173 A 
ATOM     59  C   UNL A   1      40.205  27.985  27.185  1.00  0.00     0.173 A 
ATOM     60  F   UNL A   1      38.862  25.292  29.228  1.00  0.00    -0.203 F 
ATOM     61  C   UNL A   1      40.584  25.270  27.657  1.00  0.00     0.198 A 
ATOM     62  C   UNL A   1      41.159  27.260  26.466  1.00  0.00     0.198 A 
ATOM     63  F   UNL A   1      40.139  29.302  26.959  1.00  0.00    -0.203 F 
ATOM     64  F   UNL A   1      40.814  23.986  27.963  1.00  0.00    -0.200 F 
ATOM     65  C   UNL A   1      41.381  25.919  26.737  1.00  0.00     0.200 A 
ATOM     66  F   UNL A   1      41.926  27.891  25.568  1.00  0.00    -0.200 F 
ATOM     67  F   UNL A   1      42.387  25.267  26.140  1.00  0.00    -0.200 F 
ENDBRANCH  43  57
BRANCH  44  68
ATOM     68  C   UNL A   1      40.016  33.292  36.888  1.00  0.00     0.064 A 
ATOM     69  C   UNL A   1      41.182  33.894  37.362  1.00  0.00     0.173 A 
ATOM     70  C   UNL A   1      38.976  33.197  37.875  1.00  0.00     0.173 A 
ATOM     71  F   UNL A   1      42.280  33.951  36.597  1.00  0.00    -0.203 F 
ATOM     72  C   UNL A   1      41.249  34.464  38.658  1.00  0.00     0.198 A 
ATOM     73  C   UNL A   1      39.013  33.825  39.117  1.00  0.00     0.198 A 
ATOM     74  F   UNL A   1      37.859  32.488  37.663  1.00  0.00    -0.203 F 
ATOM     75  F   UNL A   1      42.388  35.031  39.080  1.00  0.00    -0.200 F 
ATOM     76  C   UNL A   1      40.150  34.479  39.506  1.00  0.00     0.200 A 
ATOM     77  F   UNL A   1      37.926  33.807  39.903  1.00  0.00    -0.200 F 
ATOM     78  F   UNL A   1      40.189  35.104  40.691  1.00  0.00    -0.200 F 
ENDBRANCH  44  68
BRANCH  56  79
ATOM     79  C   UNL A   1      42.007  31.265  31.623  1.00  0.00     0.064 A 
ATOM     80  C   UNL A   1      43.349  31.661  31.786  1.00  0.00     0.173 A 
ATOM     81  C   UNL A   1      41.248  32.057  30.744  1.00  0.00     0.173 A 
ATOM     82  F   UNL A   1      44.167  30.939  32.568  1.00  0.00    -0.203 F 
ATOM     83  C   UNL A   1      43.873  32.797  31.162  1.00  0.00     0.198 A 
ATOM     84  C   UNL A   1      41.768  33.198  30.119  1.00  0.00     0.198 A 
ATOM     85  F   UNL A   1      39.987  31.738  30.459  1.00  0.00    -0.203 F 
ATOM     86  F   UNL A   1      45.155  33.137  31.362  1.00  0.00    -0.200 F 
ATOM     87  C   UNL A   1      43.081  33.573  30.336  1.00  0.00     0.200 A 
ATOM     88  F   UNL A   1      40.995  33.927  29.300  1.00  0.00    -0.200 F 
ATOM     89  F   UNL A   1      43.585  34.657  29.730  1.00  0.00    -0.200 F 
ENDBRANCH  56  79
ENDBRANCH  30  31
ENDBRANCH  23  25
ENDBRANCH  22  23
ENDBRANCH  21  22
ENDBRANCH   1  21
TORSDOF 16
ENDMDL
MODEL 2
REMARK VINA RESULT:     -11.5      6.274     11.492
REMARK SMILES CCc1[nH]nc(-n2cccc2)c1C(=O)OCCOCCOC(=O)c1ccc(-c2c3nc(c(-c4c(F)c(F)c(F)c(F)c4F)c4ccc([nH]4)c(-c4c(F)c(F)c(F)c(F)c4F)c4nc(c(-c5c(F)c(F)c(F)c(F)c5F)c5ccc2[nH]5)C=C4)C=C3)cc1
REMARK SMILES IDX 19 1 18 2 17 3 16 4 15 5 13 6 14 7 12 8 3 9 4 10 5 11 6 13
REMARK SMILES IDX 2 14 1 15 7 16 8 17 11 18 9 19 10 20 20 21 21 22 22 23 23 24
REMARK SMILES IDX 24 25 25 26 86 27 26 28 85 29 27 30 28 31 29 32 79 33 30 34
REMARK SMILES IDX 84 35 78 36 80 37 31 38 83 39 77 40 76 41 32 43 64 44 44 45
REMARK SMILES IDX 63 46 45 47 48 48 62 49 81 50 46 51 47 52 61 54 82 55 49 56
REMARK SMILES IDX 33 57 34 58 42 59 35 60 36 61 40 62 43 63 37 64 38 65 41 66
REMARK SMILES IDX 39 67 65 68 66 69 74 70 67 71 68 72 72 73 75 74 69 75 70 76
REMARK SMILES IDX 73 77 71 78 50 79 51 80 59 81 52 82 53 83 57 84 60 85 54 86
REMARK SMILES IDX 55 87 58 88 56 89
REMARK H PARENT 4 12 80 42 48 53
REMARK Flexibility Score: inf
ROOT
ATOM      1  C   UNL A   1      38.958  21.520  26.060  1.00  0.00     0.202 C 
ENDROOT
BRANCH   1   2
ATOM      2  O   UNL A   1      38.165  22.207  25.102  1.00  0.00    -0.374 OA
BRANCH   2   3
ATOM      3  C   UNL A   1      36.795  22.489  25.393  1.00  0.00     0.202 C 
BRANCH   3   4
ATOM      4  C   UNL A   1      35.755  21.810  24.506  1.00  0.00     0.261 C 
BRANCH   4   5
ATOM      5  O   UNL A   1      35.277  20.611  25.144  1.00  0.00    -0.459 OA
BRANCH   5   6
ATOM      6  C   UNL A   1      33.939  20.552  25.397  1.00  0.00     0.343 C 
ATOM      7  O   UNL A   1      33.429  20.876  26.449  1.00  0.00    -0.246 OA
BRANCH   6   8
ATOM      8  C   UNL A   1      33.152  20.200  24.219  1.00  0.00     0.125 A 
ATOM      9  C   UNL A   1      32.399  20.961  23.326  1.00  0.00     0.052 A 
ATOM     10  N   UNL A   1      31.982  20.065  22.362  1.00  0.00    -0.280 N 
ATOM     11  N   UNL A   1      32.258  18.787  22.632  1.00  0.00    -0.156 NA
ATOM     12  H   UNL A   1      31.518  20.347  21.540  1.00  0.00     0.190 HD
ATOM     13  C   UNL A   1      32.978  18.867  23.749  1.00  0.00     0.173 A 
BRANCH   9  14
ATOM     14  C   UNL A   1      32.008  22.396  23.127  1.00  0.00     0.053 C 
ATOM     15  C   UNL A   1      32.137  23.340  24.301  1.00  0.00     0.011 C 
ENDBRANCH   9  14
BRANCH  13  16
ATOM     16  N   UNL A   1      33.246  17.661  24.454  1.00  0.00    -0.306 N 
ATOM     17  C   UNL A   1      34.368  16.875  24.279  1.00  0.00     0.093 A 
ATOM     18  C   UNL A   1      32.494  17.106  25.463  1.00  0.00     0.093 A 
ATOM     19  C   UNL A   1      34.259  15.759  25.078  1.00  0.00     0.020 A 
ATOM     20  C   UNL A   1      33.076  15.911  25.836  1.00  0.00     0.020 A 
ENDBRANCH  13  16
ENDBRANCH   6   8
ENDBRANCH   5   6
ENDBRANCH   4   5
ENDBRANCH   3   4
ENDBRANCH   2   3
ENDBRANCH   1   2
BRANCH   1  21
ATOM     21  C   UNL A   1      39.568  20.170  25.693  1.00  0.00     0.261 C 
BRANCH  21  22
ATOM     22  O   UNL A   1      40.447  19.659  26.679  1.00  0.00    -0.460 OA
BRANCH  22  23
ATOM     23  C   UNL A   1      41.653  19.380  26.139  1.00  0.00     0.338 C 
ATOM     24  O   UNL A   1      42.033  18.321  25.664  1.00  0.00    -0.246 OA
BRANCH  23  25
ATOM     25  C   UNL A   1      42.586  20.459  26.427  1.00  0.00     0.060 A 
ATOM     26  C   UNL A   1      42.536  20.904  27.748  1.00  0.00     0.016 A 
ATOM     27  C   UNL A   1      42.983  21.274  25.357  1.00  0.00     0.016 A 
ATOM     28  C   UNL A   1      42.634  22.251  27.968  1.00  0.00     0.010 A 
ATOM     29  C   UNL A   1      43.051  22.630  25.571  1.00  0.00     0.010 A 
ATOM     30  C   UNL A   1      42.833  23.103  26.869  1.00  0.00    -0.014 A 
BRANCH  30  31
ATOM     31  C   UNL A   1      43.138  24.490  27.201  1.00  0.00     0.031 A 
ATOM     32  C   UNL A   1      41.783  25.211  27.394  1.00  0.00     0.074 A 
ATOM     33  C   UNL A   1      44.460  24.854  27.149  1.00  0.00     0.049 A 
ATOM     34  N   UNL A   1      41.464  26.431  27.117  1.00  0.00    -0.248 NA
ATOM     35  C   UNL A   1      40.571  24.453  27.848  1.00  0.00     0.031 C 
ATOM     36  C   UNL A   1      45.613  23.929  26.982  1.00  0.00     0.029 A 
ATOM     37  N   UNL A   1      45.117  26.068  27.207  1.00  0.00    -0.354 N 
ATOM     38  C   UNL A   1      40.151  26.646  27.589  1.00  0.00     0.074 A 
ATOM     39  C   UNL A   1      39.597  25.363  27.863  1.00  0.00     0.031 C 
ATOM     40  C   UNL A   1      46.781  24.610  26.865  1.00  0.00     0.029 A 
ATOM     41  C   UNL A   1      46.527  26.036  26.960  1.00  0.00     0.049 A 
ATOM     42  H   UNL A   1      44.643  26.906  27.408  1.00  0.00     0.167 HD
ATOM     43  C   UNL A   1      39.703  27.892  27.915  1.00  0.00     0.037 A 
ATOM     44  C   UNL A   1      47.393  27.097  26.812  1.00  0.00     0.037 A 
ATOM     45  C   UNL A   1      40.725  28.836  27.614  1.00  0.00     0.049 A 
ATOM     46  C   UNL A   1      46.581  28.246  27.207  1.00  0.00     0.074 A 
ATOM     47  C   UNL A   1      41.248  29.233  26.410  1.00  0.00     0.029 A 
ATOM     48  N   UNL A   1      41.626  29.087  28.622  1.00  0.00    -0.354 N 
ATOM     49  N   UNL A   1      46.268  28.517  28.437  1.00  0.00    -0.248 NA
ATOM     50  C   UNL A   1      46.043  29.127  26.165  1.00  0.00     0.031 C 
ATOM     51  C   UNL A   1      42.630  29.211  26.668  1.00  0.00     0.029 A 
ATOM     52  C   UNL A   1      42.863  29.168  28.049  1.00  0.00     0.049 A 
ATOM     53  H   UNL A   1      41.418  29.189  29.580  1.00  0.00     0.167 HD
ATOM     54  C   UNL A   1      45.200  29.357  28.262  1.00  0.00     0.074 A 
ATOM     55  C   UNL A   1      45.340  29.946  26.944  1.00  0.00     0.031 C 
ATOM     56  C   UNL A   1      44.033  29.032  28.876  1.00  0.00     0.037 A 
BRANCH  43  57
ATOM     57  C   UNL A   1      38.572  28.374  28.772  1.00  0.00     0.064 A 
ATOM     58  C   UNL A   1      37.841  29.496  28.307  1.00  0.00     0.173 A 
ATOM     59  C   UNL A   1      38.449  28.072  30.134  1.00  0.00     0.173 A 
ATOM     60  F   UNL A   1      37.857  29.836  27.008  1.00  0.00    -0.203 F 
ATOM     61  C   UNL A   1      37.183  30.357  29.179  1.00  0.00     0.198 A 
ATOM     62  C   UNL A   1      37.736  28.909  30.996  1.00  0.00     0.198 A 
ATOM     63  F   UNL A   1      39.098  27.038  30.681  1.00  0.00    -0.203 F 
ATOM     64  F   UNL A   1      36.658  31.500  28.715  1.00  0.00    -0.200 F 
ATOM     65  C   UNL A   1      37.148  30.072  30.527  1.00  0.00     0.200 A 
ATOM     66  F   UNL A   1      37.696  28.626  32.305  1.00  0.00    -0.200 F 
ATOM     67  F   UNL A   1      36.583  30.936  31.383  1.00  0.00    -0.200 F 
ENDBRANCH  43  57
BRANCH  44  68
ATOM     68  C   UNL A   1      48.804  27.487  26.392  1.00  0.00     0.064 A 
ATOM     69  C   UNL A   1      49.867  27.821  27.233  1.00  0.00     0.173 A 
ATOM     70  C   UNL A   1      49.176  27.387  25.008  1.00  0.00     0.173 A 
ATOM     71  F   UNL A   1      49.656  28.065  28.533  1.00  0.00    -0.203 F 
ATOM     72  C   UNL A   1      51.195  27.912  26.750  1.00  0.00     0.198 A 
ATOM     73  C   UNL A   1      50.490  27.396  24.546  1.00  0.00     0.198 A 
ATOM     74  F   UNL A   1      48.265  27.260  24.035  1.00  0.00    -0.203 F 
ATOM     75  F   UNL A   1      52.190  28.238  27.588  1.00  0.00    -0.200 F 
ATOM     76  C   UNL A   1      51.510  27.644  25.424  1.00  0.00     0.200 A 
ATOM     77  F   UNL A   1      50.742  27.136  23.255  1.00  0.00    -0.200 F 
ATOM     78  F   UNL A   1      52.779  27.635  24.994  1.00  0.00    -0.200 F 
ENDBRANCH  44  68
BRANCH  56  79
ATOM     79  C   UNL A   1      44.200  28.205  30.145  1.00  0.00     0.064 A 
ATOM     80  C   UNL A   1      44.943  28.730  31.220  1.00  0.00     0.173 A 
ATOM     81  C   UNL A   1      43.784  26.870  30.296  1.00  0.00     0.173 A 
ATOM     82  F   UNL A   1      45.345  30.010  31.190  1.00  0.00    -0.203 F 
ATOM     83  C   UNL A   1      45.292  27.960  32.334  1.00  0.00     0.198 A 
ATOM     84  C   UNL A   1      44.133  26.094  31.409  1.00  0.00     0.198 A 
ATOM     85  F   UNL A   1      43.017  26.289  29.376  1.00  0.00    -0.203 F 
ATOM     86  F   UNL A   1      46.012  28.506  33.324  1.00  0.00    -0.200 F 
ATOM     87  C   UNL A   1      44.895  26.638  32.425  1.00  0.00     0.200 A 
ATOM     88  F   UNL A   1      43.720  24.820  31.496  1.00  0.00    -0.200 F 
ATOM     89  F   UNL A   1      45.222  25.901  33.496  1.00  0.00    -0.200 F 
ENDBRANCH  56  79
ENDBRANCH  30  31
ENDBRANCH  23  25
ENDBRANCH  22  23
ENDBRANCH  21  22
ENDBRANCH   1  21
TORSDOF 16
ENDMDL
MODEL 3
REMARK VINA RESULT:     -11.4      5.563     10.727
REMARK SMILES CCc1[nH]nc(-n2cccc2)c1C(=O)OCCOCCOC(=O)c1ccc(-c2c3nc(c(-c4c(F)c(F)c(F)c(F)c4F)c4ccc([nH]4)c(-c4c(F)c(F)c(F)c(F)c4F)c4nc(c(-c5c(F)c(F)c(F)c(F)c5F)c5ccc2[nH]5)C=C4)C=C3)cc1
REMARK SMILES IDX 19 1 18 2 17 3 16 4 15 5 13 6 14 7 12 8 3 9 4 10 5 11 6 13
REMARK SMILES IDX 2 14 1 15 7 16 8 17 11 18 9 19 10 20 20 21 21 22 22 23 23 24
REMARK SMILES IDX 24 25 25 26 86 27 26 28 85 29 27 30 28 31 29 32 79 33 30 34
REMARK SMILES IDX 84 35 78 36 80 37 31 38 83 39 77 40 76 41 32 43 64 44 44 45
REMARK SMILES IDX 63 46 45 47 48 48 62 49 81 50 46 51 47 52 61 54 82 55 49 56
REMARK SMILES IDX 33 57 34 58 42 59 35 60 36 61 40 62 43 63 37 64 38 65 41 66
REMARK SMILES IDX 39 67 65 68 66 69 74 70 67 71 68 72 72 73 75 74 69 75 70 76
REMARK SMILES IDX 73 77 71 78 50 79 51 80 59 81 52 82 53 83 57 84 60 85 54 86
REMARK SMILES IDX 55 87 58 88 56 89
REMARK H PARENT 4 12 80 42 48 53
REMARK Flexibility Score: inf
ROOT
ATOM      1  C   UNL A   1      39.165  21.497  25.850  1.00  0.00     0.202 C 
ENDROOT
BRANCH   1   2
ATOM      2  O   UNL A   1      38.072  21.958  25.068  1.00  0.00    -0.374 OA
BRANCH   2   3
ATOM      3  C   UNL A   1      36.829  22.264  25.704  1.00  0.00     0.202 C 
BRANCH   3   4
ATOM      4  C   UNL A   1      36.218  23.626  25.390  1.00  0.00     0.261 C 
BRANCH   4   5
ATOM      5  O   UNL A   1      34.856  23.462  24.954  1.00  0.00    -0.459 OA
BRANCH   5   6
ATOM      6  C   UNL A   1      34.633  23.562  23.613  1.00  0.00     0.343 C 
ATOM      7  O   UNL A   1      35.493  23.437  22.767  1.00  0.00    -0.246 OA
BRANCH   6   8
ATOM      8  C   UNL A   1      33.218  23.686  23.279  1.00  0.00     0.125 A 
ATOM      9  C   UNL A   1      32.245  22.751  22.929  1.00  0.00     0.052 A 
ATOM     10  N   UNL A   1      31.073  23.475  22.839  1.00  0.00    -0.280 N 
ATOM     11  N   UNL A   1      31.226  24.798  22.941  1.00  0.00    -0.156 NA
ATOM     12  H   UNL A   1      30.194  23.050  22.711  1.00  0.00     0.190 HD
ATOM     13  C   UNL A   1      32.522  24.928  23.221  1.00  0.00     0.173 A 
BRANCH   9  14
ATOM     14  C   UNL A   1      32.142  21.271  22.703  1.00  0.00     0.053 C 
ATOM     15  C   UNL A   1      32.500  20.347  23.845  1.00  0.00     0.011 C 
ENDBRANCH   9  14
BRANCH  13  16
ATOM     16  N   UNL A   1      33.085  26.232  23.163  1.00  0.00    -0.306 N 
ATOM     17  C   UNL A   1      33.658  26.894  24.231  1.00  0.00     0.093 A 
ATOM     18  C   UNL A   1      33.225  27.027  22.049  1.00  0.00     0.093 A 
ATOM     19  C   UNL A   1      34.037  28.154  23.825  1.00  0.00     0.020 A 
ATOM     20  C   UNL A   1      33.772  28.234  22.438  1.00  0.00     0.020 A 
ENDBRANCH  13  16
ENDBRANCH   6   8
ENDBRANCH   5   6
ENDBRANCH   4   5
ENDBRANCH   3   4
ENDBRANCH   2   3
ENDBRANCH   1   2
BRANCH   1  21
ATOM     21  C   UNL A   1      39.615  20.045  25.719  1.00  0.00     0.261 C 
BRANCH  21  22
ATOM     22  O   UNL A   1      40.528  19.642  26.724  1.00  0.00    -0.460 OA
BRANCH  22  23
ATOM     23  C   UNL A   1      41.734  19.363  26.183  1.00  0.00     0.338 C 
ATOM     24  O   UNL A   1      42.115  18.302  25.714  1.00  0.00    -0.246 OA
BRANCH  23  25
ATOM     25  C   UNL A   1      42.666  20.445  26.462  1.00  0.00     0.060 A 
ATOM     26  C   UNL A   1      42.616  20.900  27.780  1.00  0.00     0.016 A 
ATOM     27  C   UNL A   1      43.060  21.253  25.386  1.00  0.00     0.016 A 
ATOM     28  C   UNL A   1      42.712  22.249  27.991  1.00  0.00     0.010 A 
ATOM     29  C   UNL A   1      43.126  22.610  25.591  1.00  0.00     0.010 A 
ATOM     30  C   UNL A   1      42.908  23.093  26.886  1.00  0.00    -0.014 A 
BRANCH  30  31
ATOM     31  C   UNL A   1      43.211  24.482  27.207  1.00  0.00     0.031 A 
ATOM     32  C   UNL A   1      41.856  25.208  27.374  1.00  0.00     0.074 A 
ATOM     33  C   UNL A   1      44.535  24.843  27.170  1.00  0.00     0.049 A 
ATOM     34  N   UNL A   1      41.542  26.426  27.080  1.00  0.00    -0.248 NA
ATOM     35  C   UNL A   1      40.635  24.457  27.818  1.00  0.00     0.031 C 
ATOM     36  C   UNL A   1      45.688  23.915  27.030  1.00  0.00     0.029 A 
ATOM     37  N   UNL A   1      45.193  26.057  27.225  1.00  0.00    -0.354 N 
ATOM     38  C   UNL A   1      40.224  26.648  27.530  1.00  0.00     0.074 A 
ATOM     39  C   UNL A   1      39.663  25.369  27.810  1.00  0.00     0.031 C 
ATOM     40  C   UNL A   1      46.859  24.592  26.922  1.00  0.00     0.029 A 
ATOM     41  C   UNL A   1      46.606  26.020  26.998  1.00  0.00     0.049 A 
ATOM     42  H   UNL A   1      44.718  26.898  27.411  1.00  0.00     0.167 HD
ATOM     43  C   UNL A   1      39.774  27.898  27.837  1.00  0.00     0.037 A 
ATOM     44  C   UNL A   1      47.476  27.077  26.852  1.00  0.00     0.037 A 
ATOM     45  C   UNL A   1      40.801  28.837  27.541  1.00  0.00     0.049 A 
ATOM     46  C   UNL A   1      46.661  28.232  27.223  1.00  0.00     0.074 A 
ATOM     47  C   UNL A   1      41.343  29.220  26.341  1.00  0.00     0.029 A 
ATOM     48  N   UNL A   1      41.689  29.097  28.560  1.00  0.00    -0.354 N 
ATOM     49  N   UNL A   1      46.331  28.517  28.446  1.00  0.00    -0.248 NA
ATOM     50  C   UNL A   1      46.140  29.103  26.165  1.00  0.00     0.031 C 
ATOM     51  C   UNL A   1      42.720  29.199  26.618  1.00  0.00     0.029 A 
ATOM     52  C   UNL A   1      42.934  29.169  28.003  1.00  0.00     0.049 A 
ATOM     53  H   UNL A   1      41.467  29.209  29.513  1.00  0.00     0.167 HD
ATOM     54  C   UNL A   1      45.268  29.356  28.247  1.00  0.00     0.074 A 
ATOM     55  C   UNL A   1      45.428  29.931  26.925  1.00  0.00     0.031 C 
ATOM     56  C   UNL A   1      44.091  29.040  28.848  1.00  0.00     0.037 A 
BRANCH  43  57
ATOM     57  C   UNL A   1      38.632  28.391  28.673  1.00  0.00     0.064 A 
ATOM     58  C   UNL A   1      37.925  29.525  28.198  1.00  0.00     0.173 A 
ATOM     59  C   UNL A   1      38.477  28.085  30.031  1.00  0.00     0.173 A 
ATOM     60  F   UNL A   1      37.971  29.870  26.901  1.00  0.00    -0.203 F 
ATOM     61  C   UNL A   1      37.260  30.390  29.060  1.00  0.00     0.198 A 
ATOM     62  C   UNL A   1      37.757  28.927  30.882  1.00  0.00     0.198 A 
ATOM     63  F   UNL A   1      39.100  27.040  30.587  1.00  0.00    -0.203 F 
ATOM     64  F   UNL A   1      36.760  31.542  28.591  1.00  0.00    -0.200 F 
ATOM     65  C   UNL A   1      37.194  30.100  30.406  1.00  0.00     0.200 A 
ATOM     66  F   UNL A   1      37.686  28.639  32.188  1.00  0.00    -0.200 F 
ATOM     67  F   UNL A   1      36.623  30.967  31.254  1.00  0.00    -0.200 F 
ENDBRANCH  43  57
BRANCH  44  68
ATOM     68  C   UNL A   1      48.894  27.461  26.448  1.00  0.00     0.064 A 
ATOM     69  C   UNL A   1      49.960  27.748  27.302  1.00  0.00     0.173 A 
ATOM     70  C   UNL A   1      49.268  27.403  25.062  1.00  0.00     0.173 A 
ATOM     71  F   UNL A   1      49.751  27.950  28.609  1.00  0.00    -0.203 F 
ATOM     72  C   UNL A   1      51.291  27.836  26.824  1.00  0.00     0.198 A 
ATOM     73  C   UNL A   1      50.582  27.410  24.602  1.00  0.00     0.198 A 
ATOM     74  F   UNL A   1      48.356  27.325  24.084  1.00  0.00    -0.203 F 
ATOM     75  F   UNL A   1      52.289  28.117  27.674  1.00  0.00    -0.200 F 
ATOM     76  C   UNL A   1      51.604  27.610  25.490  1.00  0.00     0.200 A 
ATOM     77  F   UNL A   1      50.832  27.191  23.303  1.00  0.00    -0.200 F 
ATOM     78  F   UNL A   1      52.874  27.597  25.062  1.00  0.00    -0.200 F 
ENDBRANCH  44  68
BRANCH  56  79
ATOM     79  C   UNL A   1      44.239  28.225  30.128  1.00  0.00     0.064 A 
ATOM     80  C   UNL A   1      44.970  28.760  31.207  1.00  0.00     0.173 A 
ATOM     81  C   UNL A   1      43.816  26.894  30.288  1.00  0.00     0.173 A 
ATOM     82  F   UNL A   1      45.377  30.038  31.169  1.00  0.00    -0.203 F 
ATOM     83  C   UNL A   1      45.301  28.000  32.333  1.00  0.00     0.198 A 
ATOM     84  C   UNL A   1      44.148  26.129  31.413  1.00  0.00     0.198 A 
ATOM     85  F   UNL A   1      43.059  26.306  29.363  1.00  0.00    -0.203 F 
ATOM     86  F   UNL A   1      46.010  28.554  33.327  1.00  0.00    -0.200 F 
ATOM     87  C   UNL A   1      44.899  26.681  32.433  1.00  0.00     0.200 A 
ATOM     88  F   UNL A   1      43.729  24.857  31.508  1.00  0.00    -0.200 F 
ATOM     89  F   UNL A   1      45.208  25.954  33.516  1.00  0.00    -0.200 F 
ENDBRANCH  56  79
ENDBRANCH  30  31
ENDBRANCH  23  25
ENDBRANCH  22  23
ENDBRANCH  21  22
ENDBRANCH   1  21
TORSDOF 16
ENDMDL
