MODEL 1
REMARK VINA RESULT:     -11.6      0.000      0.000
REMARK SMILES O=C(CNC(=O)c1cccs1)N[C@@H]1C=C[C@H](C(=O)OCCOCCOC(=O)c2ccc(-c3c4nc(c(-c5c(F)c(F)c(F)c(F)c5F)c5ccc([nH]5)c(-c5c(F)c(F)c(F)c(F)c5F)c5nc(c(-c6c(F)c(F)c(F)c(F)c6F)c6ccc3[nH]6)C=C5)C=C4)cc2)C1
REMARK SMILES IDX 21 1 20 2 19 3 17 4 18 5 16 6 13 7 14 8 91 9 15 10 12 11
REMARK SMILES IDX 1 12 2 13 3 15 4 16 5 17 6 19 7 20 8 21 11 22 9 23 10 24
REMARK SMILES IDX 22 25 23 26 24 27 25 28 26 29 27 30 28 31 29 32 90 33 30 34
REMARK SMILES IDX 89 35 31 36 32 37 33 38 83 39 34 40 88 41 82 42 84 43 35 44
REMARK SMILES IDX 87 45 81 46 80 47 36 49 68 50 48 51 67 52 49 53 52 54 66 55
REMARK SMILES IDX 85 56 50 57 51 58 65 60 86 61 53 62 37 63 38 64 46 65 39 66
REMARK SMILES IDX 40 67 44 68 47 69 41 70 42 71 45 72 43 73 69 74 70 75 78 76
REMARK SMILES IDX 71 77 72 78 76 79 79 80 73 81 74 82 77 83 75 84 54 85 55 86
REMARK SMILES IDX 63 87 56 88 57 89 61 90 64 91 58 92 59 93 62 94 60 95
REMARK H PARENT 12 14 4 18 84 48 52 59
REMARK Flexibility Score: inf
ROOT
ATOM      1  C   UNL A   1      40.875  20.576  26.508  1.00  0.00     0.202 C 
ENDROOT
BRANCH   1   2
ATOM      2  C   UNL A   1      40.023  21.767  26.061  1.00  0.00     0.261 C 
BRANCH   2   3
ATOM      3  O   UNL A   1      38.610  21.498  26.144  1.00  0.00    -0.463 OA
BRANCH   3   4
ATOM      4  C   UNL A   1      37.801  22.439  25.581  1.00  0.00     0.312 C 
ATOM      5  O   UNL A   1      37.744  23.614  25.927  1.00  0.00    -0.252 OA
BRANCH   4   6
ATOM      6  C   UNL A   1      36.941  21.884  24.451  1.00  0.00     0.124 C 
ATOM      7  C   UNL A   1      35.077  23.096  23.385  1.00  0.00     0.106 C 
ATOM      8  C   UNL A   1      34.599  21.990  24.261  1.00  0.00    -0.006 C 
ATOM      9  C   UNL A   1      36.607  22.958  23.409  1.00  0.00     0.048 C 
ATOM     10  C   UNL A   1      35.603  21.335  24.847  1.00  0.00    -0.014 C 
BRANCH   7  11
ATOM     11  N   UNL A   1      34.613  24.328  23.967  1.00  0.00    -0.348 N 
ATOM     12  O   UNL A   1      33.769  25.174  22.009  1.00  0.00    -0.273 OA
ATOM     13  C   UNL A   1      33.935  25.269  23.223  1.00  0.00     0.239 C 
ATOM     14  H   UNL A   1      34.784  24.502  24.921  1.00  0.00     0.164 HD
BRANCH  13  15
ATOM     15  C   UNL A   1      33.555  26.542  23.983  1.00  0.00     0.216 C 
BRANCH  15  16
ATOM     16  N   UNL A   1      32.658  26.249  25.092  1.00  0.00    -0.342 N 
ATOM     17  C   UNL A   1      31.569  26.954  25.538  1.00  0.00     0.261 C 
ATOM     18  H   UNL A   1      32.862  25.428  25.594  1.00  0.00     0.164 HD
ATOM     19  O   UNL A   1      31.275  26.800  26.725  1.00  0.00    -0.268 OA
BRANCH  17  20
ATOM     20  C   UNL A   1      30.857  27.844  24.641  1.00  0.00     0.092 A 
ATOM     21  C   UNL A   1      30.938  29.214  24.472  1.00  0.00     0.025 A 
ATOM     22  S   UNL A   1      29.771  27.150  23.503  1.00  0.00    -0.139 S 
ATOM     23  C   UNL A   1      30.037  29.698  23.480  1.00  0.00     0.012 A 
ATOM     24  C   UNL A   1      29.354  28.677  22.863  1.00  0.00     0.065 A 
ENDBRANCH  17  20
ENDBRANCH  15  16
ENDBRANCH  13  15
ENDBRANCH   7  11
ENDBRANCH   4   6
ENDBRANCH   3   4
ENDBRANCH   2   3
ENDBRANCH   1   2
BRANCH   1  25
ATOM     25  O   UNL A   1      42.094  20.334  25.806  1.00  0.00    -0.374 OA
BRANCH  25  26
ATOM     26  C   UNL A   1      43.217  21.144  26.139  1.00  0.00     0.202 C 
BRANCH  26  27
ATOM     27  C   UNL A   1      43.804  22.039  25.039  1.00  0.00     0.261 C 
BRANCH  27  28
ATOM     28  O   UNL A   1      43.043  23.238  24.814  1.00  0.00    -0.460 OA
BRANCH  28  29
ATOM     29  C   UNL A   1      43.744  24.387  24.996  1.00  0.00     0.338 C 
ATOM     30  O   UNL A   1      44.743  24.745  24.402  1.00  0.00    -0.246 OA
BRANCH  29  31
ATOM     31  C   UNL A   1      43.031  25.271  25.938  1.00  0.00     0.060 A 
ATOM     32  C   UNL A   1      43.519  26.575  26.094  1.00  0.00     0.016 A 
ATOM     33  C   UNL A   1      41.963  24.816  26.713  1.00  0.00     0.016 A 
ATOM     34  C   UNL A   1      42.969  27.419  27.056  1.00  0.00     0.010 A 
ATOM     35  C   UNL A   1      41.413  25.665  27.680  1.00  0.00     0.010 A 
ATOM     36  C   UNL A   1      41.934  26.960  27.880  1.00  0.00    -0.014 A 
BRANCH  36  37
ATOM     37  C   UNL A   1      41.494  27.769  29.044  1.00  0.00     0.031 A 
ATOM     38  C   UNL A   1      42.222  27.618  30.351  1.00  0.00     0.074 A 
ATOM     39  C   UNL A   1      40.470  28.637  28.948  1.00  0.00     0.049 A 
ATOM     40  N   UNL A   1      41.975  28.172  31.510  1.00  0.00    -0.248 NA
ATOM     41  C   UNL A   1      43.394  26.729  30.345  1.00  0.00     0.031 C 
ATOM     42  C   UNL A   1      39.739  28.949  27.725  1.00  0.00     0.029 A 
ATOM     43  N   UNL A   1      39.856  29.404  29.907  1.00  0.00    -0.354 N 
ATOM     44  C   UNL A   1      42.966  27.711  32.366  1.00  0.00     0.074 A 
ATOM     45  C   UNL A   1      43.783  26.786  31.610  1.00  0.00     0.031 C 
ATOM     46  C   UNL A   1      38.735  29.793  28.014  1.00  0.00     0.029 A 
ATOM     47  C   UNL A   1      38.754  30.081  29.444  1.00  0.00     0.049 A 
ATOM     48  H   UNL A   1      40.175  29.464  30.837  1.00  0.00     0.167 HD
ATOM     49  C   UNL A   1      43.192  28.052  33.657  1.00  0.00     0.037 A 
ATOM     50  C   UNL A   1      37.856  30.836  30.103  1.00  0.00     0.037 A 
ATOM     51  C   UNL A   1      42.377  28.972  34.406  1.00  0.00     0.049 A 
ATOM     52  C   UNL A   1      38.053  31.101  31.571  1.00  0.00     0.074 A 
ATOM     53  C   UNL A   1      42.536  29.398  35.713  1.00  0.00     0.029 A 
ATOM     54  N   UNL A   1      41.241  29.600  33.917  1.00  0.00    -0.354 N 
ATOM     55  N   UNL A   1      39.009  30.689  32.366  1.00  0.00    -0.248 NA
ATOM     56  C   UNL A   1      37.058  31.962  32.228  1.00  0.00     0.031 C 
ATOM     57  C   UNL A   1      41.462  30.234  36.034  1.00  0.00     0.029 A 
ATOM     58  C   UNL A   1      40.669  30.384  34.908  1.00  0.00     0.049 A 
ATOM     59  H   UNL A   1      40.893  29.505  33.001  1.00  0.00     0.167 HD
ATOM     60  C   UNL A   1      38.764  31.278  33.599  1.00  0.00     0.074 A 
ATOM     61  C   UNL A   1      37.565  32.075  33.448  1.00  0.00     0.031 C 
ATOM     62  C   UNL A   1      39.478  31.178  34.746  1.00  0.00     0.037 A 
BRANCH  49  63
ATOM     63  C   UNL A   1      44.362  27.411  34.346  1.00  0.00     0.064 A 
ATOM     64  C   UNL A   1      44.256  26.157  34.967  1.00  0.00     0.173 A 
ATOM     65  C   UNL A   1      45.613  28.046  34.357  1.00  0.00     0.173 A 
ATOM     66  F   UNL A   1      43.079  25.514  34.995  1.00  0.00    -0.203 F 
ATOM     67  C   UNL A   1      45.353  25.575  35.599  1.00  0.00     0.198 A 
ATOM     68  C   UNL A   1      46.715  27.446  34.962  1.00  0.00     0.198 A 
ATOM     69  F   UNL A   1      45.770  29.244  33.777  1.00  0.00    -0.203 F 
ATOM     70  F   UNL A   1      45.216  24.400  36.228  1.00  0.00    -0.200 F 
ATOM     71  C   UNL A   1      46.583  26.215  35.588  1.00  0.00     0.200 A 
ATOM     72  F   UNL A   1      47.906  28.061  34.939  1.00  0.00    -0.200 F 
ATOM     73  F   UNL A   1      47.639  25.652  36.189  1.00  0.00    -0.200 F 
ENDBRANCH  49  63
BRANCH  50  74
ATOM     74  C   UNL A   1      36.691  31.409  29.379  1.00  0.00     0.064 A 
ATOM     75  C   UNL A   1      35.627  30.598  28.964  1.00  0.00     0.173 A 
ATOM     76  C   UNL A   1      36.636  32.773  29.062  1.00  0.00     0.173 A 
ATOM     77  F   UNL A   1      35.651  29.281  29.218  1.00  0.00    -0.203 F 
ATOM     78  C   UNL A   1      34.558  31.127  28.242  1.00  0.00     0.198 A 
ATOM     79  C   UNL A   1      35.556  33.304  28.360  1.00  0.00     0.198 A 
ATOM     80  F   UNL A   1      37.631  33.593  29.433  1.00  0.00    -0.203 F 
ATOM     81  F   UNL A   1      33.578  30.321  27.814  1.00  0.00    -0.200 F 
ATOM     82  C   UNL A   1      34.521  32.480  27.945  1.00  0.00     0.200 A 
ATOM     83  F   UNL A   1      35.521  34.614  28.077  1.00  0.00    -0.200 F 
ATOM     84  F   UNL A   1      33.495  32.989  27.250  1.00  0.00    -0.200 F 
ENDBRANCH  50  74
BRANCH  62  85
ATOM     85  C   UNL A   1      39.012  31.988  35.923  1.00  0.00     0.064 A 
ATOM     86  C   UNL A   1      38.196  31.441  36.924  1.00  0.00     0.173 A 
ATOM     87  C   UNL A   1      39.420  33.324  36.066  1.00  0.00     0.173 A 
ATOM     88  F   UNL A   1      37.766  30.174  36.827  1.00  0.00    -0.203 F 
ATOM     89  C   UNL A   1      37.783  32.209  38.010  1.00  0.00     0.198 A 
ATOM     90  C   UNL A   1      39.034  34.078  37.171  1.00  0.00     0.198 A 
ATOM     91  F   UNL A   1      40.205  33.896  35.141  1.00  0.00    -0.203 F 
ATOM     92  F   UNL A   1      36.960  31.681  38.926  1.00  0.00    -0.200 F 
ATOM     93  C   UNL A   1      38.209  33.523  38.137  1.00  0.00     0.200 A 
ATOM     94  F   UNL A   1      39.459  35.342  37.300  1.00  0.00    -0.200 F 
ATOM     95  F   UNL A   1      37.817  34.258  39.188  1.00  0.00    -0.200 F 
ENDBRANCH  62  85
ENDBRANCH  36  37
ENDBRANCH  29  31
ENDBRANCH  28  29
ENDBRANCH  27  28
ENDBRANCH  26  27
ENDBRANCH  25  26
ENDBRANCH   1  25
TORSDOF 18
ENDMDL
MODEL 2
REMARK VINA RESULT:     -11.0      1.170      2.343
REMARK SMILES O=C(CNC(=O)c1cccs1)N[C@@H]1C=C[C@H](C(=O)OCCOCCOC(=O)c2ccc(-c3c4nc(c(-c5c(F)c(F)c(F)c(F)c5F)c5ccc([nH]5)c(-c5c(F)c(F)c(F)c(F)c5F)c5nc(c(-c6c(F)c(F)c(F)c(F)c6F)c6ccc3[nH]6)C=C5)C=C4)cc2)C1
REMARK SMILES IDX 21 1 20 2 19 3 17 4 18 5 16 6 13 7 14 8 91 9 15 10 12 11
REMARK SMILES IDX 1 12 2 13 3 15 4 16 5 17 6 19 7 20 8 21 11 22 9 23 10 24
REMARK SMILES IDX 22 25 23 26 24 27 25 28 26 29 27 30 28 31 29 32 90 33 30 34
REMARK SMILES IDX 89 35 31 36 32 37 33 38 83 39 34 40 88 41 82 42 84 43 35 44
REMARK SMILES IDX 87 45 81 46 80 47 36 49 68 50 48 51 67 52 49 53 52 54 66 55
REMARK SMILES IDX 85 56 50 57 51 58 65 60 86 61 53 62 37 63 38 64 46 65 39 66
REMARK SMILES IDX 40 67 44 68 47 69 41 70 42 71 45 72 43 73 69 74 70 75 78 76
REMARK SMILES IDX 71 77 72 78 76 79 79 80 73 81 74 82 77 83 75 84 54 85 55 86
REMARK SMILES IDX 63 87 56 88 57 89 61 90 64 91 58 92 59 93 62 94 60 95
REMARK H PARENT 12 14 4 18 84 48 52 59
REMARK Flexibility Score: inf
ROOT
ATOM      1  C   UNL A   1      40.289  20.172  26.514  1.00  0.00     0.202 C 
ENDROOT
BRANCH   1   2
ATOM      2  C   UNL A   1      39.595  21.209  25.626  1.00  0.00     0.261 C 
BRANCH   2   3
ATOM      3  O   UNL A   1      39.034  22.299  26.384  1.00  0.00    -0.463 OA
BRANCH   3   4
ATOM      4  C   UNL A   1      37.887  22.833  25.880  1.00  0.00     0.312 C 
ATOM      5  O   UNL A   1      37.388  23.894  26.239  1.00  0.00    -0.252 OA
BRANCH   4   6
ATOM      6  C   UNL A   1      37.254  21.967  24.797  1.00  0.00     0.124 C 
ATOM      7  C   UNL A   1      34.939  22.210  23.984  1.00  0.00     0.106 C 
ATOM      8  C   UNL A   1      35.113  20.992  24.824  1.00  0.00    -0.006 C 
ATOM      9  C   UNL A   1      36.357  22.787  23.862  1.00  0.00     0.048 C 
ATOM     10  C   UNL A   1      36.362  20.859  25.274  1.00  0.00    -0.014 C 
BRANCH   7  11
ATOM     11  N   UNL A   1      34.034  23.082  24.685  1.00  0.00    -0.348 N 
ATOM     12  O   UNL A   1      32.134  21.972  24.034  1.00  0.00    -0.273 OA
ATOM     13  C   UNL A   1      32.673  22.857  24.694  1.00  0.00     0.239 C 
ATOM     14  H   UNL A   1      34.395  23.858  25.171  1.00  0.00     0.164 HD
BRANCH  13  15
ATOM     15  C   UNL A   1      31.850  23.905  25.447  1.00  0.00     0.216 C 
BRANCH  15  16
ATOM     16  N   UNL A   1      30.706  24.345  24.660  1.00  0.00    -0.342 N 
ATOM     17  C   UNL A   1      30.542  25.499  23.937  1.00  0.00     0.261 C 
ATOM     18  H   UNL A   1      29.940  23.727  24.646  1.00  0.00     0.164 HD
ATOM     19  O   UNL A   1      29.378  25.870  23.770  1.00  0.00    -0.268 OA
BRANCH  17  20
ATOM     20  C   UNL A   1      31.697  26.225  23.446  1.00  0.00     0.092 A 
ATOM     21  C   UNL A   1      32.426  26.084  22.279  1.00  0.00     0.025 A 
ATOM     22  S   UNL A   1      32.270  27.557  24.369  1.00  0.00    -0.139 S 
ATOM     23  C   UNL A   1      33.511  27.004  22.197  1.00  0.00     0.012 A 
ATOM     24  C   UNL A   1      33.529  27.874  23.261  1.00  0.00     0.065 A 
ENDBRANCH  17  20
ENDBRANCH  15  16
ENDBRANCH  13  15
ENDBRANCH   7  11
ENDBRANCH   4   6
ENDBRANCH   3   4
ENDBRANCH   2   3
ENDBRANCH   1   2
BRANCH   1  25
ATOM     25  O   UNL A   1      41.645  19.842  26.209  1.00  0.00    -0.374 OA
BRANCH  25  26
ATOM     26  C   UNL A   1      42.645  20.799  26.543  1.00  0.00     0.202 C 
BRANCH  26  27
ATOM     27  C   UNL A   1      43.424  21.449  25.391  1.00  0.00     0.261 C 
BRANCH  27  28
ATOM     28  O   UNL A   1      42.773  22.610  24.848  1.00  0.00    -0.460 OA
BRANCH  28  29
ATOM     29  C   UNL A   1      43.509  23.749  24.922  1.00  0.00     0.338 C 
ATOM     30  O   UNL A   1      44.487  24.041  24.259  1.00  0.00    -0.246 OA
BRANCH  29  31
ATOM     31  C   UNL A   1      42.865  24.711  25.837  1.00  0.00     0.060 A 
ATOM     32  C   UNL A   1      43.366  26.020  25.855  1.00  0.00     0.016 A 
ATOM     33  C   UNL A   1      41.852  24.327  26.716  1.00  0.00     0.016 A 
ATOM     34  C   UNL A   1      42.886  26.941  26.782  1.00  0.00     0.010 A 
ATOM     35  C   UNL A   1      41.372  25.254  27.648  1.00  0.00     0.010 A 
ATOM     36  C   UNL A   1      41.908  26.557  27.708  1.00  0.00    -0.014 A 
BRANCH  36  37
ATOM     37  C   UNL A   1      41.551  27.459  28.832  1.00  0.00     0.031 A 
ATOM     38  C   UNL A   1      42.334  27.370  30.112  1.00  0.00     0.074 A 
ATOM     39  C   UNL A   1      40.554  28.356  28.721  1.00  0.00     0.049 A 
ATOM     40  N   UNL A   1      42.160  28.011  31.240  1.00  0.00    -0.248 NA
ATOM     41  C   UNL A   1      43.474  26.440  30.117  1.00  0.00     0.031 C 
ATOM     42  C   UNL A   1      39.778  28.612  27.513  1.00  0.00     0.029 A 
ATOM     43  N   UNL A   1      40.013  29.209  29.651  1.00  0.00    -0.354 N 
ATOM     44  C   UNL A   1      43.175  27.572  32.081  1.00  0.00     0.074 A 
ATOM     45  C   UNL A   1      43.923  26.568  31.356  1.00  0.00     0.031 C 
ATOM     46  C   UNL A   1      38.818  29.510  27.786  1.00  0.00     0.029 A 
ATOM     47  C   UNL A   1      38.914  29.894  29.191  1.00  0.00     0.049 A 
ATOM     48  H   UNL A   1      40.376  29.320  30.559  1.00  0.00     0.167 HD
ATOM     49  C   UNL A   1      43.472  27.991  33.334  1.00  0.00     0.037 A 
ATOM     50  C   UNL A   1      38.074  30.726  29.835  1.00  0.00     0.037 A 
ATOM     51  C   UNL A   1      42.725  28.990  34.053  1.00  0.00     0.049 A 
ATOM     52  C   UNL A   1      38.348  31.082  31.271  1.00  0.00     0.074 A 
ATOM     53  C   UNL A   1      42.960  29.498  35.318  1.00  0.00     0.029 A 
ATOM     54  N   UNL A   1      41.590  29.626  33.572  1.00  0.00    -0.354 N 
ATOM     55  N   UNL A   1      39.326  30.689  32.049  1.00  0.00    -0.248 NA
ATOM     56  C   UNL A   1      37.415  32.022  31.910  1.00  0.00     0.031 C 
ATOM     57  C   UNL A   1      41.931  30.393  35.628  1.00  0.00     0.029 A 
ATOM     58  C   UNL A   1      41.092  30.495  34.530  1.00  0.00     0.049 A 
ATOM     59  H   UNL A   1      41.196  29.481  32.681  1.00  0.00     0.167 HD
ATOM     60  C   UNL A   1      39.160  31.369  33.248  1.00  0.00     0.074 A 
ATOM     61  C   UNL A   1      37.983  32.199  33.095  1.00  0.00     0.031 C 
ATOM     62  C   UNL A   1      39.922  31.321  34.367  1.00  0.00     0.037 A 
BRANCH  49  63
ATOM     63  C   UNL A   1      44.650  27.356  34.013  1.00  0.00     0.064 A 
ATOM     64  C   UNL A   1      45.928  27.935  33.971  1.00  0.00     0.173 A 
ATOM     65  C   UNL A   1      44.493  26.168  34.744  1.00  0.00     0.173 A 
ATOM     66  F   UNL A   1      46.135  29.063  33.275  1.00  0.00    -0.203 F 
ATOM     67  C   UNL A   1      47.010  27.334  34.611  1.00  0.00     0.198 A 
ATOM     68  C   UNL A   1      45.569  25.587  35.409  1.00  0.00     0.198 A 
ATOM     69  F   UNL A   1      43.293  25.574  34.820  1.00  0.00    -0.203 F 
ATOM     70  F   UNL A   1      48.230  27.879  34.514  1.00  0.00    -0.200 F 
ATOM     71  C   UNL A   1      46.828  26.166  35.336  1.00  0.00     0.200 A 
ATOM     72  F   UNL A   1      45.389  24.466  36.120  1.00  0.00    -0.200 F 
ATOM     73  F   UNL A   1      47.867  25.593  35.957  1.00  0.00    -0.200 F 
ENDBRANCH  49  63
BRANCH  50  74
ATOM     74  C   UNL A   1      36.897  31.291  29.125  1.00  0.00     0.064 A 
ATOM     75  C   UNL A   1      36.850  32.645  28.767  1.00  0.00     0.173 A 
ATOM     76  C   UNL A   1      35.786  30.494  28.819  1.00  0.00     0.173 A 
ATOM     77  F   UNL A   1      37.877  33.452  29.068  1.00  0.00    -0.203 F 
ATOM     78  C   UNL A   1      35.726  33.185  28.145  1.00  0.00     0.198 A 
ATOM     79  C   UNL A   1      34.672  31.031  28.176  1.00  0.00     0.198 A 
ATOM     80  F   UNL A   1      35.778  29.192  29.143  1.00  0.00    -0.203 F 
ATOM     81  F   UNL A   1      35.686  34.493  27.858  1.00  0.00    -0.200 F 
ATOM     82  C   UNL A   1      34.640  32.377  27.845  1.00  0.00     0.200 A 
ATOM     83  F   UNL A   1      33.625  30.247  27.885  1.00  0.00    -0.200 F 
ATOM     84  F   UNL A   1      33.559  32.896  27.248  1.00  0.00    -0.200 F 
ENDBRANCH  50  74
BRANCH  62  85
ATOM     85  C   UNL A   1      39.541  32.226  35.503  1.00  0.00     0.064 A 
ATOM     86  C   UNL A   1      40.059  33.524  35.624  1.00  0.00     0.173 A 
ATOM     87  C   UNL A   1      38.613  31.799  36.467  1.00  0.00     0.173 A 
ATOM     88  F   UNL A   1      40.961  33.976  34.739  1.00  0.00    -0.203 F 
ATOM     89  C   UNL A   1      39.686  34.349  36.681  1.00  0.00     0.198 A 
ATOM     90  C   UNL A   1      38.215  32.639  37.503  1.00  0.00     0.198 A 
ATOM     91  F   UNL A   1      38.082  30.570  36.396  1.00  0.00    -0.203 F 
ATOM     92  F   UNL A   1      40.236  35.565  36.806  1.00  0.00    -0.200 F 
ATOM     93  C   UNL A   1      38.759  33.910  37.615  1.00  0.00     0.200 A 
ATOM     94  F   UNL A   1      37.307  32.218  38.394  1.00  0.00    -0.200 F 
ATOM     95  F   UNL A   1      38.394  34.709  38.628  1.00  0.00    -0.200 F 
ENDBRANCH  62  85
ENDBRANCH  36  37
ENDBRANCH  29  31
ENDBRANCH  28  29
ENDBRANCH  27  28
ENDBRANCH  26  27
ENDBRANCH  25  26
ENDBRANCH   1  25
TORSDOF 18
ENDMDL
MODEL 3
REMARK VINA RESULT:     -11.0      3.235      8.585
REMARK SMILES O=C(CNC(=O)c1cccs1)N[C@@H]1C=C[C@H](C(=O)OCCOCCOC(=O)c2ccc(-c3c4nc(c(-c5c(F)c(F)c(F)c(F)c5F)c5ccc([nH]5)c(-c5c(F)c(F)c(F)c(F)c5F)c5nc(c(-c6c(F)c(F)c(F)c(F)c6F)c6ccc3[nH]6)C=C5)C=C4)cc2)C1
REMARK SMILES IDX 21 1 20 2 19 3 17 4 18 5 16 6 13 7 14 8 91 9 15 10 12 11
REMARK SMILES IDX 1 12 2 13 3 15 4 16 5 17 6 19 7 20 8 21 11 22 9 23 10 24
REMARK SMILES IDX 22 25 23 26 24 27 25 28 26 29 27 30 28 31 29 32 90 33 30 34
REMARK SMILES IDX 89 35 31 36 32 37 33 38 83 39 34 40 88 41 82 42 84 43 35 44
REMARK SMILES IDX 87 45 81 46 80 47 36 49 68 50 48 51 67 52 49 53 52 54 66 55
REMARK SMILES IDX 85 56 50 57 51 58 65 60 86 61 53 62 37 63 38 64 46 65 39 66
REMARK SMILES IDX 40 67 44 68 47 69 41 70 42 71 45 72 43 73 69 74 70 75 78 76
REMARK SMILES IDX 71 77 72 78 76 79 79 80 73 81 74 82 77 83 75 84 54 85 55 86
REMARK SMILES IDX 63 87 56 88 57 89 61 90 64 91 58 92 59 93 62 94 60 95
REMARK H PARENT 12 14 4 18 84 48 52 59
REMARK Flexibility Score: inf
ROOT
ATOM      1  C   UNL A   1      34.499  29.746  27.246  1.00  0.00     0.202 C 
ENDROOT
BRANCH   1   2
ATOM      2  C   UNL A   1      33.459  28.637  27.428  1.00  0.00     0.261 C 
BRANCH   2   3
ATOM      3  O   UNL A   1      33.633  27.557  26.491  1.00  0.00    -0.463 OA
BRANCH   3   4
ATOM      4  C   UNL A   1      33.107  27.766  25.251  1.00  0.00     0.312 C 
ATOM      5  O   UNL A   1      33.762  27.899  24.224  1.00  0.00    -0.252 OA
BRANCH   4   6
ATOM      6  C   UNL A   1      31.584  27.827  25.256  1.00  0.00     0.124 C 
ATOM      7  C   UNL A   1      30.104  25.866  25.468  1.00  0.00     0.106 C 
ATOM      8  C   UNL A   1      30.100  26.425  24.087  1.00  0.00    -0.006 C 
ATOM      9  C   UNL A   1      30.976  26.847  26.266  1.00  0.00     0.048 C 
ATOM     10  C   UNL A   1      30.905  27.482  23.963  1.00  0.00    -0.014 C 
BRANCH   7  11
ATOM     11  N   UNL A   1      30.670  24.545  25.388  1.00  0.00    -0.348 N 
ATOM     12  O   UNL A   1      29.593  23.749  27.251  1.00  0.00    -0.273 OA
ATOM     13  C   UNL A   1      30.320  23.554  26.280  1.00  0.00     0.239 C 
ATOM     14  H   UNL A   1      31.322  24.345  24.678  1.00  0.00     0.164 HD
BRANCH  13  15
ATOM     15  C   UNL A   1      31.049  22.222  26.084  1.00  0.00     0.216 C 
BRANCH  15  16
ATOM     16  N   UNL A   1      32.150  22.077  27.027  1.00  0.00    -0.342 N 
ATOM     17  C   UNL A   1      33.501  22.147  26.802  1.00  0.00     0.261 C 
ATOM     18  H   UNL A   1      31.886  21.902  27.959  1.00  0.00     0.164 HD
ATOM     19  O   UNL A   1      34.214  21.535  27.600  1.00  0.00    -0.268 OA
BRANCH  17  20
ATOM     20  C   UNL A   1      34.015  22.881  25.661  1.00  0.00     0.092 A 
ATOM     21  C   UNL A   1      34.302  24.225  25.505  1.00  0.00     0.025 A 
ATOM     22  S   UNL A   1      34.447  21.994  24.254  1.00  0.00    -0.139 S 
ATOM     23  C   UNL A   1      34.780  24.533  24.198  1.00  0.00     0.012 A 
ATOM     24  C   UNL A   1      34.922  23.407  23.423  1.00  0.00     0.065 A 
ENDBRANCH  17  20
ENDBRANCH  15  16
ENDBRANCH  13  15
ENDBRANCH   7  11
ENDBRANCH   4   6
ENDBRANCH   3   4
ENDBRANCH   2   3
ENDBRANCH   1   2
BRANCH   1  25
ATOM     25  O   UNL A   1      34.030  31.094  27.207  1.00  0.00    -0.374 OA
BRANCH  25  26
ATOM     26  C   UNL A   1      32.622  31.299  27.168  1.00  0.00     0.202 C 
BRANCH  26  27
ATOM     27  C   UNL A   1      32.106  32.741  27.273  1.00  0.00     0.261 C 
BRANCH  27  28
ATOM     28  O   UNL A   1      33.154  33.725  27.238  1.00  0.00    -0.460 OA
BRANCH  28  29
ATOM     29  C   UNL A   1      33.266  34.462  28.373  1.00  0.00     0.338 C 
ATOM     30  O   UNL A   1      32.528  35.353  28.751  1.00  0.00    -0.246 OA
BRANCH  29  31
ATOM     31  C   UNL A   1      34.351  33.930  29.220  1.00  0.00     0.060 A 
ATOM     32  C   UNL A   1      35.668  34.222  28.840  1.00  0.00     0.016 A 
ATOM     33  C   UNL A   1      34.095  33.098  30.310  1.00  0.00     0.016 A 
ATOM     34  C   UNL A   1      36.738  33.648  29.523  1.00  0.00     0.010 A 
ATOM     35  C   UNL A   1      35.171  32.521  30.994  1.00  0.00     0.010 A 
ATOM     36  C   UNL A   1      36.498  32.767  30.585  1.00  0.00    -0.014 A 
BRANCH  36  37
ATOM     37  C   UNL A   1      37.616  31.987  31.172  1.00  0.00     0.031 A 
ATOM     38  C   UNL A   1      38.111  32.347  32.546  1.00  0.00     0.074 A 
ATOM     39  C   UNL A   1      38.183  30.964  30.506  1.00  0.00     0.049 A 
ATOM     40  N   UNL A   1      39.110  31.848  33.228  1.00  0.00    -0.248 NA
ATOM     41  C   UNL A   1      37.371  33.407  33.248  1.00  0.00     0.031 C 
ATOM     42  C   UNL A   1      37.744  30.451  29.214  1.00  0.00     0.029 A 
ATOM     43  N   UNL A   1      39.266  30.182  30.824  1.00  0.00    -0.354 N 
ATOM     44  C   UNL A   1      39.109  32.521  34.442  1.00  0.00     0.074 A 
ATOM     45  C   UNL A   1      38.050  33.505  34.381  1.00  0.00     0.031 C 
ATOM     46  C   UNL A   1      38.585  29.483  28.814  1.00  0.00     0.029 A 
ATOM     47  C   UNL A   1      39.622  29.308  29.826  1.00  0.00     0.049 A 
ATOM     48  H   UNL A   1      39.742  30.243  31.684  1.00  0.00     0.167 HD
ATOM     49  C   UNL A   1      39.901  32.316  35.521  1.00  0.00     0.037 A 
ATOM     50  C   UNL A   1      40.672  28.471  29.735  1.00  0.00     0.037 A 
ATOM     51  C   UNL A   1      40.955  31.337  35.578  1.00  0.00     0.049 A 
ATOM     52  C   UNL A   1      41.619  28.350  30.898  1.00  0.00     0.074 A 
ATOM     53  C   UNL A   1      41.799  31.039  36.633  1.00  0.00     0.029 A 
ATOM     54  N   UNL A   1      41.317  30.503  34.530  1.00  0.00    -0.354 N 
ATOM     55  N   UNL A   1      41.594  28.965  32.054  1.00  0.00    -0.248 NA
ATOM     56  C   UNL A   1      42.727  27.394  30.752  1.00  0.00     0.031 C 
ATOM     57  C   UNL A   1      42.711  30.070  36.202  1.00  0.00     0.029 A 
ATOM     58  C   UNL A   1      42.394  29.715  34.902  1.00  0.00     0.049 A 
ATOM     59  H   UNL A   1      40.871  30.475  33.651  1.00  0.00     0.167 HD
ATOM     60  C   UNL A   1      42.644  28.437  32.793  1.00  0.00     0.074 A 
ATOM     61  C   UNL A   1      43.291  27.452  31.951  1.00  0.00     0.031 C 
ATOM     62  C   UNL A   1      43.028  28.733  34.058  1.00  0.00     0.037 A 
BRANCH  49  63
ATOM     63  C   UNL A   1      39.667  33.183  36.725  1.00  0.00     0.064 A 
ATOM     64  C   UNL A   1      38.731  32.838  37.711  1.00  0.00     0.173 A 
ATOM     65  C   UNL A   1      40.413  34.357  36.910  1.00  0.00     0.173 A 
ATOM     66  F   UNL A   1      37.983  31.731  37.576  1.00  0.00    -0.203 F 
ATOM     67  C   UNL A   1      38.529  33.651  38.824  1.00  0.00     0.198 A 
ATOM     68  C   UNL A   1      40.231  35.151  38.039  1.00  0.00     0.198 A 
ATOM     69  F   UNL A   1      41.322  34.732  35.999  1.00  0.00    -0.203 F 
ATOM     70  F   UNL A   1      37.594  33.326  39.728  1.00  0.00    -0.200 F 
ATOM     71  C   UNL A   1      39.284  34.801  38.992  1.00  0.00     0.200 A 
ATOM     72  F   UNL A   1      40.971  36.255  38.206  1.00  0.00    -0.200 F 
ATOM     73  F   UNL A   1      39.095  35.578  40.065  1.00  0.00    -0.200 F 
ENDBRANCH  49  63
BRANCH  50  74
ATOM     74  C   UNL A   1      40.880  27.670  28.501  1.00  0.00     0.064 A 
ATOM     75  C   UNL A   1      41.704  28.135  27.467  1.00  0.00     0.173 A 
ATOM     76  C   UNL A   1      40.235  26.439  28.320  1.00  0.00     0.173 A 
ATOM     77  F   UNL A   1      42.317  29.322  27.582  1.00  0.00    -0.203 F 
ATOM     78  C   UNL A   1      41.860  27.407  26.289  1.00  0.00     0.198 A 
ATOM     79  C   UNL A   1      40.410  25.701  27.151  1.00  0.00     0.198 A 
ATOM     80  F   UNL A   1      39.433  25.950  29.277  1.00  0.00    -0.203 F 
ATOM     81  F   UNL A   1      42.613  27.897  25.295  1.00  0.00    -0.200 F 
ATOM     82  C   UNL A   1      41.217  26.188  26.134  1.00  0.00     0.200 A 
ATOM     83  F   UNL A   1      39.790  24.522  27.005  1.00  0.00    -0.200 F 
ATOM     84  F   UNL A   1      41.367  25.488  25.002  1.00  0.00    -0.200 F 
ENDBRANCH  50  74
BRANCH  62  85
ATOM     85  C   UNL A   1      44.172  27.949  34.635  1.00  0.00     0.064 A 
ATOM     86  C   UNL A   1      43.977  26.714  35.273  1.00  0.00     0.173 A 
ATOM     87  C   UNL A   1      45.487  28.424  34.516  1.00  0.00     0.173 A 
ATOM     88  F   UNL A   1      42.739  26.222  35.428  1.00  0.00    -0.203 F 
ATOM     89  C   UNL A   1      45.053  26.000  35.794  1.00  0.00     0.198 A 
ATOM     90  C   UNL A   1      46.563  27.691  35.006  1.00  0.00     0.198 A 
ATOM     91  F   UNL A   1      45.731  29.596  33.910  1.00  0.00    -0.203 F 
ATOM     92  F   UNL A   1      44.837  24.850  36.448  1.00  0.00    -0.200 F 
ATOM     93  C   UNL A   1      46.345  26.485  35.653  1.00  0.00     0.200 A 
ATOM     94  F   UNL A   1      47.812  28.153  34.855  1.00  0.00    -0.200 F 
ATOM     95  F   UNL A   1      47.380  25.791  36.148  1.00  0.00    -0.200 F 
ENDBRANCH  62  85
ENDBRANCH  36  37
ENDBRANCH  29  31
ENDBRANCH  28  29
ENDBRANCH  27  28
ENDBRANCH  26  27
ENDBRANCH  25  26
ENDBRANCH   1  25
TORSDOF 18
ENDMDL
