MODEL 1
REMARK VINA RESULT:     -13.8      0.000      0.000
REMARK SMILES CO[C@H]1C[C@@H](C(=O)OCCOCCOC(=O)c2ccc(-c3c4nc(c(-c5c(F)c(F)c(F)c(F)c5F)c5ccc([nH]5)c(-c5c(F)c(F)c(F)c(F)c5F)c5nc(c(-c6c(F)c(F)c(F)c(F)c6F)c6ccc3[nH]6)C=C5)C=C4)cc2)N(C(=O)Nc2cc(C)cc(F)c2)C1
REMARK SMILES IDX 11 1 10 2 9 3 8 4 6 5 7 6 5 7 3 8 4 9 92 10 80 11 2 12 1 13
REMARK SMILES IDX 81 14 82 15 83 16 84 18 85 19 91 20 86 21 89 22 87 23 88 24
REMARK SMILES IDX 90 25 12 26 13 27 14 28 15 29 16 30 17 31 18 32 79 33 19 34
REMARK SMILES IDX 78 35 20 36 21 37 22 38 72 39 23 40 77 41 71 42 73 43 24 44
REMARK SMILES IDX 76 45 70 46 69 47 25 49 57 50 37 51 56 52 38 53 41 54 55 55
REMARK SMILES IDX 74 56 39 57 40 58 54 60 75 61 42 62 26 63 27 64 35 65 28 66
REMARK SMILES IDX 29 67 33 68 36 69 30 70 31 71 34 72 32 73 58 74 59 75 67 76
REMARK SMILES IDX 60 77 61 78 65 79 68 80 62 81 63 82 66 83 64 84 43 85 44 86
REMARK SMILES IDX 52 87 45 88 46 89 50 90 53 91 47 92 48 93 51 94 49 95
REMARK H PARENT 83 17 73 48 41 59
REMARK Flexibility Score: inf
ROOT
ATOM      1  O   UNL A   1      40.856  20.808  26.074  1.00  0.00    -0.374 OA
ENDROOT
BRANCH   1   2
ATOM      2  C   UNL A   1      39.748  21.601  26.625  1.00  0.00     0.202 C 
BRANCH   2   3
ATOM      3  C   UNL A   1      38.450  22.713  25.956  1.00  0.00     0.261 C 
BRANCH   3   4
ATOM      4  O   UNL A   1      36.993  22.247  24.593  1.00  0.00    -0.462 OA
BRANCH   4   5
ATOM      5  C   UNL A   1      35.828  22.662  23.810  1.00  0.00     0.329 C 
ATOM      6  O   UNL A   1      35.901  23.299  22.751  1.00  0.00    -0.250 OA
BRANCH   5   7
ATOM      7  C   UNL A   1      34.444  22.275  24.388  1.00  0.00     0.199 C 
ATOM      8  C   UNL A   1      33.485  20.327  25.656  1.00  0.00     0.140 C 
ATOM      9  C   UNL A   1      34.741  21.181  25.486  1.00  0.00     0.071 C 
ATOM     10  C   UNL A   1      32.468  21.019  24.768  1.00  0.00     0.154 C 
ATOM     11  N   UNL A   1      33.244  21.703  23.738  1.00  0.00    -0.308 N 
BRANCH   8  12
ATOM     12  O   UNL A   1      33.632  18.986  25.172  1.00  0.00    -0.380 OA
ATOM     13  C   UNL A   1      32.531  18.125  25.419  1.00  0.00     0.195 C 
ENDBRANCH   8  12
BRANCH  11  14
ATOM     14  C   UNL A   1      32.527  22.089  22.644  1.00  0.00     0.322 C 
ATOM     15  O   UNL A   1      32.109  21.269  21.821  1.00  0.00    -0.248 OA
ATOM     16  N   UNL A   1      32.283  23.392  22.371  1.00  0.00    -0.308 N 
ATOM     17  H   UNL A   1      32.078  23.635  21.439  1.00  0.00     0.171 HD
BRANCH  16  18
ATOM     18  C   UNL A   1      32.301  24.402  23.307  1.00  0.00     0.046 A 
ATOM     19  C   UNL A   1      33.302  25.789  22.794  1.00  0.00     0.029 A 
ATOM     20  C   UNL A   1      31.048  24.613  24.588  1.00  0.00     0.065 A 
ATOM     21  C   UNL A   1      33.041  27.394  23.459  1.00  0.00    -0.046 A 
ATOM     22  C   UNL A   1      30.820  26.335  25.261  1.00  0.00     0.125 A 
ATOM     23  C   UNL A   1      34.025  28.492  23.234  1.00  0.00     0.044 C 
ATOM     24  C   UNL A   1      31.797  27.696  24.654  1.00  0.00     0.042 A 
ATOM     25  F   UNL A   1      30.545  26.595  26.504  1.00  0.00    -0.207 F 
ENDBRANCH  16  18
ENDBRANCH  11  14
ENDBRANCH   5   7
ENDBRANCH   4   5
ENDBRANCH   3   4
ENDBRANCH   2   3
ENDBRANCH   1   2
BRANCH   1  26
ATOM     26  C   UNL A   1      42.314  20.862  26.125  1.00  0.00     0.202 C 
BRANCH  26  27
ATOM     27  C   UNL A   1      43.466  21.811  25.438  1.00  0.00     0.261 C 
BRANCH  27  28
ATOM     28  O   UNL A   1      43.227  22.937  24.533  1.00  0.00    -0.460 OA
BRANCH  28  29
ATOM     29  C   UNL A   1      43.853  24.098  24.857  1.00  0.00     0.338 C 
ATOM     30  O   UNL A   1      44.911  24.469  24.369  1.00  0.00    -0.246 OA
BRANCH  29  31
ATOM     31  C   UNL A   1      43.021  25.024  25.714  1.00  0.00     0.060 A 
ATOM     32  C   UNL A   1      43.633  26.231  26.096  1.00  0.00     0.016 A 
ATOM     33  C   UNL A   1      41.731  24.767  26.194  1.00  0.00     0.016 A 
ATOM     34  C   UNL A   1      43.018  27.128  26.991  1.00  0.00     0.010 A 
ATOM     35  C   UNL A   1      41.112  25.668  27.107  1.00  0.00     0.010 A 
ATOM     36  C   UNL A   1      41.767  26.839  27.552  1.00  0.00    -0.014 A 
BRANCH  36  37
ATOM     37  C   UNL A   1      41.284  27.638  28.738  1.00  0.00     0.031 A 
ATOM     38  C   UNL A   1      42.045  27.532  30.037  1.00  0.00     0.074 A 
ATOM     39  C   UNL A   1      40.255  28.513  28.696  1.00  0.00     0.049 A 
ATOM     40  N   UNL A   1      41.851  28.155  31.176  1.00  0.00    -0.248 NA
ATOM     41  C   UNL A   1      43.180  26.600  30.048  1.00  0.00     0.031 C 
ATOM     42  C   UNL A   1      39.439  28.778  27.525  1.00  0.00     0.029 A 
ATOM     43  N   UNL A   1      39.718  29.344  29.661  1.00  0.00    -0.354 N 
ATOM     44  C   UNL A   1      42.841  27.693  32.033  1.00  0.00     0.074 A 
ATOM     45  C   UNL A   1      43.605  26.707  31.297  1.00  0.00     0.031 C 
ATOM     46  C   UNL A   1      38.503  29.698  27.823  1.00  0.00     0.029 A 
ATOM     47  C   UNL A   1      38.635  30.080  29.230  1.00  0.00     0.049 A 
ATOM     48  H   UNL A   1      40.077  29.405  30.575  1.00  0.00     0.167 HD
ATOM     49  C   UNL A   1      43.106  28.057  33.311  1.00  0.00     0.037 A 
ATOM     50  C   UNL A   1      37.831  30.949  29.883  1.00  0.00     0.037 A 
ATOM     51  C   UNL A   1      42.356  29.022  34.073  1.00  0.00     0.049 A 
ATOM     52  C   UNL A   1      38.087  31.269  31.339  1.00  0.00     0.074 A 
ATOM     53  C   UNL A   1      42.573  29.449  35.373  1.00  0.00     0.029 A 
ATOM     54  N   UNL A   1      41.238  29.701  33.616  1.00  0.00    -0.354 N 
ATOM     55  N   UNL A   1      39.051  30.852  32.121  1.00  0.00    -0.248 NA
ATOM     56  C   UNL A   1      37.145  32.188  32.000  1.00  0.00     0.031 C 
ATOM     57  C   UNL A   1      41.552  30.336  35.724  1.00  0.00     0.029 A 
ATOM     58  C   UNL A   1      40.736  30.517  34.620  1.00  0.00     0.049 A 
ATOM     59  H   UNL A   1      40.856  29.616  32.713  1.00  0.00     0.167 HD
ATOM     60  C   UNL A   1      38.851  31.479  33.346  1.00  0.00     0.074 A 
ATOM     61  C   UNL A   1      37.683  32.319  33.204  1.00  0.00     0.031 C 
ATOM     62  C   UNL A   1      39.580  31.366  34.484  1.00  0.00     0.037 A 
BRANCH  49  63
ATOM     63  C   UNL A   1      44.257  27.372  33.990  1.00  0.00     0.064 A 
ATOM     64  C   UNL A   1      44.092  26.159  34.676  1.00  0.00     0.173 A 
ATOM     65  C   UNL A   1      45.544  27.925  33.935  1.00  0.00     0.173 A 
ATOM     66  F   UNL A   1      42.878  25.595  34.768  1.00  0.00    -0.203 F 
ATOM     67  C   UNL A   1      45.167  25.544  35.311  1.00  0.00     0.198 A 
ATOM     68  C   UNL A   1      46.624  27.290  34.542  1.00  0.00     0.198 A 
ATOM     69  F   UNL A   1      45.758  29.079  33.284  1.00  0.00    -0.203 F 
ATOM     70  F   UNL A   1      44.975  24.417  36.009  1.00  0.00    -0.200 F 
ATOM     71  C   UNL A   1      46.432  26.107  35.238  1.00  0.00     0.200 A 
ATOM     72  F   UNL A   1      47.849  27.827  34.457  1.00  0.00    -0.200 F 
ATOM     73  F   UNL A   1      47.468  25.512  35.847  1.00  0.00    -0.200 F 
ENDBRANCH  49  63
BRANCH  50  74
ATOM     74  C   UNL A   1      36.673  31.585  29.187  1.00  0.00     0.064 A 
ATOM     75  C   UNL A   1      36.657  32.960  28.901  1.00  0.00     0.173 A 
ATOM     76  C   UNL A   1      35.527  30.846  28.857  1.00  0.00     0.173 A 
ATOM     77  F   UNL A   1      37.708  33.724  29.232  1.00  0.00    -0.203 F 
ATOM     78  C   UNL A   1      35.537  33.570  28.335  1.00  0.00     0.198 A 
ATOM     79  C   UNL A   1      34.421  31.450  28.262  1.00  0.00     0.198 A 
ATOM     80  F   UNL A   1      35.479  29.532  29.119  1.00  0.00    -0.203 F 
ATOM     81  F   UNL A   1      35.528  34.894  28.132  1.00  0.00    -0.200 F 
ATOM     82  C   UNL A   1      34.422  32.813  28.010  1.00  0.00     0.200 A 
ATOM     83  F   UNL A   1      33.348  30.712  27.942  1.00  0.00    -0.200 F 
ATOM     84  F   UNL A   1      33.345  33.399  27.468  1.00  0.00    -0.200 F 
ENDBRANCH  50  74
BRANCH  62  85
ATOM     85  C   UNL A   1      39.174  32.204  35.668  1.00  0.00     0.064 A 
ATOM     86  C   UNL A   1      39.632  33.519  35.842  1.00  0.00     0.173 A 
ATOM     87  C   UNL A   1      38.275  31.697  36.620  1.00  0.00     0.173 A 
ATOM     88  F   UNL A   1      40.503  34.051  34.970  1.00  0.00    -0.203 F 
ATOM     89  C   UNL A   1      39.227  34.282  36.936  1.00  0.00     0.198 A 
ATOM     90  C   UNL A   1      37.847  32.474  37.693  1.00  0.00     0.198 A 
ATOM     91  F   UNL A   1      37.798  30.448  36.503  1.00  0.00    -0.203 F 
ATOM     92  F   UNL A   1      39.718  35.518  37.105  1.00  0.00    -0.200 F 
ATOM     93  C   UNL A   1      38.329  33.763  37.855  1.00  0.00     0.200 A 
ATOM     94  F   UNL A   1      36.966  31.974  38.572  1.00  0.00    -0.200 F 
ATOM     95  F   UNL A   1      37.935  34.502  38.901  1.00  0.00    -0.200 F 
ENDBRANCH  62  85
ENDBRANCH  36  37
ENDBRANCH  29  31
ENDBRANCH  28  29
ENDBRANCH  27  28
ENDBRANCH  26  27
ENDBRANCH   1  26
TORSDOF 17
ENDMDL
MODEL 2
REMARK VINA RESULT:     -13.5      1.164      2.059
REMARK SMILES CO[C@H]1C[C@@H](C(=O)OCCOCCOC(=O)c2ccc(-c3c4nc(c(-c5c(F)c(F)c(F)c(F)c5F)c5ccc([nH]5)c(-c5c(F)c(F)c(F)c(F)c5F)c5nc(c(-c6c(F)c(F)c(F)c(F)c6F)c6ccc3[nH]6)C=C5)C=C4)cc2)N(C(=O)Nc2cc(C)cc(F)c2)C1
REMARK SMILES IDX 11 1 10 2 9 3 8 4 6 5 7 6 5 7 3 8 4 9 92 10 80 11 2 12 1 13
REMARK SMILES IDX 81 14 82 15 83 16 84 18 85 19 91 20 86 21 89 22 87 23 88 24
REMARK SMILES IDX 90 25 12 26 13 27 14 28 15 29 16 30 17 31 18 32 79 33 19 34
REMARK SMILES IDX 78 35 20 36 21 37 22 38 72 39 23 40 77 41 71 42 73 43 24 44
REMARK SMILES IDX 76 45 70 46 69 47 25 49 57 50 37 51 56 52 38 53 41 54 55 55
REMARK SMILES IDX 74 56 39 57 40 58 54 60 75 61 42 62 26 63 27 64 35 65 28 66
REMARK SMILES IDX 29 67 33 68 36 69 30 70 31 71 34 72 32 73 58 74 59 75 67 76
REMARK SMILES IDX 60 77 61 78 65 79 68 80 62 81 63 82 66 83 64 84 43 85 44 86
REMARK SMILES IDX 52 87 45 88 46 89 50 90 53 91 47 92 48 93 51 94 49 95
REMARK H PARENT 83 17 73 48 41 59
REMARK Flexibility Score: inf
ROOT
ATOM      1  O   UNL A   1      41.304  21.018  27.111  1.00  0.00    -0.374 OA
ENDROOT
BRANCH   1   2
ATOM      2  C   UNL A   1      40.029  20.714  26.447  1.00  0.00     0.202 C 
BRANCH   2   3
ATOM      3  C   UNL A   1      38.840  21.619  25.381  1.00  0.00     0.261 C 
BRANCH   3   4
ATOM      4  O   UNL A   1      36.820  21.817  25.657  1.00  0.00    -0.462 OA
BRANCH   4   5
ATOM      5  C   UNL A   1      35.650  22.688  25.777  1.00  0.00     0.329 C 
ATOM      6  O   UNL A   1      35.715  23.915  25.932  1.00  0.00    -0.250 OA
BRANCH   5   7
ATOM      7  C   UNL A   1      34.269  21.987  25.718  1.00  0.00     0.199 C 
ATOM      8  C   UNL A   1      32.579  21.449  23.936  1.00  0.00     0.140 C 
ATOM      9  C   UNL A   1      34.079  21.566  24.210  1.00  0.00     0.071 C 
ATOM     10  C   UNL A   1      31.956  21.669  25.301  1.00  0.00     0.154 C 
ATOM     11  N   UNL A   1      32.913  22.480  26.047  1.00  0.00    -0.308 N 
BRANCH   8  12
ATOM     12  O   UNL A   1      32.072  22.469  23.066  1.00  0.00    -0.380 OA
ATOM     13  C   UNL A   1      33.026  23.421  22.622  1.00  0.00     0.195 C 
ENDBRANCH   8  12
BRANCH  11  14
ATOM     14  C   UNL A   1      32.406  23.086  27.158  1.00  0.00     0.322 C 
ATOM     15  O   UNL A   1      32.444  22.543  28.267  1.00  0.00    -0.248 OA
ATOM     16  N   UNL A   1      31.786  24.288  27.099  1.00  0.00    -0.308 N 
ATOM     17  H   UNL A   1      31.158  24.516  27.822  1.00  0.00     0.171 HD
BRANCH  16  18
ATOM     18  C   UNL A   1      31.973  25.213  26.097  1.00  0.00     0.046 A 
ATOM     19  C   UNL A   1      30.458  25.601  25.235  1.00  0.00     0.029 A 
ATOM     20  C   UNL A   1      33.375  26.347  26.019  1.00  0.00     0.065 A 
ATOM     21  C   UNL A   1      30.268  27.115  24.364  1.00  0.00    -0.046 A 
ATOM     22  C   UNL A   1      33.118  27.934  25.077  1.00  0.00     0.125 A 
ATOM     23  C   UNL A   1      29.120  27.334  23.439  1.00  0.00     0.044 C 
ATOM     24  C   UNL A   1      31.556  28.299  24.301  1.00  0.00     0.042 A 
ATOM     25  F   UNL A   1      34.038  28.505  24.359  1.00  0.00    -0.207 F 
ENDBRANCH  16  18
ENDBRANCH  11  14
ENDBRANCH   5   7
ENDBRANCH   4   5
ENDBRANCH   3   4
ENDBRANCH   2   3
ENDBRANCH   1   2
BRANCH   1  26
ATOM     26  C   UNL A   1      42.704  21.110  26.706  1.00  0.00     0.202 C 
BRANCH  26  27
ATOM     27  C   UNL A   1      43.494  21.682  25.383  1.00  0.00     0.261 C 
BRANCH  27  28
ATOM     28  O   UNL A   1      43.092  22.830  24.569  1.00  0.00    -0.460 OA
BRANCH  28  29
ATOM     29  C   UNL A   1      43.721  24.001  24.847  1.00  0.00     0.338 C 
ATOM     30  O   UNL A   1      44.762  24.366  24.321  1.00  0.00    -0.246 OA
BRANCH  29  31
ATOM     31  C   UNL A   1      42.909  24.943  25.706  1.00  0.00     0.060 A 
ATOM     32  C   UNL A   1      43.523  26.164  26.036  1.00  0.00     0.016 A 
ATOM     33  C   UNL A   1      41.637  24.690  26.234  1.00  0.00     0.016 A 
ATOM     34  C   UNL A   1      42.929  27.080  26.927  1.00  0.00     0.010 A 
ATOM     35  C   UNL A   1      41.040  25.610  27.142  1.00  0.00     0.010 A 
ATOM     36  C   UNL A   1      41.699  26.797  27.535  1.00  0.00    -0.014 A 
BRANCH  36  37
ATOM     37  C   UNL A   1      41.248  27.624  28.714  1.00  0.00     0.031 A 
ATOM     38  C   UNL A   1      42.035  27.536  30.000  1.00  0.00     0.074 A 
ATOM     39  C   UNL A   1      40.225  28.507  28.676  1.00  0.00     0.049 A 
ATOM     40  N   UNL A   1      41.869  28.184  31.129  1.00  0.00    -0.248 NA
ATOM     41  C   UNL A   1      43.161  26.595  30.006  1.00  0.00     0.031 C 
ATOM     42  C   UNL A   1      39.387  28.756  27.517  1.00  0.00     0.029 A 
ATOM     43  N   UNL A   1      39.715  29.362  29.635  1.00  0.00    -0.354 N 
ATOM     44  C   UNL A   1      42.872  27.730  31.975  1.00  0.00     0.074 A 
ATOM     45  C   UNL A   1      43.613  26.723  31.243  1.00  0.00     0.031 C 
ATOM     46  C   UNL A   1      38.467  29.690  27.815  1.00  0.00     0.029 A 
ATOM     47  C   UNL A   1      38.630  30.099  29.211  1.00  0.00     0.049 A 
ATOM     48  H   UNL A   1      40.094  29.438  30.540  1.00  0.00     0.167 HD
ATOM     49  C   UNL A   1      43.167  28.117  33.240  1.00  0.00     0.037 A 
ATOM     50  C   UNL A   1      37.848  30.988  29.863  1.00  0.00     0.037 A 
ATOM     51  C   UNL A   1      42.441  29.104  33.998  1.00  0.00     0.049 A 
ATOM     52  C   UNL A   1      38.137  31.335  31.307  1.00  0.00     0.074 A 
ATOM     53  C   UNL A   1      42.689  29.554  35.284  1.00  0.00     0.029 A 
ATOM     54  N   UNL A   1      41.320  29.783  33.550  1.00  0.00    -0.354 N 
ATOM     55  N   UNL A   1      39.113  30.924  32.077  1.00  0.00    -0.248 NA
ATOM     56  C   UNL A   1      37.216  32.275  31.969  1.00  0.00     0.031 C 
ATOM     57  C   UNL A   1      41.682  30.457  35.638  1.00  0.00     0.029 A 
ATOM     58  C   UNL A   1      40.846  30.624  34.548  1.00  0.00     0.049 A 
ATOM     59  H   UNL A   1      40.918  29.684  32.657  1.00  0.00     0.167 HD
ATOM     60  C   UNL A   1      38.944  31.577  33.293  1.00  0.00     0.074 A 
ATOM     61  C   UNL A   1      37.780  32.425  33.159  1.00  0.00     0.031 C 
ATOM     62  C   UNL A   1      39.695  31.480  34.418  1.00  0.00     0.037 A 
BRANCH  49  63
ATOM     63  C   UNL A   1      44.326  27.435  33.908  1.00  0.00     0.064 A 
ATOM     64  C   UNL A   1      45.624  27.965  33.853  1.00  0.00     0.173 A 
ATOM     65  C   UNL A   1      44.131  26.249  34.630  1.00  0.00     0.173 A 
ATOM     66  F   UNL A   1      45.865  29.091  33.164  1.00  0.00    -0.203 F 
ATOM     67  C   UNL A   1      46.690  27.313  34.466  1.00  0.00     0.198 A 
ATOM     68  C   UNL A   1      45.193  25.617  35.271  1.00  0.00     0.198 A 
ATOM     69  F   UNL A   1      42.908  25.705  34.721  1.00  0.00    -0.203 F 
ATOM     70  F   UNL A   1      47.931  27.806  34.351  1.00  0.00    -0.200 F 
ATOM     71  C   UNL A   1      46.473  26.144  35.179  1.00  0.00     0.200 A 
ATOM     72  F   UNL A   1      44.979  24.496  35.973  1.00  0.00    -0.200 F 
ATOM     73  F   UNL A   1      47.499  25.519  35.773  1.00  0.00    -0.200 F 
ENDBRANCH  49  63
BRANCH  50  74
ATOM     74  C   UNL A   1      36.681  31.621  29.178  1.00  0.00     0.064 A 
ATOM     75  C   UNL A   1      36.658  32.996  28.892  1.00  0.00     0.173 A 
ATOM     76  C   UNL A   1      35.534  30.879  28.860  1.00  0.00     0.173 A 
ATOM     77  F   UNL A   1      37.711  33.763  29.212  1.00  0.00    -0.203 F 
ATOM     78  C   UNL A   1      35.531  33.602  28.337  1.00  0.00     0.198 A 
ATOM     79  C   UNL A   1      34.421  31.479  28.275  1.00  0.00     0.198 A 
ATOM     80  F   UNL A   1      35.492  29.564  29.123  1.00  0.00    -0.203 F 
ATOM     81  F   UNL A   1      35.516  34.926  28.133  1.00  0.00    -0.200 F 
ATOM     82  C   UNL A   1      34.415  32.842  28.023  1.00  0.00     0.200 A 
ATOM     83  F   UNL A   1      33.347  30.738  27.966  1.00  0.00    -0.200 F 
ATOM     84  F   UNL A   1      33.331  33.424  27.492  1.00  0.00    -0.200 F 
ENDBRANCH  50  74
BRANCH  62  85
ATOM     85  C   UNL A   1      39.320  32.345  35.593  1.00  0.00     0.064 A 
ATOM     86  C   UNL A   1      39.785  33.663  35.726  1.00  0.00     0.173 A 
ATOM     87  C   UNL A   1      38.445  31.861  36.578  1.00  0.00     0.173 A 
ATOM     88  F   UNL A   1      40.634  34.173  34.821  1.00  0.00    -0.203 F 
ATOM     89  C   UNL A   1      39.410  34.451  36.813  1.00  0.00     0.198 A 
ATOM     90  C   UNL A   1      38.046  32.663  37.645  1.00  0.00     0.198 A 
ATOM     91  F   UNL A   1      37.963  30.611  36.501  1.00  0.00    -0.203 F 
ATOM     92  F   UNL A   1      39.907  35.689  36.942  1.00  0.00    -0.200 F 
ATOM     93  C   UNL A   1      38.534  33.954  37.765  1.00  0.00     0.200 A 
ATOM     94  F   UNL A   1      37.187  32.185  38.557  1.00  0.00    -0.200 F 
ATOM     95  F   UNL A   1      38.168  34.717  38.804  1.00  0.00    -0.200 F 
ENDBRANCH  62  85
ENDBRANCH  36  37
ENDBRANCH  29  31
ENDBRANCH  28  29
ENDBRANCH  27  28
ENDBRANCH  26  27
ENDBRANCH   1  26
TORSDOF 17
ENDMDL
MODEL 3
REMARK VINA RESULT:     -13.5      1.154      2.093
REMARK SMILES CO[C@H]1C[C@@H](C(=O)OCCOCCOC(=O)c2ccc(-c3c4nc(c(-c5c(F)c(F)c(F)c(F)c5F)c5ccc([nH]5)c(-c5c(F)c(F)c(F)c(F)c5F)c5nc(c(-c6c(F)c(F)c(F)c(F)c6F)c6ccc3[nH]6)C=C5)C=C4)cc2)N(C(=O)Nc2cc(C)cc(F)c2)C1
REMARK SMILES IDX 11 1 10 2 9 3 8 4 6 5 7 6 5 7 3 8 4 9 92 10 80 11 2 12 1 13
REMARK SMILES IDX 81 14 82 15 83 16 84 18 85 19 91 20 86 21 89 22 87 23 88 24
REMARK SMILES IDX 90 25 12 26 13 27 14 28 15 29 16 30 17 31 18 32 79 33 19 34
REMARK SMILES IDX 78 35 20 36 21 37 22 38 72 39 23 40 77 41 71 42 73 43 24 44
REMARK SMILES IDX 76 45 70 46 69 47 25 49 57 50 37 51 56 52 38 53 41 54 55 55
REMARK SMILES IDX 74 56 39 57 40 58 54 60 75 61 42 62 26 63 27 64 35 65 28 66
REMARK SMILES IDX 29 67 33 68 36 69 30 70 31 71 34 72 32 73 58 74 59 75 67 76
REMARK SMILES IDX 60 77 61 78 65 79 68 80 62 81 63 82 66 83 64 84 43 85 44 86
REMARK SMILES IDX 52 87 45 88 46 89 50 90 53 91 47 92 48 93 51 94 49 95
REMARK H PARENT 83 17 73 48 41 59
REMARK Flexibility Score: inf
ROOT
ATOM      1  O   UNL A   1      40.580  21.448  26.711  1.00  0.00    -0.374 OA
ENDROOT
BRANCH   1   2
ATOM      2  C   UNL A   1      39.234  21.453  26.122  1.00  0.00     0.202 C 
BRANCH   2   3
ATOM      3  C   UNL A   1      37.927  22.703  25.809  1.00  0.00     0.261 C 
BRANCH   3   4
ATOM      4  O   UNL A   1      35.927  22.368  25.517  1.00  0.00    -0.462 OA
BRANCH   4   5
ATOM      5  C   UNL A   1      34.542  22.613  25.921  1.00  0.00     0.329 C 
ATOM      6  O   UNL A   1      34.211  23.013  27.045  1.00  0.00    -0.250 OA
BRANCH   5   7
ATOM      7  C   UNL A   1      33.458  22.324  24.852  1.00  0.00     0.199 C 
ATOM      8  C   UNL A   1      33.081  22.921  22.439  1.00  0.00     0.140 C 
ATOM      9  C   UNL A   1      34.163  22.579  23.463  1.00  0.00     0.071 C 
ATOM     10  C   UNL A   1      31.792  22.728  23.213  1.00  0.00     0.154 C 
ATOM     11  N   UNL A   1      32.136  22.944  24.615  1.00  0.00    -0.308 N 
BRANCH   8  12
ATOM     12  O   UNL A   1      33.115  24.286  22.001  1.00  0.00    -0.380 OA
ATOM     13  C   UNL A   1      33.960  25.145  22.751  1.00  0.00     0.195 C 
ENDBRANCH   8  12
BRANCH  11  14
ATOM     14  C   UNL A   1      31.071  23.167  25.437  1.00  0.00     0.322 C 
ATOM     15  O   UNL A   1      30.583  22.265  26.124  1.00  0.00    -0.248 OA
ATOM     16  N   UNL A   1      30.458  24.372  25.506  1.00  0.00    -0.308 N 
ATOM     17  H   UNL A   1      29.529  24.396  25.827  1.00  0.00     0.171 HD
BRANCH  16  18
ATOM     18  C   UNL A   1      31.047  25.567  25.155  1.00  0.00     0.046 A 
ATOM     19  C   UNL A   1      30.048  26.511  24.016  1.00  0.00     0.029 A 
ATOM     20  C   UNL A   1      32.329  26.383  26.128  1.00  0.00     0.065 A 
ATOM     21  C   UNL A   1      30.231  28.253  23.873  1.00  0.00    -0.046 A 
ATOM     22  C   UNL A   1      32.482  28.230  25.931  1.00  0.00     0.125 A 
ATOM     23  C   UNL A   1      29.592  29.006  22.757  1.00  0.00     0.044 C 
ATOM     24  C   UNL A   1      31.403  29.129  24.834  1.00  0.00     0.042 A 
ATOM     25  F   UNL A   1      33.613  28.868  25.952  1.00  0.00    -0.207 F 
ENDBRANCH  16  18
ENDBRANCH  11  14
ENDBRANCH   5   7
ENDBRANCH   4   5
ENDBRANCH   3   4
ENDBRANCH   2   3
ENDBRANCH   1   2
BRANCH   1  26
ATOM     26  C   UNL A   1      41.919  21.064  26.270  1.00  0.00     0.202 C 
BRANCH  26  27
ATOM     27  C   UNL A   1      43.173  21.846  25.551  1.00  0.00     0.261 C 
BRANCH  27  28
ATOM     28  O   UNL A   1      43.067  22.969  24.618  1.00  0.00    -0.460 OA
BRANCH  28  29
ATOM     29  C   UNL A   1      43.732  24.099  24.975  1.00  0.00     0.338 C 
ATOM     30  O   UNL A   1      44.816  24.433  24.520  1.00  0.00    -0.246 OA
BRANCH  29  31
ATOM     31  C   UNL A   1      42.917  25.046  25.826  1.00  0.00     0.060 A 
ATOM     32  C   UNL A   1      43.567  26.222  26.239  1.00  0.00     0.016 A 
ATOM     33  C   UNL A   1      41.606  24.835  26.272  1.00  0.00     0.016 A 
ATOM     34  C   UNL A   1      42.966  27.131  27.131  1.00  0.00     0.010 A 
ATOM     35  C   UNL A   1      41.001  25.748  27.183  1.00  0.00     0.010 A 
ATOM     36  C   UNL A   1      41.691  26.886  27.659  1.00  0.00    -0.014 A 
BRANCH  36  37
ATOM     37  C   UNL A   1      41.213  27.688  28.844  1.00  0.00     0.031 A 
ATOM     38  C   UNL A   1      41.967  27.571  30.146  1.00  0.00     0.074 A 
ATOM     39  C   UNL A   1      40.193  28.574  28.800  1.00  0.00     0.049 A 
ATOM     40  N   UNL A   1      41.775  28.194  31.285  1.00  0.00    -0.248 NA
ATOM     41  C   UNL A   1      43.092  26.627  30.160  1.00  0.00     0.031 C 
ATOM     42  C   UNL A   1      39.385  28.850  27.625  1.00  0.00     0.029 A 
ATOM     43  N   UNL A   1      39.661  29.410  29.763  1.00  0.00    -0.354 N 
ATOM     44  C   UNL A   1      42.756  27.720  32.146  1.00  0.00     0.074 A 
ATOM     45  C   UNL A   1      43.513  26.728  31.411  1.00  0.00     0.031 C 
ATOM     46  C   UNL A   1      38.459  29.780  27.921  1.00  0.00     0.029 A 
ATOM     47  C   UNL A   1      38.588  30.158  29.329  1.00  0.00     0.049 A 
ATOM     48  H   UNL A   1      40.017  29.465  30.679  1.00  0.00     0.167 HD
ATOM     49  C   UNL A   1      43.020  28.079  33.426  1.00  0.00     0.037 A 
ATOM     50  C   UNL A   1      37.792  31.035  29.981  1.00  0.00     0.037 A 
ATOM     51  C   UNL A   1      42.278  29.051  34.186  1.00  0.00     0.049 A 
ATOM     52  C   UNL A   1      38.045  31.350  31.438  1.00  0.00     0.074 A 
ATOM     53  C   UNL A   1      42.494  29.474  35.487  1.00  0.00     0.029 A 
ATOM     54  N   UNL A   1      41.169  29.743  33.725  1.00  0.00    -0.354 N 
ATOM     55  N   UNL A   1      39.001  30.920  32.223  1.00  0.00    -0.248 NA
ATOM     56  C   UNL A   1      37.110  32.278  32.097  1.00  0.00     0.031 C 
ATOM     57  C   UNL A   1      41.481  30.371  35.836  1.00  0.00     0.029 A 
ATOM     58  C   UNL A   1      40.672  30.563  34.729  1.00  0.00     0.049 A 
ATOM     59  H   UNL A   1      40.789  29.664  32.821  1.00  0.00     0.167 HD
ATOM     60  C   UNL A   1      38.803  31.548  33.449  1.00  0.00     0.074 A 
ATOM     61  C   UNL A   1      37.645  32.401  33.304  1.00  0.00     0.031 C 
ATOM     62  C   UNL A   1      39.526  31.425  34.590  1.00  0.00     0.037 A 
BRANCH  49  63
ATOM     63  C   UNL A   1      44.161  27.380  34.108  1.00  0.00     0.064 A 
ATOM     64  C   UNL A   1      43.983  26.159  34.775  1.00  0.00     0.173 A 
ATOM     65  C   UNL A   1      45.451  27.930  34.075  1.00  0.00     0.173 A 
ATOM     66  F   UNL A   1      42.766  25.599  34.846  1.00  0.00    -0.203 F 
ATOM     67  C   UNL A   1      45.049  25.532  35.414  1.00  0.00     0.198 A 
ATOM     68  C   UNL A   1      46.521  27.282  34.685  1.00  0.00     0.198 A 
ATOM     69  F   UNL A   1      45.676  29.091  33.442  1.00  0.00    -0.203 F 
ATOM     70  F   UNL A   1      44.845  24.395  36.095  1.00  0.00    -0.200 F 
ATOM     71  C   UNL A   1      46.317  26.090  35.363  1.00  0.00     0.200 A 
ATOM     72  F   UNL A   1      47.749  27.815  34.621  1.00  0.00    -0.200 F 
ATOM     73  F   UNL A   1      47.344  25.483  35.975  1.00  0.00    -0.200 F 
ENDBRANCH  49  63
BRANCH  50  74
ATOM     74  C   UNL A   1      36.643  31.685  29.281  1.00  0.00     0.064 A 
ATOM     75  C   UNL A   1      36.638  33.063  29.008  1.00  0.00     0.173 A 
ATOM     76  C   UNL A   1      35.496  30.956  28.935  1.00  0.00     0.173 A 
ATOM     77  F   UNL A   1      37.692  33.817  29.354  1.00  0.00    -0.203 F 
ATOM     78  C   UNL A   1      35.527  33.685  28.438  1.00  0.00     0.198 A 
ATOM     79  C   UNL A   1      34.398  31.573  28.336  1.00  0.00     0.198 A 
ATOM     80  F   UNL A   1      35.437  29.640  29.184  1.00  0.00    -0.203 F 
ATOM     81  F   UNL A   1      35.528  35.011  28.246  1.00  0.00    -0.200 F 
ATOM     82  C   UNL A   1      34.410  32.938  28.097  1.00  0.00     0.200 A 
ATOM     83  F   UNL A   1      33.324  30.845  28.000  1.00  0.00    -0.200 F 
ATOM     84  F   UNL A   1      33.341  33.535  27.551  1.00  0.00    -0.200 F 
ENDBRANCH  50  74
BRANCH  62  85
ATOM     85  C   UNL A   1      39.124  32.266  35.773  1.00  0.00     0.064 A 
ATOM     86  C   UNL A   1      38.290  31.772  36.788  1.00  0.00     0.173 A 
ATOM     87  C   UNL A   1      39.619  33.572  35.914  1.00  0.00     0.173 A 
ATOM     88  F   UNL A   1      37.778  30.535  36.699  1.00  0.00    -0.203 F 
ATOM     89  C   UNL A   1      37.947  32.562  37.884  1.00  0.00     0.198 A 
ATOM     90  C   UNL A   1      39.300  34.347  37.027  1.00  0.00     0.198 A 
ATOM     91  F   UNL A   1      40.425  34.096  34.979  1.00  0.00    -0.203 F 
ATOM     92  F   UNL A   1      37.109  32.084  38.815  1.00  0.00    -0.200 F 
ATOM     93  C   UNL A   1      38.458  33.844  38.007  1.00  0.00     0.200 A 
ATOM     94  F   UNL A   1      39.809  35.581  37.151  1.00  0.00    -0.200 F 
ATOM     95  F   UNL A   1      38.134  34.599  39.066  1.00  0.00    -0.200 F 
ENDBRANCH  62  85
ENDBRANCH  36  37
ENDBRANCH  29  31
ENDBRANCH  28  29
ENDBRANCH  27  28
ENDBRANCH  26  27
ENDBRANCH   1  26
TORSDOF 17
ENDMDL
