MODEL 1
REMARK VINA RESULT:     -12.1      0.000      0.000
REMARK SMILES CCOc1ccc(C(=O)NC(=S)Nc2cccc(C(=O)OCCOCCOC(=O)c3ccc(-c4c5nc(c(-c6c(F)c(F)c(F)c(F)c6F)c6ccc([nH]6)c(-c6c(F)c(F)c(F)c(F)c6F)c6nc(c(-c7c(F)c(F)c(F)c(F)c7F)c7ccc4[nH]7)C=C6)C=C5)cc3)c2C)cc1Br
REMARK SMILES IDX 22 1 21 2 19 3 20 4 18 5 14 6 15 7 93 8 16 9 94 10 17 11
REMARK SMILES IDX 13 12 11 14 12 15 10 16 8 17 9 18 7 20 4 21 5 22 96 23 6 24
REMARK SMILES IDX 95 25 97 26 3 27 2 28 1 29 23 30 24 31 25 32 26 33 27 34
REMARK SMILES IDX 28 35 29 36 30 37 31 38 92 39 32 40 91 41 33 42 34 43 35 44
REMARK SMILES IDX 85 45 36 46 90 47 84 48 86 49 37 50 89 51 83 52 82 53 38 55
REMARK SMILES IDX 70 56 50 57 69 58 51 59 54 60 68 61 87 62 52 63 53 64 67 66
REMARK SMILES IDX 88 67 55 68 39 69 40 70 48 71 41 72 42 73 46 74 49 75 43 76
REMARK SMILES IDX 44 77 47 78 45 79 71 80 72 81 80 82 73 83 74 84 78 85 81 86
REMARK SMILES IDX 75 87 76 88 79 89 77 90 56 91 57 92 65 93 58 94 59 95 63 96
REMARK SMILES IDX 66 97 60 98 61 99 64 100 62 101
REMARK H PARENT 13 13 10 19 86 54 54 65
REMARK Flexibility Score: inf
ROOT
ATOM      1  C   UNL A   1      33.927  34.937  28.360  1.00  0.00     0.261 C 
ENDROOT
BRANCH   1   2
ATOM      2  O   UNL A   1      33.543  33.574  27.980  1.00  0.00    -0.460 OA
BRANCH   2   3
ATOM      3  C   UNL A   1      32.474  32.962  27.387  1.00  0.00     0.338 C 
ATOM      4  O   UNL A   1      31.424  33.399  26.972  1.00  0.00    -0.246 OA
BRANCH   3   5
ATOM      5  C   UNL A   1      32.946  31.563  27.213  1.00  0.00     0.065 A 
ATOM      6  C   UNL A   1      33.412  28.791  25.784  1.00  0.00     0.044 A 
ATOM      7  C   UNL A   1      34.975  28.451  26.570  1.00  0.00     0.026 A 
ATOM      8  C   UNL A   1      32.498  30.356  25.989  1.00  0.00    -0.013 A 
ATOM      9  C   UNL A   1      35.559  29.636  27.729  1.00  0.00     0.003 A 
ATOM     10  C   UNL A   1      31.237  30.600  25.216  1.00  0.00     0.047 C 
ATOM     11  C   UNL A   1      34.404  31.234  28.168  1.00  0.00     0.016 A 
BRANCH   6  12
ATOM     12  N   UNL A   1      32.621  27.632  26.008  1.00  0.00    -0.332 N 
ATOM     13  H   UNL A   1      32.382  27.432  26.942  1.00  0.00     0.169 HD
BRANCH  12  14
ATOM     14  C   UNL A   1      32.150  26.754  25.045  1.00  0.00     0.177 C 
ATOM     15  S   UNL A   1      30.831  25.812  25.477  1.00  0.00    -0.040 S 
BRANCH  14  16
ATOM     16  N   UNL A   1      32.728  26.534  23.716  1.00  0.00    -0.299 N 
ATOM     17  C   UNL A   1      33.418  25.731  22.594  1.00  0.00     0.257 C 
ATOM     18  O   UNL A   1      33.687  26.303  21.541  1.00  0.00    -0.269 OA
ATOM     19  H   UNL A   1      32.602  27.413  23.290  1.00  0.00     0.172 HD
BRANCH  17  20
ATOM     20  C   UNL A   1      33.839  24.281  22.780  1.00  0.00     0.041 A 
ATOM     21  C   UNL A   1      33.443  21.523  25.331  1.00  0.00     0.133 A 
ATOM     22  C   UNL A   1      35.032  22.258  24.934  1.00  0.00     0.048 A 
ATOM     23  C   UNL A   1      32.006  22.166  24.488  1.00  0.00     0.060 A 
ATOM     24  C   UNL A   1      35.212  23.619  23.722  1.00  0.00     0.018 A 
ATOM     25  C   UNL A   1      32.318  23.539  23.039  1.00  0.00     0.033 A 
ATOM     26  Br  UNL A   1      30.618  22.268  26.249  1.00  0.00    -0.047 Br
BRANCH  21  27
ATOM     27  O   UNL A   1      33.241  20.352  26.040  1.00  0.00    -0.493 OA
BRANCH  27  28
ATOM     28  C   UNL A   1      33.225  19.155  25.199  1.00  0.00     0.226 C 
ATOM     29  C   UNL A   1      32.638  17.808  25.635  1.00  0.00     0.049 C 
ENDBRANCH  27  28
ENDBRANCH  21  27
ENDBRANCH  17  20
ENDBRANCH  14  16
ENDBRANCH  12  14
ENDBRANCH   6  12
ENDBRANCH   3   5
ENDBRANCH   2   3
ENDBRANCH   1   2
BRANCH   1  30
ATOM     30  C   UNL A   1      32.921  35.698  29.138  1.00  0.00     0.202 C 
BRANCH  30  31
ATOM     31  O   UNL A   1      33.710  36.489  29.982  1.00  0.00    -0.374 OA
BRANCH  31  32
ATOM     32  C   UNL A   1      33.234  37.018  31.185  1.00  0.00     0.202 C 
BRANCH  32  33
ATOM     33  C   UNL A   1      33.770  36.335  32.428  1.00  0.00     0.261 C 
BRANCH  33  34
ATOM     34  O   UNL A   1      34.685  35.263  32.046  1.00  0.00    -0.460 OA
BRANCH  34  35
ATOM     35  C   UNL A   1      34.305  33.956  32.215  1.00  0.00     0.338 C 
ATOM     36  O   UNL A   1      33.448  33.599  33.006  1.00  0.00    -0.246 OA
BRANCH  35  37
ATOM     37  C   UNL A   1      35.170  32.989  31.439  1.00  0.00     0.060 A 
ATOM     38  C   UNL A   1      35.259  31.625  31.784  1.00  0.00     0.016 A 
ATOM     39  C   UNL A   1      36.193  33.524  30.700  1.00  0.00     0.016 A 
ATOM     40  C   UNL A   1      36.481  30.912  31.640  1.00  0.00     0.010 A 
ATOM     41  C   UNL A   1      37.428  32.928  30.875  1.00  0.00     0.010 A 
ATOM     42  C   UNL A   1      37.633  31.619  31.335  1.00  0.00    -0.014 A 
BRANCH  42  43
ATOM     43  C   UNL A   1      39.063  31.193  31.406  1.00  0.00     0.031 A 
ATOM     44  C   UNL A   1      39.366  30.044  30.478  1.00  0.00     0.074 A 
ATOM     45  C   UNL A   1      40.083  31.790  32.117  1.00  0.00     0.049 A 
ATOM     46  N   UNL A   1      40.136  29.059  30.796  1.00  0.00    -0.248 NA
ATOM     47  C   UNL A   1      38.700  29.773  29.186  1.00  0.00     0.031 C 
ATOM     48  C   UNL A   1      41.541  31.674  31.909  1.00  0.00     0.029 A 
ATOM     49  N   UNL A   1      40.068  32.764  33.150  1.00  0.00    -0.354 N 
ATOM     50  C   UNL A   1      40.353  28.347  29.628  1.00  0.00     0.074 A 
ATOM     51  C   UNL A   1      39.239  28.624  28.795  1.00  0.00     0.031 C 
ATOM     52  C   UNL A   1      42.219  32.232  32.938  1.00  0.00     0.029 A 
ATOM     53  C   UNL A   1      41.245  32.679  33.913  1.00  0.00     0.049 A 
ATOM     54  H   UNL A   1      39.340  33.408  33.308  1.00  0.00     0.167 HD
ATOM     55  C   UNL A   1      41.594  27.858  29.365  1.00  0.00     0.037 A 
ATOM     56  C   UNL A   1      41.219  32.483  35.260  1.00  0.00     0.037 A 
ATOM     57  C   UNL A   1      42.483  28.263  30.447  1.00  0.00     0.049 A 
ATOM     58  C   UNL A   1      41.789  31.121  35.494  1.00  0.00     0.074 A 
ATOM     59  C   UNL A   1      43.476  29.221  30.544  1.00  0.00     0.029 A 
ATOM     60  N   UNL A   1      42.157  27.899  31.742  1.00  0.00    -0.354 N 
ATOM     61  N   UNL A   1      41.747  30.206  34.564  1.00  0.00    -0.248 NA
ATOM     62  C   UNL A   1      42.559  30.714  36.662  1.00  0.00     0.031 C 
ATOM     63  C   UNL A   1      43.783  29.377  31.925  1.00  0.00     0.029 A 
ATOM     64  C   UNL A   1      42.956  28.536  32.656  1.00  0.00     0.049 A 
ATOM     65  H   UNL A   1      41.442  27.263  31.976  1.00  0.00     0.167 HD
ATOM     66  C   UNL A   1      42.564  29.183  34.918  1.00  0.00     0.074 A 
ATOM     67  C   UNL A   1      43.008  29.511  36.258  1.00  0.00     0.031 C 
ATOM     68  C   UNL A   1      42.861  28.172  34.057  1.00  0.00     0.037 A 
BRANCH  55  69
ATOM     69  C   UNL A   1      42.117  27.263  28.071  1.00  0.00     0.064 A 
ATOM     70  C   UNL A   1      42.554  25.919  28.075  1.00  0.00     0.173 A 
ATOM     71  C   UNL A   1      42.217  27.895  26.813  1.00  0.00     0.173 A 
ATOM     72  F   UNL A   1      42.472  25.159  29.175  1.00  0.00    -0.203 F 
ATOM     73  C   UNL A   1      43.076  25.283  26.948  1.00  0.00     0.198 A 
ATOM     74  C   UNL A   1      42.738  27.256  25.680  1.00  0.00     0.198 A 
ATOM     75  F   UNL A   1      41.801  29.141  26.590  1.00  0.00    -0.203 F 
ATOM     76  F   UNL A   1      43.482  24.009  27.037  1.00  0.00    -0.200 F 
ATOM     77  C   UNL A   1      43.169  25.951  25.748  1.00  0.00     0.200 A 
ATOM     78  F   UNL A   1      42.807  27.921  24.518  1.00  0.00    -0.200 F 
ATOM     79  F   UNL A   1      43.654  25.338  24.662  1.00  0.00    -0.200 F 
ENDBRANCH  55  69
BRANCH  56  80
ATOM     80  C   UNL A   1      40.023  33.135  35.879  1.00  0.00     0.064 A 
ATOM     81  C   UNL A   1      39.001  32.255  36.304  1.00  0.00     0.173 A 
ATOM     82  C   UNL A   1      40.172  34.335  36.592  1.00  0.00     0.173 A 
ATOM     83  F   UNL A   1      38.786  31.106  35.642  1.00  0.00    -0.203 F 
ATOM     84  C   UNL A   1      38.340  32.449  37.518  1.00  0.00     0.198 A 
ATOM     85  C   UNL A   1      39.501  34.523  37.805  1.00  0.00     0.198 A 
ATOM     86  F   UNL A   1      41.118  35.215  36.237  1.00  0.00    -0.203 F 
ATOM     87  F   UNL A   1      37.528  31.494  37.999  1.00  0.00    -0.200 F 
ATOM     88  C   UNL A   1      38.641  33.551  38.296  1.00  0.00     0.200 A 
ATOM     89  F   UNL A   1      39.784  35.588  38.569  1.00  0.00    -0.200 F 
ATOM     90  F   UNL A   1      38.176  33.633  39.552  1.00  0.00    -0.200 F 
ENDBRANCH  56  80
BRANCH  68  91
ATOM     91  C   UNL A   1      43.171  26.765  34.481  1.00  0.00     0.064 A 
ATOM     92  C   UNL A   1      44.478  26.290  34.654  1.00  0.00     0.173 A 
ATOM     93  C   UNL A   1      42.145  25.873  34.886  1.00  0.00     0.173 A 
ATOM     94  F   UNL A   1      45.546  27.085  34.514  1.00  0.00    -0.203 F 
ATOM     95  C   UNL A   1      44.737  24.980  35.043  1.00  0.00     0.198 A 
ATOM     96  C   UNL A   1      42.413  24.601  35.372  1.00  0.00     0.198 A 
ATOM     97  F   UNL A   1      40.847  26.202  34.866  1.00  0.00    -0.203 F 
ATOM     98  F   UNL A   1      46.004  24.549  35.085  1.00  0.00    -0.200 F 
ATOM     99  C   UNL A   1      43.707  24.136  35.403  1.00  0.00     0.200 A 
ATOM    100  F   UNL A   1      41.405  23.839  35.818  1.00  0.00    -0.200 F 
ATOM    101  F   UNL A   1      43.962  22.886  35.804  1.00  0.00    -0.200 F 
ENDBRANCH  68  91
ENDBRANCH  42  43
ENDBRANCH  35  37
ENDBRANCH  34  35
ENDBRANCH  33  34
ENDBRANCH  32  33
ENDBRANCH  31  32
ENDBRANCH  30  31
ENDBRANCH   1  30
TORSDOF 20
ENDMDL
MODEL 2
REMARK VINA RESULT:     -12.0      1.731      2.556
REMARK SMILES CCOc1ccc(C(=O)NC(=S)Nc2cccc(C(=O)OCCOCCOC(=O)c3ccc(-c4c5nc(c(-c6c(F)c(F)c(F)c(F)c6F)c6ccc([nH]6)c(-c6c(F)c(F)c(F)c(F)c6F)c6nc(c(-c7c(F)c(F)c(F)c(F)c7F)c7ccc4[nH]7)C=C6)C=C5)cc3)c2C)cc1Br
REMARK SMILES IDX 22 1 21 2 19 3 20 4 18 5 14 6 15 7 93 8 16 9 94 10 17 11
REMARK SMILES IDX 13 12 11 14 12 15 10 16 8 17 9 18 7 20 4 21 5 22 96 23 6 24
REMARK SMILES IDX 95 25 97 26 3 27 2 28 1 29 23 30 24 31 25 32 26 33 27 34
REMARK SMILES IDX 28 35 29 36 30 37 31 38 92 39 32 40 91 41 33 42 34 43 35 44
REMARK SMILES IDX 85 45 36 46 90 47 84 48 86 49 37 50 89 51 83 52 82 53 38 55
REMARK SMILES IDX 70 56 50 57 69 58 51 59 54 60 68 61 87 62 52 63 53 64 67 66
REMARK SMILES IDX 88 67 55 68 39 69 40 70 48 71 41 72 42 73 46 74 49 75 43 76
REMARK SMILES IDX 44 77 47 78 45 79 71 80 72 81 80 82 73 83 74 84 78 85 81 86
REMARK SMILES IDX 75 87 76 88 79 89 77 90 56 91 57 92 65 93 58 94 59 95 63 96
REMARK SMILES IDX 66 97 60 98 61 99 64 100 62 101
REMARK H PARENT 13 13 10 19 86 54 54 65
REMARK Flexibility Score: inf
ROOT
ATOM      1  C   UNL A   1      32.489  35.713  30.644  1.00  0.00     0.261 C 
ENDROOT
BRANCH   1   2
ATOM      2  O   UNL A   1      32.886  34.738  29.624  1.00  0.00    -0.460 OA
BRANCH   2   3
ATOM      3  C   UNL A   1      33.780  34.674  28.593  1.00  0.00     0.338 C 
ATOM      4  O   UNL A   1      34.409  35.533  28.016  1.00  0.00    -0.246 OA
BRANCH   3   5
ATOM      5  C   UNL A   1      33.948  33.211  28.388  1.00  0.00     0.065 A 
ATOM      6  C   UNL A   1      33.649  30.401  26.989  1.00  0.00     0.044 A 
ATOM      7  C   UNL A   1      35.228  29.771  27.522  1.00  0.00     0.026 A 
ATOM      8  C   UNL A   1      33.087  32.110  27.290  1.00  0.00    -0.013 A 
ATOM      9  C   UNL A   1      36.205  30.825  28.535  1.00  0.00     0.003 A 
ATOM     10  C   UNL A   1      31.784  32.588  26.723  1.00  0.00     0.047 C 
ATOM     11  C   UNL A   1      35.456  32.612  29.105  1.00  0.00     0.016 A 
BRANCH   6  12
ATOM     12  N   UNL A   1      32.702  29.412  27.373  1.00  0.00    -0.332 N 
ATOM     13  H   UNL A   1      32.566  29.281  28.339  1.00  0.00     0.169 HD
BRANCH  12  14
ATOM     14  C   UNL A   1      31.952  28.612  26.525  1.00  0.00     0.177 C 
ATOM     15  S   UNL A   1      31.987  26.964  26.832  1.00  0.00    -0.040 S 
BRANCH  14  16
ATOM     16  N   UNL A   1      31.183  29.065  25.362  1.00  0.00    -0.299 N 
ATOM     17  C   UNL A   1      30.686  29.033  23.902  1.00  0.00     0.257 C 
ATOM     18  O   UNL A   1      29.924  29.918  23.522  1.00  0.00    -0.269 OA
ATOM     19  H   UNL A   1      30.703  29.844  25.724  1.00  0.00     0.172 HD
BRANCH  17  20
ATOM     20  C   UNL A   1      31.167  27.988  22.907  1.00  0.00     0.041 A 
ATOM     21  C   UNL A   1      32.586  24.487  22.942  1.00  0.00     0.133 A 
ATOM     22  C   UNL A   1      33.522  25.909  22.375  1.00  0.00     0.048 A 
ATOM     23  C   UNL A   1      30.927  24.780  23.536  1.00  0.00     0.060 A 
ATOM     24  C   UNL A   1      32.840  27.609  22.393  1.00  0.00     0.018 A 
ATOM     25  C   UNL A   1      30.192  26.653  23.353  1.00  0.00     0.033 A 
ATOM     26  Br  UNL A   1      31.000  23.468  25.355  1.00  0.00    -0.047 Br
BRANCH  21  27
ATOM     27  O   UNL A   1      32.920  23.159  22.745  1.00  0.00    -0.493 OA
BRANCH  27  28
ATOM     28  C   UNL A   1      34.025  22.703  23.588  1.00  0.00     0.226 C 
ATOM     29  C   UNL A   1      35.453  23.252  23.505  1.00  0.00     0.049 C 
ENDBRANCH  27  28
ENDBRANCH  21  27
ENDBRANCH  17  20
ENDBRANCH  14  16
ENDBRANCH  12  14
ENDBRANCH   6  12
ENDBRANCH   3   5
ENDBRANCH   2   3
ENDBRANCH   1   2
BRANCH   1  30
ATOM     30  C   UNL A   1      33.198  37.013  30.604  1.00  0.00     0.202 C 
BRANCH  30  31
ATOM     31  O   UNL A   1      33.030  37.503  31.905  1.00  0.00    -0.374 OA
BRANCH  31  32
ATOM     32  C   UNL A   1      34.036  37.435  32.874  1.00  0.00     0.202 C 
BRANCH  32  33
ATOM     33  C   UNL A   1      34.244  36.056  33.468  1.00  0.00     0.261 C 
BRANCH  33  34
ATOM     34  O   UNL A   1      35.189  35.303  32.647  1.00  0.00    -0.460 OA
BRANCH  34  35
ATOM     35  C   UNL A   1      36.239  34.655  33.246  1.00  0.00     0.338 C 
ATOM     36  O   UNL A   1      36.719  34.991  34.316  1.00  0.00    -0.246 OA
BRANCH  35  37
ATOM     37  C   UNL A   1      36.844  33.583  32.368  1.00  0.00     0.060 A 
ATOM     38  C   UNL A   1      36.769  32.215  32.701  1.00  0.00     0.016 A 
ATOM     39  C   UNL A   1      37.834  33.971  31.504  1.00  0.00     0.016 A 
ATOM     40  C   UNL A   1      37.841  31.330  32.405  1.00  0.00     0.010 A 
ATOM     41  C   UNL A   1      38.978  33.194  31.522  1.00  0.00     0.010 A 
ATOM     42  C   UNL A   1      39.039  31.862  31.955  1.00  0.00    -0.014 A 
BRANCH  42  43
ATOM     43  C   UNL A   1      40.386  31.224  31.844  1.00  0.00     0.031 A 
ATOM     44  C   UNL A   1      40.397  30.071  30.873  1.00  0.00     0.074 A 
ATOM     45  C   UNL A   1      41.562  31.641  32.431  1.00  0.00     0.049 A 
ATOM     46  N   UNL A   1      41.041  28.974  31.082  1.00  0.00    -0.248 NA
ATOM     47  C   UNL A   1      39.547  29.941  29.670  1.00  0.00     0.031 C 
ATOM     48  C   UNL A   1      42.950  31.315  32.044  1.00  0.00     0.029 A 
ATOM     49  N   UNL A   1      41.820  32.575  33.469  1.00  0.00    -0.354 N 
ATOM     50  C   UNL A   1      41.006  28.272  29.888  1.00  0.00     0.074 A 
ATOM     51  C   UNL A   1      39.854  28.737  29.202  1.00  0.00     0.031 C 
ATOM     52  C   UNL A   1      43.823  31.734  32.988  1.00  0.00     0.029 A 
ATOM     53  C   UNL A   1      43.053  32.293  34.080  1.00  0.00     0.049 A 
ATOM     54  H   UNL A   1      41.222  33.315  33.723  1.00  0.00     0.167 HD
ATOM     55  C   UNL A   1      42.117  27.612  29.470  1.00  0.00     0.037 A 
ATOM     56  C   UNL A   1      43.159  32.061  35.418  1.00  0.00     0.037 A 
ATOM     57  C   UNL A   1      43.181  27.846  30.438  1.00  0.00     0.049 A 
ATOM     58  C   UNL A   1      43.539  30.624  35.565  1.00  0.00     0.074 A 
ATOM     59  C   UNL A   1      44.312  28.642  30.424  1.00  0.00     0.029 A 
ATOM     60  N   UNL A   1      42.961  27.497  31.759  1.00  0.00    -0.354 N 
ATOM     61  N   UNL A   1      43.247  29.753  34.636  1.00  0.00    -0.248 NA
ATOM     62  C   UNL A   1      44.373  30.071  36.625  1.00  0.00     0.031 C 
ATOM     63  C   UNL A   1      44.803  28.709  31.758  1.00  0.00     0.029 A 
ATOM     64  C   UNL A   1      43.951  27.980  32.575  1.00  0.00     0.049 A 
ATOM     65  H   UNL A   1      42.191  26.968  32.072  1.00  0.00     0.167 HD
ATOM     66  C   UNL A   1      43.936  28.610  34.875  1.00  0.00     0.074 A 
ATOM     67  C   UNL A   1      44.583  28.828  36.154  1.00  0.00     0.031 C 
ATOM     68  C   UNL A   1      43.971  27.592  33.973  1.00  0.00     0.037 A 
BRANCH  55  69
ATOM     69  C   UNL A   1      42.385  26.984  28.114  1.00  0.00     0.064 A 
ATOM     70  C   UNL A   1      42.531  25.580  28.037  1.00  0.00     0.173 A 
ATOM     71  C   UNL A   1      42.498  27.641  26.870  1.00  0.00     0.173 A 
ATOM     72  F   UNL A   1      42.394  24.802  29.119  1.00  0.00    -0.203 F 
ATOM     73  C   UNL A   1      42.805  24.905  26.847  1.00  0.00     0.198 A 
ATOM     74  C   UNL A   1      42.769  26.963  25.674  1.00  0.00     0.198 A 
ATOM     75  F   UNL A   1      42.332  28.955  26.724  1.00  0.00    -0.203 F 
ATOM     76  F   UNL A   1      42.943  23.573  26.861  1.00  0.00    -0.200 F 
ATOM     77  C   UNL A   1      42.925  25.596  25.663  1.00  0.00     0.200 A 
ATOM     78  F   UNL A   1      42.869  27.655  24.529  1.00  0.00    -0.200 F 
ATOM     79  F   UNL A   1      43.170  24.949  24.518  1.00  0.00    -0.200 F 
ENDBRANCH  55  69
BRANCH  56  80
ATOM     80  C   UNL A   1      42.159  32.866  36.187  1.00  0.00     0.064 A 
ATOM     81  C   UNL A   1      42.466  34.238  36.337  1.00  0.00     0.173 A 
ATOM     82  C   UNL A   1      40.800  32.515  36.148  1.00  0.00     0.173 A 
ATOM     83  F   UNL A   1      43.747  34.634  36.416  1.00  0.00    -0.203 F 
ATOM     84  C   UNL A   1      41.482  35.217  36.201  1.00  0.00     0.198 A 
ATOM     85  C   UNL A   1      39.819  33.504  36.018  1.00  0.00     0.198 A 
ATOM     86  F   UNL A   1      40.441  31.231  36.013  1.00  0.00    -0.203 F 
ATOM     87  F   UNL A   1      41.828  36.513  36.137  1.00  0.00    -0.200 F 
ATOM     88  C   UNL A   1      40.169  34.846  35.977  1.00  0.00     0.200 A 
ATOM     89  F   UNL A   1      38.543  33.156  35.799  1.00  0.00    -0.200 F 
ATOM     90  F   UNL A   1      39.260  35.770  35.631  1.00  0.00    -0.200 F 
ENDBRANCH  56  80
BRANCH  68  91
ATOM     91  C   UNL A   1      44.112  26.143  34.339  1.00  0.00     0.064 A 
ATOM     92  C   UNL A   1      45.353  25.504  34.465  1.00  0.00     0.173 A 
ATOM     93  C   UNL A   1      42.991  25.368  34.737  1.00  0.00     0.173 A 
ATOM     94  F   UNL A   1      46.508  26.166  34.327  1.00  0.00    -0.203 F 
ATOM     95  C   UNL A   1      45.455  24.158  34.800  1.00  0.00     0.198 A 
ATOM     96  C   UNL A   1      43.108  24.056  35.171  1.00  0.00     0.198 A 
ATOM     97  F   UNL A   1      41.744  25.856  34.760  1.00  0.00    -0.203 F 
ATOM     98  F   UNL A   1      46.660  23.573  34.797  1.00  0.00    -0.200 F 
ATOM     99  C   UNL A   1      44.335  23.434  35.155  1.00  0.00     0.200 A 
ATOM    100  F   UNL A   1      42.022  23.407  35.614  1.00  0.00    -0.200 F 
ATOM    101  F   UNL A   1      44.442  22.148  35.505  1.00  0.00    -0.200 F 
ENDBRANCH  68  91
ENDBRANCH  42  43
ENDBRANCH  35  37
ENDBRANCH  34  35
ENDBRANCH  33  34
ENDBRANCH  32  33
ENDBRANCH  31  32
ENDBRANCH  30  31
ENDBRANCH   1  30
TORSDOF 20
ENDMDL
MODEL 3
REMARK VINA RESULT:     -11.3      1.588      2.069
REMARK SMILES CCOc1ccc(C(=O)NC(=S)Nc2cccc(C(=O)OCCOCCOC(=O)c3ccc(-c4c5nc(c(-c6c(F)c(F)c(F)c(F)c6F)c6ccc([nH]6)c(-c6c(F)c(F)c(F)c(F)c6F)c6nc(c(-c7c(F)c(F)c(F)c(F)c7F)c7ccc4[nH]7)C=C6)C=C5)cc3)c2C)cc1Br
REMARK SMILES IDX 22 1 21 2 19 3 20 4 18 5 14 6 15 7 93 8 16 9 94 10 17 11
REMARK SMILES IDX 13 12 11 14 12 15 10 16 8 17 9 18 7 20 4 21 5 22 96 23 6 24
REMARK SMILES IDX 95 25 97 26 3 27 2 28 1 29 23 30 24 31 25 32 26 33 27 34
REMARK SMILES IDX 28 35 29 36 30 37 31 38 92 39 32 40 91 41 33 42 34 43 35 44
REMARK SMILES IDX 85 45 36 46 90 47 84 48 86 49 37 50 89 51 83 52 82 53 38 55
REMARK SMILES IDX 70 56 50 57 69 58 51 59 54 60 68 61 87 62 52 63 53 64 67 66
REMARK SMILES IDX 88 67 55 68 39 69 40 70 48 71 41 72 42 73 46 74 49 75 43 76
REMARK SMILES IDX 44 77 47 78 45 79 71 80 72 81 80 82 73 83 74 84 78 85 81 86
REMARK SMILES IDX 75 87 76 88 79 89 77 90 56 91 57 92 65 93 58 94 59 95 63 96
REMARK SMILES IDX 66 97 60 98 61 99 64 100 62 101
REMARK H PARENT 13 13 10 19 86 54 54 65
REMARK Flexibility Score: inf
ROOT
ATOM      1  C   UNL A   1      33.978  33.948  28.156  1.00  0.00     0.261 C 
ENDROOT
BRANCH   1   2
ATOM      2  O   UNL A   1      33.443  32.796  27.426  1.00  0.00    -0.460 OA
BRANCH   2   3
ATOM      3  C   UNL A   1      32.218  32.350  27.015  1.00  0.00     0.338 C 
ATOM      4  O   UNL A   1      31.178  32.934  26.801  1.00  0.00    -0.246 OA
BRANCH   3   5
ATOM      5  C   UNL A   1      32.465  30.913  26.728  1.00  0.00     0.065 A 
ATOM      6  C   UNL A   1      32.515  28.227  25.076  1.00  0.00     0.044 A 
ATOM      7  C   UNL A   1      33.987  27.579  25.842  1.00  0.00     0.026 A 
ATOM      8  C   UNL A   1      31.856  29.896  25.404  1.00  0.00    -0.013 A 
ATOM      9  C   UNL A   1      34.727  28.557  27.101  1.00  0.00     0.003 A 
ATOM     10  C   UNL A   1      30.666  30.401  24.644  1.00  0.00     0.047 C 
ATOM     11  C   UNL A   1      33.832  30.278  27.663  1.00  0.00     0.016 A 
BRANCH   6  12
ATOM     12  N   UNL A   1      31.545  27.196  25.196  1.00  0.00    -0.332 N 
ATOM     13  H   UNL A   1      31.145  27.065  26.086  1.00  0.00     0.169 HD
BRANCH  12  14
ATOM     14  C   UNL A   1      31.104  26.354  24.186  1.00  0.00     0.177 C 
ATOM     15  S   UNL A   1      29.443  26.259  23.968  1.00  0.00    -0.040 S 
BRANCH  14  16
ATOM     16  N   UNL A   1      31.944  25.504  23.338  1.00  0.00    -0.299 N 
ATOM     17  C   UNL A   1      32.512  24.177  22.794  1.00  0.00     0.257 C 
ATOM     18  O   UNL A   1      33.393  24.220  21.940  1.00  0.00    -0.269 OA
ATOM     19  H   UNL A   1      32.432  26.170  22.800  1.00  0.00     0.172 HD
BRANCH  17  20
ATOM     20  C   UNL A   1      32.068  22.826  23.335  1.00  0.00     0.041 A 
ATOM     21  C   UNL A   1      33.594  19.476  24.182  1.00  0.00     0.133 A 
ATOM     22  C   UNL A   1      32.394  19.691  22.866  1.00  0.00     0.048 A 
ATOM     23  C   UNL A   1      34.088  20.932  25.091  1.00  0.00     0.060 A 
ATOM     24  C   UNL A   1      31.683  21.324  22.438  1.00  0.00     0.018 A 
ATOM     25  C   UNL A   1      33.123  22.658  24.673  1.00  0.00     0.033 A 
ATOM     26  Br  UNL A   1      36.296  20.535  25.161  1.00  0.00    -0.047 Br
BRANCH  21  27
ATOM     27  O   UNL A   1      33.998  18.271  24.728  1.00  0.00    -0.493 OA
BRANCH  27  28
ATOM     28  C   UNL A   1      32.887  17.408  25.128  1.00  0.00     0.226 C 
ATOM     29  C   UNL A   1      32.964  15.878  25.182  1.00  0.00     0.049 C 
ENDBRANCH  27  28
ENDBRANCH  21  27
ENDBRANCH  17  20
ENDBRANCH  14  16
ENDBRANCH  12  14
ENDBRANCH   6  12
ENDBRANCH   3   5
ENDBRANCH   2   3
ENDBRANCH   1   2
BRANCH   1  30
ATOM     30  C   UNL A   1      32.975  34.917  28.657  1.00  0.00     0.202 C 
BRANCH  30  31
ATOM     31  O   UNL A   1      33.719  35.711  29.540  1.00  0.00    -0.374 OA
BRANCH  31  32
ATOM     32  C   UNL A   1      33.230  36.905  30.078  1.00  0.00     0.202 C 
BRANCH  32  33
ATOM     33  C   UNL A   1      33.223  36.954  31.593  1.00  0.00     0.261 C 
BRANCH  33  34
ATOM     34  O   UNL A   1      34.523  36.529  32.107  1.00  0.00    -0.460 OA
BRANCH  34  35
ATOM     35  C   UNL A   1      34.581  35.713  33.208  1.00  0.00     0.338 C 
ATOM     36  O   UNL A   1      34.372  36.099  34.346  1.00  0.00    -0.246 OA
BRANCH  35  37
ATOM     37  C   UNL A   1      35.090  34.327  32.884  1.00  0.00     0.060 A 
ATOM     38  C   UNL A   1      35.365  33.379  33.891  1.00  0.00     0.016 A 
ATOM     39  C   UNL A   1      35.699  34.155  31.669  1.00  0.00     0.016 A 
ATOM     40  C   UNL A   1      36.448  32.467  33.761  1.00  0.00     0.010 A 
ATOM     41  C   UNL A   1      36.920  33.508  31.701  1.00  0.00     0.010 A 
ATOM     42  C   UNL A   1      37.346  32.643  32.721  1.00  0.00    -0.014 A 
BRANCH  42  43
ATOM     43  C   UNL A   1      38.695  32.037  32.510  1.00  0.00     0.031 A 
ATOM     44  C   UNL A   1      38.657  30.863  31.564  1.00  0.00     0.074 A 
ATOM     45  C   UNL A   1      39.905  32.495  32.988  1.00  0.00     0.049 A 
ATOM     46  N   UNL A   1      39.344  29.787  31.741  1.00  0.00    -0.248 NA
ATOM     47  C   UNL A   1      37.713  30.686  30.439  1.00  0.00     0.031 C 
ATOM     48  C   UNL A   1      41.264  32.195  32.492  1.00  0.00     0.029 A 
ATOM     49  N   UNL A   1      40.223  33.458  33.982  1.00  0.00    -0.354 N 
ATOM     50  C   UNL A   1      39.228  29.059  30.568  1.00  0.00     0.074 A 
ATOM     51  C   UNL A   1      38.012  29.480  29.972  1.00  0.00     0.031 C 
ATOM     52  C   UNL A   1      42.202  32.656  33.352  1.00  0.00     0.029 A 
ATOM     53  C   UNL A   1      41.510  33.220  34.493  1.00  0.00     0.049 A 
ATOM     54  H   UNL A   1      39.629  34.188  34.271  1.00  0.00     0.167 HD
ATOM     55  C   UNL A   1      40.318  28.417  30.071  1.00  0.00     0.037 A 
ATOM     56  C   UNL A   1      41.733  33.021  35.822  1.00  0.00     0.037 A 
ATOM     57  C   UNL A   1      41.453  28.699  30.942  1.00  0.00     0.049 A 
ATOM     58  C   UNL A   1      42.162  31.596  35.964  1.00  0.00     0.074 A 
ATOM     59  C   UNL A   1      42.557  29.522  30.817  1.00  0.00     0.029 A 
ATOM     60  N   UNL A   1      41.353  28.374  32.283  1.00  0.00    -0.354 N 
ATOM     61  N   UNL A   1      41.817  30.699  35.081  1.00  0.00    -0.248 NA
ATOM     62  C   UNL A   1      43.096  31.088  36.961  1.00  0.00     0.031 C 
ATOM     63  C   UNL A   1      43.155  29.630  32.104  1.00  0.00     0.029 A 
ATOM     64  C   UNL A   1      42.394  28.898  33.004  1.00  0.00     0.049 A 
ATOM     65  H   UNL A   1      40.626  27.833  32.670  1.00  0.00     0.167 HD
ATOM     66  C   UNL A   1      42.554  29.578  35.284  1.00  0.00     0.074 A 
ATOM     67  C   UNL A   1      43.299  29.840  36.499  1.00  0.00     0.031 C 
ATOM     68  C   UNL A   1      42.540  28.542  34.402  1.00  0.00     0.037 A 
BRANCH  55  69
ATOM     69  C   UNL A   1      40.489  27.767  28.710  1.00  0.00     0.064 A 
ATOM     70  C   UNL A   1      39.912  26.495  28.493  1.00  0.00     0.173 A 
ATOM     71  C   UNL A   1      41.162  28.290  27.585  1.00  0.00     0.173 A 
ATOM     72  F   UNL A   1      39.189  25.883  29.440  1.00  0.00    -0.203 F 
ATOM     73  C   UNL A   1      40.031  25.798  27.290  1.00  0.00     0.198 A 
ATOM     74  C   UNL A   1      41.278  27.593  26.376  1.00  0.00     0.198 A 
ATOM     75  F   UNL A   1      41.720  29.501  27.570  1.00  0.00    -0.203 F 
ATOM     76  F   UNL A   1      39.466  24.590  27.168  1.00  0.00    -0.200 F 
ATOM     77  C   UNL A   1      40.715  26.346  26.229  1.00  0.00     0.200 A 
ATOM     78  F   UNL A   1      41.938  28.152  25.351  1.00  0.00    -0.200 F 
ATOM     79  F   UNL A   1      40.815  25.687  25.068  1.00  0.00    -0.200 F 
ENDBRANCH  55  69
BRANCH  56  80
ATOM     80  C   UNL A   1      40.780  33.817  36.656  1.00  0.00     0.064 A 
ATOM     81  C   UNL A   1      39.752  33.075  37.281  1.00  0.00     0.173 A 
ATOM     82  C   UNL A   1      41.224  34.975  37.313  1.00  0.00     0.173 A 
ATOM     83  F   UNL A   1      39.260  31.976  36.687  1.00  0.00    -0.203 F 
ATOM     84  C   UNL A   1      39.373  33.336  38.599  1.00  0.00     0.198 A 
ATOM     85  C   UNL A   1      40.835  35.233  38.632  1.00  0.00     0.198 A 
ATOM     86  F   UNL A   1      42.193  35.726  36.770  1.00  0.00    -0.203 F 
ATOM     87  F   UNL A   1      38.550  32.492  39.241  1.00  0.00    -0.200 F 
ATOM     88  C   UNL A   1      39.965  34.377  39.291  1.00  0.00     0.200 A 
ATOM     89  F   UNL A   1      41.402  36.237  39.313  1.00  0.00    -0.200 F 
ATOM     90  F   UNL A   1      39.770  34.500  40.613  1.00  0.00    -0.200 F 
ENDBRANCH  56  80
BRANCH  68  91
ATOM     91  C   UNL A   1      42.750  27.105  34.784  1.00  0.00     0.064 A 
ATOM     92  C   UNL A   1      42.029  26.474  35.808  1.00  0.00     0.173 A 
ATOM     93  C   UNL A   1      43.584  26.251  34.017  1.00  0.00     0.173 A 
ATOM     94  F   UNL A   1      41.054  27.100  36.477  1.00  0.00    -0.203 F 
ATOM     95  C   UNL A   1      42.247  25.142  36.144  1.00  0.00     0.198 A 
ATOM     96  C   UNL A   1      43.719  24.897  34.293  1.00  0.00     0.198 A 
ATOM     97  F   UNL A   1      44.275  26.676  32.951  1.00  0.00    -0.203 F 
ATOM     98  F   UNL A   1      41.611  24.623  37.202  1.00  0.00    -0.200 F 
ATOM     99  C   UNL A   1      43.089  24.353  35.387  1.00  0.00     0.200 A 
ATOM    100  F   UNL A   1      44.456  24.129  33.479  1.00  0.00    -0.200 F 
ATOM    101  F   UNL A   1      43.272  23.065  35.697  1.00  0.00    -0.200 F 
ENDBRANCH  68  91
ENDBRANCH  42  43
ENDBRANCH  35  37
ENDBRANCH  34  35
ENDBRANCH  33  34
ENDBRANCH  32  33
ENDBRANCH  31  32
ENDBRANCH  30  31
ENDBRANCH   1  30
TORSDOF 20
ENDMDL
