MODEL 1
REMARK VINA RESULT:     -11.9      0.000      0.000
REMARK SMILES COc1ccc(S(=O)(=O)N2CCCC[C@@H]2C(=O)OCCOCCOC(=O)c2ccc(-c3c4nc(c(-c5c(F)c(F)c(F)c(F)c5F)c5ccc([nH]5)c(-c5c(F)c(F)c(F)c(F)c5F)c5nc(c(-c6c(F)c(F)c(F)c(F)c6F)c6ccc3[nH]6)C=C5)C=C4)cc2)cc1C
REMARK SMILES IDX 20 1 19 2 18 3 16 4 17 5 15 6 10 7 11 8 12 9 14 10 13 11
REMARK SMILES IDX 7 12 8 13 9 14 6 15 3 16 4 17 91 18 5 19 90 20 92 21 2 22
REMARK SMILES IDX 1 23 21 24 22 25 23 26 24 27 25 28 26 29 27 30 28 31 89 32
REMARK SMILES IDX 29 33 88 34 30 35 31 36 32 37 82 38 33 39 87 40 81 41 83 42
REMARK SMILES IDX 34 43 86 44 80 45 79 46 35 48 67 49 47 50 66 51 48 52 51 53
REMARK SMILES IDX 65 54 84 55 49 56 50 57 64 59 85 60 52 61 36 62 37 63 45 64
REMARK SMILES IDX 38 65 39 66 43 67 46 68 40 69 41 70 44 71 42 72 68 73 69 74
REMARK SMILES IDX 77 75 70 76 71 77 75 78 78 79 72 80 73 81 76 82 74 83 53 84
REMARK SMILES IDX 54 85 62 86 55 87 56 88 60 89 63 90 57 91 58 92 61 93 59 94
REMARK H PARENT 83 47 51 58
REMARK Flexibility Score: inf
ROOT
ATOM      1  C   UNL A   1      33.594  27.437  26.093  1.00  0.00     0.202 C 
ENDROOT
BRANCH   1   2
ATOM      2  C   UNL A   1      32.206  27.331  26.719  1.00  0.00     0.261 C 
BRANCH   2   3
ATOM      3  O   UNL A   1      31.178  27.018  25.759  1.00  0.00    -0.462 OA
BRANCH   3   4
ATOM      4  C   UNL A   1      30.761  25.716  25.683  1.00  0.00     0.324 C 
ATOM      5  O   UNL A   1      29.983  25.178  26.458  1.00  0.00    -0.250 OA
BRANCH   4   6
ATOM      6  C   UNL A   1      31.279  25.061  24.400  1.00  0.00     0.183 C 
ATOM      7  N   UNL A   1      32.672  24.507  24.467  1.00  0.00    -0.184 NA
ATOM      8  C   UNL A   1      33.459  24.379  23.218  1.00  0.00     0.103 C 
ATOM      9  C   UNL A   1      33.274  25.570  22.299  1.00  0.00     0.017 C 
ATOM     10  C   UNL A   1      31.077  26.080  23.256  1.00  0.00     0.032 C 
ATOM     11  C   UNL A   1      31.804  25.739  21.976  1.00  0.00     0.004 C 
BRANCH   7  12
ATOM     12  S   UNL A   1      32.972  23.262  25.607  1.00  0.00     0.243 S 
ATOM     13  O   UNL A   1      32.142  22.144  25.227  1.00  0.00    -0.207 OA
ATOM     14  O   UNL A   1      32.906  23.835  26.928  1.00  0.00    -0.207 OA
BRANCH  12  15
ATOM     15  C   UNL A   1      34.631  22.659  25.398  1.00  0.00     0.083 A 
ATOM     16  C   UNL A   1      37.272  21.778  25.344  1.00  0.00     0.121 A 
ATOM     17  C   UNL A   1      36.988  23.084  25.742  1.00  0.00     0.048 A 
ATOM     18  C   UNL A   1      36.240  20.882  25.033  1.00  0.00    -0.008 A 
ATOM     19  C   UNL A   1      35.666  23.523  25.784  1.00  0.00     0.025 A 
ATOM     20  C   UNL A   1      34.921  21.357  24.998  1.00  0.00     0.029 A 
ATOM     21  C   UNL A   1      36.485  19.429  24.757  1.00  0.00     0.048 C 
BRANCH  16  22
ATOM     22  O   UNL A   1      38.590  21.409  25.339  1.00  0.00    -0.496 OA
ATOM     23  C   UNL A   1      39.319  22.097  26.358  1.00  0.00     0.278 C 
ENDBRANCH  16  22
ENDBRANCH  12  15
ENDBRANCH   7  12
ENDBRANCH   4   6
ENDBRANCH   3   4
ENDBRANCH   2   3
ENDBRANCH   1   2
BRANCH   1  24
ATOM     24  O   UNL A   1      34.109  28.731  26.380  1.00  0.00    -0.374 OA
BRANCH  24  25
ATOM     25  C   UNL A   1      33.216  29.826  26.218  1.00  0.00     0.202 C 
BRANCH  25  26
ATOM     26  C   UNL A   1      33.268  30.865  27.349  1.00  0.00     0.261 C 
BRANCH  26  27
ATOM     27  O   UNL A   1      34.578  31.458  27.398  1.00  0.00    -0.460 OA
BRANCH  27  28
ATOM     28  C   UNL A   1      35.161  31.472  28.626  1.00  0.00     0.338 C 
ATOM     29  O   UNL A   1      35.070  32.373  29.443  1.00  0.00    -0.246 OA
BRANCH  28  30
ATOM     30  C   UNL A   1      36.151  30.361  28.716  1.00  0.00     0.060 A 
ATOM     31  C   UNL A   1      36.304  29.655  29.923  1.00  0.00     0.016 A 
ATOM     32  C   UNL A   1      37.106  30.229  27.711  1.00  0.00     0.016 A 
ATOM     33  C   UNL A   1      37.474  28.915  30.163  1.00  0.00     0.010 A 
ATOM     34  C   UNL A   1      38.293  29.580  27.993  1.00  0.00     0.010 A 
ATOM     35  C   UNL A   1      38.501  28.931  29.219  1.00  0.00    -0.014 A 
BRANCH  35  36
ATOM     36  C   UNL A   1      39.860  28.417  29.429  1.00  0.00     0.031 A 
ATOM     37  C   UNL A   1      40.221  27.048  28.958  1.00  0.00     0.074 A 
ATOM     38  C   UNL A   1      40.873  29.248  29.782  1.00  0.00     0.049 A 
ATOM     39  N   UNL A   1      41.310  26.426  29.273  1.00  0.00    -0.248 NA
ATOM     40  C   UNL A   1      39.376  26.250  28.077  1.00  0.00     0.031 C 
ATOM     41  C   UNL A   1      42.293  29.009  29.535  1.00  0.00     0.029 A 
ATOM     42  N   UNL A   1      40.872  30.500  30.433  1.00  0.00    -0.354 N 
ATOM     43  C   UNL A   1      41.491  25.401  28.371  1.00  0.00     0.074 A 
ATOM     44  C   UNL A   1      40.212  25.273  27.714  1.00  0.00     0.031 C 
ATOM     45  C   UNL A   1      43.034  29.887  30.221  1.00  0.00     0.029 A 
ATOM     46  C   UNL A   1      42.126  30.598  31.085  1.00  0.00     0.049 A 
ATOM     47  H   UNL A   1      40.150  31.168  30.433  1.00  0.00     0.167 HD
ATOM     48  C   UNL A   1      42.744  24.880  28.195  1.00  0.00     0.037 A 
ATOM     49  C   UNL A   1      42.258  30.695  32.436  1.00  0.00     0.037 A 
ATOM     50  C   UNL A   1      43.730  25.558  29.051  1.00  0.00     0.049 A 
ATOM     51  C   UNL A   1      43.096  29.577  32.994  1.00  0.00     0.074 A 
ATOM     52  C   UNL A   1      44.765  26.445  28.793  1.00  0.00     0.029 A 
ATOM     53  N   UNL A   1      43.559  25.563  30.436  1.00  0.00    -0.354 N 
ATOM     54  N   UNL A   1      43.266  28.450  32.359  1.00  0.00    -0.248 NA
ATOM     55  C   UNL A   1      43.844  29.627  34.242  1.00  0.00     0.031 C 
ATOM     56  C   UNL A   1      45.232  26.959  30.031  1.00  0.00     0.029 A 
ATOM     57  C   UNL A   1      44.480  26.391  31.046  1.00  0.00     0.049 A 
ATOM     58  H   UNL A   1      42.872  25.046  30.914  1.00  0.00     0.167 HD
ATOM     59  C   UNL A   1      44.169  27.673  33.023  1.00  0.00     0.074 A 
ATOM     60  C   UNL A   1      44.474  28.435  34.220  1.00  0.00     0.031 C 
ATOM     61  C   UNL A   1      44.580  26.481  32.499  1.00  0.00     0.037 A 
BRANCH  48  62
ATOM     62  C   UNL A   1      43.159  23.916  27.085  1.00  0.00     0.064 A 
ATOM     63  C   UNL A   1      42.885  22.530  27.173  1.00  0.00     0.173 A 
ATOM     64  C   UNL A   1      43.825  24.286  25.900  1.00  0.00     0.173 A 
ATOM     65  F   UNL A   1      42.153  22.017  28.169  1.00  0.00    -0.203 F 
ATOM     66  C   UNL A   1      43.332  21.601  26.224  1.00  0.00     0.198 A 
ATOM     67  C   UNL A   1      44.317  23.354  24.976  1.00  0.00     0.198 A 
ATOM     68  F   UNL A   1      43.952  25.564  25.533  1.00  0.00    -0.203 F 
ATOM     69  F   UNL A   1      43.029  20.303  26.371  1.00  0.00    -0.200 F 
ATOM     70  C   UNL A   1      44.076  22.009  25.142  1.00  0.00     0.200 A 
ATOM     71  F   UNL A   1      45.006  23.781  23.907  1.00  0.00    -0.200 F 
ATOM     72  F   UNL A   1      44.521  21.121  24.243  1.00  0.00    -0.200 F 
ENDBRANCH  48  62
BRANCH  49  73
ATOM     73  C   UNL A   1      41.123  31.415  33.057  1.00  0.00     0.064 A 
ATOM     74  C   UNL A   1      41.149  32.822  32.961  1.00  0.00     0.173 A 
ATOM     75  C   UNL A   1      39.876  30.797  33.212  1.00  0.00     0.173 A 
ATOM     76  F   UNL A   1      42.319  33.461  32.798  1.00  0.00    -0.203 F 
ATOM     77  C   UNL A   1      39.973  33.562  32.871  1.00  0.00     0.198 A 
ATOM     78  C   UNL A   1      38.698  31.546  33.129  1.00  0.00     0.198 A 
ATOM     79  F   UNL A   1      39.787  29.461  33.293  1.00  0.00    -0.203 F 
ATOM     80  F   UNL A   1      40.026  34.881  32.631  1.00  0.00    -0.200 F 
ATOM     81  C   UNL A   1      38.748  32.917  32.918  1.00  0.00     0.200 A 
ATOM     82  F   UNL A   1      37.509  30.925  33.146  1.00  0.00    -0.200 F 
ATOM     83  F   UNL A   1      37.620  33.609  32.703  1.00  0.00    -0.200 F 
ENDBRANCH  49  73
BRANCH  61  84
ATOM     84  C   UNL A   1      45.203  25.329  33.251  1.00  0.00     0.064 A 
ATOM     85  C   UNL A   1      46.581  25.061  33.276  1.00  0.00     0.173 A 
ATOM     86  C   UNL A   1      44.423  24.554  34.150  1.00  0.00     0.173 A 
ATOM     87  F   UNL A   1      47.453  25.778  32.558  1.00  0.00    -0.203 F 
ATOM     88  C   UNL A   1      47.131  24.076  34.103  1.00  0.00     0.198 A 
ATOM     89  C   UNL A   1      44.982  23.617  35.016  1.00  0.00     0.198 A 
ATOM     90  F   UNL A   1      43.095  24.704  34.253  1.00  0.00    -0.203 F 
ATOM     91  F   UNL A   1      48.449  23.844  34.065  1.00  0.00    -0.200 F 
ATOM     92  C   UNL A   1      46.336  23.369  34.984  1.00  0.00     0.200 A 
ATOM     93  F   UNL A   1      44.202  22.979  35.900  1.00  0.00    -0.200 F 
ATOM     94  F   UNL A   1      46.878  22.471  35.817  1.00  0.00    -0.200 F 
ENDBRANCH  61  84
ENDBRANCH  35  36
ENDBRANCH  28  30
ENDBRANCH  27  28
ENDBRANCH  26  27
ENDBRANCH  25  26
ENDBRANCH  24  25
ENDBRANCH   1  24
TORSDOF 17
ENDMDL
MODEL 2
REMARK VINA RESULT:     -11.7      1.360      3.132
REMARK SMILES COc1ccc(S(=O)(=O)N2CCCC[C@@H]2C(=O)OCCOCCOC(=O)c2ccc(-c3c4nc(c(-c5c(F)c(F)c(F)c(F)c5F)c5ccc([nH]5)c(-c5c(F)c(F)c(F)c(F)c5F)c5nc(c(-c6c(F)c(F)c(F)c(F)c6F)c6ccc3[nH]6)C=C5)C=C4)cc2)cc1C
REMARK SMILES IDX 20 1 19 2 18 3 16 4 17 5 15 6 10 7 11 8 12 9 14 10 13 11
REMARK SMILES IDX 7 12 8 13 9 14 6 15 3 16 4 17 91 18 5 19 90 20 92 21 2 22
REMARK SMILES IDX 1 23 21 24 22 25 23 26 24 27 25 28 26 29 27 30 28 31 89 32
REMARK SMILES IDX 29 33 88 34 30 35 31 36 32 37 82 38 33 39 87 40 81 41 83 42
REMARK SMILES IDX 34 43 86 44 80 45 79 46 35 48 67 49 47 50 66 51 48 52 51 53
REMARK SMILES IDX 65 54 84 55 49 56 50 57 64 59 85 60 52 61 36 62 37 63 45 64
REMARK SMILES IDX 38 65 39 66 43 67 46 68 40 69 41 70 44 71 42 72 68 73 69 74
REMARK SMILES IDX 77 75 70 76 71 77 75 78 78 79 72 80 73 81 76 82 74 83 53 84
REMARK SMILES IDX 54 85 62 86 55 87 56 88 60 89 63 90 57 91 58 92 61 93 59 94
REMARK H PARENT 83 47 51 58
REMARK Flexibility Score: inf
ROOT
ATOM      1  C   UNL A   1      31.785  27.754  27.141  1.00  0.00     0.202 C 
ENDROOT
BRANCH   1   2
ATOM      2  C   UNL A   1      31.789  26.330  26.589  1.00  0.00     0.261 C 
BRANCH   2   3
ATOM      3  O   UNL A   1      33.052  25.958  26.004  1.00  0.00    -0.462 OA
BRANCH   3   4
ATOM      4  C   UNL A   1      33.257  24.630  25.738  1.00  0.00     0.324 C 
ATOM      5  O   UNL A   1      32.516  23.719  26.082  1.00  0.00    -0.250 OA
BRANCH   4   6
ATOM      6  C   UNL A   1      34.463  24.448  24.812  1.00  0.00     0.183 C 
ATOM      7  N   UNL A   1      34.306  23.419  23.732  1.00  0.00    -0.184 NA
ATOM      8  C   UNL A   1      35.515  22.771  23.171  1.00  0.00     0.103 C 
ATOM      9  C   UNL A   1      36.539  22.444  24.241  1.00  0.00     0.017 C 
ATOM     10  C   UNL A   1      35.695  24.211  25.714  1.00  0.00     0.032 C 
ATOM     11  C   UNL A   1      36.919  23.708  24.984  1.00  0.00     0.004 C 
BRANCH   7  12
ATOM     12  S   UNL A   1      33.055  23.663  22.585  1.00  0.00     0.243 S 
ATOM     13  O   UNL A   1      31.917  22.905  23.045  1.00  0.00    -0.207 OA
ATOM     14  O   UNL A   1      33.608  23.468  21.268  1.00  0.00    -0.207 OA
BRANCH  12  15
ATOM     15  C   UNL A   1      32.509  25.353  22.661  1.00  0.00     0.083 A 
ATOM     16  C   UNL A   1      31.554  27.941  23.038  1.00  0.00     0.121 A 
ATOM     17  C   UNL A   1      30.680  26.860  23.146  1.00  0.00     0.048 A 
ATOM     18  C   UNL A   1      32.922  27.738  22.807  1.00  0.00    -0.008 A 
ATOM     19  C   UNL A   1      31.158  25.563  22.972  1.00  0.00     0.025 A 
ATOM     20  C   UNL A   1      33.377  26.437  22.551  1.00  0.00     0.029 A 
ATOM     21  C   UNL A   1      33.924  28.853  22.843  1.00  0.00     0.048 C 
BRANCH  16  22
ATOM     22  O   UNL A   1      31.020  29.186  23.234  1.00  0.00    -0.496 OA
ATOM     23  C   UNL A   1      30.302  29.624  22.079  1.00  0.00     0.278 C 
ENDBRANCH  16  22
ENDBRANCH  12  15
ENDBRANCH   7  12
ENDBRANCH   4   6
ENDBRANCH   3   4
ENDBRANCH   2   3
ENDBRANCH   1   2
BRANCH   1  24
ATOM     24  O   UNL A   1      32.661  28.538  26.342  1.00  0.00    -0.374 OA
BRANCH  24  25
ATOM     25  C   UNL A   1      33.832  29.037  26.978  1.00  0.00     0.202 C 
BRANCH  25  26
ATOM     26  C   UNL A   1      33.837  30.558  27.203  1.00  0.00     0.261 C 
BRANCH  26  27
ATOM     27  O   UNL A   1      34.531  30.861  28.427  1.00  0.00    -0.460 OA
BRANCH  27  28
ATOM     28  C   UNL A   1      35.805  31.309  28.273  1.00  0.00     0.338 C 
ATOM     29  O   UNL A   1      36.122  32.419  27.878  1.00  0.00    -0.246 OA
BRANCH  28  30
ATOM     30  C   UNL A   1      36.750  30.163  28.384  1.00  0.00     0.060 A 
ATOM     31  C   UNL A   1      36.856  29.458  29.597  1.00  0.00     0.016 A 
ATOM     32  C   UNL A   1      37.716  29.988  27.396  1.00  0.00     0.016 A 
ATOM     33  C   UNL A   1      37.992  28.675  29.860  1.00  0.00     0.010 A 
ATOM     34  C   UNL A   1      38.872  29.297  27.701  1.00  0.00     0.010 A 
ATOM     35  C   UNL A   1      39.035  28.646  28.934  1.00  0.00    -0.014 A 
BRANCH  35  36
ATOM     36  C   UNL A   1      40.370  28.082  29.169  1.00  0.00     0.031 A 
ATOM     37  C   UNL A   1      40.699  26.713  28.675  1.00  0.00     0.074 A 
ATOM     38  C   UNL A   1      41.399  28.870  29.569  1.00  0.00     0.049 A 
ATOM     39  N   UNL A   1      41.757  26.048  29.005  1.00  0.00    -0.248 NA
ATOM     40  C   UNL A   1      39.853  25.965  27.751  1.00  0.00     0.031 C 
ATOM     41  C   UNL A   1      42.817  28.589  29.356  1.00  0.00     0.029 A 
ATOM     42  N   UNL A   1      41.421  30.106  30.250  1.00  0.00    -0.354 N 
ATOM     43  C   UNL A   1      41.930  25.039  28.083  1.00  0.00     0.074 A 
ATOM     44  C   UNL A   1      40.667  24.969  27.388  1.00  0.00     0.031 C 
ATOM     45  C   UNL A   1      43.567  29.425  30.085  1.00  0.00     0.029 A 
ATOM     46  C   UNL A   1      42.659  30.146  30.940  1.00  0.00     0.049 A 
ATOM     47  H   UNL A   1      40.721  30.797  30.247  1.00  0.00     0.167 HD
ATOM     48  C   UNL A   1      43.169  24.479  27.929  1.00  0.00     0.037 A 
ATOM     49  C   UNL A   1      42.755  30.207  32.295  1.00  0.00     0.037 A 
ATOM     50  C   UNL A   1      44.152  25.103  28.829  1.00  0.00     0.049 A 
ATOM     51  C   UNL A   1      43.538  29.048  32.849  1.00  0.00     0.074 A 
ATOM     52  C   UNL A   1      45.223  25.961  28.621  1.00  0.00     0.029 A 
ATOM     53  N   UNL A   1      43.942  25.082  30.208  1.00  0.00    -0.354 N 
ATOM     54  N   UNL A   1      43.690  27.932  32.192  1.00  0.00    -0.248 NA
ATOM     55  C   UNL A   1      44.253  29.044  34.119  1.00  0.00     0.031 C 
ATOM     56  C   UNL A   1      45.671  26.430  29.884  1.00  0.00     0.029 A 
ATOM     57  C   UNL A   1      44.872  25.864  30.863  1.00  0.00     0.049 A 
ATOM     58  H   UNL A   1      43.225  24.578  30.654  1.00  0.00     0.167 HD
ATOM     59  C   UNL A   1      44.547  27.109  32.862  1.00  0.00     0.074 A 
ATOM     60  C   UNL A   1      44.843  27.832  34.085  1.00  0.00     0.031 C 
ATOM     61  C   UNL A   1      44.933  25.917  32.320  1.00  0.00     0.037 A 
BRANCH  48  62
ATOM     62  C   UNL A   1      43.584  23.529  26.808  1.00  0.00     0.064 A 
ATOM     63  C   UNL A   1      43.121  22.191  26.769  1.00  0.00     0.173 A 
ATOM     64  C   UNL A   1      44.430  23.865  25.733  1.00  0.00     0.173 A 
ATOM     65  F   UNL A   1      42.214  21.731  27.639  1.00  0.00    -0.203 F 
ATOM     66  C   UNL A   1      43.552  21.261  25.814  1.00  0.00     0.198 A 
ATOM     67  C   UNL A   1      44.901  22.925  24.807  1.00  0.00     0.198 A 
ATOM     68  F   UNL A   1      44.766  25.131  25.472  1.00  0.00    -0.203 F 
ATOM     69  F   UNL A   1      43.066  20.011  25.835  1.00  0.00    -0.200 F 
ATOM     70  C   UNL A   1      44.468  21.620  24.852  1.00  0.00     0.200 A 
ATOM     71  F   UNL A   1      45.764  23.309  23.854  1.00  0.00    -0.200 F 
ATOM     72  F   UNL A   1      44.896  20.728  23.948  1.00  0.00    -0.200 F 
ENDBRANCH  48  62
BRANCH  49  73
ATOM     73  C   UNL A   1      41.627  30.950  32.902  1.00  0.00     0.064 A 
ATOM     74  C   UNL A   1      41.709  32.358  32.855  1.00  0.00     0.173 A 
ATOM     75  C   UNL A   1      40.353  30.377  32.995  1.00  0.00     0.173 A 
ATOM     76  F   UNL A   1      42.907  32.955  32.751  1.00  0.00    -0.203 F 
ATOM     77  C   UNL A   1      40.566  33.144  32.750  1.00  0.00     0.198 A 
ATOM     78  C   UNL A   1      39.208  31.173  32.898  1.00  0.00     0.198 A 
ATOM     79  F   UNL A   1      40.211  29.043  33.028  1.00  0.00    -0.203 F 
ATOM     80  F   UNL A   1      40.677  34.467  32.556  1.00  0.00    -0.200 F 
ATOM     81  C   UNL A   1      39.316  32.547  32.734  1.00  0.00     0.200 A 
ATOM     82  F   UNL A   1      37.996  30.598  32.855  1.00  0.00    -0.200 F 
ATOM     83  F   UNL A   1      38.224  33.289  32.505  1.00  0.00    -0.200 F 
ENDBRANCH  49  73
BRANCH  61  84
ATOM     84  C   UNL A   1      45.496  24.727  33.062  1.00  0.00     0.064 A 
ATOM     85  C   UNL A   1      46.775  24.696  33.641  1.00  0.00     0.173 A 
ATOM     86  C   UNL A   1      44.663  23.622  33.382  1.00  0.00     0.173 A 
ATOM     87  F   UNL A   1      47.634  25.713  33.510  1.00  0.00    -0.203 F 
ATOM     88  C   UNL A   1      47.200  23.633  34.444  1.00  0.00     0.198 A 
ATOM     89  C   UNL A   1      45.069  22.596  34.233  1.00  0.00     0.198 A 
ATOM     90  F   UNL A   1      43.411  23.516  32.918  1.00  0.00    -0.203 F 
ATOM     91  F   UNL A   1      48.441  23.643  34.948  1.00  0.00    -0.200 F 
ATOM     92  C   UNL A   1      46.342  22.595  34.755  1.00  0.00     0.200 A 
ATOM     93  F   UNL A   1      44.205  21.626  34.563  1.00  0.00    -0.200 F 
ATOM     94  F   UNL A   1      46.736  21.612  35.575  1.00  0.00    -0.200 F 
ENDBRANCH  61  84
ENDBRANCH  35  36
ENDBRANCH  28  30
ENDBRANCH  27  28
ENDBRANCH  26  27
ENDBRANCH  25  26
ENDBRANCH  24  25
ENDBRANCH   1  24
TORSDOF 17
ENDMDL
MODEL 3
REMARK VINA RESULT:     -11.3      1.349      2.132
REMARK SMILES COc1ccc(S(=O)(=O)N2CCCC[C@@H]2C(=O)OCCOCCOC(=O)c2ccc(-c3c4nc(c(-c5c(F)c(F)c(F)c(F)c5F)c5ccc([nH]5)c(-c5c(F)c(F)c(F)c(F)c5F)c5nc(c(-c6c(F)c(F)c(F)c(F)c6F)c6ccc3[nH]6)C=C5)C=C4)cc2)cc1C
REMARK SMILES IDX 20 1 19 2 18 3 16 4 17 5 15 6 10 7 11 8 12 9 14 10 13 11
REMARK SMILES IDX 7 12 8 13 9 14 6 15 3 16 4 17 91 18 5 19 90 20 92 21 2 22
REMARK SMILES IDX 1 23 21 24 22 25 23 26 24 27 25 28 26 29 27 30 28 31 89 32
REMARK SMILES IDX 29 33 88 34 30 35 31 36 32 37 82 38 33 39 87 40 81 41 83 42
REMARK SMILES IDX 34 43 86 44 80 45 79 46 35 48 67 49 47 50 66 51 48 52 51 53
REMARK SMILES IDX 65 54 84 55 49 56 50 57 64 59 85 60 52 61 36 62 37 63 45 64
REMARK SMILES IDX 38 65 39 66 43 67 46 68 40 69 41 70 44 71 42 72 68 73 69 74
REMARK SMILES IDX 77 75 70 76 71 77 75 78 78 79 72 80 73 81 76 82 74 83 53 84
REMARK SMILES IDX 54 85 62 86 55 87 56 88 60 89 63 90 57 91 58 92 61 93 59 94
REMARK H PARENT 83 47 51 58
REMARK Flexibility Score: inf
ROOT
ATOM      1  C   UNL A   1      31.639  29.659  24.778  1.00  0.00     0.202 C 
ENDROOT
BRANCH   1   2
ATOM      2  C   UNL A   1      31.101  28.488  23.960  1.00  0.00     0.261 C 
BRANCH   2   3
ATOM      3  O   UNL A   1      30.744  27.352  24.771  1.00  0.00    -0.462 OA
BRANCH   3   4
ATOM      4  C   UNL A   1      30.848  26.111  24.200  1.00  0.00     0.324 C 
ATOM      5  O   UNL A   1      30.616  25.853  23.027  1.00  0.00    -0.250 OA
BRANCH   4   6
ATOM      6  C   UNL A   1      31.448  25.112  25.193  1.00  0.00     0.183 C 
ATOM      7  N   UNL A   1      32.374  24.088  24.607  1.00  0.00    -0.184 NA
ATOM      8  C   UNL A   1      32.554  22.793  25.306  1.00  0.00     0.103 C 
ATOM      9  C   UNL A   1      31.249  22.253  25.856  1.00  0.00     0.017 C 
ATOM     10  C   UNL A   1      30.271  24.497  25.983  1.00  0.00     0.032 C 
ATOM     11  C   UNL A   1      30.632  23.272  26.792  1.00  0.00     0.004 C 
BRANCH   7  12
ATOM     12  S   UNL A   1      33.793  24.660  23.831  1.00  0.00     0.243 S 
ATOM     13  O   UNL A   1      34.050  25.979  24.357  1.00  0.00    -0.207 OA
ATOM     14  O   UNL A   1      33.656  24.426  22.415  1.00  0.00    -0.207 OA
BRANCH  12  15
ATOM     15  C   UNL A   1      35.187  23.699  24.372  1.00  0.00     0.083 A 
ATOM     16  C   UNL A   1      37.480  22.232  24.959  1.00  0.00     0.121 A 
ATOM     17  C   UNL A   1      36.677  21.857  23.883  1.00  0.00     0.048 A 
ATOM     18  C   UNL A   1      37.184  23.378  25.710  1.00  0.00    -0.008 A 
ATOM     19  C   UNL A   1      35.537  22.597  23.578  1.00  0.00     0.025 A 
ATOM     20  C   UNL A   1      35.991  24.068  25.448  1.00  0.00     0.029 A 
ATOM     21  C   UNL A   1      38.101  23.912  26.770  1.00  0.00     0.048 C 
BRANCH  16  22
ATOM     22  O   UNL A   1      38.592  21.468  25.194  1.00  0.00    -0.496 OA
ATOM     23  C   UNL A   1      38.244  20.092  25.353  1.00  0.00     0.278 C 
ENDBRANCH  16  22
ENDBRANCH  12  15
ENDBRANCH   7  12
ENDBRANCH   4   6
ENDBRANCH   3   4
ENDBRANCH   2   3
ENDBRANCH   1   2
BRANCH   1  24
ATOM     24  O   UNL A   1      33.030  29.448  24.988  1.00  0.00    -0.374 OA
BRANCH  24  25
ATOM     25  C   UNL A   1      33.478  29.433  26.337  1.00  0.00     0.202 C 
BRANCH  25  26
ATOM     26  C   UNL A   1      33.382  30.788  27.057  1.00  0.00     0.261 C 
BRANCH  26  27
ATOM     27  O   UNL A   1      34.207  30.768  28.235  1.00  0.00    -0.460 OA
BRANCH  27  28
ATOM     28  C   UNL A   1      35.444  31.311  28.083  1.00  0.00     0.338 C 
ATOM     29  O   UNL A   1      35.682  32.413  27.619  1.00  0.00    -0.246 OA
BRANCH  28  30
ATOM     30  C   UNL A   1      36.476  30.258  28.302  1.00  0.00     0.060 A 
ATOM     31  C   UNL A   1      36.516  29.559  29.522  1.00  0.00     0.016 A 
ATOM     32  C   UNL A   1      37.556  30.182  27.426  1.00  0.00     0.016 A 
ATOM     33  C   UNL A   1      37.686  28.885  29.911  1.00  0.00     0.010 A 
ATOM     34  C   UNL A   1      38.733  29.601  27.858  1.00  0.00     0.010 A 
ATOM     35  C   UNL A   1      38.821  28.962  29.104  1.00  0.00    -0.014 A 
BRANCH  35  36
ATOM     36  C   UNL A   1      40.170  28.526  29.486  1.00  0.00     0.031 A 
ATOM     37  C   UNL A   1      40.749  27.285  28.891  1.00  0.00     0.074 A 
ATOM     38  C   UNL A   1      41.014  29.361  30.142  1.00  0.00     0.049 A 
ATOM     39  N   UNL A   1      41.827  26.705  29.308  1.00  0.00    -0.248 NA
ATOM     40  C   UNL A   1      40.158  26.584  27.757  1.00  0.00     0.031 C 
ATOM     41  C   UNL A   1      42.472  29.275  30.133  1.00  0.00     0.029 A 
ATOM     42  N   UNL A   1      40.769  30.483  30.961  1.00  0.00    -0.354 N 
ATOM     43  C   UNL A   1      42.268  25.861  28.312  1.00  0.00     0.074 A 
ATOM     44  C   UNL A   1      41.142  25.747  27.416  1.00  0.00     0.031 C 
ATOM     45  C   UNL A   1      42.987  30.081  31.070  1.00  0.00     0.029 A 
ATOM     46  C   UNL A   1      41.874  30.566  31.845  1.00  0.00     0.049 A 
ATOM     47  H   UNL A   1      39.991  31.084  30.927  1.00  0.00     0.167 HD
ATOM     48  C   UNL A   1      43.580  25.473  28.298  1.00  0.00     0.037 A 
ATOM     49  C   UNL A   1      41.759  30.447  33.195  1.00  0.00     0.037 A 
ATOM     50  C   UNL A   1      44.326  26.072  29.416  1.00  0.00     0.049 A 
ATOM     51  C   UNL A   1      42.600  29.319  33.726  1.00  0.00     0.074 A 
ATOM     52  C   UNL A   1      45.291  27.066  29.492  1.00  0.00     0.029 A 
ATOM     53  N   UNL A   1      43.918  25.834  30.728  1.00  0.00    -0.354 N 
ATOM     54  N   UNL A   1      42.996  28.330  32.973  1.00  0.00    -0.248 NA
ATOM     55  C   UNL A   1      43.113  29.217  35.086  1.00  0.00     0.031 C 
ATOM     56  C   UNL A   1      45.480  27.401  30.858  1.00  0.00     0.029 A 
ATOM     57  C   UNL A   1      44.628  26.617  31.617  1.00  0.00     0.049 A 
ATOM     58  H   UNL A   1      43.218  25.194  30.986  1.00  0.00     0.167 HD
ATOM     59  C   UNL A   1      43.847  27.524  33.671  1.00  0.00     0.074 A 
ATOM     60  C   UNL A   1      43.859  28.097  35.003  1.00  0.00     0.031 C 
ATOM     61  C   UNL A   1      44.466  26.471  33.060  1.00  0.00     0.037 A 
BRANCH  48  62
ATOM     62  C   UNL A   1      44.280  24.742  27.154  1.00  0.00     0.064 A 
ATOM     63  C   UNL A   1      44.021  23.376  26.885  1.00  0.00     0.173 A 
ATOM     64  C   UNL A   1      45.214  25.323  26.274  1.00  0.00     0.173 A 
ATOM     65  F   UNL A   1      43.073  22.695  27.540  1.00  0.00    -0.203 F 
ATOM     66  C   UNL A   1      44.710  22.645  25.909  1.00  0.00     0.198 A 
ATOM     67  C   UNL A   1      45.940  24.583  25.331  1.00  0.00     0.198 A 
ATOM     68  F   UNL A   1      45.402  26.644  26.219  1.00  0.00    -0.203 F 
ATOM     69  F   UNL A   1      44.407  21.355  25.707  1.00  0.00    -0.200 F 
ATOM     70  C   UNL A   1      45.693  23.241  25.154  1.00  0.00     0.200 A 
ATOM     71  F   UNL A   1      46.866  25.196  24.579  1.00  0.00    -0.200 F 
ATOM     72  F   UNL A   1      46.367  22.540  24.232  1.00  0.00    -0.200 F 
ENDBRANCH  48  62
BRANCH  49  73
ATOM     73  C   UNL A   1      40.464  30.966  33.693  1.00  0.00     0.064 A 
ATOM     74  C   UNL A   1      40.382  32.361  33.884  1.00  0.00     0.173 A 
ATOM     75  C   UNL A   1      39.272  30.270  33.458  1.00  0.00     0.173 A 
ATOM     76  F   UNL A   1      41.499  33.074  34.098  1.00  0.00    -0.203 F 
ATOM     77  C   UNL A   1      39.185  33.045  33.696  1.00  0.00     0.198 A 
ATOM     78  C   UNL A   1      38.071  30.962  33.278  1.00  0.00     0.198 A 
ATOM     79  F   UNL A   1      39.289  28.945  33.254  1.00  0.00    -0.203 F 
ATOM     80  F   UNL A   1      39.165  34.386  33.737  1.00  0.00    -0.200 F 
ATOM     81  C   UNL A   1      38.037  32.348  33.356  1.00  0.00     0.200 A 
ATOM     82  F   UNL A   1      36.962  30.296  32.923  1.00  0.00    -0.200 F 
ATOM     83  F   UNL A   1      36.916  33.016  33.050  1.00  0.00    -0.200 F 
ENDBRANCH  49  73
BRANCH  61  84
ATOM     84  C   UNL A   1      45.067  25.260  33.735  1.00  0.00     0.064 A 
ATOM     85  C   UNL A   1      44.315  24.180  34.224  1.00  0.00     0.173 A 
ATOM     86  C   UNL A   1      46.473  25.064  33.735  1.00  0.00     0.173 A 
ATOM     87  F   UNL A   1      42.978  24.180  34.194  1.00  0.00    -0.203 F 
ATOM     88  C   UNL A   1      44.918  23.015  34.707  1.00  0.00     0.198 A 
ATOM     89  C   UNL A   1      47.067  23.877  34.160  1.00  0.00     0.198 A 
ATOM     90  F   UNL A   1      47.323  25.997  33.285  1.00  0.00    -0.203 F 
ATOM     91  F   UNL A   1      44.152  22.027  35.187  1.00  0.00    -0.200 F 
ATOM     92  C   UNL A   1      46.289  22.856  34.657  1.00  0.00     0.200 A 
ATOM     93  F   UNL A   1      48.394  23.723  34.054  1.00  0.00    -0.200 F 
ATOM     94  F   UNL A   1      46.855  21.712  35.064  1.00  0.00    -0.200 F 
ENDBRANCH  61  84
ENDBRANCH  35  36
ENDBRANCH  28  30
ENDBRANCH  27  28
ENDBRANCH  26  27
ENDBRANCH  25  26
ENDBRANCH  24  25
ENDBRANCH   1  24
TORSDOF 17
ENDMDL
