MODEL 1
REMARK VINA RESULT:      -9.5      0.000      0.000
REMARK SMILES Cc1noc(C)c1[C@H](C)[NH2+][C@@H](C)CC(=O)OCCOCCOC(=O)c1ccc(-c2c3nc(c(-c4c(F)c(F)c(F)c(F)c4F)c4ccc([nH]4)c(-c4c(F)c(F)c(F)c(F)c4F)c4nc(c(-c5c(F)c(F)c(F)c(F)c5F)c5ccc2[nH]5)C=C4)C=C3)cc1
REMARK SMILES IDX 18 1 17 2 16 3 14 4 15 5 13 6 11 7 12 8 10 9 8 12 9 13 7 14
REMARK SMILES IDX 1 15 2 16 3 17 4 18 5 19 6 20 19 21 20 22 21 23 22 24 23 25
REMARK SMILES IDX 24 26 25 27 26 28 87 29 27 30 86 31 28 32 29 33 30 34 80 35
REMARK SMILES IDX 31 36 85 37 79 38 81 39 32 40 84 41 78 42 77 43 33 45 65 46
REMARK SMILES IDX 45 47 64 48 46 49 49 50 63 51 82 52 47 53 48 54 62 56 83 57
REMARK SMILES IDX 50 58 34 59 35 60 43 61 36 62 37 63 41 64 44 65 38 66 39 67
REMARK SMILES IDX 42 68 40 69 66 70 67 71 75 72 68 73 69 74 73 75 76 76 70 77
REMARK SMILES IDX 71 78 74 79 72 80 51 81 52 82 60 83 53 84 54 85 58 86 61 87
REMARK SMILES IDX 55 88 56 89 59 90 57 91
REMARK H PARENT 10 10 10 11 81 44 49 55
REMARK Flexibility Score: inf
ROOT
ATOM      1  C   UNL A   1      33.884  35.244  28.449  1.00  0.00     0.202 C 
ENDROOT
BRANCH   1   2
ATOM      2  C   UNL A   1      32.944  36.179  29.210  1.00  0.00     0.261 C 
BRANCH   2   3
ATOM      3  O   UNL A   1      32.820  35.845  30.604  1.00  0.00    -0.463 OA
BRANCH   3   4
ATOM      4  C   UNL A   1      33.119  36.853  31.460  1.00  0.00     0.311 C 
ATOM      5  O   UNL A   1      32.894  38.040  31.247  1.00  0.00    -0.252 OA
BRANCH   4   6
ATOM      6  C   UNL A   1      33.868  36.392  32.685  1.00  0.00     0.187 C 
BRANCH   6   7
ATOM      7  C   UNL A   1      34.174  34.888  32.860  1.00  0.00     0.190 C 
ATOM      8  C   UNL A   1      34.997  34.788  34.155  1.00  0.00     0.076 C 
BRANCH   7   9
ATOM      9  N   UNL A   1      34.929  34.350  31.717  1.00  0.00    -0.337 N 
ATOM     10  H   UNL A   1      34.266  33.866  31.110  1.00  0.00     0.347 HD
ATOM     11  H   UNL A   1      35.384  35.158  31.294  1.00  0.00     0.347 HD
BRANCH   9  12
ATOM     12  C   UNL A   1      36.020  33.408  32.026  1.00  0.00     0.216 C 
ATOM     13  C   UNL A   1      35.574  32.015  31.569  1.00  0.00     0.081 C 
BRANCH  12  14
ATOM     14  C   UNL A   1      37.322  33.814  31.396  1.00  0.00     0.074 A 
ATOM     15  C   UNL A   1      38.727  34.512  33.512  1.00  0.00     0.071 C 
ATOM     16  C   UNL A   1      38.500  34.279  32.065  1.00  0.00     0.090 A 
ATOM     17  N   UNL A   1      39.486  34.546  31.205  1.00  0.00    -0.085 NA
ATOM     18  O   UNL A   1      38.993  34.239  29.960  1.00  0.00    -0.361 OA
ATOM     19  C   UNL A   1      37.717  33.789  30.068  1.00  0.00     0.143 A 
ATOM     20  C   UNL A   1      37.101  33.366  28.795  1.00  0.00     0.091 C 
ENDBRANCH  12  14
ENDBRANCH   9  12
ENDBRANCH   7   9
ENDBRANCH   6   7
ENDBRANCH   4   6
ENDBRANCH   3   4
ENDBRANCH   2   3
ENDBRANCH   1   2
BRANCH   1  21
ATOM     21  O   UNL A   1      33.676  33.844  28.607  1.00  0.00    -0.374 OA
BRANCH  21  22
ATOM     22  C   UNL A   1      32.861  33.194  27.633  1.00  0.00     0.202 C 
BRANCH  22  23
ATOM     23  C   UNL A   1      33.174  31.718  27.354  1.00  0.00     0.261 C 
BRANCH  23  24
ATOM     24  O   UNL A   1      34.291  31.243  28.132  1.00  0.00    -0.460 OA
BRANCH  24  25
ATOM     25  C   UNL A   1      34.696  29.981  27.855  1.00  0.00     0.338 C 
ATOM     26  O   UNL A   1      34.097  29.132  27.209  1.00  0.00    -0.246 OA
BRANCH  25  27
ATOM     27  C   UNL A   1      36.094  29.805  28.287  1.00  0.00     0.060 A 
ATOM     28  C   UNL A   1      37.112  30.055  27.357  1.00  0.00     0.016 A 
ATOM     29  C   UNL A   1      36.405  29.359  29.571  1.00  0.00     0.016 A 
ATOM     30  C   UNL A   1      38.445  29.835  27.701  1.00  0.00     0.010 A 
ATOM     31  C   UNL A   1      37.742  29.151  29.921  1.00  0.00     0.010 A 
ATOM     32  C   UNL A   1      38.767  29.353  28.976  1.00  0.00    -0.014 A 
BRANCH  32  33
ATOM     33  C   UNL A   1      40.148  28.901  29.277  1.00  0.00     0.031 A 
ATOM     34  C   UNL A   1      41.048  29.809  30.072  1.00  0.00     0.074 A 
ATOM     35  C   UNL A   1      40.598  27.705  28.859  1.00  0.00     0.049 A 
ATOM     36  N   UNL A   1      42.311  29.670  30.381  1.00  0.00    -0.248 NA
ATOM     37  C   UNL A   1      40.438  31.050  30.577  1.00  0.00     0.031 C 
ATOM     38  C   UNL A   1      39.817  26.720  28.114  1.00  0.00     0.029 A 
ATOM     39  N   UNL A   1      41.834  27.122  28.994  1.00  0.00    -0.354 N 
ATOM     40  C   UNL A   1      42.650  30.809  31.099  1.00  0.00     0.074 A 
ATOM     41  C   UNL A   1      41.472  31.647  31.149  1.00  0.00     0.031 C 
ATOM     42  C   UNL A   1      40.594  25.656  27.850  1.00  0.00     0.029 A 
ATOM     43  C   UNL A   1      41.938  25.903  28.371  1.00  0.00     0.049 A 
ATOM     44  H   UNL A   1      42.575  27.539  29.491  1.00  0.00     0.167 HD
ATOM     45  C   UNL A   1      43.835  31.123  31.676  1.00  0.00     0.037 A 
ATOM     46  C   UNL A   1      43.005  25.093  28.218  1.00  0.00     0.037 A 
ATOM     47  C   UNL A   1      45.002  30.283  31.637  1.00  0.00     0.049 A 
ATOM     48  C   UNL A   1      44.331  25.496  28.813  1.00  0.00     0.074 A 
ATOM     49  C   UNL A   1      46.240  30.498  32.214  1.00  0.00     0.029 A 
ATOM     50  N   UNL A   1      45.074  29.065  30.977  1.00  0.00    -0.354 N 
ATOM     51  N   UNL A   1      44.638  26.562  29.511  1.00  0.00    -0.248 NA
ATOM     52  C   UNL A   1      45.460  24.579  28.597  1.00  0.00     0.031 C 
ATOM     53  C   UNL A   1      47.080  29.439  31.856  1.00  0.00     0.029 A 
ATOM     54  C   UNL A   1      46.346  28.532  31.108  1.00  0.00     0.049 A 
ATOM     55  H   UNL A   1      44.332  28.641  30.487  1.00  0.00     0.167 HD
ATOM     56  C   UNL A   1      45.981  26.429  29.844  1.00  0.00     0.074 A 
ATOM     57  C   UNL A   1      46.427  25.171  29.283  1.00  0.00     0.031 C 
ATOM     58  C   UNL A   1      46.774  27.273  30.551  1.00  0.00     0.037 A 
BRANCH  45  59
ATOM     59  C   UNL A   1      43.934  32.446  32.379  1.00  0.00     0.064 A 
ATOM     60  C   UNL A   1      44.327  33.614  31.707  1.00  0.00     0.173 A 
ATOM     61  C   UNL A   1      43.601  32.553  33.738  1.00  0.00     0.173 A 
ATOM     62  F   UNL A   1      44.670  33.564  30.411  1.00  0.00    -0.203 F 
ATOM     63  C   UNL A   1      44.412  34.832  32.377  1.00  0.00     0.198 A 
ATOM     64  C   UNL A   1      43.654  33.779  34.396  1.00  0.00     0.198 A 
ATOM     65  F   UNL A   1      43.215  31.469  34.427  1.00  0.00    -0.203 F 
ATOM     66  F   UNL A   1      44.842  35.923  31.728  1.00  0.00    -0.200 F 
ATOM     67  C   UNL A   1      44.069  34.915  33.718  1.00  0.00     0.200 A 
ATOM     68  F   UNL A   1      43.309  33.859  35.688  1.00  0.00    -0.200 F 
ATOM     69  F   UNL A   1      44.143  36.089  34.358  1.00  0.00    -0.200 F 
ENDBRANCH  45  59
BRANCH  46  70
ATOM     70  C   UNL A   1      42.872  23.821  27.458  1.00  0.00     0.064 A 
ATOM     71  C   UNL A   1      43.137  23.769  26.083  1.00  0.00     0.173 A 
ATOM     72  C   UNL A   1      42.451  22.639  28.085  1.00  0.00     0.173 A 
ATOM     73  F   UNL A   1      43.516  24.878  25.432  1.00  0.00    -0.203 F 
ATOM     74  C   UNL A   1      42.965  22.589  25.360  1.00  0.00     0.198 A 
ATOM     75  C   UNL A   1      42.310  21.453  27.368  1.00  0.00     0.198 A 
ATOM     76  F   UNL A   1      42.181  22.633  29.400  1.00  0.00    -0.203 F 
ATOM     77  F   UNL A   1      43.174  22.582  24.036  1.00  0.00    -0.200 F 
ATOM     78  C   UNL A   1      42.558  21.431  26.004  1.00  0.00     0.200 A 
ATOM     79  F   UNL A   1      41.929  20.333  27.998  1.00  0.00    -0.200 F 
ATOM     80  F   UNL A   1      42.394  20.297  25.309  1.00  0.00    -0.200 F 
ENDBRANCH  46  70
BRANCH  58  81
ATOM     81  C   UNL A   1      48.195  26.847  30.796  1.00  0.00     0.064 A 
ATOM     82  C   UNL A   1      48.535  25.974  31.841  1.00  0.00     0.173 A 
ATOM     83  C   UNL A   1      49.222  27.284  29.945  1.00  0.00     0.173 A 
ATOM     84  F   UNL A   1      47.595  25.538  32.691  1.00  0.00    -0.203 F 
ATOM     85  C   UNL A   1      49.856  25.579  32.040  1.00  0.00     0.198 A 
ATOM     86  C   UNL A   1      50.535  26.859  30.127  1.00  0.00     0.198 A 
ATOM     87  F   UNL A   1      48.950  28.112  28.925  1.00  0.00    -0.203 F 
ATOM     88  F   UNL A   1      50.166  24.785  33.075  1.00  0.00    -0.200 F 
ATOM     89  C   UNL A   1      50.853  26.014  31.180  1.00  0.00     0.200 A 
ATOM     90  F   UNL A   1      51.494  27.268  29.284  1.00  0.00    -0.200 F 
ATOM     91  F   UNL A   1      52.121  25.624  31.368  1.00  0.00    -0.200 F 
ENDBRANCH  58  81
ENDBRANCH  32  33
ENDBRANCH  25  27
ENDBRANCH  24  25
ENDBRANCH  23  24
ENDBRANCH  22  23
ENDBRANCH  21  22
ENDBRANCH   1  21
TORSDOF 18
ENDMDL
MODEL 2
REMARK VINA RESULT:      -9.2      4.395     10.075
REMARK SMILES Cc1noc(C)c1[C@H](C)[NH2+][C@@H](C)CC(=O)OCCOCCOC(=O)c1ccc(-c2c3nc(c(-c4c(F)c(F)c(F)c(F)c4F)c4ccc([nH]4)c(-c4c(F)c(F)c(F)c(F)c4F)c4nc(c(-c5c(F)c(F)c(F)c(F)c5F)c5ccc2[nH]5)C=C4)C=C3)cc1
REMARK SMILES IDX 18 1 17 2 16 3 14 4 15 5 13 6 11 7 12 8 10 9 8 12 9 13 7 14
REMARK SMILES IDX 1 15 2 16 3 17 4 18 5 19 6 20 19 21 20 22 21 23 22 24 23 25
REMARK SMILES IDX 24 26 25 27 26 28 87 29 27 30 86 31 28 32 29 33 30 34 80 35
REMARK SMILES IDX 31 36 85 37 79 38 81 39 32 40 84 41 78 42 77 43 33 45 65 46
REMARK SMILES IDX 45 47 64 48 46 49 49 50 63 51 82 52 47 53 48 54 62 56 83 57
REMARK SMILES IDX 50 58 34 59 35 60 43 61 36 62 37 63 41 64 44 65 38 66 39 67
REMARK SMILES IDX 42 68 40 69 66 70 67 71 75 72 68 73 69 74 73 75 76 76 70 77
REMARK SMILES IDX 71 78 74 79 72 80 51 81 52 82 60 83 53 84 54 85 58 86 61 87
REMARK SMILES IDX 55 88 56 89 59 90 57 91
REMARK H PARENT 10 10 10 11 81 44 49 55
REMARK Flexibility Score: inf
ROOT
ATOM      1  C   UNL A   1      33.250  26.996  25.686  1.00  0.00     0.202 C 
ENDROOT
BRANCH   1   2
ATOM      2  C   UNL A   1      32.588  25.705  25.203  1.00  0.00     0.261 C 
BRANCH   2   3
ATOM      3  O   UNL A   1      31.568  25.223  26.096  1.00  0.00    -0.463 OA
BRANCH   3   4
ATOM      4  C   UNL A   1      31.398  23.877  26.094  1.00  0.00     0.311 C 
ATOM      5  O   UNL A   1      30.753  23.257  25.255  1.00  0.00    -0.252 OA
BRANCH   4   6
ATOM      6  C   UNL A   1      31.997  23.199  27.300  1.00  0.00     0.187 C 
BRANCH   6   7
ATOM      7  C   UNL A   1      33.146  22.185  27.102  1.00  0.00     0.190 C 
ATOM      8  C   UNL A   1      34.440  23.000  27.263  1.00  0.00     0.076 C 
BRANCH   7   9
ATOM      9  N   UNL A   1      33.089  21.549  25.777  1.00  0.00    -0.337 N 
ATOM     10  H   UNL A   1      32.429  20.773  25.835  1.00  0.00     0.347 HD
ATOM     11  H   UNL A   1      32.818  22.294  25.135  1.00  0.00     0.347 HD
BRANCH   9  12
ATOM     12  C   UNL A   1      34.356  21.018  25.240  1.00  0.00     0.216 C 
ATOM     13  C   UNL A   1      34.065  19.632  24.654  1.00  0.00     0.081 C 
BRANCH  12  14
ATOM     14  C   UNL A   1      34.977  21.935  24.227  1.00  0.00     0.074 A 
ATOM     15  C   UNL A   1      37.533  21.709  24.822  1.00  0.00     0.071 C 
ATOM     16  C   UNL A   1      36.372  22.211  24.050  1.00  0.00     0.090 A 
ATOM     17  N   UNL A   1      36.585  23.070  23.048  1.00  0.00    -0.085 NA
ATOM     18  O   UNL A   1      35.346  23.355  22.528  1.00  0.00    -0.361 OA
ATOM     19  C   UNL A   1      34.390  22.673  23.211  1.00  0.00     0.143 A 
ATOM     20  C   UNL A   1      33.018  22.852  22.699  1.00  0.00     0.091 C 
ENDBRANCH  12  14
ENDBRANCH   9  12
ENDBRANCH   7   9
ENDBRANCH   6   7
ENDBRANCH   4   6
ENDBRANCH   3   4
ENDBRANCH   2   3
ENDBRANCH   1   2
BRANCH   1  21
ATOM     21  O   UNL A   1      32.547  27.761  26.659  1.00  0.00    -0.374 OA
BRANCH  21  22
ATOM     22  C   UNL A   1      31.605  28.718  26.177  1.00  0.00     0.202 C 
BRANCH  22  23
ATOM     23  C   UNL A   1      31.802  30.167  26.641  1.00  0.00     0.261 C 
BRANCH  23  24
ATOM     24  O   UNL A   1      33.136  30.645  26.379  1.00  0.00    -0.460 OA
BRANCH  24  25
ATOM     25  C   UNL A   1      33.570  31.631  27.199  1.00  0.00     0.338 C 
ATOM     26  O   UNL A   1      32.951  32.619  27.567  1.00  0.00    -0.246 OA
BRANCH  25  27
ATOM     27  C   UNL A   1      34.876  31.257  27.772  1.00  0.00     0.060 A 
ATOM     28  C   UNL A   1      35.086  29.918  28.126  1.00  0.00     0.016 A 
ATOM     29  C   UNL A   1      35.867  32.212  28.000  1.00  0.00     0.016 A 
ATOM     30  C   UNL A   1      36.280  29.533  28.735  1.00  0.00     0.010 A 
ATOM     31  C   UNL A   1      37.069  31.824  28.599  1.00  0.00     0.010 A 
ATOM     32  C   UNL A   1      37.268  30.489  29.002  1.00  0.00    -0.014 A 
BRANCH  32  33
ATOM     33  C   UNL A   1      38.436  30.140  29.847  1.00  0.00     0.031 A 
ATOM     34  C   UNL A   1      39.460  29.180  29.302  1.00  0.00     0.074 A 
ATOM     35  C   UNL A   1      38.593  30.666  31.075  1.00  0.00     0.049 A 
ATOM     36  N   UNL A   1      40.510  28.661  29.885  1.00  0.00    -0.248 NA
ATOM     37  C   UNL A   1      39.262  28.737  27.913  1.00  0.00     0.031 C 
ATOM     38  C   UNL A   1      37.695  31.632  31.701  1.00  0.00     0.029 A 
ATOM     39  N   UNL A   1      39.566  30.448  32.020  1.00  0.00    -0.354 N 
ATOM     40  C   UNL A   1      41.087  27.821  28.940  1.00  0.00     0.074 A 
ATOM     41  C   UNL A   1      40.251  27.869  27.761  1.00  0.00     0.031 C 
ATOM     42  C   UNL A   1      38.153  31.919  32.933  1.00  0.00     0.029 A 
ATOM     43  C   UNL A   1      39.353  31.126  33.194  1.00  0.00     0.049 A 
ATOM     44  H   UNL A   1      40.342  29.861  31.869  1.00  0.00     0.167 HD
ATOM     45  C   UNL A   1      42.219  27.084  29.044  1.00  0.00     0.037 A 
ATOM     46  C   UNL A   1      40.037  31.088  34.356  1.00  0.00     0.037 A 
ATOM     47  C   UNL A   1      43.056  27.048  30.213  1.00  0.00     0.049 A 
ATOM     48  C   UNL A   1      41.256  30.209  34.468  1.00  0.00     0.074 A 
ATOM     49  C   UNL A   1      44.238  26.356  30.406  1.00  0.00     0.029 A 
ATOM     50  N   UNL A   1      42.795  27.732  31.391  1.00  0.00    -0.354 N 
ATOM     51  N   UNL A   1      41.809  29.436  33.565  1.00  0.00    -0.248 NA
ATOM     52  C   UNL A   1      41.948  30.198  35.765  1.00  0.00     0.031 C 
ATOM     53  C   UNL A   1      44.663  26.574  31.721  1.00  0.00     0.029 A 
ATOM     54  C   UNL A   1      43.780  27.453  32.326  1.00  0.00     0.049 A 
ATOM     55  H   UNL A   1      42.026  28.326  31.542  1.00  0.00     0.167 HD
ATOM     56  C   UNL A   1      42.927  28.875  34.171  1.00  0.00     0.074 A 
ATOM     57  C   UNL A   1      42.982  29.406  35.517  1.00  0.00     0.031 C 
ATOM     58  C   UNL A   1      43.827  27.998  33.660  1.00  0.00     0.037 A 
BRANCH  45  59
ATOM     59  C   UNL A   1      42.603  26.236  27.866  1.00  0.00     0.064 A 
ATOM     60  C   UNL A   1      43.514  26.682  26.897  1.00  0.00     0.173 A 
ATOM     61  C   UNL A   1      42.073  24.944  27.721  1.00  0.00     0.173 A 
ATOM     62  F   UNL A   1      44.038  27.915  26.980  1.00  0.00    -0.203 F 
ATOM     63  C   UNL A   1      43.857  25.879  25.812  1.00  0.00     0.198 A 
ATOM     64  C   UNL A   1      42.444  24.131  26.654  1.00  0.00     0.198 A 
ATOM     65  F   UNL A   1      41.200  24.466  28.621  1.00  0.00    -0.203 F 
ATOM     66  F   UNL A   1      44.688  26.348  24.870  1.00  0.00    -0.200 F 
ATOM     67  C   UNL A   1      43.328  24.603  25.695  1.00  0.00     0.200 A 
ATOM     68  F   UNL A   1      41.943  22.893  26.550  1.00  0.00    -0.200 F 
ATOM     69  F   UNL A   1      43.666  23.829  24.655  1.00  0.00    -0.200 F 
ENDBRANCH  45  59
BRANCH  46  70
ATOM     70  C   UNL A   1      39.580  31.899  35.516  1.00  0.00     0.064 A 
ATOM     71  C   UNL A   1      38.628  31.402  36.417  1.00  0.00     0.173 A 
ATOM     72  C   UNL A   1      40.063  33.198  35.732  1.00  0.00     0.173 A 
ATOM     73  F   UNL A   1      38.114  30.176  36.238  1.00  0.00    -0.203 F 
ATOM     74  C   UNL A   1      38.162  32.180  37.476  1.00  0.00     0.198 A 
ATOM     75  C   UNL A   1      39.621  33.963  36.809  1.00  0.00     0.198 A 
ATOM     76  F   UNL A   1      40.973  33.725  34.898  1.00  0.00    -0.203 F 
ATOM     77  F   UNL A   1      37.213  31.697  38.290  1.00  0.00    -0.200 F 
ATOM     78  C   UNL A   1      38.663  33.457  37.675  1.00  0.00     0.200 A 
ATOM     79  F   UNL A   1      40.117  35.192  37.004  1.00  0.00    -0.200 F 
ATOM     80  F   UNL A   1      38.216  34.204  38.693  1.00  0.00    -0.200 F 
ENDBRANCH  46  70
BRANCH  58  81
ATOM     81  C   UNL A   1      44.973  27.588  34.541  1.00  0.00     0.064 A 
ATOM     82  C   UNL A   1      46.163  28.330  34.600  1.00  0.00     0.173 A 
ATOM     83  C   UNL A   1      44.861  26.462  35.372  1.00  0.00     0.173 A 
ATOM     84  F   UNL A   1      46.327  29.406  33.818  1.00  0.00    -0.203 F 
ATOM     85  C   UNL A   1      47.207  27.943  35.436  1.00  0.00     0.198 A 
ATOM     86  C   UNL A   1      45.893  26.098  36.232  1.00  0.00     0.198 A 
ATOM     87  F   UNL A   1      43.742  25.722  35.362  1.00  0.00    -0.203 F 
ATOM     88  F   UNL A   1      48.354  28.637  35.439  1.00  0.00    -0.200 F 
ATOM     89  C   UNL A   1      47.069  26.833  36.257  1.00  0.00     0.200 A 
ATOM     90  F   UNL A   1      45.751  25.035  37.036  1.00  0.00    -0.200 F 
ATOM     91  F   UNL A   1      48.072  26.468  37.068  1.00  0.00    -0.200 F 
ENDBRANCH  58  81
ENDBRANCH  32  33
ENDBRANCH  25  27
ENDBRANCH  24  25
ENDBRANCH  23  24
ENDBRANCH  22  23
ENDBRANCH  21  22
ENDBRANCH   1  21
TORSDOF 18
ENDMDL
MODEL 3
REMARK VINA RESULT:      -9.2      4.429      9.928
REMARK SMILES Cc1noc(C)c1[C@H](C)[NH2+][C@@H](C)CC(=O)OCCOCCOC(=O)c1ccc(-c2c3nc(c(-c4c(F)c(F)c(F)c(F)c4F)c4ccc([nH]4)c(-c4c(F)c(F)c(F)c(F)c4F)c4nc(c(-c5c(F)c(F)c(F)c(F)c5F)c5ccc2[nH]5)C=C4)C=C3)cc1
REMARK SMILES IDX 18 1 17 2 16 3 14 4 15 5 13 6 11 7 12 8 10 9 8 12 9 13 7 14
REMARK SMILES IDX 1 15 2 16 3 17 4 18 5 19 6 20 19 21 20 22 21 23 22 24 23 25
REMARK SMILES IDX 24 26 25 27 26 28 87 29 27 30 86 31 28 32 29 33 30 34 80 35
REMARK SMILES IDX 31 36 85 37 79 38 81 39 32 40 84 41 78 42 77 43 33 45 65 46
REMARK SMILES IDX 45 47 64 48 46 49 49 50 63 51 82 52 47 53 48 54 62 56 83 57
REMARK SMILES IDX 50 58 34 59 35 60 43 61 36 62 37 63 41 64 44 65 38 66 39 67
REMARK SMILES IDX 42 68 40 69 66 70 67 71 75 72 68 73 69 74 73 75 76 76 70 77
REMARK SMILES IDX 71 78 74 79 72 80 51 81 52 82 60 83 53 84 54 85 58 86 61 87
REMARK SMILES IDX 55 88 56 89 59 90 57 91
REMARK H PARENT 10 10 10 11 81 44 49 55
REMARK Flexibility Score: inf
ROOT
ATOM      1  C   UNL A   1      31.360  27.455  25.743  1.00  0.00     0.202 C 
ENDROOT
BRANCH   1   2
ATOM      2  C   UNL A   1      30.444  26.268  26.044  1.00  0.00     0.261 C 
BRANCH   2   3
ATOM      3  O   UNL A   1      31.109  25.202  26.744  1.00  0.00    -0.463 OA
BRANCH   3   4
ATOM      4  C   UNL A   1      30.553  23.976  26.576  1.00  0.00     0.311 C 
ATOM      5  O   UNL A   1      29.710  23.485  27.319  1.00  0.00    -0.252 OA
BRANCH   4   6
ATOM      6  C   UNL A   1      31.152  23.202  25.428  1.00  0.00     0.187 C 
BRANCH   6   7
ATOM      7  C   UNL A   1      32.524  22.517  25.615  1.00  0.00     0.190 C 
ATOM      8  C   UNL A   1      32.850  22.661  27.111  1.00  0.00     0.076 C 
BRANCH   7   9
ATOM      9  N   UNL A   1      33.565  23.147  24.789  1.00  0.00    -0.337 N 
ATOM     10  H   UNL A   1      34.467  22.944  25.221  1.00  0.00     0.347 HD
ATOM     11  H   UNL A   1      33.440  22.754  23.856  1.00  0.00     0.347 HD
BRANCH   9  12
ATOM     12  C   UNL A   1      33.476  24.608  24.609  1.00  0.00     0.216 C 
ATOM     13  C   UNL A   1      34.660  25.240  25.348  1.00  0.00     0.081 C 
BRANCH  12  14
ATOM     14  C   UNL A   1      33.444  25.005  23.161  1.00  0.00     0.074 A 
ATOM     15  C   UNL A   1      32.886  22.705  22.005  1.00  0.00     0.071 C 
ATOM     16  C   UNL A   1      33.167  24.160  22.037  1.00  0.00     0.090 A 
ATOM     17  N   UNL A   1      33.212  24.835  20.885  1.00  0.00    -0.085 NA
ATOM     18  O   UNL A   1      33.489  26.138  21.224  1.00  0.00    -0.361 OA
ATOM     19  C   UNL A   1      33.611  26.248  22.572  1.00  0.00     0.143 A 
ATOM     20  C   UNL A   1      33.847  27.621  23.060  1.00  0.00     0.091 C 
ENDBRANCH  12  14
ENDBRANCH   9  12
ENDBRANCH   7   9
ENDBRANCH   6   7
ENDBRANCH   4   6
ENDBRANCH   3   4
ENDBRANCH   2   3
ENDBRANCH   1   2
BRANCH   1  21
ATOM     21  O   UNL A   1      30.970  28.325  24.686  1.00  0.00    -0.374 OA
BRANCH  21  22
ATOM     22  C   UNL A   1      31.257  29.714  24.848  1.00  0.00     0.202 C 
BRANCH  22  23
ATOM     23  C   UNL A   1      31.736  30.156  26.237  1.00  0.00     0.261 C 
BRANCH  23  24
ATOM     24  O   UNL A   1      33.139  30.482  26.250  1.00  0.00    -0.460 OA
BRANCH  24  25
ATOM     25  C   UNL A   1      33.500  31.459  27.116  1.00  0.00     0.338 C 
ATOM     26  O   UNL A   1      32.817  32.394  27.508  1.00  0.00    -0.246 OA
BRANCH  25  27
ATOM     27  C   UNL A   1      34.815  31.139  27.701  1.00  0.00     0.060 A 
ATOM     28  C   UNL A   1      35.079  29.808  28.050  1.00  0.00     0.016 A 
ATOM     29  C   UNL A   1      35.760  32.135  27.946  1.00  0.00     0.016 A 
ATOM     30  C   UNL A   1      36.283  29.473  28.669  1.00  0.00     0.010 A 
ATOM     31  C   UNL A   1      36.971  31.797  28.555  1.00  0.00     0.010 A 
ATOM     32  C   UNL A   1      37.225  30.470  28.952  1.00  0.00    -0.014 A 
BRANCH  32  33
ATOM     33  C   UNL A   1      38.398  30.167  29.809  1.00  0.00     0.031 A 
ATOM     34  C   UNL A   1      39.454  29.233  29.281  1.00  0.00     0.074 A 
ATOM     35  C   UNL A   1      38.531  30.712  31.031  1.00  0.00     0.049 A 
ATOM     36  N   UNL A   1      40.517  28.754  29.876  1.00  0.00    -0.248 NA
ATOM     37  C   UNL A   1      39.279  28.768  27.896  1.00  0.00     0.031 C 
ATOM     38  C   UNL A   1      37.599  31.658  31.641  1.00  0.00     0.029 A 
ATOM     39  N   UNL A   1      39.504  30.536  31.984  1.00  0.00    -0.354 N 
ATOM     40  C   UNL A   1      41.125  27.921  28.945  1.00  0.00     0.074 A 
ATOM     41  C   UNL A   1      40.295  27.930  27.760  1.00  0.00     0.031 C 
ATOM     42  C   UNL A   1      38.040  31.972  32.871  1.00  0.00     0.029 A 
ATOM     43  C   UNL A   1      39.263  31.220  33.149  1.00  0.00     0.049 A 
ATOM     44  H   UNL A   1      40.299  29.971  31.844  1.00  0.00     0.167 HD
ATOM     45  C   UNL A   1      42.278  27.222  29.063  1.00  0.00     0.037 A 
ATOM     46  C   UNL A   1      39.940  31.218  34.315  1.00  0.00     0.037 A 
ATOM     47  C   UNL A   1      43.109  27.225  30.238  1.00  0.00     0.049 A 
ATOM     48  C   UNL A   1      41.186  30.378  34.444  1.00  0.00     0.074 A 
ATOM     49  C   UNL A   1      44.311  26.573  30.446  1.00  0.00     0.029 A 
ATOM     50  N   UNL A   1      42.820  27.914  31.406  1.00  0.00    -0.354 N 
ATOM     51  N   UNL A   1      41.768  29.612  33.553  1.00  0.00    -0.248 NA
ATOM     52  C   UNL A   1      41.870  30.404  35.746  1.00  0.00     0.031 C 
ATOM     53  C   UNL A   1      44.721  26.819  31.760  1.00  0.00     0.029 A 
ATOM     54  C   UNL A   1      43.807  27.678  32.350  1.00  0.00     0.049 A 
ATOM     55  H   UNL A   1      42.031  28.486  31.546  1.00  0.00     0.167 HD
ATOM     56  C   UNL A   1      42.899  29.093  34.173  1.00  0.00     0.074 A 
ATOM     57  C   UNL A   1      42.929  29.642  35.512  1.00  0.00     0.031 C 
ATOM     58  C   UNL A   1      43.829  28.239  33.677  1.00  0.00     0.037 A 
BRANCH  45  59
ATOM     59  C   UNL A   1      42.696  26.372  27.898  1.00  0.00     0.064 A 
ATOM     60  C   UNL A   1      42.245  25.051  27.746  1.00  0.00     0.173 A 
ATOM     61  C   UNL A   1      43.535  26.896  26.903  1.00  0.00     0.173 A 
ATOM     62  F   UNL A   1      41.454  24.496  28.676  1.00  0.00    -0.203 F 
ATOM     63  C   UNL A   1      42.644  24.279  26.657  1.00  0.00     0.198 A 
ATOM     64  C   UNL A   1      43.904  26.133  25.799  1.00  0.00     0.198 A 
ATOM     65  F   UNL A   1      43.991  28.154  26.997  1.00  0.00    -0.203 F 
ATOM     66  F   UNL A   1      42.245  23.003  26.561  1.00  0.00    -0.200 F 
ATOM     67  C   UNL A   1      43.466  24.823  25.681  1.00  0.00     0.200 A 
ATOM     68  F   UNL A   1      44.687  26.665  24.850  1.00  0.00    -0.200 F 
ATOM     69  F   UNL A   1      43.841  24.081  24.631  1.00  0.00    -0.200 F 
ENDBRANCH  45  59
BRANCH  46  70
ATOM     70  C   UNL A   1      39.451  32.028  35.463  1.00  0.00     0.064 A 
ATOM     71  C   UNL A   1      39.915  33.333  35.678  1.00  0.00     0.173 A 
ATOM     72  C   UNL A   1      38.534  31.503  36.385  1.00  0.00     0.173 A 
ATOM     73  F   UNL A   1      40.814  33.870  34.840  1.00  0.00    -0.203 F 
ATOM     74  C   UNL A   1      39.495  34.074  36.781  1.00  0.00     0.198 A 
ATOM     75  C   UNL A   1      38.090  32.256  37.470  1.00  0.00     0.198 A 
ATOM     76  F   UNL A   1      38.060  30.257  36.229  1.00  0.00    -0.203 F 
ATOM     77  F   UNL A   1      39.995  35.300  36.990  1.00  0.00    -0.200 F 
ATOM     78  C   UNL A   1      38.579  33.538  37.673  1.00  0.00     0.200 A 
ATOM     79  F   UNL A   1      37.195  31.738  38.322  1.00  0.00    -0.200 F 
ATOM     80  F   UNL A   1      38.175  34.251  38.732  1.00  0.00    -0.200 F 
ENDBRANCH  46  70
BRANCH  58  81
ATOM     81  C   UNL A   1      44.983  27.875  34.570  1.00  0.00     0.064 A 
ATOM     82  C   UNL A   1      46.148  28.655  34.627  1.00  0.00     0.173 A 
ATOM     83  C   UNL A   1      44.900  26.756  35.414  1.00  0.00     0.173 A 
ATOM     84  F   UNL A   1      46.283  29.727  33.833  1.00  0.00    -0.203 F 
ATOM     85  C   UNL A   1      47.198  28.310  35.474  1.00  0.00     0.198 A 
ATOM     86  C   UNL A   1      45.938  26.435  36.284  1.00  0.00     0.198 A 
ATOM     87  F   UNL A   1      43.805  25.982  35.406  1.00  0.00    -0.203 F 
ATOM     88  F   UNL A   1      48.323  29.040  35.474  1.00  0.00    -0.200 F 
ATOM     89  C   UNL A   1      47.090  27.206  36.307  1.00  0.00     0.200 A 
ATOM     90  F   UNL A   1      45.824  25.377  37.100  1.00  0.00    -0.200 F 
ATOM     91  F   UNL A   1      48.099  26.882  37.128  1.00  0.00    -0.200 F 
ENDBRANCH  58  81
ENDBRANCH  32  33
ENDBRANCH  25  27
ENDBRANCH  24  25
ENDBRANCH  23  24
ENDBRANCH  22  23
ENDBRANCH  21  22
ENDBRANCH   1  21
TORSDOF 18
ENDMDL
