MODEL 1
REMARK VINA RESULT:      -9.5      0.000      0.000
REMARK SMILES C[C@@H](C(=O)NCC(=O)OCCOCCOC(=O)c1ccc(-c2c3nc(c(-c4c(F)c(F)c(F)c(F)c4F)c4ccc([nH]4)c(-c4c(F)c(F)c(F)c(F)c4F)c4nc(c(-c5c(F)c(F)c(F)c(F)c5F)c5ccc2[nH]5)C=C4)C=C3)cc1)N1C(=O)/C(=C/c2cccc([N+](=O)[O-])c2)SC1=S
REMARK SMILES IDX 10 1 9 2 7 3 8 4 6 5 5 6 3 7 4 8 2 10 1 11 81 12 82 13 96 14
REMARK SMILES IDX 83 15 84 16 95 17 97 18 85 19 86 20 87 21 94 22 88 23 90 24
REMARK SMILES IDX 89 25 91 26 92 27 93 28 11 29 12 30 13 31 14 32 15 33 16 34
REMARK SMILES IDX 17 35 18 36 19 37 80 38 20 39 79 40 21 41 22 42 23 43 73 44
REMARK SMILES IDX 24 45 78 46 72 47 74 48 25 49 77 50 71 51 70 52 26 54 58 55
REMARK SMILES IDX 38 56 57 57 39 58 42 59 56 60 75 61 40 62 41 63 55 65 76 66
REMARK SMILES IDX 43 67 27 68 28 69 36 70 29 71 30 72 34 73 37 74 31 75 32 76
REMARK SMILES IDX 35 77 33 78 59 79 60 80 68 81 61 82 62 83 66 84 69 85 63 86
REMARK SMILES IDX 64 87 67 88 65 89 44 90 45 91 53 92 46 93 47 94 51 95 54 96
REMARK SMILES IDX 48 97 49 98 52 99 50 100
REMARK H PARENT 5 9 74 53 42 64
REMARK Flexibility Score: inf
ROOT
ATOM      1  C   UNL A   1      32.944  36.320  30.046  1.00  0.00     0.261 C 
ENDROOT
BRANCH   1   2
ATOM      2  O   UNL A   1      33.004  35.514  31.234  1.00  0.00    -0.462 OA
BRANCH   2   3
ATOM      3  C   UNL A   1      33.140  36.180  32.413  1.00  0.00     0.325 C 
ATOM      4  O   UNL A   1      32.330  36.970  32.876  1.00  0.00    -0.250 OA
BRANCH   3   5
ATOM      5  C   UNL A   1      34.412  35.761  33.156  1.00  0.00     0.238 C 
BRANCH   5   6
ATOM      6  N   UNL A   1      35.527  35.361  32.303  1.00  0.00    -0.343 N 
ATOM      7  C   UNL A   1      36.442  34.366  32.478  1.00  0.00     0.243 C 
ATOM      8  O   UNL A   1      37.335  34.256  31.637  1.00  0.00    -0.273 OA
ATOM      9  H   UNL A   1      35.636  35.889  31.480  1.00  0.00     0.164 HD
BRANCH   7  10
ATOM     10  C   UNL A   1      36.323  33.424  33.689  1.00  0.00     0.178 C 
ATOM     11  C   UNL A   1      35.645  34.070  34.894  1.00  0.00     0.042 C 
BRANCH  10  12
ATOM     12  N   UNL A   1      37.650  32.828  33.947  1.00  0.00    -0.281 N 
ATOM     13  C   UNL A   1      37.825  31.514  33.537  1.00  0.00     0.266 C 
ATOM     14  C   UNL A   1      38.784  33.471  34.405  1.00  0.00     0.149 C 
ATOM     15  O   UNL A   1      36.989  30.818  32.975  1.00  0.00    -0.268 OA
ATOM     16  C   UNL A   1      39.180  31.031  33.892  1.00  0.00     0.081 C 
ATOM     17  S   UNL A   1      40.090  32.302  34.596  1.00  0.00    -0.054 SA
ATOM     18  S   UNL A   1      39.030  35.078  34.785  1.00  0.00    -0.052 S 
ATOM     19  C   UNL A   1      39.554  29.757  33.712  1.00  0.00     0.029 C 
BRANCH  19  20
ATOM     20  C   UNL A   1      40.806  29.193  34.221  1.00  0.00    -0.018 A 
ATOM     21  C   UNL A   1      41.156  29.300  35.570  1.00  0.00     0.008 A 
ATOM     22  C   UNL A   1      41.652  28.515  33.335  1.00  0.00     0.093 A 
ATOM     23  C   UNL A   1      42.340  28.721  36.038  1.00  0.00     0.008 A 
ATOM     24  C   UNL A   1      42.830  27.930  33.810  1.00  0.00     0.270 A 
ATOM     25  C   UNL A   1      43.180  28.030  35.161  1.00  0.00     0.085 A 
BRANCH  24  26
ATOM     26  N   UNL A   1      43.695  27.197  32.878  1.00  0.00     0.062 N 
ATOM     27  O   UNL A   1      43.243  26.937  31.755  1.00  0.00    -0.258 OA
ATOM     28  O   UNL A   1      44.826  26.879  33.271  1.00  0.00    -0.258 OA
ENDBRANCH  24  26
ENDBRANCH  19  20
ENDBRANCH  10  12
ENDBRANCH   7  10
ENDBRANCH   5   6
ENDBRANCH   3   5
ENDBRANCH   2   3
ENDBRANCH   1   2
BRANCH   1  29
ATOM     29  C   UNL A   1      33.184  35.450  28.808  1.00  0.00     0.202 C 
BRANCH  29  30
ATOM     30  O   UNL A   1      33.785  34.177  29.058  1.00  0.00    -0.374 OA
BRANCH  30  31
ATOM     31  C   UNL A   1      33.663  33.178  28.047  1.00  0.00     0.202 C 
BRANCH  31  32
ATOM     32  C   UNL A   1      34.767  32.117  27.993  1.00  0.00     0.261 C 
BRANCH  32  33
ATOM     33  O   UNL A   1      34.348  30.860  28.554  1.00  0.00    -0.460 OA
BRANCH  33  34
ATOM     34  C   UNL A   1      34.954  29.776  28.014  1.00  0.00     0.338 C 
ATOM     35  O   UNL A   1      34.484  28.997  27.198  1.00  0.00    -0.246 OA
BRANCH  34  36
ATOM     36  C   UNL A   1      36.371  29.714  28.415  1.00  0.00     0.060 A 
ATOM     37  C   UNL A   1      37.326  29.945  27.417  1.00  0.00     0.016 A 
ATOM     38  C   UNL A   1      36.767  29.343  29.703  1.00  0.00     0.016 A 
ATOM     39  C   UNL A   1      38.679  29.755  27.688  1.00  0.00     0.010 A 
ATOM     40  C   UNL A   1      38.129  29.146  29.970  1.00  0.00     0.010 A 
ATOM     41  C   UNL A   1      39.086  29.316  28.955  1.00  0.00    -0.014 A 
BRANCH  41  42
ATOM     42  C   UNL A   1      40.504  28.928  29.162  1.00  0.00     0.031 A 
ATOM     43  C   UNL A   1      41.415  29.838  29.938  1.00  0.00     0.074 A 
ATOM     44  C   UNL A   1      40.960  27.747  28.711  1.00  0.00     0.049 A 
ATOM     45  N   UNL A   1      42.671  29.674  30.269  1.00  0.00    -0.248 NA
ATOM     46  C   UNL A   1      40.830  31.104  30.408  1.00  0.00     0.031 C 
ATOM     47  C   UNL A   1      40.169  26.766  27.971  1.00  0.00     0.029 A 
ATOM     48  N   UNL A   1      42.203  27.173  28.813  1.00  0.00    -0.354 N 
ATOM     49  C   UNL A   1      43.027  30.810  30.982  1.00  0.00     0.074 A 
ATOM     50  C   UNL A   1      41.864  31.671  31.013  1.00  0.00     0.031 C 
ATOM     51  C   UNL A   1      40.947  25.708  27.685  1.00  0.00     0.029 A 
ATOM     52  C   UNL A   1      42.294  25.949  28.199  1.00  0.00     0.049 A 
ATOM     53  H   UNL A   1      42.956  27.599  29.281  1.00  0.00     0.167 HD
ATOM     54  C   UNL A   1      44.213  31.104  31.566  1.00  0.00     0.037 A 
ATOM     55  C   UNL A   1      43.349  25.124  28.059  1.00  0.00     0.037 A 
ATOM     56  C   UNL A   1      45.371  30.249  31.537  1.00  0.00     0.049 A 
ATOM     57  C   UNL A   1      44.675  25.505  28.662  1.00  0.00     0.074 A 
ATOM     58  C   UNL A   1      46.605  30.444  32.132  1.00  0.00     0.029 A 
ATOM     59  N   UNL A   1      45.439  29.038  30.865  1.00  0.00    -0.354 N 
ATOM     60  N   UNL A   1      44.990  26.559  29.374  1.00  0.00    -0.248 NA
ATOM     61  C   UNL A   1      45.793  24.575  28.444  1.00  0.00     0.031 C 
ATOM     62  C   UNL A   1      47.436  29.375  31.779  1.00  0.00     0.029 A 
ATOM     63  C   UNL A   1      46.705  28.489  31.003  1.00  0.00     0.049 A 
ATOM     64  H   UNL A   1      44.698  28.627  30.364  1.00  0.00     0.167 HD
ATOM     65  C   UNL A   1      46.330  26.410  29.707  1.00  0.00     0.074 A 
ATOM     66  C   UNL A   1      46.766  25.155  29.132  1.00  0.00     0.031 C 
ATOM     67  C   UNL A   1      47.128  27.240  30.425  1.00  0.00     0.037 A 
BRANCH  54  68
ATOM     68  C   UNL A   1      44.328  32.423  32.272  1.00  0.00     0.064 A 
ATOM     69  C   UNL A   1      44.788  33.574  31.613  1.00  0.00     0.173 A 
ATOM     70  C   UNL A   1      43.942  32.546  33.615  1.00  0.00     0.173 A 
ATOM     71  F   UNL A   1      45.180  33.507  30.333  1.00  0.00    -0.203 F 
ATOM     72  C   UNL A   1      44.879  34.793  32.281  1.00  0.00     0.198 A 
ATOM     73  C   UNL A   1      44.009  33.771  34.272  1.00  0.00     0.198 A 
ATOM     74  F   UNL A   1      43.491  31.477  34.288  1.00  0.00    -0.203 F 
ATOM     75  F   UNL A   1      45.359  35.870  31.645  1.00  0.00    -0.200 F 
ATOM     76  C   UNL A   1      44.484  34.891  33.607  1.00  0.00     0.200 A 
ATOM     77  F   UNL A   1      43.618  33.867  35.550  1.00  0.00    -0.200 F 
ATOM     78  F   UNL A   1      44.567  36.066  34.247  1.00  0.00    -0.200 F 
ENDBRANCH  54  68
BRANCH  55  79
ATOM     79  C   UNL A   1      43.196  23.850  27.313  1.00  0.00     0.064 A 
ATOM     80  C   UNL A   1      43.518  23.766  25.952  1.00  0.00     0.173 A 
ATOM     81  C   UNL A   1      42.713  22.692  27.943  1.00  0.00     0.173 A 
ATOM     82  F   UNL A   1      43.956  24.854  25.300  1.00  0.00    -0.203 F 
ATOM     83  C   UNL A   1      43.352  22.576  25.245  1.00  0.00     0.198 A 
ATOM     84  C   UNL A   1      42.573  21.497  27.242  1.00  0.00     0.198 A 
ATOM     85  F   UNL A   1      42.385  22.723  29.243  1.00  0.00    -0.203 F 
ATOM     86  F   UNL A   1      43.629  22.534  23.935  1.00  0.00    -0.200 F 
ATOM     87  C   UNL A   1      42.886  21.442  25.892  1.00  0.00     0.200 A 
ATOM     88  F   UNL A   1      42.131  20.401  27.873  1.00  0.00    -0.200 F 
ATOM     89  F   UNL A   1      42.732  20.297  25.214  1.00  0.00    -0.200 F 
ENDBRANCH  55  79
BRANCH  67  90
ATOM     90  C   UNL A   1      48.547  26.806  30.649  1.00  0.00     0.064 A 
ATOM     91  C   UNL A   1      49.587  27.231  29.809  1.00  0.00     0.173 A 
ATOM     92  C   UNL A   1      48.876  25.980  31.735  1.00  0.00     0.173 A 
ATOM     93  F   UNL A   1      49.322  28.008  28.747  1.00  0.00    -0.203 F 
ATOM     94  C   UNL A   1      50.900  26.825  30.033  1.00  0.00     0.198 A 
ATOM     95  C   UNL A   1      50.194  25.599  31.973  1.00  0.00     0.198 A 
ATOM     96  F   UNL A   1      47.921  25.551  32.573  1.00  0.00    -0.203 F 
ATOM     97  F   UNL A   1      51.870  27.206  29.190  1.00  0.00    -0.200 F 
ATOM     98  C   UNL A   1      51.204  26.016  31.118  1.00  0.00     0.200 A 
ATOM     99  F   UNL A   1      50.488  24.828  33.029  1.00  0.00    -0.200 F 
ATOM    100  F   UNL A   1      52.469  25.630  31.335  1.00  0.00    -0.200 F 
ENDBRANCH  67  90
ENDBRANCH  41  42
ENDBRANCH  34  36
ENDBRANCH  33  34
ENDBRANCH  32  33
ENDBRANCH  31  32
ENDBRANCH  30  31
ENDBRANCH  29  30
ENDBRANCH   1  29
TORSDOF 19
ENDMDL
MODEL 2
REMARK VINA RESULT:      -9.5      5.121     10.717
REMARK SMILES C[C@@H](C(=O)NCC(=O)OCCOCCOC(=O)c1ccc(-c2c3nc(c(-c4c(F)c(F)c(F)c(F)c4F)c4ccc([nH]4)c(-c4c(F)c(F)c(F)c(F)c4F)c4nc(c(-c5c(F)c(F)c(F)c(F)c5F)c5ccc2[nH]5)C=C4)C=C3)cc1)N1C(=O)/C(=C/c2cccc([N+](=O)[O-])c2)SC1=S
REMARK SMILES IDX 10 1 9 2 7 3 8 4 6 5 5 6 3 7 4 8 2 10 1 11 81 12 82 13 96 14
REMARK SMILES IDX 83 15 84 16 95 17 97 18 85 19 86 20 87 21 94 22 88 23 90 24
REMARK SMILES IDX 89 25 91 26 92 27 93 28 11 29 12 30 13 31 14 32 15 33 16 34
REMARK SMILES IDX 17 35 18 36 19 37 80 38 20 39 79 40 21 41 22 42 23 43 73 44
REMARK SMILES IDX 24 45 78 46 72 47 74 48 25 49 77 50 71 51 70 52 26 54 58 55
REMARK SMILES IDX 38 56 57 57 39 58 42 59 56 60 75 61 40 62 41 63 55 65 76 66
REMARK SMILES IDX 43 67 27 68 28 69 36 70 29 71 30 72 34 73 37 74 31 75 32 76
REMARK SMILES IDX 35 77 33 78 59 79 60 80 68 81 61 82 62 83 66 84 69 85 63 86
REMARK SMILES IDX 64 87 67 88 65 89 44 90 45 91 53 92 46 93 47 94 51 95 54 96
REMARK SMILES IDX 48 97 49 98 52 99 50 100
REMARK H PARENT 5 9 74 53 42 64
REMARK Flexibility Score: inf
ROOT
ATOM      1  C   UNL A   1      32.820  21.321  25.053  1.00  0.00     0.261 C 
ENDROOT
BRANCH   1   2
ATOM      2  O   UNL A   1      33.094  22.084  23.867  1.00  0.00    -0.462 OA
BRANCH   2   3
ATOM      3  C   UNL A   1      32.123  22.093  22.913  1.00  0.00     0.325 C 
ATOM      4  O   UNL A   1      31.997  21.263  22.024  1.00  0.00    -0.250 OA
BRANCH   3   5
ATOM      5  C   UNL A   1      31.129  23.239  23.130  1.00  0.00     0.238 C 
BRANCH   5   6
ATOM      6  N   UNL A   1      31.425  24.466  22.395  1.00  0.00    -0.343 N 
ATOM      7  C   UNL A   1      31.005  25.741  22.629  1.00  0.00     0.243 C 
ATOM      8  O   UNL A   1      31.348  26.612  21.828  1.00  0.00    -0.273 OA
ATOM      9  H   UNL A   1      32.014  24.355  21.615  1.00  0.00     0.164 HD
BRANCH   7  10
ATOM     10  C   UNL A   1      30.145  26.047  23.869  1.00  0.00     0.178 C 
ATOM     11  C   UNL A   1      28.844  26.772  23.537  1.00  0.00     0.042 C 
BRANCH  10  12
ATOM     12  N   UNL A   1      31.001  26.701  24.878  1.00  0.00    -0.281 N 
ATOM     13  C   UNL A   1      31.073  28.087  24.819  1.00  0.00     0.266 C 
ATOM     14  C   UNL A   1      31.614  26.114  25.969  1.00  0.00     0.149 C 
ATOM     15  O   UNL A   1      30.485  28.805  24.020  1.00  0.00    -0.268 OA
ATOM     16  C   UNL A   1      31.994  28.608  25.857  1.00  0.00     0.081 C 
ATOM     17  S   UNL A   1      32.568  27.319  26.832  1.00  0.00    -0.054 SA
ATOM     18  S   UNL A   1      31.575  24.532  26.501  1.00  0.00    -0.052 S 
ATOM     19  C   UNL A   1      32.328  29.903  25.930  1.00  0.00     0.029 C 
BRANCH  19  20
ATOM     20  C   UNL A   1      33.375  30.428  26.809  1.00  0.00    -0.018 A 
ATOM     21  C   UNL A   1      34.489  29.658  27.154  1.00  0.00     0.008 A 
ATOM     22  C   UNL A   1      33.258  31.738  27.290  1.00  0.00     0.093 A 
ATOM     23  C   UNL A   1      35.492  30.198  27.966  1.00  0.00     0.008 A 
ATOM     24  C   UNL A   1      34.270  32.276  28.094  1.00  0.00     0.270 A 
ATOM     25  C   UNL A   1      35.389  31.509  28.436  1.00  0.00     0.085 A 
BRANCH  24  26
ATOM     26  N   UNL A   1      34.152  33.659  28.569  1.00  0.00     0.062 N 
ATOM     27  O   UNL A   1      33.651  33.844  29.686  1.00  0.00    -0.258 OA
ATOM     28  O   UNL A   1      34.557  34.561  27.822  1.00  0.00    -0.258 OA
ENDBRANCH  24  26
ENDBRANCH  19  20
ENDBRANCH  10  12
ENDBRANCH   7  10
ENDBRANCH   5   6
ENDBRANCH   3   5
ENDBRANCH   2   3
ENDBRANCH   1   2
BRANCH   1  29
ATOM     29  C   UNL A   1      34.132  20.921  25.734  1.00  0.00     0.202 C 
BRANCH  29  30
ATOM     30  O   UNL A   1      34.949  20.003  25.004  1.00  0.00    -0.374 OA
BRANCH  30  31
ATOM     31  C   UNL A   1      36.356  20.239  24.990  1.00  0.00     0.202 C 
BRANCH  31  32
ATOM     32  C   UNL A   1      36.853  21.476  25.745  1.00  0.00     0.261 C 
BRANCH  32  33
ATOM     33  O   UNL A   1      38.148  21.911  25.294  1.00  0.00    -0.460 OA
BRANCH  33  34
ATOM     34  C   UNL A   1      39.164  21.612  26.137  1.00  0.00     0.338 C 
ATOM     35  O   UNL A   1      39.710  20.526  26.281  1.00  0.00    -0.246 OA
BRANCH  34  36
ATOM     36  C   UNL A   1      39.680  22.828  26.790  1.00  0.00     0.060 A 
ATOM     37  C   UNL A   1      39.116  24.049  26.399  1.00  0.00     0.016 A 
ATOM     38  C   UNL A   1      40.750  22.797  27.689  1.00  0.00     0.016 A 
ATOM     39  C   UNL A   1      39.656  25.247  26.862  1.00  0.00     0.010 A 
ATOM     40  C   UNL A   1      41.294  24.004  28.147  1.00  0.00     0.010 A 
ATOM     41  C   UNL A   1      40.773  25.233  27.708  1.00  0.00    -0.014 A 
BRANCH  41  42
ATOM     42  C   UNL A   1      41.452  26.514  28.026  1.00  0.00     0.031 A 
ATOM     43  C   UNL A   1      42.835  26.770  27.498  1.00  0.00     0.074 A 
ATOM     44  C   UNL A   1      40.817  27.464  28.735  1.00  0.00     0.049 A 
ATOM     45  N   UNL A   1      43.590  27.834  27.622  1.00  0.00    -0.248 NA
ATOM     46  C   UNL A   1      43.452  25.684  26.720  1.00  0.00     0.031 C 
ATOM     47  C   UNL A   1      39.465  27.347  29.277  1.00  0.00     0.029 A 
ATOM     48  N   UNL A   1      41.228  28.717  29.116  1.00  0.00    -0.354 N 
ATOM     49  C   UNL A   1      44.765  27.545  26.943  1.00  0.00     0.074 A 
ATOM     50  C   UNL A   1      44.638  26.197  26.431  1.00  0.00     0.031 C 
ATOM     51  C   UNL A   1      39.156  28.485  29.922  1.00  0.00     0.029 A 
ATOM     52  C   UNL A   1      40.297  29.397  29.860  1.00  0.00     0.049 A 
ATOM     53  H   UNL A   1      42.106  29.091  28.878  1.00  0.00     0.167 HD
ATOM     54  C   UNL A   1      45.849  28.336  26.755  1.00  0.00     0.037 A 
ATOM     55  C   UNL A   1      40.364  30.613  30.434  1.00  0.00     0.037 A 
ATOM     56  C   UNL A   1      45.977  29.677  27.263  1.00  0.00     0.049 A 
ATOM     57  C   UNL A   1      41.606  31.447  30.265  1.00  0.00     0.074 A 
ATOM     58  C   UNL A   1      47.021  30.571  27.092  1.00  0.00     0.029 A 
ATOM     59  N   UNL A   1      45.033  30.315  28.052  1.00  0.00    -0.354 N 
ATOM     60  N   UNL A   1      42.694  31.185  29.582  1.00  0.00    -0.248 NA
ATOM     61  C   UNL A   1      41.626  32.751  30.945  1.00  0.00     0.031 C 
ATOM     62  C   UNL A   1      46.730  31.730  27.819  1.00  0.00     0.029 A 
ATOM     63  C   UNL A   1      45.483  31.578  28.404  1.00  0.00     0.049 A 
ATOM     64  H   UNL A   1      44.169  29.928  28.324  1.00  0.00     0.167 HD
ATOM     65  C   UNL A   1      43.516  32.295  29.731  1.00  0.00     0.074 A 
ATOM     66  C   UNL A   1      42.795  33.241  30.556  1.00  0.00     0.031 C 
ATOM     67  C   UNL A   1      44.757  32.510  29.228  1.00  0.00     0.037 A 
BRANCH  54  68
ATOM     68  C   UNL A   1      47.000  27.761  25.982  1.00  0.00     0.064 A 
ATOM     69  C   UNL A   1      47.062  27.844  24.583  1.00  0.00     0.173 A 
ATOM     70  C   UNL A   1      48.070  27.150  26.653  1.00  0.00     0.173 A 
ATOM     71  F   UNL A   1      46.059  28.407  23.895  1.00  0.00    -0.203 F 
ATOM     72  C   UNL A   1      48.142  27.313  23.883  1.00  0.00     0.198 A 
ATOM     73  C   UNL A   1      49.161  26.644  25.951  1.00  0.00     0.198 A 
ATOM     74  F   UNL A   1      48.062  27.051  27.991  1.00  0.00    -0.203 F 
ATOM     75  F   UNL A   1      48.162  27.365  22.543  1.00  0.00    -0.200 F 
ATOM     76  C   UNL A   1      49.193  26.720  24.567  1.00  0.00     0.200 A 
ATOM     77  F   UNL A   1      50.180  26.081  26.615  1.00  0.00    -0.200 F 
ATOM     78  F   UNL A   1      50.235  26.214  23.891  1.00  0.00    -0.200 F 
ENDBRANCH  54  68
BRANCH  55  79
ATOM     79  C   UNL A   1      39.215  31.120  31.228  1.00  0.00     0.064 A 
ATOM     80  C   UNL A   1      38.293  32.016  30.672  1.00  0.00     0.173 A 
ATOM     81  C   UNL A   1      39.023  30.724  32.560  1.00  0.00     0.173 A 
ATOM     82  F   UNL A   1      38.452  32.445  29.411  1.00  0.00    -0.203 F 
ATOM     83  C   UNL A   1      37.229  32.511  31.424  1.00  0.00     0.198 A 
ATOM     84  C   UNL A   1      37.944  31.198  33.302  1.00  0.00     0.198 A 
ATOM     85  F   UNL A   1      39.882  29.872  33.138  1.00  0.00    -0.203 F 
ATOM     86  F   UNL A   1      36.385  33.399  30.883  1.00  0.00    -0.200 F 
ATOM     87  C   UNL A   1      37.051  32.096  32.736  1.00  0.00     0.200 A 
ATOM     88  F   UNL A   1      37.771  30.788  34.565  1.00  0.00    -0.200 F 
ATOM     89  F   UNL A   1      36.025  32.567  33.456  1.00  0.00    -0.200 F 
ENDBRANCH  55  79
BRANCH  67  90
ATOM     90  C   UNL A   1      45.405  33.828  29.537  1.00  0.00     0.064 A 
ATOM     91  C   UNL A   1      46.229  33.996  30.661  1.00  0.00     0.173 A 
ATOM     92  C   UNL A   1      45.227  34.927  28.684  1.00  0.00     0.173 A 
ATOM     93  F   UNL A   1      46.419  32.980  31.517  1.00  0.00    -0.203 F 
ATOM     94  C   UNL A   1      46.829  35.224  30.931  1.00  0.00     0.198 A 
ATOM     95  C   UNL A   1      45.850  36.145  28.941  1.00  0.00     0.198 A 
ATOM     96  F   UNL A   1      44.454  34.818  27.592  1.00  0.00    -0.203 F 
ATOM     97  F   UNL A   1      47.573  35.375  32.035  1.00  0.00    -0.200 F 
ATOM     98  C   UNL A   1      46.645  36.294  30.068  1.00  0.00     0.200 A 
ATOM     99  F   UNL A   1      45.682  37.175  28.101  1.00  0.00    -0.200 F 
ATOM    100  F   UNL A   1      47.226  37.474  30.328  1.00  0.00    -0.200 F 
ENDBRANCH  67  90
ENDBRANCH  41  42
ENDBRANCH  34  36
ENDBRANCH  33  34
ENDBRANCH  32  33
ENDBRANCH  31  32
ENDBRANCH  30  31
ENDBRANCH  29  30
ENDBRANCH   1  29
TORSDOF 19
ENDMDL
MODEL 3
REMARK VINA RESULT:      -8.1      5.782      9.673
REMARK SMILES C[C@@H](C(=O)NCC(=O)OCCOCCOC(=O)c1ccc(-c2c3nc(c(-c4c(F)c(F)c(F)c(F)c4F)c4ccc([nH]4)c(-c4c(F)c(F)c(F)c(F)c4F)c4nc(c(-c5c(F)c(F)c(F)c(F)c5F)c5ccc2[nH]5)C=C4)C=C3)cc1)N1C(=O)/C(=C/c2cccc([N+](=O)[O-])c2)SC1=S
REMARK SMILES IDX 10 1 9 2 7 3 8 4 6 5 5 6 3 7 4 8 2 10 1 11 81 12 82 13 96 14
REMARK SMILES IDX 83 15 84 16 95 17 97 18 85 19 86 20 87 21 94 22 88 23 90 24
REMARK SMILES IDX 89 25 91 26 92 27 93 28 11 29 12 30 13 31 14 32 15 33 16 34
REMARK SMILES IDX 17 35 18 36 19 37 80 38 20 39 79 40 21 41 22 42 23 43 73 44
REMARK SMILES IDX 24 45 78 46 72 47 74 48 25 49 77 50 71 51 70 52 26 54 58 55
REMARK SMILES IDX 38 56 57 57 39 58 42 59 56 60 75 61 40 62 41 63 55 65 76 66
REMARK SMILES IDX 43 67 27 68 28 69 36 70 29 71 30 72 34 73 37 74 31 75 32 76
REMARK SMILES IDX 35 77 33 78 59 79 60 80 68 81 61 82 62 83 66 84 69 85 63 86
REMARK SMILES IDX 64 87 67 88 65 89 44 90 45 91 53 92 46 93 47 94 51 95 54 96
REMARK SMILES IDX 48 97 49 98 52 99 50 100
REMARK H PARENT 5 9 74 53 42 64
REMARK Flexibility Score: inf
ROOT
ATOM      1  C   UNL A   1      39.315  28.289  30.173  1.00  0.00     0.261 C 
ENDROOT
BRANCH   1   2
ATOM      2  O   UNL A   1      38.198  27.843  30.961  1.00  0.00    -0.462 OA
BRANCH   2   3
ATOM      3  C   UNL A   1      37.747  28.704  31.913  1.00  0.00     0.325 C 
ATOM      4  O   UNL A   1      37.406  28.391  33.045  1.00  0.00    -0.250 OA
BRANCH   3   5
ATOM      5  C   UNL A   1      37.792  30.157  31.430  1.00  0.00     0.238 C 
BRANCH   5   6
ATOM      6  N   UNL A   1      36.586  30.937  31.692  1.00  0.00    -0.343 N 
ATOM      7  C   UNL A   1      35.918  31.804  30.880  1.00  0.00     0.243 C 
ATOM      8  O   UNL A   1      34.944  32.393  31.351  1.00  0.00    -0.273 OA
ATOM      9  H   UNL A   1      36.198  30.820  32.589  1.00  0.00     0.164 HD
BRANCH   7  10
ATOM     10  C   UNL A   1      36.387  32.005  29.428  1.00  0.00     0.178 C 
ATOM     11  C   UNL A   1      36.840  33.432  29.131  1.00  0.00     0.042 C 
BRANCH  10  12
ATOM     12  N   UNL A   1      35.350  31.464  28.526  1.00  0.00    -0.281 N 
ATOM     13  C   UNL A   1      35.434  30.110  28.234  1.00  0.00     0.266 C 
ATOM     14  C   UNL A   1      34.218  32.109  28.065  1.00  0.00     0.149 C 
ATOM     15  O   UNL A   1      36.275  29.331  28.665  1.00  0.00    -0.268 OA
ATOM     16  C   UNL A   1      34.362  29.710  27.291  1.00  0.00     0.081 C 
ATOM     17  S   UNL A   1      33.334  31.044  26.973  1.00  0.00    -0.054 SA
ATOM     18  S   UNL A   1      33.656  33.650  28.377  1.00  0.00    -0.052 S 
ATOM     19  C   UNL A   1      34.299  28.481  26.761  1.00  0.00     0.029 C 
BRANCH  19  20
ATOM     20  C   UNL A   1      33.380  28.102  25.686  1.00  0.00    -0.018 A 
ATOM     21  C   UNL A   1      33.653  28.414  24.351  1.00  0.00     0.008 A 
ATOM     22  C   UNL A   1      32.218  27.391  26.011  1.00  0.00     0.093 A 
ATOM     23  C   UNL A   1      32.776  28.007  23.340  1.00  0.00     0.008 A 
ATOM     24  C   UNL A   1      31.349  26.978  24.994  1.00  0.00     0.270 A 
ATOM     25  C   UNL A   1      31.624  27.285  23.657  1.00  0.00     0.085 A 
BRANCH  24  26
ATOM     26  N   UNL A   1      30.150  26.209  25.342  1.00  0.00     0.062 N 
ATOM     27  O   UNL A   1      30.064  25.766  26.496  1.00  0.00    -0.258 OA
ATOM     28  O   UNL A   1      29.294  26.046  24.461  1.00  0.00    -0.258 OA
ENDBRANCH  24  26
ENDBRANCH  19  20
ENDBRANCH  10  12
ENDBRANCH   7  10
ENDBRANCH   5   6
ENDBRANCH   3   5
ENDBRANCH   2   3
ENDBRANCH   1   2
BRANCH   1  29
ATOM     29  C   UNL A   1      39.358  27.526  28.846  1.00  0.00     0.202 C 
BRANCH  29  30
ATOM     30  O   UNL A   1      39.767  26.158  28.935  1.00  0.00    -0.374 OA
BRANCH  30  31
ATOM     31  C   UNL A   1      39.643  25.354  27.763  1.00  0.00     0.202 C 
BRANCH  31  32
ATOM     32  C   UNL A   1      40.658  24.217  27.600  1.00  0.00     0.261 C 
BRANCH  32  33
ATOM     33  O   UNL A   1      42.010  24.652  27.830  1.00  0.00    -0.460 OA
BRANCH  33  34
ATOM     34  C   UNL A   1      42.933  24.053  27.040  1.00  0.00     0.338 C 
ATOM     35  O   UNL A   1      42.831  22.974  26.474  1.00  0.00    -0.246 OA
BRANCH  34  36
ATOM     36  C   UNL A   1      44.074  24.951  26.792  1.00  0.00     0.060 A 
ATOM     37  C   UNL A   1      44.779  25.411  27.912  1.00  0.00     0.016 A 
ATOM     38  C   UNL A   1      44.395  25.416  25.514  1.00  0.00     0.016 A 
ATOM     39  C   UNL A   1      45.771  26.378  27.765  1.00  0.00     0.010 A 
ATOM     40  C   UNL A   1      45.388  26.393  25.370  1.00  0.00     0.010 A 
ATOM     41  C   UNL A   1      46.055  26.904  26.497  1.00  0.00    -0.014 A 
BRANCH  41  42
ATOM     42  C   UNL A   1      46.967  28.069  26.389  1.00  0.00     0.031 A 
ATOM     43  C   UNL A   1      46.422  29.457  26.573  1.00  0.00     0.074 A 
ATOM     44  C   UNL A   1      48.283  27.887  26.184  1.00  0.00     0.049 A 
ATOM     45  N   UNL A   1      47.049  30.607  26.559  1.00  0.00    -0.248 NA
ATOM     46  C   UNL A   1      44.973  29.566  26.807  1.00  0.00     0.031 C 
ATOM     47  C   UNL A   1      48.938  26.590  26.019  1.00  0.00     0.029 A 
ATOM     48  N   UNL A   1      49.306  28.798  26.083  1.00  0.00    -0.354 N 
ATOM     49  C   UNL A   1      46.076  31.571  26.781  1.00  0.00     0.074 A 
ATOM     50  C   UNL A   1      44.811  30.878  26.898  1.00  0.00     0.031 C 
ATOM     51  C   UNL A   1      50.255  26.789  25.837  1.00  0.00     0.029 A 
ATOM     52  C   UNL A   1      50.530  28.225  25.848  1.00  0.00     0.049 A 
ATOM     53  H   UNL A   1      49.172  29.769  26.171  1.00  0.00     0.167 HD
ATOM     54  C   UNL A   1      46.226  32.914  26.887  1.00  0.00     0.037 A 
ATOM     55  C   UNL A   1      51.733  28.797  25.652  1.00  0.00     0.037 A 
ATOM     56  C   UNL A   1      47.483  33.606  26.772  1.00  0.00     0.049 A 
ATOM     57  C   UNL A   1      51.862  30.296  25.711  1.00  0.00     0.074 A 
ATOM     58  C   UNL A   1      47.740  34.960  26.903  1.00  0.00     0.029 A 
ATOM     59  N   UNL A   1      48.695  32.996  26.487  1.00  0.00    -0.354 N 
ATOM     60  N   UNL A   1      50.945  31.197  25.967  1.00  0.00    -0.248 NA
ATOM     61  C   UNL A   1      53.197  30.856  25.455  1.00  0.00     0.031 C 
ATOM     62  C   UNL A   1      49.099  35.175  26.647  1.00  0.00     0.029 A 
ATOM     63  C   UNL A   1      49.699  33.950  26.405  1.00  0.00     0.049 A 
ATOM     64  H   UNL A   1      48.825  32.028  26.361  1.00  0.00     0.167 HD
ATOM     65  C   UNL A   1      51.593  32.425  25.926  1.00  0.00     0.074 A 
ATOM     66  C   UNL A   1      52.986  32.152  25.636  1.00  0.00     0.031 C 
ATOM     67  C   UNL A   1      51.080  33.666  26.113  1.00  0.00     0.037 A 
BRANCH  54  68
ATOM     68  C   UNL A   1      44.990  33.732  27.119  1.00  0.00     0.064 A 
ATOM     69  C   UNL A   1      44.174  34.153  26.058  1.00  0.00     0.173 A 
ATOM     70  C   UNL A   1      44.597  34.069  28.423  1.00  0.00     0.173 A 
ATOM     71  F   UNL A   1      44.512  33.866  24.793  1.00  0.00    -0.203 F 
ATOM     72  C   UNL A   1      43.024  34.902  26.293  1.00  0.00     0.198 A 
ATOM     73  C   UNL A   1      43.433  34.796  28.656  1.00  0.00     0.198 A 
ATOM     74  F   UNL A   1      45.339  33.686  29.473  1.00  0.00    -0.203 F 
ATOM     75  F   UNL A   1      42.282  35.330  25.262  1.00  0.00    -0.200 F 
ATOM     76  C   UNL A   1      42.652  35.218  27.591  1.00  0.00     0.200 A 
ATOM     77  F   UNL A   1      43.068  35.092  29.912  1.00  0.00    -0.200 F 
ATOM     78  F   UNL A   1      41.542  35.936  27.816  1.00  0.00    -0.200 F 
ENDBRANCH  54  68
BRANCH  55  79
ATOM     79  C   UNL A   1      52.920  27.946  25.381  1.00  0.00     0.064 A 
ATOM     80  C   UNL A   1      53.377  27.740  24.073  1.00  0.00     0.173 A 
ATOM     81  C   UNL A   1      53.614  27.314  26.424  1.00  0.00     0.173 A 
ATOM     82  F   UNL A   1      52.728  28.300  23.041  1.00  0.00    -0.203 F 
ATOM     83  C   UNL A   1      54.476  26.922  23.815  1.00  0.00     0.198 A 
ATOM     84  C   UNL A   1      54.728  26.519  26.168  1.00  0.00     0.198 A 
ATOM     85  F   UNL A   1      53.212  27.476  27.692  1.00  0.00    -0.203 F 
ATOM     86  F   UNL A   1      54.867  26.708  22.552  1.00  0.00    -0.200 F 
ATOM     87  C   UNL A   1      55.154  26.318  24.863  1.00  0.00     0.200 A 
ATOM     88  F   UNL A   1      55.387  25.945  27.183  1.00  0.00    -0.200 F 
ATOM     89  F   UNL A   1      56.214  25.537  24.616  1.00  0.00    -0.200 F 
ENDBRANCH  55  79
BRANCH  67  90
ATOM     90  C   UNL A   1      52.033  34.823  26.033  1.00  0.00     0.064 A 
ATOM     91  C   UNL A   1      52.238  35.525  24.835  1.00  0.00     0.173 A 
ATOM     92  C   UNL A   1      52.727  35.256  27.173  1.00  0.00     0.173 A 
ATOM     93  F   UNL A   1      51.611  35.140  23.712  1.00  0.00    -0.203 F 
ATOM     94  C   UNL A   1      53.120  36.601  24.777  1.00  0.00     0.198 A 
ATOM     95  C   UNL A   1      53.587  36.349  27.119  1.00  0.00     0.198 A 
ATOM     96  F   UNL A   1      52.562  34.624  28.345  1.00  0.00    -0.203 F 
ATOM     97  F   UNL A   1      53.335  37.226  23.611  1.00  0.00    -0.200 F 
ATOM     98  C   UNL A   1      53.788  37.016  25.919  1.00  0.00     0.200 A 
ATOM     99  F   UNL A   1      54.222  36.757  28.226  1.00  0.00    -0.200 F 
ATOM    100  F   UNL A   1      54.634  38.054  25.862  1.00  0.00    -0.200 F 
ENDBRANCH  67  90
ENDBRANCH  41  42
ENDBRANCH  34  36
ENDBRANCH  33  34
ENDBRANCH  32  33
ENDBRANCH  31  32
ENDBRANCH  30  31
ENDBRANCH  29  30
ENDBRANCH   1  29
TORSDOF 19
ENDMDL
