MODEL 1
REMARK VINA RESULT:     -12.3      0.000      0.000
REMARK SMILES CN1C(=O)C(=Cc2ccc(OCc3cccc(C(=O)OCCOCCOC(=O)c4ccc(-c5c6nc(c(-c7c(F)c(F)c(F)c(F)c7F)c7ccc([nH]7)c(-c7c(F)c(F)c(F)c(F)c7F)c7nc(c(-c8c(F)c(F)c(F)c(F)c8F)c8ccc5[nH]8)C=C7)C=C6)cc4)c3)c(Cl)c2)C(=O)N(C)C1=S
REMARK SMILES IDX 22 1 21 2 20 3 18 4 19 5 17 6 13 7 14 8 92 9 15 10 16 11
REMARK SMILES IDX 12 12 11 13 10 14 7 15 8 16 95 17 9 18 93 19 94 20 6 21 1 22
REMARK SMILES IDX 2 23 3 24 100 25 4 26 5 27 98 28 101 29 96 30 99 31 97 32
REMARK SMILES IDX 23 33 24 34 25 35 26 36 27 37 28 38 29 39 30 40 91 41 31 42
REMARK SMILES IDX 90 43 32 44 33 45 34 46 84 47 35 48 89 49 83 50 85 51 36 52
REMARK SMILES IDX 88 53 82 54 81 55 37 57 69 58 49 59 68 60 50 61 53 62 67 63
REMARK SMILES IDX 86 64 51 65 52 66 66 68 87 69 54 70 38 71 39 72 47 73 40 74
REMARK SMILES IDX 41 75 45 76 48 77 42 78 43 79 46 80 44 81 70 82 71 83 79 84
REMARK SMILES IDX 72 85 73 86 77 87 80 88 74 89 75 90 78 91 76 92 55 93 56 94
REMARK SMILES IDX 64 95 57 96 58 97 62 98 65 99 59 100 60 101 63 102 61 103
REMARK H PARENT 85 56 53 67
REMARK Flexibility Score: inf
ROOT
ATOM      1  C   UNL A   1      42.542  21.474  27.181  1.00  0.00     0.202 C 
ENDROOT
BRANCH   1   2
ATOM      2  C   UNL A   1      41.697  20.216  27.397  1.00  0.00     0.261 C 
BRANCH   2   3
ATOM      3  O   UNL A   1      40.292  20.509  27.360  1.00  0.00    -0.460 OA
BRANCH   3   4
ATOM      4  C   UNL A   1      39.710  20.269  26.160  1.00  0.00     0.338 C 
ATOM      5  O   UNL A   1      39.764  19.231  25.518  1.00  0.00    -0.246 OA
BRANCH   4   6
ATOM      6  C   UNL A   1      38.813  21.384  25.782  1.00  0.00     0.060 A 
ATOM      7  C   UNL A   1      36.902  22.344  24.616  1.00  0.00    -0.010 A 
ATOM      8  C   UNL A   1      37.143  23.543  25.309  1.00  0.00     0.007 A 
ATOM      9  C   UNL A   1      37.772  21.260  24.847  1.00  0.00     0.023 A 
ATOM     10  C   UNL A   1      38.215  23.686  26.185  1.00  0.00     0.001 A 
ATOM     11  C   UNL A   1      39.042  22.603  26.432  1.00  0.00     0.016 A 
BRANCH   7  12
ATOM     12  C   UNL A   1      35.665  22.190  23.741  1.00  0.00     0.265 C 
BRANCH  12  13
ATOM     13  O   UNL A   1      34.386  22.211  24.385  1.00  0.00    -0.487 OA
BRANCH  13  14
ATOM     14  C   UNL A   1      33.474  23.172  24.053  1.00  0.00     0.138 A 
ATOM     15  C   UNL A   1      31.956  25.371  23.184  1.00  0.00    -0.023 A 
ATOM     16  C   UNL A   1      33.017  24.902  22.405  1.00  0.00     0.012 A 
ATOM     17  C   UNL A   1      31.593  24.679  24.338  1.00  0.00     0.032 A 
ATOM     18  C   UNL A   1      33.773  23.815  22.845  1.00  0.00     0.048 A 
ATOM     19  C   UNL A   1      32.309  23.543  24.737  1.00  0.00     0.083 A 
ATOM     20  Cl  UNL A   1      31.616  22.620  26.025  1.00  0.00    -0.080 Cl
BRANCH  15  21
ATOM     21  C   UNL A   1      31.191  26.539  22.748  1.00  0.00     0.027 C 
ATOM     22  C   UNL A   1      33.267  29.245  26.013  1.00  0.00     0.156 C 
ATOM     23  N   UNL A   1      32.314  29.180  24.900  1.00  0.00    -0.288 N 
ATOM     24  C   UNL A   1      32.579  28.162  23.991  1.00  0.00     0.265 C 
ATOM     25  C   UNL A   1      31.226  30.079  24.813  1.00  0.00     0.185 C 
ATOM     26  O   UNL A   1      33.663  27.594  23.888  1.00  0.00    -0.268 OA
ATOM     27  C   UNL A   1      31.442  27.804  23.138  1.00  0.00     0.106 C 
ATOM     28  N   UNL A   1      30.312  29.832  23.764  1.00  0.00    -0.288 N 
ATOM     29  S   UNL A   1      31.048  31.373  25.895  1.00  0.00    -0.040 S 
ATOM     30  C   UNL A   1      30.430  28.813  22.818  1.00  0.00     0.265 C 
ATOM     31  C   UNL A   1      29.088  30.618  23.583  1.00  0.00     0.156 C 
ATOM     32  O   UNL A   1      29.710  28.705  21.828  1.00  0.00    -0.268 OA
ENDBRANCH  15  21
ENDBRANCH  13  14
ENDBRANCH  12  13
ENDBRANCH   7  12
ENDBRANCH   4   6
ENDBRANCH   3   4
ENDBRANCH   2   3
ENDBRANCH   1   2
BRANCH   1  33
ATOM     33  O   UNL A   1      42.638  21.983  25.853  1.00  0.00    -0.374 OA
BRANCH  33  34
ATOM     34  C   UNL A   1      43.880  21.827  25.167  1.00  0.00     0.202 C 
BRANCH  34  35
ATOM     35  C   UNL A   1      44.418  23.035  24.388  1.00  0.00     0.261 C 
BRANCH  35  36
ATOM     36  O   UNL A   1      43.670  24.237  24.645  1.00  0.00    -0.460 OA
BRANCH  36  37
ATOM     37  C   UNL A   1      44.399  25.265  25.135  1.00  0.00     0.338 C 
ATOM     38  O   UNL A   1      45.497  25.650  24.751  1.00  0.00    -0.246 OA
BRANCH  37  39
ATOM     39  C   UNL A   1      43.601  26.021  26.114  1.00  0.00     0.060 A 
ATOM     40  C   UNL A   1      43.861  27.394  26.245  1.00  0.00     0.016 A 
ATOM     41  C   UNL A   1      42.670  25.392  26.940  1.00  0.00     0.016 A 
ATOM     42  C   UNL A   1      43.221  28.133  27.236  1.00  0.00     0.010 A 
ATOM     43  C   UNL A   1      42.036  26.134  27.941  1.00  0.00     0.010 A 
ATOM     44  C   UNL A   1      42.334  27.499  28.115  1.00  0.00    -0.014 A 
BRANCH  44  45
ATOM     45  C   UNL A   1      41.836  28.230  29.305  1.00  0.00     0.031 A 
ATOM     46  C   UNL A   1      42.569  28.086  30.609  1.00  0.00     0.074 A 
ATOM     47  C   UNL A   1      40.761  29.032  29.217  1.00  0.00     0.049 A 
ATOM     48  N   UNL A   1      42.288  28.593  31.783  1.00  0.00    -0.248 NA
ATOM     49  C   UNL A   1      43.782  27.255  30.587  1.00  0.00     0.031 C 
ATOM     50  C   UNL A   1      39.993  29.283  27.998  1.00  0.00     0.029 A 
ATOM     51  N   UNL A   1      40.123  29.776  30.177  1.00  0.00    -0.354 N 
ATOM     52  C   UNL A   1      43.281  28.135  32.638  1.00  0.00     0.074 A 
ATOM     53  C   UNL A   1      44.153  27.284  31.859  1.00  0.00     0.031 C 
ATOM     54  C   UNL A   1      38.980  30.117  28.288  1.00  0.00     0.029 A 
ATOM     55  C   UNL A   1      39.008  30.428  29.716  1.00  0.00     0.049 A 
ATOM     56  H   UNL A   1      40.437  29.836  31.109  1.00  0.00     0.167 HD
ATOM     57  C   UNL A   1      43.454  28.409  33.953  1.00  0.00     0.037 A 
ATOM     58  C   UNL A   1      38.099  31.171  30.379  1.00  0.00     0.037 A 
ATOM     59  C   UNL A   1      42.584  29.259  34.723  1.00  0.00     0.049 A 
ATOM     60  C   UNL A   1      38.272  31.398  31.858  1.00  0.00     0.074 A 
ATOM     61  C   UNL A   1      42.685  29.618  36.056  1.00  0.00     0.029 A 
ATOM     62  N   UNL A   1      41.444  29.877  34.229  1.00  0.00    -0.354 N 
ATOM     63  N   UNL A   1      39.228  30.986  32.656  1.00  0.00    -0.248 NA
ATOM     64  C   UNL A   1      37.239  32.201  32.529  1.00  0.00     0.031 C 
ATOM     65  C   UNL A   1      41.575  30.404  36.383  1.00  0.00     0.029 A 
ATOM     66  C   UNL A   1      40.815  30.588  35.239  1.00  0.00     0.049 A 
ATOM     67  H   UNL A   1      41.127  29.818  33.298  1.00  0.00     0.167 HD
ATOM     68  C   UNL A   1      38.929  31.502  33.911  1.00  0.00     0.074 A 
ATOM     69  C   UNL A   1      37.711  32.270  33.766  1.00  0.00     0.031 C 
ATOM     70  C   UNL A   1      39.605  31.354  35.078  1.00  0.00     0.037 A 
BRANCH  57  71
ATOM     71  C   UNL A   1      44.614  27.759  34.651  1.00  0.00     0.064 A 
ATOM     72  C   UNL A   1      44.535  26.454  35.160  1.00  0.00     0.173 A 
ATOM     73  C   UNL A   1      45.833  28.441  34.786  1.00  0.00     0.173 A 
ATOM     74  F   UNL A   1      43.389  25.762  35.071  1.00  0.00    -0.203 F 
ATOM     75  C   UNL A   1      45.623  25.868  35.803  1.00  0.00     0.198 A 
ATOM     76  C   UNL A   1      46.929  27.840  35.399  1.00  0.00     0.198 A 
ATOM     77  F   UNL A   1      45.966  29.690  34.313  1.00  0.00    -0.203 F 
ATOM     78  F   UNL A   1      45.508  24.640  36.328  1.00  0.00    -0.200 F 
ATOM     79  C   UNL A   1      46.820  26.558  35.917  1.00  0.00     0.200 A 
ATOM     80  F   UNL A   1      48.089  28.504  35.495  1.00  0.00    -0.200 F 
ATOM     81  F   UNL A   1      47.869  25.991  36.529  1.00  0.00    -0.200 F 
ENDBRANCH  57  71
BRANCH  58  82
ATOM     82  C   UNL A   1      36.936  31.743  29.651  1.00  0.00     0.064 A 
ATOM     83  C   UNL A   1      36.892  33.102  29.312  1.00  0.00     0.173 A 
ATOM     84  C   UNL A   1      35.837  30.946  29.296  1.00  0.00     0.173 A 
ATOM     85  F   UNL A   1      37.907  33.910  29.653  1.00  0.00    -0.203 F 
ATOM     86  C   UNL A   1      35.786  33.647  28.663  1.00  0.00     0.198 A 
ATOM     87  C   UNL A   1      34.745  31.485  28.619  1.00  0.00     0.198 A 
ATOM     88  F   UNL A   1      35.828  29.640  29.600  1.00  0.00    -0.203 F 
ATOM     89  F   UNL A   1      35.749  34.959  28.394  1.00  0.00    -0.200 F 
ATOM     90  C   UNL A   1      34.716  32.837  28.311  1.00  0.00     0.200 A 
ATOM     91  F   UNL A   1      33.721  30.696  28.270  1.00  0.00    -0.200 F 
ATOM     92  F   UNL A   1      33.655  33.360  27.684  1.00  0.00    -0.200 F 
ENDBRANCH  58  82
BRANCH  70  93
ATOM     93  C   UNL A   1      39.065  32.069  36.285  1.00  0.00     0.064 A 
ATOM     94  C   UNL A   1      39.432  33.389  36.589  1.00  0.00     0.173 A 
ATOM     95  C   UNL A   1      38.136  31.438  37.126  1.00  0.00     0.173 A 
ATOM     96  F   UNL A   1      40.328  34.033  35.825  1.00  0.00    -0.203 F 
ATOM     97  C   UNL A   1      38.911  34.038  37.706  1.00  0.00     0.198 A 
ATOM     98  C   UNL A   1      37.591  32.101  38.221  1.00  0.00     0.198 A 
ATOM     99  F   UNL A   1      37.743  30.180  36.877  1.00  0.00    -0.203 F 
ATOM    100  F   UNL A   1      39.317  35.279  38.007  1.00  0.00    -0.200 F 
ATOM    101  C   UNL A   1      37.985  33.398  38.516  1.00  0.00     0.200 A 
ATOM    102  F   UNL A   1      36.684  31.486  38.993  1.00  0.00    -0.200 F 
ATOM    103  F   UNL A   1      37.479  34.027  39.585  1.00  0.00    -0.200 F 
ENDBRANCH  70  93
ENDBRANCH  44  45
ENDBRANCH  37  39
ENDBRANCH  36  37
ENDBRANCH  35  36
ENDBRANCH  34  35
ENDBRANCH  33  34
ENDBRANCH   1  33
TORSDOF 18
ENDMDL
MODEL 2
REMARK VINA RESULT:     -12.1      0.700      6.896
REMARK SMILES CN1C(=O)C(=Cc2ccc(OCc3cccc(C(=O)OCCOCCOC(=O)c4ccc(-c5c6nc(c(-c7c(F)c(F)c(F)c(F)c7F)c7ccc([nH]7)c(-c7c(F)c(F)c(F)c(F)c7F)c7nc(c(-c8c(F)c(F)c(F)c(F)c8F)c8ccc5[nH]8)C=C7)C=C6)cc4)c3)c(Cl)c2)C(=O)N(C)C1=S
REMARK SMILES IDX 22 1 21 2 20 3 18 4 19 5 17 6 13 7 14 8 92 9 15 10 16 11
REMARK SMILES IDX 12 12 11 13 10 14 7 15 8 16 95 17 9 18 93 19 94 20 6 21 1 22
REMARK SMILES IDX 2 23 3 24 100 25 4 26 5 27 98 28 101 29 96 30 99 31 97 32
REMARK SMILES IDX 23 33 24 34 25 35 26 36 27 37 28 38 29 39 30 40 91 41 31 42
REMARK SMILES IDX 90 43 32 44 33 45 34 46 84 47 35 48 89 49 83 50 85 51 36 52
REMARK SMILES IDX 88 53 82 54 81 55 37 57 69 58 49 59 68 60 50 61 53 62 67 63
REMARK SMILES IDX 86 64 51 65 52 66 66 68 87 69 54 70 38 71 39 72 47 73 40 74
REMARK SMILES IDX 41 75 45 76 48 77 42 78 43 79 46 80 44 81 70 82 71 83 79 84
REMARK SMILES IDX 72 85 73 86 77 87 80 88 74 89 75 90 78 91 76 92 55 93 56 94
REMARK SMILES IDX 64 95 57 96 58 97 62 98 65 99 59 100 60 101 63 102 61 103
REMARK H PARENT 85 56 53 67
REMARK Flexibility Score: inf
ROOT
ATOM      1  C   UNL A   1      42.931  22.366  27.569  1.00  0.00     0.202 C 
ENDROOT
BRANCH   1   2
ATOM      2  C   UNL A   1      42.129  21.142  28.019  1.00  0.00     0.261 C 
BRANCH   2   3
ATOM      3  O   UNL A   1      40.718  21.340  27.840  1.00  0.00    -0.460 OA
BRANCH   3   4
ATOM      4  C   UNL A   1      40.253  20.931  26.634  1.00  0.00     0.338 C 
ATOM      5  O   UNL A   1      40.539  19.893  26.056  1.00  0.00    -0.246 OA
BRANCH   4   6
ATOM      6  C   UNL A   1      39.177  21.828  26.157  1.00  0.00     0.060 A 
ATOM      7  C   UNL A   1      37.087  22.299  24.998  1.00  0.00    -0.010 A 
ATOM      8  C   UNL A   1      37.171  23.616  25.485  1.00  0.00     0.007 A 
ATOM      9  C   UNL A   1      38.125  21.405  25.327  1.00  0.00     0.023 A 
ATOM     10  C   UNL A   1      38.248  24.051  26.251  1.00  0.00     0.001 A 
ATOM     11  C   UNL A   1      39.244  23.155  26.598  1.00  0.00     0.016 A 
BRANCH   7  12
ATOM     12  C   UNL A   1      35.850  21.828  24.247  1.00  0.00     0.265 C 
BRANCH  12  13
ATOM     13  O   UNL A   1      34.588  21.911  24.920  1.00  0.00    -0.487 OA
BRANCH  13  14
ATOM     14  C   UNL A   1      33.679  22.859  24.545  1.00  0.00     0.138 A 
ATOM     15  C   UNL A   1      32.154  24.989  23.529  1.00  0.00    -0.023 A 
ATOM     16  C   UNL A   1      33.122  24.379  22.729  1.00  0.00     0.012 A 
ATOM     17  C   UNL A   1      31.879  24.469  24.793  1.00  0.00     0.032 A 
ATOM     18  C   UNL A   1      33.883  23.327  23.241  1.00  0.00     0.048 A 
ATOM     19  C   UNL A   1      32.595  23.365  25.274  1.00  0.00     0.083 A 
ATOM     20  Cl  UNL A   1      31.997  22.647  26.730  1.00  0.00    -0.080 Cl
BRANCH  15  21
ATOM     21  C   UNL A   1      31.387  26.123  23.011  1.00  0.00     0.027 C 
ATOM     22  C   UNL A   1      33.447  29.053  26.086  1.00  0.00     0.156 C 
ATOM     23  N   UNL A   1      32.498  28.909  24.977  1.00  0.00    -0.288 N 
ATOM     24  C   UNL A   1      32.768  27.831  24.142  1.00  0.00     0.265 C 
ATOM     25  C   UNL A   1      31.408  29.797  24.826  1.00  0.00     0.185 C 
ATOM     26  O   UNL A   1      33.853  27.260  24.082  1.00  0.00    -0.268 OA
ATOM     27  C   UNL A   1      31.634  27.412  23.313  1.00  0.00     0.106 C 
ATOM     28  N   UNL A   1      30.498  29.475  23.794  1.00  0.00    -0.288 N 
ATOM     29  S   UNL A   1      31.223  31.162  25.814  1.00  0.00    -0.040 S 
ATOM     30  C   UNL A   1      30.621  28.394  22.921  1.00  0.00     0.265 C 
ATOM     31  C   UNL A   1      29.272  30.244  23.555  1.00  0.00     0.156 C 
ATOM     32  O   UNL A   1      29.904  28.215  21.938  1.00  0.00    -0.268 OA
ENDBRANCH  15  21
ENDBRANCH  13  14
ENDBRANCH  12  13
ENDBRANCH   7  12
ENDBRANCH   4   6
ENDBRANCH   3   4
ENDBRANCH   2   3
ENDBRANCH   1   2
BRANCH   1  33
ATOM     33  O   UNL A   1      42.747  22.817  26.229  1.00  0.00    -0.374 OA
BRANCH  33  34
ATOM     34  C   UNL A   1      43.825  22.637  25.311  1.00  0.00     0.202 C 
BRANCH  34  35
ATOM     35  C   UNL A   1      44.391  23.889  24.626  1.00  0.00     0.261 C 
BRANCH  35  36
ATOM     36  O   UNL A   1      43.526  25.031  24.759  1.00  0.00    -0.460 OA
BRANCH  36  37
ATOM     37  C   UNL A   1      44.140  26.165  25.163  1.00  0.00     0.338 C 
ATOM     38  O   UNL A   1      45.120  26.703  24.660  1.00  0.00    -0.246 OA
BRANCH  37  39
ATOM     39  C   UNL A   1      43.349  26.813  26.223  1.00  0.00     0.060 A 
ATOM     40  C   UNL A   1      43.692  28.124  26.583  1.00  0.00     0.016 A 
ATOM     41  C   UNL A   1      42.340  26.130  26.903  1.00  0.00     0.016 A 
ATOM     42  C   UNL A   1      43.056  28.742  27.656  1.00  0.00     0.010 A 
ATOM     43  C   UNL A   1      41.710  26.748  27.987  1.00  0.00     0.010 A 
ATOM     44  C   UNL A   1      42.089  28.042  28.389  1.00  0.00    -0.014 A 
BRANCH  44  45
ATOM     45  C   UNL A   1      41.585  28.610  29.662  1.00  0.00     0.031 A 
ATOM     46  C   UNL A   1      40.326  29.433  29.645  1.00  0.00     0.074 A 
ATOM     47  C   UNL A   1      42.224  28.374  30.821  1.00  0.00     0.049 A 
ATOM     48  N   UNL A   1      39.730  30.063  30.625  1.00  0.00    -0.248 NA
ATOM     49  C   UNL A   1      39.652  29.566  28.344  1.00  0.00     0.031 C 
ATOM     50  C   UNL A   1      43.427  27.559  30.969  1.00  0.00     0.029 A 
ATOM     51  N   UNL A   1      41.951  28.809  32.093  1.00  0.00    -0.354 N 
ATOM     52  C   UNL A   1      38.618  30.673  30.058  1.00  0.00     0.074 A 
ATOM     53  C   UNL A   1      38.640  30.366  28.645  1.00  0.00     0.031 C 
ATOM     54  C   UNL A   1      43.796  27.560  32.261  1.00  0.00     0.029 A 
ATOM     55  C   UNL A   1      42.876  28.404  33.022  1.00  0.00     0.049 A 
ATOM     56  H   UNL A   1      41.165  29.359  32.318  1.00  0.00     0.167 HD
ATOM     57  C   UNL A   1      37.661  31.413  30.667  1.00  0.00     0.037 A 
ATOM     58  C   UNL A   1      42.981  28.703  34.332  1.00  0.00     0.037 A 
ATOM     59  C   UNL A   1      37.644  31.713  32.075  1.00  0.00     0.049 A 
ATOM     60  C   UNL A   1      41.945  29.593  34.969  1.00  0.00     0.074 A 
ATOM     61  C   UNL A   1      36.706  32.436  32.792  1.00  0.00     0.029 A 
ATOM     62  N   UNL A   1      38.617  31.313  32.979  1.00  0.00    -0.354 N 
ATOM     63  N   UNL A   1      40.881  30.144  34.436  1.00  0.00    -0.248 NA
ATOM     64  C   UNL A   1      42.123  29.898  36.396  1.00  0.00     0.031 C 
ATOM     65  C   UNL A   1      37.143  32.523  34.118  1.00  0.00     0.029 A 
ATOM     66  C   UNL A   1      38.319  31.801  34.242  1.00  0.00     0.049 A 
ATOM     67  H   UNL A   1      39.404  30.764  32.757  1.00  0.00     0.167 HD
ATOM     68  C   UNL A   1      40.249  30.833  35.463  1.00  0.00     0.074 A 
ATOM     69  C   UNL A   1      41.041  30.619  36.655  1.00  0.00     0.031 C 
ATOM     70  C   UNL A   1      39.114  31.574  35.423  1.00  0.00     0.037 A 
BRANCH  57  71
ATOM     71  C   UNL A   1      36.568  31.977  29.805  1.00  0.00     0.064 A 
ATOM     72  C   UNL A   1      35.530  31.176  29.306  1.00  0.00     0.173 A 
ATOM     73  C   UNL A   1      36.542  33.347  29.499  1.00  0.00     0.173 A 
ATOM     74  F   UNL A   1      35.513  29.859  29.556  1.00  0.00    -0.203 F 
ATOM     75  C   UNL A   1      34.524  31.719  28.510  1.00  0.00     0.198 A 
ATOM     76  C   UNL A   1      35.518  33.893  28.731  1.00  0.00     0.198 A 
ATOM     77  F   UNL A   1      37.508  34.160  29.955  1.00  0.00    -0.203 F 
ATOM     78  F   UNL A   1      33.572  30.926  28.001  1.00  0.00    -0.200 F 
ATOM     79  C   UNL A   1      34.515  33.078  28.228  1.00  0.00     0.200 A 
ATOM     80  F   UNL A   1      35.504  35.207  28.472  1.00  0.00    -0.200 F 
ATOM     81  F   UNL A   1      33.543  33.601  27.468  1.00  0.00    -0.200 F 
ENDBRANCH  57  71
BRANCH  58  82
ATOM     82  C   UNL A   1      44.117  28.167  35.126  1.00  0.00     0.064 A 
ATOM     83  C   UNL A   1      44.053  26.897  35.714  1.00  0.00     0.173 A 
ATOM     84  C   UNL A   1      45.283  28.922  35.329  1.00  0.00     0.173 A 
ATOM     85  F   UNL A   1      42.950  26.148  35.571  1.00  0.00    -0.203 F 
ATOM     86  C   UNL A   1      45.102  26.409  36.490  1.00  0.00     0.198 A 
ATOM     87  C   UNL A   1      46.344  28.421  36.079  1.00  0.00     0.198 A 
ATOM     88  F   UNL A   1      45.393  30.145  34.790  1.00  0.00    -0.203 F 
ATOM     89  F   UNL A   1      44.996  25.211  37.081  1.00  0.00    -0.200 F 
ATOM     90  C   UNL A   1      46.250  27.168  36.666  1.00  0.00     0.200 A 
ATOM     91  F   UNL A   1      47.455  29.153  36.235  1.00  0.00    -0.200 F 
ATOM     92  F   UNL A   1      47.260  26.697  37.409  1.00  0.00    -0.200 F 
ENDBRANCH  58  82
BRANCH  70  93
ATOM     93  C   UNL A   1      38.636  32.178  36.713  1.00  0.00     0.064 A 
ATOM     94  C   UNL A   1      38.989  33.481  37.097  1.00  0.00     0.173 A 
ATOM     95  C   UNL A   1      37.780  31.456  37.559  1.00  0.00     0.173 A 
ATOM     96  F   UNL A   1      39.816  34.209  36.331  1.00  0.00    -0.203 F 
ATOM     97  C   UNL A   1      38.525  34.027  38.291  1.00  0.00     0.198 A 
ATOM     98  C   UNL A   1      37.291  32.017  38.735  1.00  0.00     0.198 A 
ATOM     99  F   UNL A   1      37.404  30.209  37.237  1.00  0.00    -0.203 F 
ATOM    100  F   UNL A   1      38.918  35.252  38.662  1.00  0.00    -0.200 F 
ATOM    101  C   UNL A   1      37.671  33.298  39.105  1.00  0.00     0.200 A 
ATOM    102  F   UNL A   1      36.452  31.318  39.512  1.00  0.00    -0.200 F 
ATOM    103  F   UNL A   1      37.220  33.828  40.250  1.00  0.00    -0.200 F 
ENDBRANCH  70  93
ENDBRANCH  44  45
ENDBRANCH  37  39
ENDBRANCH  36  37
ENDBRANCH  35  36
ENDBRANCH  34  35
ENDBRANCH  33  34
ENDBRANCH   1  33
TORSDOF 18
ENDMDL
MODEL 3
REMARK VINA RESULT:     -11.9      6.532     10.072
REMARK SMILES CN1C(=O)C(=Cc2ccc(OCc3cccc(C(=O)OCCOCCOC(=O)c4ccc(-c5c6nc(c(-c7c(F)c(F)c(F)c(F)c7F)c7ccc([nH]7)c(-c7c(F)c(F)c(F)c(F)c7F)c7nc(c(-c8c(F)c(F)c(F)c(F)c8F)c8ccc5[nH]8)C=C7)C=C6)cc4)c3)c(Cl)c2)C(=O)N(C)C1=S
REMARK SMILES IDX 22 1 21 2 20 3 18 4 19 5 17 6 13 7 14 8 92 9 15 10 16 11
REMARK SMILES IDX 12 12 11 13 10 14 7 15 8 16 95 17 9 18 93 19 94 20 6 21 1 22
REMARK SMILES IDX 2 23 3 24 100 25 4 26 5 27 98 28 101 29 96 30 99 31 97 32
REMARK SMILES IDX 23 33 24 34 25 35 26 36 27 37 28 38 29 39 30 40 91 41 31 42
REMARK SMILES IDX 90 43 32 44 33 45 34 46 84 47 35 48 89 49 83 50 85 51 36 52
REMARK SMILES IDX 88 53 82 54 81 55 37 57 69 58 49 59 68 60 50 61 53 62 67 63
REMARK SMILES IDX 86 64 51 65 52 66 66 68 87 69 54 70 38 71 39 72 47 73 40 74
REMARK SMILES IDX 41 75 45 76 48 77 42 78 43 79 46 80 44 81 70 82 71 83 79 84
REMARK SMILES IDX 72 85 73 86 77 87 80 88 74 89 75 90 78 91 76 92 55 93 56 94
REMARK SMILES IDX 64 95 57 96 58 97 62 98 65 99 59 100 60 101 63 102 61 103
REMARK H PARENT 85 56 53 67
REMARK Flexibility Score: inf
ROOT
ATOM      1  C   UNL A   1      36.805  32.299  33.315  1.00  0.00     0.202 C 
ENDROOT
BRANCH   1   2
ATOM      2  C   UNL A   1      35.811  33.215  34.032  1.00  0.00     0.261 C 
BRANCH   2   3
ATOM      3  O   UNL A   1      34.670  33.505  33.209  1.00  0.00    -0.460 OA
BRANCH   3   4
ATOM      4  C   UNL A   1      34.713  34.723  32.616  1.00  0.00     0.338 C 
ATOM      5  O   UNL A   1      35.161  35.753  33.098  1.00  0.00    -0.246 OA
BRANCH   4   6
ATOM      6  C   UNL A   1      34.311  34.628  31.195  1.00  0.00     0.060 A 
ATOM      7  C   UNL A   1      34.250  33.543  29.016  1.00  0.00    -0.010 A 
ATOM      8  C   UNL A   1      33.333  34.527  28.605  1.00  0.00     0.007 A 
ATOM      9  C   UNL A   1      34.758  33.618  30.327  1.00  0.00     0.023 A 
ATOM     10  C   UNL A   1      32.943  35.566  29.445  1.00  0.00     0.001 A 
ATOM     11  C   UNL A   1      33.420  35.610  30.744  1.00  0.00     0.016 A 
BRANCH   7  12
ATOM     12  C   UNL A   1      34.581  32.366  28.108  1.00  0.00     0.265 C 
BRANCH  12  13
ATOM     13  O   UNL A   1      33.870  31.140  28.319  1.00  0.00    -0.487 OA
BRANCH  13  14
ATOM     14  C   UNL A   1      33.628  30.305  27.265  1.00  0.00     0.138 A 
ATOM     15  C   UNL A   1      33.577  28.483  25.128  1.00  0.00    -0.023 A 
ATOM     16  C   UNL A   1      34.387  28.235  26.238  1.00  0.00     0.012 A 
ATOM     17  C   UNL A   1      32.720  29.582  25.133  1.00  0.00     0.032 A 
ATOM     18  C   UNL A   1      34.416  29.147  27.293  1.00  0.00     0.048 A 
ATOM     19  C   UNL A   1      32.698  30.455  26.230  1.00  0.00     0.083 A 
ATOM     20  Cl  UNL A   1      31.422  31.623  26.245  1.00  0.00    -0.080 Cl
BRANCH  15  21
ATOM     21  C   UNL A   1      33.581  27.552  23.999  1.00  0.00     0.027 C 
ATOM     22  C   UNL A   1      31.279  24.302  26.533  1.00  0.00     0.156 C 
ATOM     23  N   UNL A   1      31.870  24.654  25.238  1.00  0.00    -0.288 N 
ATOM     24  C   UNL A   1      31.916  26.021  24.993  1.00  0.00     0.265 C 
ATOM     25  C   UNL A   1      32.356  23.658  24.360  1.00  0.00     0.185 C 
ATOM     26  O   UNL A   1      31.236  26.852  25.589  1.00  0.00    -0.268 OA
ATOM     27  C   UNL A   1      32.861  26.415  23.944  1.00  0.00     0.106 C 
ATOM     28  N   UNL A   1      33.014  24.133  23.203  1.00  0.00    -0.288 N 
ATOM     29  S   UNL A   1      32.145  22.006  24.677  1.00  0.00    -0.040 S 
ATOM     30  C   UNL A   1      33.178  25.477  22.865  1.00  0.00     0.265 C 
ATOM     31  C   UNL A   1      33.648  23.236  22.231  1.00  0.00     0.156 C 
ATOM     32  O   UNL A   1      33.618  25.868  21.786  1.00  0.00    -0.268 OA
ENDBRANCH  15  21
ENDBRANCH  13  14
ENDBRANCH  12  13
ENDBRANCH   7  12
ENDBRANCH   4   6
ENDBRANCH   3   4
ENDBRANCH   2   3
ENDBRANCH   1   2
BRANCH   1  33
ATOM     33  O   UNL A   1      36.273  31.213  32.560  1.00  0.00    -0.374 OA
BRANCH  33  34
ATOM     34  C   UNL A   1      37.048  30.016  32.477  1.00  0.00     0.202 C 
BRANCH  34  35
ATOM     35  C   UNL A   1      36.983  29.218  31.168  1.00  0.00     0.261 C 
BRANCH  35  36
ATOM     36  O   UNL A   1      36.689  30.046  30.029  1.00  0.00    -0.460 OA
BRANCH  36  37
ATOM     37  C   UNL A   1      37.668  30.103  29.099  1.00  0.00     0.338 C 
ATOM     38  O   UNL A   1      37.734  29.480  28.045  1.00  0.00    -0.246 OA
BRANCH  37  39
ATOM     39  C   UNL A   1      38.608  31.188  29.428  1.00  0.00     0.060 A 
ATOM     40  C   UNL A   1      39.895  30.828  29.854  1.00  0.00     0.016 A 
ATOM     41  C   UNL A   1      38.220  32.527  29.391  1.00  0.00     0.016 A 
ATOM     42  C   UNL A   1      40.785  31.807  30.289  1.00  0.00     0.010 A 
ATOM     43  C   UNL A   1      39.111  33.507  29.838  1.00  0.00     0.010 A 
ATOM     44  C   UNL A   1      40.383  33.148  30.321  1.00  0.00    -0.014 A 
BRANCH  44  45
ATOM     45  C   UNL A   1      41.240  34.152  30.997  1.00  0.00     0.031 A 
ATOM     46  C   UNL A   1      41.223  34.233  32.498  1.00  0.00     0.074 A 
ATOM     47  C   UNL A   1      42.041  34.962  30.284  1.00  0.00     0.049 A 
ATOM     48  N   UNL A   1      41.852  35.059  33.294  1.00  0.00    -0.248 NA
ATOM     49  C   UNL A   1      40.379  33.250  33.194  1.00  0.00     0.031 C 
ATOM     50  C   UNL A   1      42.175  34.948  28.828  1.00  0.00     0.029 A 
ATOM     51  N   UNL A   1      42.889  35.961  30.691  1.00  0.00    -0.354 N 
ATOM     52  C   UNL A   1      41.473  34.703  34.582  1.00  0.00     0.074 A 
ATOM     53  C   UNL A   1      40.535  33.608  34.460  1.00  0.00     0.031 C 
ATOM     54  C   UNL A   1      43.046  35.903  28.463  1.00  0.00     0.029 A 
ATOM     55  C   UNL A   1      43.504  36.617  29.655  1.00  0.00     0.049 A 
ATOM     56  H   UNL A   1      43.042  36.185  31.638  1.00  0.00     0.167 HD
ATOM     57  C   UNL A   1      41.880  35.235  35.759  1.00  0.00     0.037 A 
ATOM     58  C   UNL A   1      44.322  37.687  29.668  1.00  0.00     0.037 A 
ATOM     59  C   UNL A   1      42.816  36.323  35.873  1.00  0.00     0.049 A 
ATOM     60  C   UNL A   1      44.700  38.310  30.987  1.00  0.00     0.074 A 
ATOM     61  C   UNL A   1      43.309  36.920  37.020  1.00  0.00     0.029 A 
ATOM     62  N   UNL A   1      43.393  36.985  34.798  1.00  0.00    -0.354 N 
ATOM     63  N   UNL A   1      44.361  37.952  32.202  1.00  0.00    -0.248 NA
ATOM     64  C   UNL A   1      45.580  39.486  30.935  1.00  0.00     0.031 C 
ATOM     65  C   UNL A   1      44.138  37.981  36.639  1.00  0.00     0.029 A 
ATOM     66  C   UNL A   1      44.213  38.005  35.255  1.00  0.00     0.049 A 
ATOM     67  H   UNL A   1      43.242  36.763  33.851  1.00  0.00     0.167 HD
ATOM     68  C   UNL A   1      45.007  38.836  33.057  1.00  0.00     0.074 A 
ATOM     69  C   UNL A   1      45.771  39.738  32.222  1.00  0.00     0.031 C 
ATOM     70  C   UNL A   1      44.973  38.893  34.412  1.00  0.00     0.037 A 
BRANCH  57  71
ATOM     71  C   UNL A   1      41.291  34.668  37.018  1.00  0.00     0.064 A 
ATOM     72  C   UNL A   1      40.108  35.174  37.576  1.00  0.00     0.173 A 
ATOM     73  C   UNL A   1      41.904  33.580  37.659  1.00  0.00     0.173 A 
ATOM     74  F   UNL A   1      39.489  36.222  37.012  1.00  0.00    -0.203 F 
ATOM     75  C   UNL A   1      39.577  34.632  38.745  1.00  0.00     0.198 A 
ATOM     76  C   UNL A   1      41.353  33.019  38.808  1.00  0.00     0.198 A 
ATOM     77  F   UNL A   1      43.035  33.053  37.165  1.00  0.00    -0.203 F 
ATOM     78  F   UNL A   1      38.474  35.166  39.289  1.00  0.00    -0.200 F 
ATOM     79  C   UNL A   1      40.195  33.551  39.356  1.00  0.00     0.200 A 
ATOM     80  F   UNL A   1      41.944  31.966  39.388  1.00  0.00    -0.200 F 
ATOM     81  F   UNL A   1      39.680  33.026  40.475  1.00  0.00    -0.200 F 
ENDBRANCH  57  71
BRANCH  58  82
ATOM     82  C   UNL A   1      44.830  38.247  28.388  1.00  0.00     0.064 A 
ATOM     83  C   UNL A   1      46.073  37.859  27.871  1.00  0.00     0.173 A 
ATOM     84  C   UNL A   1      44.091  39.196  27.665  1.00  0.00     0.173 A 
ATOM     85  F   UNL A   1      46.828  36.974  28.538  1.00  0.00    -0.203 F 
ATOM     86  C   UNL A   1      46.567  38.411  26.691  1.00  0.00     0.198 A 
ATOM     87  C   UNL A   1      44.571  39.725  26.469  1.00  0.00     0.198 A 
ATOM     88  F   UNL A   1      42.896  39.604  28.118  1.00  0.00    -0.203 F 
ATOM     89  F   UNL A   1      47.780  38.058  26.244  1.00  0.00    -0.200 F 
ATOM     90  C   UNL A   1      45.813  39.338  25.987  1.00  0.00     0.200 A 
ATOM     91  F   UNL A   1      43.833  40.610  25.787  1.00  0.00    -0.200 F 
ATOM     92  F   UNL A   1      46.286  39.867  24.850  1.00  0.00    -0.200 F 
ENDBRANCH  58  82
BRANCH  70  93
ATOM     93  C   UNL A   1      45.815  39.941  35.081  1.00  0.00     0.064 A 
ATOM     94  C   UNL A   1      47.141  39.690  35.470  1.00  0.00     0.173 A 
ATOM     95  C   UNL A   1      45.303  41.229  35.301  1.00  0.00     0.173 A 
ATOM     96  F   UNL A   1      47.675  38.471  35.295  1.00  0.00    -0.203 F 
ATOM     97  C   UNL A   1      47.909  40.679  36.078  1.00  0.00     0.198 A 
ATOM     98  C   UNL A   1      46.084  42.225  35.878  1.00  0.00     0.198 A 
ATOM     99  F   UNL A   1      44.045  41.526  34.942  1.00  0.00    -0.203 F 
ATOM    100  F   UNL A   1      49.153  40.401  36.488  1.00  0.00    -0.200 F 
ATOM    101  C   UNL A   1      47.384  41.948  36.274  1.00  0.00     0.200 A 
ATOM    102  F   UNL A   1      45.580  43.455  36.051  1.00  0.00    -0.200 F 
ATOM    103  F   UNL A   1      48.128  42.901  36.852  1.00  0.00    -0.200 F 
ENDBRANCH  70  93
ENDBRANCH  44  45
ENDBRANCH  37  39
ENDBRANCH  36  37
ENDBRANCH  35  36
ENDBRANCH  34  35
ENDBRANCH  33  34
ENDBRANCH   1  33
TORSDOF 18
ENDMDL
