MODEL 1
REMARK VINA RESULT:     -11.3      0.000      0.000
REMARK SMILES C[C@@H](CCC(=O)OCCOCCOC(=O)c1ccc(-c2c3nc(c(-c4c(F)c(F)c(F)c(F)c4F)c4ccc([nH]4)c(-c4c(F)c(F)c(F)c(F)c4F)c4nc(c(-c5c(F)c(F)c(F)c(F)c5F)c5ccc2[nH]5)C=C4)C=C3)cc1)NC(=O)Nc1ccc(Cl)c(Br)c1
REMARK SMILES IDX 9 1 8 2 7 3 5 4 6 5 4 6 3 7 2 8 1 9 79 10 80 11 81 13 82 14
REMARK SMILES IDX 83 16 84 17 90 18 85 19 88 20 86 21 89 22 87 23 10 24 11 25
REMARK SMILES IDX 12 26 13 27 14 28 15 29 16 30 17 31 78 32 18 33 77 34 19 35
REMARK SMILES IDX 20 36 21 37 71 38 22 39 76 40 70 41 72 42 23 43 75 44 69 45
REMARK SMILES IDX 68 46 24 48 56 49 36 50 55 51 37 52 40 53 54 54 73 55 38 56
REMARK SMILES IDX 39 57 53 59 74 60 41 61 25 62 26 63 34 64 27 65 28 66 32 67
REMARK SMILES IDX 35 68 29 69 30 70 33 71 31 72 57 73 58 74 66 75 59 76 60 77
REMARK SMILES IDX 64 78 67 79 61 80 62 81 65 82 63 83 42 84 43 85 51 86 44 87
REMARK SMILES IDX 45 88 49 89 52 90 46 91 47 92 50 93 48 94
REMARK H PARENT 79 12 82 15 72 47 40 58
REMARK Flexibility Score: inf
ROOT
ATOM      1  C   UNL A   1      34.505  22.674  23.200  1.00  0.00     0.202 C 
ENDROOT
BRANCH   1   2
ATOM      2  C   UNL A   1      33.266  23.479  22.801  1.00  0.00     0.261 C 
BRANCH   2   3
ATOM      3  O   UNL A   1      33.349  23.910  21.424  1.00  0.00    -0.463 OA
BRANCH   3   4
ATOM      4  C   UNL A   1      32.955  25.181  21.156  1.00  0.00     0.305 C 
ATOM      5  O   UNL A   1      33.020  25.722  20.061  1.00  0.00    -0.252 OA
BRANCH   4   6
ATOM      6  C   UNL A   1      32.484  25.904  22.400  1.00  0.00     0.125 C 
BRANCH   6   7
ATOM      7  C   UNL A   1      32.472  27.437  22.364  1.00  0.00     0.036 C 
BRANCH   7   8
ATOM      8  C   UNL A   1      31.349  28.167  23.127  1.00  0.00     0.081 C 
ATOM      9  C   UNL A   1      30.248  28.736  22.236  1.00  0.00     0.031 C 
BRANCH   8  10
ATOM     10  N   UNL A   1      31.904  29.221  23.964  1.00  0.00    -0.335 N 
ATOM     11  C   UNL A   1      31.876  29.396  25.295  1.00  0.00     0.319 C 
ATOM     12  H   UNL A   1      32.381  29.927  23.470  1.00  0.00     0.165 HD
ATOM     13  O   UNL A   1      31.710  30.547  25.702  1.00  0.00    -0.248 OA
ATOM     14  N   UNL A   1      31.935  28.380  26.180  1.00  0.00    -0.308 N 
ATOM     15  H   UNL A   1      31.636  28.626  27.085  1.00  0.00     0.171 HD
BRANCH  14  16
ATOM     16  C   UNL A   1      32.339  27.045  26.065  1.00  0.00     0.044 A 
ATOM     17  C   UNL A   1      33.698  26.810  25.848  1.00  0.00     0.028 A 
ATOM     18  C   UNL A   1      31.471  25.961  26.204  1.00  0.00     0.043 A 
ATOM     19  C   UNL A   1      34.211  25.516  25.958  1.00  0.00     0.024 A 
ATOM     20  C   UNL A   1      31.981  24.663  26.330  1.00  0.00     0.038 A 
ATOM     21  C   UNL A   1      33.360  24.445  26.242  1.00  0.00     0.055 A 
ATOM     22  Br  UNL A   1      30.743  23.272  26.703  1.00  0.00    -0.049 Br
ATOM     23  Cl  UNL A   1      34.084  22.901  26.509  1.00  0.00    -0.083 Cl
ENDBRANCH  14  16
ENDBRANCH   8  10
ENDBRANCH   7   8
ENDBRANCH   6   7
ENDBRANCH   4   6
ENDBRANCH   3   4
ENDBRANCH   2   3
ENDBRANCH   1   2
BRANCH   1  24
ATOM     24  O   UNL A   1      35.723  23.246  22.718  1.00  0.00    -0.374 OA
BRANCH  24  25
ATOM     25  C   UNL A   1      36.829  23.171  23.616  1.00  0.00     0.202 C 
BRANCH  25  26
ATOM     26  C   UNL A   1      36.960  21.816  24.317  1.00  0.00     0.261 C 
BRANCH  26  27
ATOM     27  O   UNL A   1      37.360  21.988  25.687  1.00  0.00    -0.460 OA
BRANCH  27  28
ATOM     28  C   UNL A   1      38.682  21.792  25.924  1.00  0.00     0.338 C 
ATOM     29  O   UNL A   1      39.379  20.892  25.504  1.00  0.00    -0.246 OA
BRANCH  28  30
ATOM     30  C   UNL A   1      39.227  22.941  26.683  1.00  0.00     0.060 A 
ATOM     31  C   UNL A   1      38.532  24.153  26.610  1.00  0.00     0.016 A 
ATOM     32  C   UNL A   1      40.400  22.847  27.436  1.00  0.00     0.016 A 
ATOM     33  C   UNL A   1      39.038  25.289  27.242  1.00  0.00     0.010 A 
ATOM     34  C   UNL A   1      40.880  23.975  28.109  1.00  0.00     0.010 A 
ATOM     35  C   UNL A   1      40.237  25.219  27.966  1.00  0.00    -0.014 A 
BRANCH  35  36
ATOM     36  C   UNL A   1      40.923  26.478  28.365  1.00  0.00     0.031 A 
ATOM     37  C   UNL A   1      42.342  26.697  27.901  1.00  0.00     0.074 A 
ATOM     38  C   UNL A   1      40.295  27.442  29.066  1.00  0.00     0.049 A 
ATOM     39  N   UNL A   1      43.131  27.729  28.078  1.00  0.00    -0.248 NA
ATOM     40  C   UNL A   1      42.967  25.592  27.156  1.00  0.00     0.031 C 
ATOM     41  C   UNL A   1      38.932  27.363  29.587  1.00  0.00     0.029 A 
ATOM     42  N   UNL A   1      40.727  28.691  29.443  1.00  0.00    -0.354 N 
ATOM     43  C   UNL A   1      44.340  27.380  27.488  1.00  0.00     0.074 A 
ATOM     44  C   UNL A   1      44.209  26.023  27.014  1.00  0.00     0.031 C 
ATOM     45  C   UNL A   1      38.627  28.527  30.190  1.00  0.00     0.029 A 
ATOM     46  C   UNL A   1      39.777  29.427  30.111  1.00  0.00     0.049 A 
ATOM     47  H   UNL A   1      41.632  29.028  29.254  1.00  0.00     0.167 HD
ATOM     48  C   UNL A   1      45.451  28.134  27.314  1.00  0.00     0.037 A 
ATOM     49  C   UNL A   1      39.829  30.687  30.587  1.00  0.00     0.037 A 
ATOM     50  C   UNL A   1      45.573  29.503  27.729  1.00  0.00     0.049 A 
ATOM     51  C   UNL A   1      41.078  31.510  30.377  1.00  0.00     0.074 A 
ATOM     52  C   UNL A   1      46.639  30.366  27.556  1.00  0.00     0.029 A 
ATOM     53  N   UNL A   1      44.584  30.211  28.393  1.00  0.00    -0.354 N 
ATOM     54  N   UNL A   1      42.193  31.192  29.765  1.00  0.00    -0.248 NA
ATOM     55  C   UNL A   1      41.064  32.882  30.912  1.00  0.00     0.031 C 
ATOM     56  C   UNL A   1      46.310  31.588  28.152  1.00  0.00     0.029 A 
ATOM     57  C   UNL A   1      45.019  31.501  28.648  1.00  0.00     0.049 A 
ATOM     58  H   UNL A   1      43.702  29.852  28.644  1.00  0.00     0.167 HD
ATOM     59  C   UNL A   1      42.989  32.331  29.799  1.00  0.00     0.074 A 
ATOM     60  C   UNL A   1      42.228  33.351  30.486  1.00  0.00     0.031 C 
ATOM     61  C   UNL A   1      44.238  32.516  29.303  1.00  0.00     0.037 A 
BRANCH  48  62
ATOM     62  C   UNL A   1      46.623  27.480  26.640  1.00  0.00     0.064 A 
ATOM     63  C   UNL A   1      47.601  26.783  27.369  1.00  0.00     0.173 A 
ATOM     64  C   UNL A   1      46.774  27.559  25.249  1.00  0.00     0.173 A 
ATOM     65  F   UNL A   1      47.513  26.696  28.705  1.00  0.00    -0.203 F 
ATOM     66  C   UNL A   1      48.707  26.226  26.733  1.00  0.00     0.198 A 
ATOM     67  C   UNL A   1      47.863  26.969  24.612  1.00  0.00     0.198 A 
ATOM     68  F   UNL A   1      45.868  28.211  24.504  1.00  0.00    -0.203 F 
ATOM     69  F   UNL A   1      49.663  25.628  27.457  1.00  0.00    -0.200 F 
ATOM     70  C   UNL A   1      48.834  26.315  25.355  1.00  0.00     0.200 A 
ATOM     71  F   UNL A   1      47.979  27.046  23.280  1.00  0.00    -0.200 F 
ATOM     72  F   UNL A   1      49.900  25.781  24.744  1.00  0.00    -0.200 F 
ENDBRANCH  48  62
BRANCH  49  73
ATOM     73  C   UNL A   1      38.652  31.283  31.274  1.00  0.00     0.064 A 
ATOM     74  C   UNL A   1      37.697  32.021  30.559  1.00  0.00     0.173 A 
ATOM     75  C   UNL A   1      38.481  31.169  32.661  1.00  0.00     0.173 A 
ATOM     76  F   UNL A   1      37.830  32.183  29.234  1.00  0.00    -0.203 F 
ATOM     77  C   UNL A   1      36.636  32.651  31.209  1.00  0.00     0.198 A 
ATOM     78  C   UNL A   1      37.404  31.775  33.306  1.00  0.00     0.198 A 
ATOM     79  F   UNL A   1      39.366  30.478  33.393  1.00  0.00    -0.203 F 
ATOM     80  F   UNL A   1      35.774  33.401  30.508  1.00  0.00    -0.200 F 
ATOM     81  C   UNL A   1      36.488  32.524  32.582  1.00  0.00     0.200 A 
ATOM     82  F   UNL A   1      37.260  31.645  34.632  1.00  0.00    -0.200 F 
ATOM     83  F   UNL A   1      35.473  33.135  33.207  1.00  0.00    -0.200 F 
ENDBRANCH  49  73
BRANCH  61  84
ATOM     84  C   UNL A   1      44.837  33.889  29.418  1.00  0.00     0.064 A 
ATOM     85  C   UNL A   1      44.628  34.875  28.444  1.00  0.00     0.173 A 
ATOM     86  C   UNL A   1      45.593  34.234  30.550  1.00  0.00     0.173 A 
ATOM     87  F   UNL A   1      43.920  34.593  27.339  1.00  0.00    -0.203 F 
ATOM     88  C   UNL A   1      45.179  36.146  28.581  1.00  0.00     0.198 A 
ATOM     89  C   UNL A   1      46.116  35.516  30.700  1.00  0.00     0.198 A 
ATOM     90  F   UNL A   1      45.813  33.333  31.518  1.00  0.00    -0.203 F 
ATOM     91  F   UNL A   1      45.010  37.057  27.613  1.00  0.00    -0.200 F 
ATOM     92  C   UNL A   1      45.917  36.467  29.711  1.00  0.00     0.200 A 
ATOM     93  F   UNL A   1      46.813  35.829  31.801  1.00  0.00    -0.200 F 
ATOM     94  F   UNL A   1      46.440  37.694  29.845  1.00  0.00    -0.200 F 
ENDBRANCH  61  84
ENDBRANCH  35  36
ENDBRANCH  28  30
ENDBRANCH  27  28
ENDBRANCH  26  27
ENDBRANCH  25  26
ENDBRANCH  24  25
ENDBRANCH   1  24
TORSDOF 18
ENDMDL
MODEL 2
REMARK VINA RESULT:     -11.2      4.185      9.692
REMARK SMILES C[C@@H](CCC(=O)OCCOCCOC(=O)c1ccc(-c2c3nc(c(-c4c(F)c(F)c(F)c(F)c4F)c4ccc([nH]4)c(-c4c(F)c(F)c(F)c(F)c4F)c4nc(c(-c5c(F)c(F)c(F)c(F)c5F)c5ccc2[nH]5)C=C4)C=C3)cc1)NC(=O)Nc1ccc(Cl)c(Br)c1
REMARK SMILES IDX 9 1 8 2 7 3 5 4 6 5 4 6 3 7 2 8 1 9 79 10 80 11 81 13 82 14
REMARK SMILES IDX 83 16 84 17 90 18 85 19 88 20 86 21 89 22 87 23 10 24 11 25
REMARK SMILES IDX 12 26 13 27 14 28 15 29 16 30 17 31 78 32 18 33 77 34 19 35
REMARK SMILES IDX 20 36 21 37 71 38 22 39 76 40 70 41 72 42 23 43 75 44 69 45
REMARK SMILES IDX 68 46 24 48 56 49 36 50 55 51 37 52 40 53 54 54 73 55 38 56
REMARK SMILES IDX 39 57 53 59 74 60 41 61 25 62 26 63 34 64 27 65 28 66 32 67
REMARK SMILES IDX 35 68 29 69 30 70 33 71 31 72 57 73 58 74 66 75 59 76 60 77
REMARK SMILES IDX 64 78 67 79 61 80 62 81 65 82 63 83 42 84 43 85 51 86 44 87
REMARK SMILES IDX 45 88 49 89 52 90 46 91 47 92 50 93 48 94
REMARK H PARENT 79 12 82 15 72 47 40 58
REMARK Flexibility Score: inf
ROOT
ATOM      1  C   UNL A   1      33.726  30.123  26.738  1.00  0.00     0.202 C 
ENDROOT
BRANCH   1   2
ATOM      2  C   UNL A   1      33.945  28.621  26.538  1.00  0.00     0.261 C 
BRANCH   2   3
ATOM      3  O   UNL A   1      32.952  27.853  27.252  1.00  0.00    -0.463 OA
BRANCH   3   4
ATOM      4  C   UNL A   1      32.177  27.018  26.514  1.00  0.00     0.305 C 
ATOM      5  O   UNL A   1      31.074  26.605  26.845  1.00  0.00    -0.252 OA
BRANCH   4   6
ATOM      6  C   UNL A   1      32.868  26.578  25.241  1.00  0.00     0.125 C 
BRANCH   6   7
ATOM      7  C   UNL A   1      32.297  27.092  23.914  1.00  0.00     0.036 C 
BRANCH   7   8
ATOM      8  C   UNL A   1      33.172  26.958  22.652  1.00  0.00     0.081 C 
ATOM      9  C   UNL A   1      33.899  28.238  22.251  1.00  0.00     0.031 C 
BRANCH   8  10
ATOM     10  N   UNL A   1      32.381  26.465  21.533  1.00  0.00    -0.335 N 
ATOM     11  C   UNL A   1      32.538  25.385  20.751  1.00  0.00     0.319 C 
ATOM     12  H   UNL A   1      31.597  27.018  21.312  1.00  0.00     0.165 HD
ATOM     13  O   UNL A   1      32.299  25.527  19.551  1.00  0.00    -0.248 OA
ATOM     14  N   UNL A   1      33.016  24.206  21.198  1.00  0.00    -0.308 N 
ATOM     15  H   UNL A   1      33.328  23.608  20.481  1.00  0.00     0.171 HD
BRANCH  14  16
ATOM     16  C   UNL A   1      33.157  23.665  22.482  1.00  0.00     0.044 A 
ATOM     17  C   UNL A   1      34.457  23.416  22.926  1.00  0.00     0.028 A 
ATOM     18  C   UNL A   1      32.082  23.415  23.336  1.00  0.00     0.043 A 
ATOM     19  C   UNL A   1      34.690  23.103  24.267  1.00  0.00     0.024 A 
ATOM     20  C   UNL A   1      32.311  23.116  24.685  1.00  0.00     0.038 A 
ATOM     21  C   UNL A   1      33.621  22.995  25.159  1.00  0.00     0.055 A 
ATOM     22  Br  UNL A   1      30.792  22.977  25.816  1.00  0.00    -0.049 Br
ATOM     23  Cl  UNL A   1      33.996  22.753  26.827  1.00  0.00    -0.083 Cl
ENDBRANCH  14  16
ENDBRANCH   8  10
ENDBRANCH   7   8
ENDBRANCH   6   7
ENDBRANCH   4   6
ENDBRANCH   3   4
ENDBRANCH   2   3
ENDBRANCH   1   2
BRANCH   1  24
ATOM     24  O   UNL A   1      32.410  30.439  27.197  1.00  0.00    -0.374 OA
BRANCH  24  25
ATOM     25  C   UNL A   1      31.766  31.511  26.509  1.00  0.00     0.202 C 
BRANCH  25  26
ATOM     26  C   UNL A   1      31.741  32.821  27.301  1.00  0.00     0.261 C 
BRANCH  26  27
ATOM     27  O   UNL A   1      33.033  33.451  27.283  1.00  0.00    -0.460 OA
BRANCH  27  28
ATOM     28  C   UNL A   1      33.518  33.794  28.503  1.00  0.00     0.338 C 
ATOM     29  O   UNL A   1      32.985  34.497  29.336  1.00  0.00    -0.246 OA
BRANCH  28  30
ATOM     30  C   UNL A   1      34.776  33.057  28.763  1.00  0.00     0.060 A 
ATOM     31  C   UNL A   1      34.677  31.794  29.357  1.00  0.00     0.016 A 
ATOM     32  C   UNL A   1      36.029  33.591  28.451  1.00  0.00     0.016 A 
ATOM     33  C   UNL A   1      35.831  31.086  29.693  1.00  0.00     0.010 A 
ATOM     34  C   UNL A   1      37.184  32.858  28.746  1.00  0.00     0.010 A 
ATOM     35  C   UNL A   1      37.095  31.629  29.425  1.00  0.00    -0.014 A 
BRANCH  35  36
ATOM     36  C   UNL A   1      38.298  31.025  30.060  1.00  0.00     0.031 A 
ATOM     37  C   UNL A   1      38.587  31.354  31.504  1.00  0.00     0.074 A 
ATOM     38  C   UNL A   1      39.088  30.151  29.405  1.00  0.00     0.049 A 
ATOM     39  N   UNL A   1      39.541  30.918  32.288  1.00  0.00    -0.248 NA
ATOM     40  C   UNL A   1      37.690  32.330  32.146  1.00  0.00     0.031 C 
ATOM     41  C   UNL A   1      38.935  29.749  28.008  1.00  0.00     0.029 A 
ATOM     42  N   UNL A   1      40.173  29.431  29.845  1.00  0.00    -0.354 N 
ATOM     43  C   UNL A   1      39.368  31.583  33.495  1.00  0.00     0.074 A 
ATOM     44  C   UNL A   1      38.268  32.501  33.322  1.00  0.00     0.031 C 
ATOM     45  C   UNL A   1      39.873  28.829  27.715  1.00  0.00     0.029 A 
ATOM     46  C   UNL A   1      40.700  28.589  28.896  1.00  0.00     0.049 A 
ATOM     47  H   UNL A   1      40.539  29.511  30.755  1.00  0.00     0.167 HD
ATOM     48  C   UNL A   1      40.033  31.417  34.662  1.00  0.00     0.037 A 
ATOM     49  C   UNL A   1      41.722  27.715  28.981  1.00  0.00     0.037 A 
ATOM     50  C   UNL A   1      41.089  30.464  34.863  1.00  0.00     0.049 A 
ATOM     51  C   UNL A   1      42.448  27.543  30.295  1.00  0.00     0.074 A 
ATOM     52  C   UNL A   1      41.793  30.187  36.020  1.00  0.00     0.029 A 
ATOM     53  N   UNL A   1      41.585  29.625  33.878  1.00  0.00    -0.354 N 
ATOM     54  N   UNL A   1      42.236  28.132  31.447  1.00  0.00    -0.248 NA
ATOM     55  C   UNL A   1      43.546  26.564  30.322  1.00  0.00     0.031 C 
ATOM     56  C   UNL A   1      42.745  29.206  35.725  1.00  0.00     0.029 A 
ATOM     57  C   UNL A   1      42.596  28.835  34.398  1.00  0.00     0.049 A 
ATOM     58  H   UNL A   1      41.265  29.594  32.947  1.00  0.00     0.167 HD
ATOM     59  C   UNL A   1      43.137  27.565  32.341  1.00  0.00     0.074 A 
ATOM     60  C   UNL A   1      43.894  26.579  31.600  1.00  0.00     0.031 C 
ATOM     61  C   UNL A   1      43.318  27.835  33.658  1.00  0.00     0.037 A 
BRANCH  48  62
ATOM     62  C   UNL A   1      39.626  32.292  35.813  1.00  0.00     0.064 A 
ATOM     63  C   UNL A   1      38.596  31.924  36.693  1.00  0.00     0.173 A 
ATOM     64  C   UNL A   1      40.270  33.518  36.031  1.00  0.00     0.173 A 
ATOM     65  F   UNL A   1      37.935  30.770  36.515  1.00  0.00    -0.203 F 
ATOM     66  C   UNL A   1      38.198  32.770  37.724  1.00  0.00     0.198 A 
ATOM     67  C   UNL A   1      39.893  34.345  37.086  1.00  0.00     0.198 A 
ATOM     68  F   UNL A   1      41.261  33.917  35.222  1.00  0.00    -0.203 F 
ATOM     69  F   UNL A   1      37.166  32.429  38.508  1.00  0.00    -0.200 F 
ATOM     70  C   UNL A   1      38.851  33.978  37.923  1.00  0.00     0.200 A 
ATOM     71  F   UNL A   1      40.532  35.507  37.284  1.00  0.00    -0.200 F 
ATOM     72  F   UNL A   1      38.466  34.793  38.914  1.00  0.00    -0.200 F 
ENDBRANCH  48  62
BRANCH  49  73
ATOM     73  C   UNL A   1      42.109  26.889  27.805  1.00  0.00     0.064 A 
ATOM     74  C   UNL A   1      41.506  25.645  27.568  1.00  0.00     0.173 A 
ATOM     75  C   UNL A   1      43.118  27.300  26.924  1.00  0.00     0.173 A 
ATOM     76  F   UNL A   1      40.554  25.193  28.398  1.00  0.00    -0.203 F 
ATOM     77  C   UNL A   1      41.920  24.830  26.516  1.00  0.00     0.198 A 
ATOM     78  C   UNL A   1      43.513  26.498  25.854  1.00  0.00     0.198 A 
ATOM     79  F   UNL A   1      43.731  28.479  27.106  1.00  0.00    -0.203 F 
ATOM     80  F   UNL A   1      41.368  23.620  26.350  1.00  0.00    -0.200 F 
ATOM     81  C   UNL A   1      42.920  25.259  25.657  1.00  0.00     0.200 A 
ATOM     82  F   UNL A   1      44.475  26.918  25.022  1.00  0.00    -0.200 F 
ATOM     83  F   UNL A   1      43.323  24.473  24.649  1.00  0.00    -0.200 F 
ENDBRANCH  49  73
BRANCH  61  84
ATOM     84  C   UNL A   1      44.325  27.007  34.406  1.00  0.00     0.064 A 
ATOM     85  C   UNL A   1      45.638  27.449  34.619  1.00  0.00     0.173 A 
ATOM     86  C   UNL A   1      43.949  25.773  34.960  1.00  0.00     0.173 A 
ATOM     87  F   UNL A   1      46.050  28.618  34.103  1.00  0.00    -0.203 F 
ATOM     88  C   UNL A   1      46.548  26.672  35.331  1.00  0.00     0.198 A 
ATOM     89  C   UNL A   1      44.852  25.014  35.700  1.00  0.00     0.198 A 
ATOM     90  F   UNL A   1      42.701  25.310  34.798  1.00  0.00    -0.203 F 
ATOM     91  F   UNL A   1      47.813  27.090  35.478  1.00  0.00    -0.200 F 
ATOM     92  C   UNL A   1      46.153  25.459  35.876  1.00  0.00     0.200 A 
ATOM     93  F   UNL A   1      44.463  23.851  36.240  1.00  0.00    -0.200 F 
ATOM     94  F   UNL A   1      47.028  24.717  36.568  1.00  0.00    -0.200 F 
ENDBRANCH  61  84
ENDBRANCH  35  36
ENDBRANCH  28  30
ENDBRANCH  27  28
ENDBRANCH  26  27
ENDBRANCH  25  26
ENDBRANCH  24  25
ENDBRANCH   1  24
TORSDOF 18
ENDMDL
MODEL 3
REMARK VINA RESULT:     -11.2      4.157      9.449
REMARK SMILES C[C@@H](CCC(=O)OCCOCCOC(=O)c1ccc(-c2c3nc(c(-c4c(F)c(F)c(F)c(F)c4F)c4ccc([nH]4)c(-c4c(F)c(F)c(F)c(F)c4F)c4nc(c(-c5c(F)c(F)c(F)c(F)c5F)c5ccc2[nH]5)C=C4)C=C3)cc1)NC(=O)Nc1ccc(Cl)c(Br)c1
REMARK SMILES IDX 9 1 8 2 7 3 5 4 6 5 4 6 3 7 2 8 1 9 79 10 80 11 81 13 82 14
REMARK SMILES IDX 83 16 84 17 90 18 85 19 88 20 86 21 89 22 87 23 10 24 11 25
REMARK SMILES IDX 12 26 13 27 14 28 15 29 16 30 17 31 78 32 18 33 77 34 19 35
REMARK SMILES IDX 20 36 21 37 71 38 22 39 76 40 70 41 72 42 23 43 75 44 69 45
REMARK SMILES IDX 68 46 24 48 56 49 36 50 55 51 37 52 40 53 54 54 73 55 38 56
REMARK SMILES IDX 39 57 53 59 74 60 41 61 25 62 26 63 34 64 27 65 28 66 32 67
REMARK SMILES IDX 35 68 29 69 30 70 33 71 31 72 57 73 58 74 66 75 59 76 60 77
REMARK SMILES IDX 64 78 67 79 61 80 62 81 65 82 63 83 42 84 43 85 51 86 44 87
REMARK SMILES IDX 45 88 49 89 52 90 46 91 47 92 50 93 48 94
REMARK H PARENT 79 12 82 15 72 47 40 58
REMARK Flexibility Score: inf
ROOT
ATOM      1  C   UNL A   1      33.497  29.320  24.735  1.00  0.00     0.202 C 
ENDROOT
BRANCH   1   2
ATOM      2  C   UNL A   1      33.567  27.955  24.046  1.00  0.00     0.261 C 
BRANCH   2   3
ATOM      3  O   UNL A   1      32.809  27.956  22.815  1.00  0.00    -0.463 OA
BRANCH   3   4
ATOM      4  C   UNL A   1      32.717  26.775  22.153  1.00  0.00     0.305 C 
ATOM      5  O   UNL A   1      33.647  26.202  21.602  1.00  0.00    -0.252 OA
BRANCH   4   6
ATOM      6  C   UNL A   1      31.293  26.264  22.099  1.00  0.00     0.125 C 
BRANCH   6   7
ATOM      7  C   UNL A   1      30.852  25.284  23.193  1.00  0.00     0.036 C 
BRANCH   7   8
ATOM      8  C   UNL A   1      29.926  25.814  24.305  1.00  0.00     0.081 C 
ATOM      9  C   UNL A   1      28.699  26.566  23.798  1.00  0.00     0.031 C 
BRANCH   8  10
ATOM     10  N   UNL A   1      30.672  26.650  25.234  1.00  0.00    -0.335 N 
ATOM     11  C   UNL A   1      31.104  26.412  26.483  1.00  0.00     0.319 C 
ATOM     12  H   UNL A   1      30.898  27.544  24.889  1.00  0.00     0.165 HD
ATOM     13  O   UNL A   1      31.019  27.340  27.288  1.00  0.00    -0.248 OA
ATOM     14  N   UNL A   1      31.536  25.205  26.903  1.00  0.00    -0.308 N 
ATOM     15  H   UNL A   1      31.560  25.112  27.883  1.00  0.00     0.171 HD
BRANCH  14  16
ATOM     16  C   UNL A   1      31.957  24.058  26.220  1.00  0.00     0.044 A 
ATOM     17  C   UNL A   1      31.112  22.947  26.264  1.00  0.00     0.028 A 
ATOM     18  C   UNL A   1      33.134  23.993  25.472  1.00  0.00     0.043 A 
ATOM     19  C   UNL A   1      31.344  21.857  25.423  1.00  0.00     0.024 A 
ATOM     20  C   UNL A   1      33.363  22.909  24.616  1.00  0.00     0.038 A 
ATOM     21  C   UNL A   1      32.446  21.854  24.565  1.00  0.00     0.055 A 
ATOM     22  Br  UNL A   1      34.897  22.992  23.498  1.00  0.00    -0.049 Br
ATOM     23  Cl  UNL A   1      32.586  20.544  23.451  1.00  0.00    -0.083 Cl
ENDBRANCH  14  16
ENDBRANCH   8  10
ENDBRANCH   7   8
ENDBRANCH   6   7
ENDBRANCH   4   6
ENDBRANCH   3   4
ENDBRANCH   2   3
ENDBRANCH   1   2
BRANCH   1  24
ATOM     24  O   UNL A   1      32.550  29.358  25.804  1.00  0.00    -0.374 OA
BRANCH  24  25
ATOM     25  C   UNL A   1      31.648  30.464  25.781  1.00  0.00     0.202 C 
BRANCH  25  26
ATOM     26  C   UNL A   1      31.891  31.478  26.901  1.00  0.00     0.261 C 
BRANCH  26  27
ATOM     27  O   UNL A   1      33.149  32.149  26.716  1.00  0.00    -0.460 OA
BRANCH  27  28
ATOM     28  C   UNL A   1      33.636  32.764  27.823  1.00  0.00     0.338 C 
ATOM     29  O   UNL A   1      33.061  33.560  28.536  1.00  0.00    -0.246 OA
BRANCH  28  30
ATOM     30  C   UNL A   1      34.972  32.214  28.150  1.00  0.00     0.060 A 
ATOM     31  C   UNL A   1      35.100  30.823  28.224  1.00  0.00     0.016 A 
ATOM     32  C   UNL A   1      36.075  33.035  28.395  1.00  0.00     0.016 A 
ATOM     33  C   UNL A   1      36.315  30.250  28.601  1.00  0.00     0.010 A 
ATOM     34  C   UNL A   1      37.306  32.458  28.726  1.00  0.00     0.010 A 
ATOM     35  C   UNL A   1      37.418  31.065  28.893  1.00  0.00    -0.014 A 
BRANCH  35  36
ATOM     36  C   UNL A   1      38.596  30.476  29.586  1.00  0.00     0.031 A 
ATOM     37  C   UNL A   1      38.801  30.798  31.046  1.00  0.00     0.074 A 
ATOM     38  C   UNL A   1      39.436  29.623  28.968  1.00  0.00     0.049 A 
ATOM     39  N   UNL A   1      39.720  30.371  31.877  1.00  0.00    -0.248 NA
ATOM     40  C   UNL A   1      37.854  31.752  31.647  1.00  0.00     0.031 C 
ATOM     41  C   UNL A   1      39.365  29.230  27.562  1.00  0.00     0.029 A 
ATOM     42  N   UNL A   1      40.508  28.918  29.460  1.00  0.00    -0.354 N 
ATOM     43  C   UNL A   1      39.470  31.023  33.079  1.00  0.00     0.074 A 
ATOM     44  C   UNL A   1      38.365  31.923  32.854  1.00  0.00     0.031 C 
ATOM     45  C   UNL A   1      40.334  28.329  27.312  1.00  0.00     0.029 A 
ATOM     46  C   UNL A   1      41.101  28.093  28.534  1.00  0.00     0.049 A 
ATOM     47  H   UNL A   1      40.824  28.996  30.389  1.00  0.00     0.167 HD
ATOM     48  C   UNL A   1      40.075  30.858  34.278  1.00  0.00     0.037 A 
ATOM     49  C   UNL A   1      42.133  27.237  28.667  1.00  0.00     0.037 A 
ATOM     50  C   UNL A   1      41.136  29.923  34.527  1.00  0.00     0.049 A 
ATOM     51  C   UNL A   1      42.790  27.066  30.017  1.00  0.00     0.074 A 
ATOM     52  C   UNL A   1      41.783  29.648  35.718  1.00  0.00     0.029 A 
ATOM     53  N   UNL A   1      41.699  29.102  33.564  1.00  0.00    -0.354 N 
ATOM     54  N   UNL A   1      42.506  27.642  31.160  1.00  0.00    -0.248 NA
ATOM     55  C   UNL A   1      43.903  26.106  30.095  1.00  0.00     0.031 C 
ATOM     56  C   UNL A   1      42.767  28.686  35.467  1.00  0.00     0.029 A 
ATOM     57  C   UNL A   1      42.695  28.325  34.131  1.00  0.00     0.049 A 
ATOM     58  H   UNL A   1      41.430  29.073  32.617  1.00  0.00     0.167 HD
ATOM     59  C   UNL A   1      43.368  27.083  32.096  1.00  0.00     0.074 A 
ATOM     60  C   UNL A   1      44.181  26.117  31.390  1.00  0.00     0.031 C 
ATOM     61  C   UNL A   1      43.474  27.344  33.423  1.00  0.00     0.037 A 
BRANCH  48  62
ATOM     62  C   UNL A   1      39.591  31.716  35.412  1.00  0.00     0.064 A 
ATOM     63  C   UNL A   1      40.174  32.961  35.698  1.00  0.00     0.173 A 
ATOM     64  C   UNL A   1      38.537  31.282  36.227  1.00  0.00     0.173 A 
ATOM     65  F   UNL A   1      41.200  33.412  34.959  1.00  0.00    -0.203 F 
ATOM     66  C   UNL A   1      39.747  33.720  36.783  1.00  0.00     0.198 A 
ATOM     67  C   UNL A   1      38.088  32.061  37.290  1.00  0.00     0.198 A 
ATOM     68  F   UNL A   1      37.943  30.102  35.998  1.00  0.00    -0.203 F 
ATOM     69  F   UNL A   1      40.365  34.872  37.079  1.00  0.00    -0.200 F 
ATOM     70  C   UNL A   1      38.700  33.272  37.575  1.00  0.00     0.200 A 
ATOM     71  F   UNL A   1      37.069  31.633  38.049  1.00  0.00    -0.200 F 
ATOM     72  F   UNL A   1      38.291  34.003  38.621  1.00  0.00    -0.200 F 
ENDBRANCH  48  62
BRANCH  49  73
ATOM     73  C   UNL A   1      42.596  26.428  27.507  1.00  0.00     0.064 A 
ATOM     74  C   UNL A   1      42.027  25.177  27.226  1.00  0.00     0.173 A 
ATOM     75  C   UNL A   1      43.646  26.863  26.686  1.00  0.00     0.173 A 
ATOM     76  F   UNL A   1      41.038  24.703  27.999  1.00  0.00    -0.203 F 
ATOM     77  C   UNL A   1      42.511  24.379  26.191  1.00  0.00     0.198 A 
ATOM     78  C   UNL A   1      44.111  26.077  25.633  1.00  0.00     0.198 A 
ATOM     79  F   UNL A   1      44.229  28.050  26.912  1.00  0.00    -0.203 F 
ATOM     80  F   UNL A   1      41.989  23.162  25.985  1.00  0.00    -0.200 F 
ATOM     81  C   UNL A   1      43.551  24.831  25.393  1.00  0.00     0.200 A 
ATOM     82  F   UNL A   1      45.111  26.520  24.859  1.00  0.00    -0.200 F 
ATOM     83  F   UNL A   1      44.021  24.061  24.402  1.00  0.00    -0.200 F 
ENDBRANCH  49  73
BRANCH  61  84
ATOM     84  C   UNL A   1      44.454  26.528  34.218  1.00  0.00     0.064 A 
ATOM     85  C   UNL A   1      44.101  25.302  34.799  1.00  0.00     0.173 A 
ATOM     86  C   UNL A   1      45.782  26.961  34.356  1.00  0.00     0.173 A 
ATOM     87  F   UNL A   1      42.842  24.847  34.704  1.00  0.00    -0.203 F 
ATOM     88  C   UNL A   1      45.031  24.555  35.516  1.00  0.00     0.198 A 
ATOM     89  C   UNL A   1      46.719  26.196  35.045  1.00  0.00     0.198 A 
ATOM     90  F   UNL A   1      46.176  28.121  33.808  1.00  0.00    -0.203 F 
ATOM     91  F   UNL A   1      44.659  23.412  36.107  1.00  0.00    -0.200 F 
ATOM     92  C   UNL A   1      46.340  24.999  35.634  1.00  0.00     0.200 A 
ATOM     93  F   UNL A   1      47.987  26.619  35.142  1.00  0.00    -0.200 F 
ATOM     94  F   UNL A   1      47.237  24.275  36.317  1.00  0.00    -0.200 F 
ENDBRANCH  61  84
ENDBRANCH  35  36
ENDBRANCH  28  30
ENDBRANCH  27  28
ENDBRANCH  26  27
ENDBRANCH  25  26
ENDBRANCH  24  25
ENDBRANCH   1  24
TORSDOF 18
ENDMDL
