MODEL 1
REMARK VINA RESULT:     -11.6      0.000      0.000
REMARK SMILES NC(=O)[C@@H]1CCCCN1c1cncc(C(=O)OCCOCCOC(=O)c2ccc(-c3c4nc(c(-c5c(F)c(F)c(F)c(F)c5F)c5ccc([nH]5)c(-c5c(F)c(F)c(F)c(F)c5F)c5nc(c(-c6c(F)c(F)c(F)c(F)c6F)c6ccc3[nH]6)C=C5)C=C4)cc2)n1
REMARK SMILES IDX 20 1 19 2 18 3 17 4 15 5 16 6 14 7 10 8 11 9 89 10 12 11
REMARK SMILES IDX 13 12 9 13 4 14 5 15 6 16 8 17 7 18 2 19 1 20 3 23 21 24
REMARK SMILES IDX 22 25 23 26 24 27 25 28 26 29 27 30 88 31 28 32 87 33 29 34
REMARK SMILES IDX 30 35 31 36 81 37 32 38 86 39 80 40 82 41 33 42 85 43 79 44
REMARK SMILES IDX 78 45 34 47 66 48 46 49 65 50 47 51 50 52 64 53 83 54 48 55
REMARK SMILES IDX 49 56 63 58 84 59 51 60 35 61 36 62 44 63 37 64 38 65 42 66
REMARK SMILES IDX 45 67 39 68 40 69 43 70 41 71 67 72 68 73 76 74 69 75 70 76
REMARK SMILES IDX 74 77 77 78 71 79 72 80 75 81 73 82 52 83 53 84 61 85 54 86
REMARK SMILES IDX 55 87 59 88 62 89 56 90 57 91 60 92 58 93
REMARK H PARENT 1 21 1 22 82 46 50 57
REMARK Flexibility Score: inf
ROOT
ATOM      1  O   UNL A   1      41.824  21.257  26.727  1.00  0.00    -0.374 OA
ENDROOT
BRANCH   1   2
ATOM      2  C   UNL A   1      40.489  20.856  26.413  1.00  0.00     0.202 C 
BRANCH   2   3
ATOM      3  C   UNL A   1      39.529  21.997  26.055  1.00  0.00     0.261 C 
BRANCH   3   4
ATOM      4  O   UNL A   1      38.193  21.504  25.844  1.00  0.00    -0.458 OA
BRANCH   4   5
ATOM      5  C   UNL A   1      37.224  22.454  25.809  1.00  0.00     0.358 C 
ATOM      6  O   UNL A   1      37.384  23.657  25.961  1.00  0.00    -0.244 OA
BRANCH   5   7
ATOM      7  C   UNL A   1      35.932  21.866  25.385  1.00  0.00     0.169 A 
ATOM      8  C   UNL A   1      33.669  22.029  24.939  1.00  0.00     0.148 A 
ATOM      9  C   UNL A   1      33.693  20.646  24.681  1.00  0.00     0.157 A 
ATOM     10  N   UNL A   1      34.810  22.645  25.335  1.00  0.00    -0.220 NA
ATOM     11  N   UNL A   1      34.795  19.857  24.767  1.00  0.00    -0.258 NA
ATOM     12  C   UNL A   1      35.924  20.508  25.107  1.00  0.00     0.147 A 
BRANCH   8  13
ATOM     13  N   UNL A   1      32.508  22.753  24.783  1.00  0.00    -0.343 N 
ATOM     14  C   UNL A   1      32.295  23.825  23.785  1.00  0.00     0.172 C 
ATOM     15  C   UNL A   1      32.204  25.172  24.508  1.00  0.00     0.035 C 
ATOM     16  C   UNL A   1      31.078  25.133  25.545  1.00  0.00     0.004 C 
ATOM     17  C   UNL A   1      31.445  22.629  25.784  1.00  0.00     0.119 C 
ATOM     18  C   UNL A   1      31.263  23.964  26.514  1.00  0.00     0.022 C 
BRANCH  14  19
ATOM     19  C   UNL A   1      33.233  23.866  22.567  1.00  0.00     0.240 C 
ATOM     20  N   UNL A   1      32.828  23.216  21.441  1.00  0.00    -0.368 N 
ATOM     21  H   UNL A   1      33.399  23.217  20.639  1.00  0.00     0.159 HD
ATOM     22  H   UNL A   1      31.964  22.744  21.429  1.00  0.00     0.159 HD
ATOM     23  O   UNL A   1      34.334  24.415  22.594  1.00  0.00    -0.273 OA
ENDBRANCH  14  19
ENDBRANCH   8  13
ENDBRANCH   5   7
ENDBRANCH   4   5
ENDBRANCH   3   4
ENDBRANCH   2   3
ENDBRANCH   1   2
BRANCH   1  24
ATOM     24  C   UNL A   1      42.864  20.730  25.902  1.00  0.00     0.202 C 
BRANCH  24  25
ATOM     25  C   UNL A   1      43.773  21.766  25.235  1.00  0.00     0.261 C 
BRANCH  25  26
ATOM     26  O   UNL A   1      43.038  22.947  24.865  1.00  0.00    -0.460 OA
BRANCH  26  27
ATOM     27  C   UNL A   1      43.725  24.104  24.986  1.00  0.00     0.338 C 
ATOM     28  O   UNL A   1      44.723  24.444  24.364  1.00  0.00    -0.246 OA
BRANCH  27  29
ATOM     29  C   UNL A   1      43.009  25.026  25.887  1.00  0.00     0.060 A 
ATOM     30  C   UNL A   1      43.546  26.310  26.050  1.00  0.00     0.016 A 
ATOM     31  C   UNL A   1      41.882  24.632  26.611  1.00  0.00     0.016 A 
ATOM     32  C   UNL A   1      42.995  27.184  26.983  1.00  0.00     0.010 A 
ATOM     33  C   UNL A   1      41.333  25.508  27.553  1.00  0.00     0.010 A 
ATOM     34  C   UNL A   1      41.912  26.771  27.771  1.00  0.00    -0.014 A 
BRANCH  34  35
ATOM     35  C   UNL A   1      41.494  27.602  28.926  1.00  0.00     0.031 A 
ATOM     36  C   UNL A   1      42.278  27.512  30.206  1.00  0.00     0.074 A 
ATOM     37  C   UNL A   1      40.457  28.452  28.827  1.00  0.00     0.049 A 
ATOM     38  N   UNL A   1      42.083  28.124  31.347  1.00  0.00    -0.248 NA
ATOM     39  C   UNL A   1      43.438  26.606  30.201  1.00  0.00     0.031 C 
ATOM     40  C   UNL A   1      39.647  28.656  27.629  1.00  0.00     0.029 A 
ATOM     41  N   UNL A   1      39.907  29.297  29.757  1.00  0.00    -0.354 N 
ATOM     42  C   UNL A   1      43.089  27.676  32.192  1.00  0.00     0.074 A 
ATOM     43  C   UNL A   1      43.875  26.717  31.446  1.00  0.00     0.031 C 
ATOM     44  C   UNL A   1      38.694  29.565  27.899  1.00  0.00     0.029 A 
ATOM     45  C   UNL A   1      38.812  29.983  29.295  1.00  0.00     0.049 A 
ATOM     46  H   UNL A   1      40.265  29.403  30.668  1.00  0.00     0.167 HD
ATOM     47  C   UNL A   1      43.341  28.039  33.473  1.00  0.00     0.037 A 
ATOM     48  C   UNL A   1      37.989  30.835  29.936  1.00  0.00     0.037 A 
ATOM     49  C   UNL A   1      42.562  28.997  34.212  1.00  0.00     0.049 A 
ATOM     50  C   UNL A   1      38.252  31.175  31.380  1.00  0.00     0.074 A 
ATOM     51  C   UNL A   1      42.747  29.445  35.508  1.00  0.00     0.029 A 
ATOM     52  N   UNL A   1      41.442  29.650  33.719  1.00  0.00    -0.354 N 
ATOM     53  N   UNL A   1      39.220  30.766  32.165  1.00  0.00    -0.248 NA
ATOM     54  C   UNL A   1      37.309  32.100  32.026  1.00  0.00     0.031 C 
ATOM     55  C   UNL A   1      41.712  30.334  35.815  1.00  0.00     0.029 A 
ATOM     56  C   UNL A   1      40.911  30.479  34.694  1.00  0.00     0.049 A 
ATOM     57  H   UNL A   1      41.078  29.541  32.812  1.00  0.00     0.167 HD
ATOM     58  C   UNL A   1      39.021  31.403  33.382  1.00  0.00     0.074 A 
ATOM     59  C   UNL A   1      37.846  32.236  33.231  1.00  0.00     0.031 C 
ATOM     60  C   UNL A   1      39.746  31.310  34.524  1.00  0.00     0.037 A 
BRANCH  47  61
ATOM     61  C   UNL A   1      44.497  27.380  34.164  1.00  0.00     0.064 A 
ATOM     62  C   UNL A   1      45.781  27.944  34.156  1.00  0.00     0.173 A 
ATOM     63  C   UNL A   1      44.311  26.182  34.871  1.00  0.00     0.173 A 
ATOM     64  F   UNL A   1      46.015  29.080  33.481  1.00  0.00    -0.203 F 
ATOM     65  C   UNL A   1      46.842  27.321  34.810  1.00  0.00     0.198 A 
ATOM     66  C   UNL A   1      45.367  25.576  35.546  1.00  0.00     0.198 A 
ATOM     67  F   UNL A   1      43.102  25.602  34.913  1.00  0.00    -0.203 F 
ATOM     68  F   UNL A   1      48.069  27.855  34.751  1.00  0.00    -0.200 F 
ATOM     69  C   UNL A   1      46.632  26.143  35.510  1.00  0.00     0.200 A 
ATOM     70  F   UNL A   1      45.161  24.443  36.232  1.00  0.00    -0.200 F 
ATOM     71  F   UNL A   1      47.653  25.547  36.143  1.00  0.00    -0.200 F 
ENDBRANCH  47  61
BRANCH  48  72
ATOM     72  C   UNL A   1      36.829  31.426  29.219  1.00  0.00     0.064 A 
ATOM     73  C   UNL A   1      36.808  32.782  28.867  1.00  0.00     0.173 A 
ATOM     74  C   UNL A   1      35.709  30.648  28.889  1.00  0.00     0.173 A 
ATOM     75  F   UNL A   1      37.844  33.571  29.185  1.00  0.00    -0.203 F 
ATOM     76  C   UNL A   1      35.704  33.342  28.227  1.00  0.00     0.198 A 
ATOM     77  C   UNL A   1      34.617  31.203  28.225  1.00  0.00     0.198 A 
ATOM     78  F   UNL A   1      35.678  29.344  29.205  1.00  0.00    -0.203 F 
ATOM     79  F   UNL A   1      35.691  34.651  27.943  1.00  0.00    -0.200 F 
ATOM     80  C   UNL A   1      34.612  32.552  27.902  1.00  0.00     0.200 A 
ATOM     81  F   UNL A   1      33.568  30.433  27.904  1.00  0.00    -0.200 F 
ATOM     82  F   UNL A   1      33.551  33.091  27.286  1.00  0.00    -0.200 F 
ENDBRANCH  48  72
BRANCH  60  83
ATOM     83  C   UNL A   1      39.318  32.157  35.687  1.00  0.00     0.064 A 
ATOM     84  C   UNL A   1      38.445  31.670  36.670  1.00  0.00     0.173 A 
ATOM     85  C   UNL A   1      39.824  33.457  35.841  1.00  0.00     0.173 A 
ATOM     86  F   UNL A   1      37.924  30.440  36.561  1.00  0.00    -0.203 F 
ATOM     87  C   UNL A   1      38.076  32.464  37.754  1.00  0.00     0.198 A 
ATOM     88  C   UNL A   1      39.475  34.237  36.940  1.00  0.00     0.198 A 
ATOM     89  F   UNL A   1      40.668  33.966  34.931  1.00  0.00    -0.203 F 
ATOM     90  F   UNL A   1      37.206  31.995  38.659  1.00  0.00    -0.200 F 
ATOM     91  C   UNL A   1      38.596  33.742  37.891  1.00  0.00     0.200 A 
ATOM     92  F   UNL A   1      39.990  35.466  37.079  1.00  0.00    -0.200 F 
ATOM     93  F   UNL A   1      38.245  34.500  38.940  1.00  0.00    -0.200 F 
ENDBRANCH  60  83
ENDBRANCH  34  35
ENDBRANCH  27  29
ENDBRANCH  26  27
ENDBRANCH  25  26
ENDBRANCH  24  25
ENDBRANCH   1  24
TORSDOF 16
ENDMDL
MODEL 2
REMARK VINA RESULT:     -11.5      3.106      8.332
REMARK SMILES NC(=O)[C@@H]1CCCCN1c1cncc(C(=O)OCCOCCOC(=O)c2ccc(-c3c4nc(c(-c5c(F)c(F)c(F)c(F)c5F)c5ccc([nH]5)c(-c5c(F)c(F)c(F)c(F)c5F)c5nc(c(-c6c(F)c(F)c(F)c(F)c6F)c6ccc3[nH]6)C=C5)C=C4)cc2)n1
REMARK SMILES IDX 20 1 19 2 18 3 17 4 15 5 16 6 14 7 10 8 11 9 89 10 12 11
REMARK SMILES IDX 13 12 9 13 4 14 5 15 6 16 8 17 7 18 2 19 1 20 3 23 21 24
REMARK SMILES IDX 22 25 23 26 24 27 25 28 26 29 27 30 88 31 28 32 87 33 29 34
REMARK SMILES IDX 30 35 31 36 81 37 32 38 86 39 80 40 82 41 33 42 85 43 79 44
REMARK SMILES IDX 78 45 34 47 66 48 46 49 65 50 47 51 50 52 64 53 83 54 48 55
REMARK SMILES IDX 49 56 63 58 84 59 51 60 35 61 36 62 44 63 37 64 38 65 42 66
REMARK SMILES IDX 45 67 39 68 40 69 43 70 41 71 67 72 68 73 76 74 69 75 70 76
REMARK SMILES IDX 74 77 77 78 71 79 72 80 75 81 73 82 52 83 53 84 61 85 54 86
REMARK SMILES IDX 55 87 59 88 62 89 56 90 57 91 60 92 58 93
REMARK H PARENT 1 21 1 22 82 46 50 57
REMARK Flexibility Score: inf
ROOT
ATOM      1  O   UNL A   1      31.728  29.018  23.573  1.00  0.00    -0.374 OA
ENDROOT
BRANCH   1   2
ATOM      2  C   UNL A   1      30.375  29.480  23.571  1.00  0.00     0.202 C 
BRANCH   2   3
ATOM      3  C   UNL A   1      29.375  28.568  22.851  1.00  0.00     0.261 C 
BRANCH   3   4
ATOM      4  O   UNL A   1      29.763  27.185  22.959  1.00  0.00    -0.458 OA
BRANCH   4   5
ATOM      5  C   UNL A   1      29.246  26.520  24.023  1.00  0.00     0.358 C 
ATOM      6  O   UNL A   1      28.060  26.324  24.249  1.00  0.00    -0.244 OA
BRANCH   5   7
ATOM      7  C   UNL A   1      30.326  25.892  24.820  1.00  0.00     0.169 A 
ATOM      8  C   UNL A   1      31.921  24.251  25.152  1.00  0.00     0.148 A 
ATOM      9  C   UNL A   1      32.181  24.856  26.394  1.00  0.00     0.157 A 
ATOM     10  N   UNL A   1      30.945  24.762  24.362  1.00  0.00    -0.220 NA
ATOM     11  N   UNL A   1      31.544  25.954  26.875  1.00  0.00    -0.258 NA
ATOM     12  C   UNL A   1      30.619  26.473  26.043  1.00  0.00     0.147 A 
BRANCH   8  13
ATOM     13  N   UNL A   1      32.652  23.161  24.733  1.00  0.00    -0.343 N 
ATOM     14  C   UNL A   1      33.166  22.951  23.361  1.00  0.00     0.172 C 
ATOM     15  C   UNL A   1      32.398  21.798  22.709  1.00  0.00     0.035 C 
ATOM     16  C   UNL A   1      32.530  20.534  23.562  1.00  0.00     0.004 C 
ATOM     17  C   UNL A   1      32.786  22.003  25.621  1.00  0.00     0.119 C 
ATOM     18  C   UNL A   1      32.080  20.792  25.001  1.00  0.00     0.022 C 
BRANCH  14  19
ATOM     19  C   UNL A   1      33.285  24.180  22.444  1.00  0.00     0.240 C 
ATOM     20  N   UNL A   1      32.220  24.473  21.648  1.00  0.00    -0.368 N 
ATOM     21  H   UNL A   1      32.254  25.252  21.047  1.00  0.00     0.159 HD
ATOM     22  H   UNL A   1      31.415  23.908  21.675  1.00  0.00     0.159 HD
ATOM     23  O   UNL A   1      34.306  24.862  22.375  1.00  0.00    -0.273 OA
ENDBRANCH  14  19
ENDBRANCH   8  13
ENDBRANCH   5   7
ENDBRANCH   4   5
ENDBRANCH   3   4
ENDBRANCH   2   3
ENDBRANCH   1   2
BRANCH   1  24
ATOM     24  C   UNL A   1      32.512  29.336  24.724  1.00  0.00     0.202 C 
BRANCH  24  25
ATOM     25  C   UNL A   1      31.844  30.257  25.750  1.00  0.00     0.261 C 
BRANCH  25  26
ATOM     26  O   UNL A   1      32.560  30.257  26.999  1.00  0.00    -0.460 OA
BRANCH  26  27
ATOM     27  C   UNL A   1      33.234  31.397  27.267  1.00  0.00     0.338 C 
ATOM     28  O   UNL A   1      32.799  32.540  27.245  1.00  0.00    -0.246 OA
BRANCH  27  29
ATOM     29  C   UNL A   1      34.585  31.080  27.767  1.00  0.00     0.060 A 
ATOM     30  C   UNL A   1      34.874  29.734  28.028  1.00  0.00     0.016 A 
ATOM     31  C   UNL A   1      35.527  32.074  28.043  1.00  0.00     0.016 A 
ATOM     32  C   UNL A   1      36.082  29.382  28.624  1.00  0.00     0.010 A 
ATOM     33  C   UNL A   1      36.738  31.719  28.647  1.00  0.00     0.010 A 
ATOM     34  C   UNL A   1      37.003  30.377  28.976  1.00  0.00    -0.014 A 
BRANCH  34  35
ATOM     35  C   UNL A   1      38.163  30.025  29.829  1.00  0.00     0.031 A 
ATOM     36  C   UNL A   1      39.196  29.072  29.293  1.00  0.00     0.074 A 
ATOM     37  C   UNL A   1      38.317  30.573  31.047  1.00  0.00     0.049 A 
ATOM     38  N   UNL A   1      40.276  28.606  29.866  1.00  0.00    -0.248 NA
ATOM     39  C   UNL A   1      38.980  28.576  27.924  1.00  0.00     0.031 C 
ATOM     40  C   UNL A   1      37.406  31.537  31.658  1.00  0.00     0.029 A 
ATOM     41  N   UNL A   1      39.297  30.388  31.988  1.00  0.00    -0.354 N 
ATOM     42  C   UNL A   1      40.864  27.762  28.934  1.00  0.00     0.074 A 
ATOM     43  C   UNL A   1      40.006  27.753  27.768  1.00  0.00     0.031 C 
ATOM     44  C   UNL A   1      37.866  31.855  32.881  1.00  0.00     0.029 A 
ATOM     45  C   UNL A   1      39.086  31.095  33.146  1.00  0.00     0.049 A 
ATOM     46  H   UNL A   1      40.078  29.806  31.847  1.00  0.00     0.167 HD
ATOM     47  C   UNL A   1      42.020  27.063  29.036  1.00  0.00     0.037 A 
ATOM     48  C   UNL A   1      39.791  31.108  34.294  1.00  0.00     0.037 A 
ATOM     49  C   UNL A   1      42.875  27.076  30.194  1.00  0.00     0.049 A 
ATOM     50  C   UNL A   1      41.040  30.273  34.407  1.00  0.00     0.074 A 
ATOM     51  C   UNL A   1      44.075  26.416  30.388  1.00  0.00     0.029 A 
ATOM     52  N   UNL A   1      42.613  27.782  31.359  1.00  0.00    -0.354 N 
ATOM     53  N   UNL A   1      41.601  29.496  33.513  1.00  0.00    -0.248 NA
ATOM     54  C   UNL A   1      41.755  30.320  35.691  1.00  0.00     0.031 C 
ATOM     55  C   UNL A   1      44.517  26.686  31.687  1.00  0.00     0.029 A 
ATOM     56  C   UNL A   1      43.618  27.555  32.285  1.00  0.00     0.049 A 
ATOM     57  H   UNL A   1      41.829  28.359  31.506  1.00  0.00     0.167 HD
ATOM     58  C   UNL A   1      42.747  28.988  34.111  1.00  0.00     0.074 A 
ATOM     59  C   UNL A   1      42.807  29.552  35.444  1.00  0.00     0.031 C 
ATOM     60  C   UNL A   1      43.668  28.133  33.604  1.00  0.00     0.037 A 
BRANCH  47  61
ATOM     61  C   UNL A   1      42.417  26.207  27.870  1.00  0.00     0.064 A 
ATOM     62  C   UNL A   1      41.872  24.930  27.674  1.00  0.00     0.173 A 
ATOM     63  C   UNL A   1      43.330  26.685  26.919  1.00  0.00     0.173 A 
ATOM     64  F   UNL A   1      41.006  24.421  28.563  1.00  0.00    -0.203 F 
ATOM     65  C   UNL A   1      42.247  24.152  26.580  1.00  0.00     0.198 A 
ATOM     66  C   UNL A   1      43.682  25.917  25.813  1.00  0.00     0.198 A 
ATOM     67  F   UNL A   1      43.879  27.902  27.058  1.00  0.00    -0.203 F 
ATOM     68  F   UNL A   1      41.748  22.917  26.437  1.00  0.00    -0.200 F 
ATOM     69  C   UNL A   1      43.145  24.649  25.648  1.00  0.00     0.200 A 
ATOM     70  F   UNL A   1      44.542  26.402  24.907  1.00  0.00    -0.200 F 
ATOM     71  F   UNL A   1      43.500  23.902  24.593  1.00  0.00    -0.200 F 
ENDBRANCH  47  61
BRANCH  48  72
ATOM     72  C   UNL A   1      39.329  31.937  35.438  1.00  0.00     0.064 A 
ATOM     73  C   UNL A   1      38.511  31.398  36.440  1.00  0.00     0.173 A 
ATOM     74  C   UNL A   1      39.680  33.292  35.540  1.00  0.00     0.173 A 
ATOM     75  F   UNL A   1      38.127  30.115  36.371  1.00  0.00    -0.203 F 
ATOM     76  C   UNL A   1      38.048  32.185  37.492  1.00  0.00     0.198 A 
ATOM     77  C   UNL A   1      39.238  34.072  36.606  1.00  0.00     0.198 A 
ATOM     78  F   UNL A   1      40.459  33.857  34.605  1.00  0.00    -0.203 F 
ATOM     79  F   UNL A   1      37.230  31.657  38.412  1.00  0.00    -0.200 F 
ATOM     80  C   UNL A   1      38.416  33.520  37.577  1.00  0.00     0.200 A 
ATOM     81  F   UNL A   1      39.605  35.358  36.691  1.00  0.00    -0.200 F 
ATOM     82  F   UNL A   1      37.972  34.277  38.590  1.00  0.00    -0.200 F 
ENDBRANCH  48  72
BRANCH  60  83
ATOM     83  C   UNL A   1      44.842  27.784  34.473  1.00  0.00     0.064 A 
ATOM     84  C   UNL A   1      46.023  28.539  34.454  1.00  0.00     0.173 A 
ATOM     85  C   UNL A   1      44.764  26.706  35.368  1.00  0.00     0.173 A 
ATOM     86  F   UNL A   1      46.151  29.570  33.607  1.00  0.00    -0.203 F 
ATOM     87  C   UNL A   1      47.093  28.212  35.283  1.00  0.00     0.198 A 
ATOM     88  C   UNL A   1      45.825  26.399  36.215  1.00  0.00     0.198 A 
ATOM     89  F   UNL A   1      43.654  25.956  35.430  1.00  0.00    -0.203 F 
ATOM     90  F   UNL A   1      48.229  28.921  35.217  1.00  0.00    -0.200 F 
ATOM     91  C   UNL A   1      46.991  27.149  36.167  1.00  0.00     0.200 A 
ATOM     92  F   UNL A   1      45.720  25.380  37.079  1.00  0.00    -0.200 F 
ATOM     93  F   UNL A   1      48.020  26.842  36.970  1.00  0.00    -0.200 F 
ENDBRANCH  60  83
ENDBRANCH  34  35
ENDBRANCH  27  29
ENDBRANCH  26  27
ENDBRANCH  25  26
ENDBRANCH  24  25
ENDBRANCH   1  24
TORSDOF 16
ENDMDL
MODEL 3
REMARK VINA RESULT:     -11.4      5.559     11.607
REMARK SMILES NC(=O)[C@@H]1CCCCN1c1cncc(C(=O)OCCOCCOC(=O)c2ccc(-c3c4nc(c(-c5c(F)c(F)c(F)c(F)c5F)c5ccc([nH]5)c(-c5c(F)c(F)c(F)c(F)c5F)c5nc(c(-c6c(F)c(F)c(F)c(F)c6F)c6ccc3[nH]6)C=C5)C=C4)cc2)n1
REMARK SMILES IDX 20 1 19 2 18 3 17 4 15 5 16 6 14 7 10 8 11 9 89 10 12 11
REMARK SMILES IDX 13 12 9 13 4 14 5 15 6 16 8 17 7 18 2 19 1 20 3 23 21 24
REMARK SMILES IDX 22 25 23 26 24 27 25 28 26 29 27 30 88 31 28 32 87 33 29 34
REMARK SMILES IDX 30 35 31 36 81 37 32 38 86 39 80 40 82 41 33 42 85 43 79 44
REMARK SMILES IDX 78 45 34 47 66 48 46 49 65 50 47 51 50 52 64 53 83 54 48 55
REMARK SMILES IDX 49 56 63 58 84 59 51 60 35 61 36 62 44 63 37 64 38 65 42 66
REMARK SMILES IDX 45 67 39 68 40 69 43 70 41 71 67 72 68 73 76 74 69 75 70 76
REMARK SMILES IDX 74 77 77 78 71 79 72 80 75 81 73 82 52 83 53 84 61 85 54 86
REMARK SMILES IDX 55 87 59 88 62 89 56 90 57 91 60 92 58 93
REMARK H PARENT 1 21 1 22 82 46 50 57
REMARK Flexibility Score: inf
ROOT
ATOM      1  O   UNL A   1      32.969  34.729  30.033  1.00  0.00    -0.374 OA
ENDROOT
BRANCH   1   2
ATOM      2  C   UNL A   1      33.014  35.895  30.859  1.00  0.00     0.202 C 
BRANCH   2   3
ATOM      3  C   UNL A   1      32.706  35.659  32.342  1.00  0.00     0.261 C 
BRANCH   3   4
ATOM      4  O   UNL A   1      33.898  35.307  33.069  1.00  0.00    -0.458 OA
BRANCH   4   5
ATOM      5  C   UNL A   1      34.134  33.974  33.184  1.00  0.00     0.358 C 
ATOM      6  O   UNL A   1      33.302  33.082  33.103  1.00  0.00    -0.244 OA
BRANCH   5   7
ATOM      7  C   UNL A   1      35.589  33.707  33.256  1.00  0.00     0.169 A 
ATOM      8  C   UNL A   1      37.393  32.423  33.921  1.00  0.00     0.148 A 
ATOM      9  C   UNL A   1      38.216  33.415  33.358  1.00  0.00     0.157 A 
ATOM     10  N   UNL A   1      36.048  32.592  33.899  1.00  0.00    -0.220 NA
ATOM     11  N   UNL A   1      37.769  34.545  32.753  1.00  0.00    -0.258 NA
ATOM     12  C   UNL A   1      36.428  34.657  32.696  1.00  0.00     0.147 A 
BRANCH   8  13
ATOM     13  N   UNL A   1      37.940  31.288  34.478  1.00  0.00    -0.343 N 
ATOM     14  C   UNL A   1      38.523  31.196  35.836  1.00  0.00     0.172 C 
ATOM     15  C   UNL A   1      40.039  31.018  35.720  1.00  0.00     0.035 C 
ATOM     16  C   UNL A   1      40.356  29.776  34.884  1.00  0.00     0.004 C 
ATOM     17  C   UNL A   1      38.168  30.112  33.634  1.00  0.00     0.119 C 
ATOM     18  C   UNL A   1      39.672  29.843  33.517  1.00  0.00     0.022 C 
BRANCH  14  19
ATOM     19  C   UNL A   1      38.127  32.275  36.859  1.00  0.00     0.240 C 
ATOM     20  N   UNL A   1      39.093  33.151  37.250  1.00  0.00    -0.368 N 
ATOM     21  H   UNL A   1      38.881  33.858  37.903  1.00  0.00     0.159 HD
ATOM     22  H   UNL A   1      40.002  33.081  36.880  1.00  0.00     0.159 HD
ATOM     23  O   UNL A   1      37.005  32.337  37.358  1.00  0.00    -0.273 OA
ENDBRANCH  14  19
ENDBRANCH   8  13
ENDBRANCH   5   7
ENDBRANCH   4   5
ENDBRANCH   3   4
ENDBRANCH   2   3
ENDBRANCH   1   2
BRANCH   1  24
ATOM     24  C   UNL A   1      34.076  34.522  29.154  1.00  0.00     0.202 C 
BRANCH  24  25
ATOM     25  C   UNL A   1      34.013  33.258  28.292  1.00  0.00     0.261 C 
BRANCH  25  26
ATOM     26  O   UNL A   1      34.399  32.092  29.042  1.00  0.00    -0.460 OA
BRANCH  26  27
ATOM     27  C   UNL A   1      34.396  30.938  28.339  1.00  0.00     0.338 C 
ATOM     28  O   UNL A   1      33.501  30.505  27.625  1.00  0.00    -0.246 OA
BRANCH  27  29
ATOM     29  C   UNL A   1      35.724  30.300  28.406  1.00  0.00     0.060 A 
ATOM     30  C   UNL A   1      36.095  29.717  29.626  1.00  0.00     0.016 A 
ATOM     31  C   UNL A   1      36.618  30.329  27.333  1.00  0.00     0.016 A 
ATOM     32  C   UNL A   1      37.382  29.216  29.797  1.00  0.00     0.010 A 
ATOM     33  C   UNL A   1      37.912  29.829  27.508  1.00  0.00     0.010 A 
ATOM     34  C   UNL A   1      38.311  29.308  28.753  1.00  0.00    -0.014 A 
BRANCH  34  35
ATOM     35  C   UNL A   1      39.738  29.005  29.020  1.00  0.00     0.031 A 
ATOM     36  C   UNL A   1      40.566  30.013  29.770  1.00  0.00     0.074 A 
ATOM     37  C   UNL A   1      40.281  27.837  28.635  1.00  0.00     0.049 A 
ATOM     38  N   UNL A   1      41.833  29.973  30.096  1.00  0.00    -0.248 NA
ATOM     39  C   UNL A   1      39.870  31.232  30.212  1.00  0.00     0.031 C 
ATOM     40  C   UNL A   1      39.572  26.769  27.937  1.00  0.00     0.029 A 
ATOM     41  N   UNL A   1      41.560  27.362  28.774  1.00  0.00    -0.354 N 
ATOM     42  C   UNL A   1      42.086  31.157  30.774  1.00  0.00     0.074 A 
ATOM     43  C   UNL A   1      40.851  31.912  30.787  1.00  0.00     0.031 C 
ATOM     44  C   UNL A   1      40.429  25.760  27.700  1.00  0.00     0.029 A 
ATOM     45  C   UNL A   1      41.751  26.128  28.204  1.00  0.00     0.049 A 
ATOM     46  H   UNL A   1      42.272  27.857  29.239  1.00  0.00     0.167 HD
ATOM     47  C   UNL A   1      43.242  31.576  31.343  1.00  0.00     0.037 A 
ATOM     48  C   UNL A   1      42.873  25.391  28.088  1.00  0.00     0.037 A 
ATOM     49  C   UNL A   1      44.469  30.823  31.334  1.00  0.00     0.049 A 
ATOM     50  C   UNL A   1      44.162  25.906  28.673  1.00  0.00     0.074 A 
ATOM     51  C   UNL A   1      45.688  31.152  31.897  1.00  0.00     0.029 A 
ATOM     52  N   UNL A   1      44.631  29.588  30.721  1.00  0.00    -0.354 N 
ATOM     53  N   UNL A   1      44.388  27.016  29.334  1.00  0.00    -0.248 NA
ATOM     54  C   UNL A   1      45.353  25.061  28.501  1.00  0.00     0.031 C 
ATOM     55  C   UNL A   1      46.601  30.139  31.587  1.00  0.00     0.029 A 
ATOM     56  C   UNL A   1      45.938  29.154  30.873  1.00  0.00     0.049 A 
ATOM     57  H   UNL A   1      43.923  29.094  30.249  1.00  0.00     0.167 HD
ATOM     58  C   UNL A   1      45.732  26.990  29.680  1.00  0.00     0.074 A 
ATOM     59  C   UNL A   1      46.272  25.749  29.166  1.00  0.00     0.031 C 
ATOM     60  C   UNL A   1      46.456  27.910  30.364  1.00  0.00     0.037 A 
BRANCH  47  61
ATOM     61  C   UNL A   1      43.240  32.921  32.005  1.00  0.00     0.064 A 
ATOM     62  C   UNL A   1      43.022  33.064  33.383  1.00  0.00     0.173 A 
ATOM     63  C   UNL A   1      43.491  34.080  31.257  1.00  0.00     0.173 A 
ATOM     64  F   UNL A   1      42.762  31.988  34.141  1.00  0.00    -0.203 F 
ATOM     65  C   UNL A   1      43.031  34.321  33.984  1.00  0.00     0.198 A 
ATOM     66  C   UNL A   1      43.527  35.332  31.864  1.00  0.00     0.198 A 
ATOM     67  F   UNL A   1      43.709  33.999  29.935  1.00  0.00    -0.203 F 
ATOM     68  F   UNL A   1      42.775  34.438  35.294  1.00  0.00    -0.200 F 
ATOM     69  C   UNL A   1      43.290  35.452  33.225  1.00  0.00     0.200 A 
ATOM     70  F   UNL A   1      43.788  36.424  31.131  1.00  0.00    -0.200 F 
ATOM     71  F   UNL A   1      43.304  36.661  33.805  1.00  0.00    -0.200 F 
ENDBRANCH  47  61
BRANCH  48  72
ATOM     72  C   UNL A   1      42.832  24.085  27.380  1.00  0.00     0.064 A 
ATOM     73  C   UNL A   1      42.503  22.903  28.057  1.00  0.00     0.173 A 
ATOM     74  C   UNL A   1      43.140  23.991  26.014  1.00  0.00     0.173 A 
ATOM     75  F   UNL A   1      42.227  22.939  29.369  1.00  0.00    -0.203 F 
ATOM     76  C   UNL A   1      42.500  21.674  27.401  1.00  0.00     0.198 A 
ATOM     77  C   UNL A   1      43.111  22.766  25.352  1.00  0.00     0.198 A 
ATOM     78  F   UNL A   1      43.463  25.093  25.321  1.00  0.00    -0.203 F 
ATOM     79  F   UNL A   1      42.228  20.554  28.082  1.00  0.00    -0.200 F 
ATOM     80  C   UNL A   1      42.799  21.607  26.048  1.00  0.00     0.200 A 
ATOM     81  F   UNL A   1      43.390  22.707  24.043  1.00  0.00    -0.200 F 
ATOM     82  F   UNL A   1      42.795  20.425  25.416  1.00  0.00    -0.200 F 
ENDBRANCH  48  72
BRANCH  60  83
ATOM     83  C   UNL A   1      47.899  27.594  30.633  1.00  0.00     0.064 A 
ATOM     84  C   UNL A   1      48.296  26.869  31.765  1.00  0.00     0.173 A 
ATOM     85  C   UNL A   1      48.892  27.986  29.721  1.00  0.00     0.173 A 
ATOM     86  F   UNL A   1      47.388  26.484  32.673  1.00  0.00    -0.203 F 
ATOM     87  C   UNL A   1      49.638  26.568  31.987  1.00  0.00     0.198 A 
ATOM     88  C   UNL A   1      50.228  27.659  29.931  1.00  0.00     0.198 A 
ATOM     89  F   UNL A   1      48.563  28.676  28.618  1.00  0.00    -0.203 F 
ATOM     90  F   UNL A   1      50.001  25.912  33.097  1.00  0.00    -0.200 F 
ATOM     91  C   UNL A   1      50.601  26.956  31.066  1.00  0.00     0.200 A 
ATOM     92  F   UNL A   1      51.155  28.023  29.034  1.00  0.00    -0.200 F 
ATOM     93  F   UNL A   1      51.890  26.658  31.279  1.00  0.00    -0.200 F 
ENDBRANCH  60  83
ENDBRANCH  34  35
ENDBRANCH  27  29
ENDBRANCH  26  27
ENDBRANCH  25  26
ENDBRANCH  24  25
ENDBRANCH   1  24
TORSDOF 16
ENDMDL
