MODEL 1
REMARK VINA RESULT:     -11.4      0.000      0.000
REMARK SMILES CC[N@@H+](C)Cc1cc2c(cc1Cl)C=C(C(=O)OCCOCCOC(=O)c1ccc(-c3c4nc(c(-c5c(F)c(F)c(F)c(F)c5F)c5ccc([nH]5)c(-c5c(F)c(F)c(F)c(F)c5F)c5nc(c(-c6c(F)c(F)c(F)c(F)c6F)c6ccc3[nH]6)C=C5)C=C4)cc1)[C@@H](C(F)(F)F)O2
REMARK SMILES IDX 19 1 18 2 17 3 15 4 16 5 14 6 6 7 7 8 11 9 8 10 10 11 12 12
REMARK SMILES IDX 9 13 94 14 13 15 89 16 5 17 3 18 4 19 2 21 1 22 90 23 91 24
REMARK SMILES IDX 92 25 93 26 20 27 21 28 22 29 23 30 24 31 25 32 26 33 27 34
REMARK SMILES IDX 88 35 28 36 87 37 29 38 30 39 31 40 81 41 32 42 86 43 80 44
REMARK SMILES IDX 82 45 33 46 85 47 79 48 78 49 34 51 66 52 46 53 65 54 47 55
REMARK SMILES IDX 50 56 64 57 83 58 48 59 49 60 63 62 84 63 51 64 35 65 36 66
REMARK SMILES IDX 44 67 37 68 38 69 42 70 45 71 39 72 40 73 43 74 41 75 67 76
REMARK SMILES IDX 68 77 76 78 69 79 70 80 74 81 77 82 71 83 72 84 75 85 73 86
REMARK SMILES IDX 52 87 53 88 61 89 54 90 55 91 59 92 62 93 56 94 57 95 60 96
REMARK SMILES IDX 58 97
REMARK H PARENT 3 20 82 50 50 61
REMARK Flexibility Score: inf
ROOT
ATOM      1  C   UNL A   1      32.066  29.909  26.842  1.00  0.00     0.202 C 
ENDROOT
BRANCH   1   2
ATOM      2  C   UNL A   1      33.410  29.201  26.658  1.00  0.00     0.261 C 
BRANCH   2   3
ATOM      3  O   UNL A   1      33.258  27.778  26.593  1.00  0.00    -0.460 OA
BRANCH   3   4
ATOM      4  C   UNL A   1      33.442  27.253  25.358  1.00  0.00     0.338 C 
ATOM      5  O   UNL A   1      33.712  27.860  24.336  1.00  0.00    -0.246 OA
BRANCH   4   6
ATOM      6  C   UNL A   1      33.390  25.781  25.441  1.00  0.00     0.087 C 
ATOM      7  C   UNL A   1      34.467  20.898  25.033  1.00  0.00     0.029 A 
ATOM      8  C   UNL A   1      33.301  21.651  25.260  1.00  0.00     0.058 A 
ATOM      9  C   UNL A   1      35.693  21.591  25.068  1.00  0.00     0.050 A 
ATOM     10  C   UNL A   1      33.342  23.030  25.456  1.00  0.00     0.128 A 
ATOM     11  C   UNL A   1      35.738  22.976  25.278  1.00  0.00     0.033 A 
ATOM     12  Cl  UNL A   1      37.212  20.802  24.811  1.00  0.00    -0.084 Cl
ATOM     13  C   UNL A   1      34.558  23.703  25.430  1.00  0.00     0.019 A 
ATOM     14  O   UNL A   1      32.140  23.640  25.668  1.00  0.00    -0.475 OA
ATOM     15  C   UNL A   1      34.573  25.152  25.477  1.00  0.00     0.027 C 
ATOM     16  C   UNL A   1      32.061  25.078  25.481  1.00  0.00     0.316 C 
BRANCH   7  17
ATOM     17  C   UNL A   1      34.410  19.431  24.629  1.00  0.00     0.300 C 
BRANCH  17  18
ATOM     18  N   UNL A   1      33.110  18.750  24.525  1.00  0.00    -0.334 N 
ATOM     19  C   UNL A   1      32.659  18.103  25.747  1.00  0.00     0.333 C 
ATOM     20  H   UNL A   1      32.473  19.539  24.406  1.00  0.00     0.348 HD
BRANCH  18  21
ATOM     21  C   UNL A   1      32.874  17.980  23.307  1.00  0.00     0.258 C 
ATOM     22  C   UNL A   1      33.960  16.937  23.058  1.00  0.00     0.071 C 
ENDBRANCH  18  21
ENDBRANCH  17  18
ENDBRANCH   7  17
BRANCH  16  23
ATOM     23  C   UNL A   1      31.198  25.365  24.245  1.00  0.00     0.430 C 
ATOM     24  F   UNL A   1      31.960  25.466  23.129  1.00  0.00    -0.167 F 
ATOM     25  F   UNL A   1      30.306  24.373  24.014  1.00  0.00    -0.167 F 
ATOM     26  F   UNL A   1      30.501  26.517  24.367  1.00  0.00    -0.167 F 
ENDBRANCH  16  23
ENDBRANCH   4   6
ENDBRANCH   3   4
ENDBRANCH   2   3
ENDBRANCH   1   2
BRANCH   1  27
ATOM     27  O   UNL A   1      31.768  31.007  25.984  1.00  0.00    -0.374 OA
BRANCH  27  28
ATOM     28  C   UNL A   1      31.468  32.273  26.569  1.00  0.00     0.202 C 
BRANCH  28  29
ATOM     29  C   UNL A   1      32.601  33.053  27.250  1.00  0.00     0.261 C 
BRANCH  29  30
ATOM     30  O   UNL A   1      32.154  33.772  28.413  1.00  0.00    -0.460 OA
BRANCH  30  31
ATOM     31  C   UNL A   1      32.913  34.845  28.746  1.00  0.00     0.338 C 
ATOM     32  O   UNL A   1      32.626  36.026  28.629  1.00  0.00    -0.246 OA
BRANCH  31  33
ATOM     33  C   UNL A   1      34.098  34.383  29.490  1.00  0.00     0.060 A 
ATOM     34  C   UNL A   1      33.970  33.742  30.722  1.00  0.00     0.016 A 
ATOM     35  C   UNL A   1      35.358  34.560  28.903  1.00  0.00     0.016 A 
ATOM     36  C   UNL A   1      35.115  33.251  31.355  1.00  0.00     0.010 A 
ATOM     37  C   UNL A   1      36.499  34.075  29.538  1.00  0.00     0.010 A 
ATOM     38  C   UNL A   1      36.381  33.394  30.758  1.00  0.00    -0.014 A 
BRANCH  38  39
ATOM     39  C   UNL A   1      37.560  32.702  31.332  1.00  0.00     0.031 A 
ATOM     40  C   UNL A   1      38.180  33.144  32.621  1.00  0.00     0.074 A 
ATOM     41  C   UNL A   1      38.091  31.676  30.641  1.00  0.00     0.049 A 
ATOM     42  N   UNL A   1      39.187  32.614  33.272  1.00  0.00    -0.248 NA
ATOM     43  C   UNL A   1      37.606  34.335  33.261  1.00  0.00     0.031 C 
ATOM     44  C   UNL A   1      37.594  31.191  29.353  1.00  0.00     0.029 A 
ATOM     45  N   UNL A   1      39.155  30.858  30.920  1.00  0.00    -0.354 N 
ATOM     46  C   UNL A   1      39.354  33.392  34.408  1.00  0.00     0.074 A 
ATOM     47  C   UNL A   1      38.381  34.462  34.331  1.00  0.00     0.031 C 
ATOM     48  C   UNL A   1      38.330  30.138  28.969  1.00  0.00     0.029 A 
ATOM     49  C   UNL A   1      39.371  29.897  29.964  1.00  0.00     0.049 A 
ATOM     50  H   UNL A   1      39.709  30.950  31.728  1.00  0.00     0.167 HD
ATOM     51  C   UNL A   1      40.230  33.212  35.426  1.00  0.00     0.037 A 
ATOM     52  C   UNL A   1      40.303  28.927  29.895  1.00  0.00     0.037 A 
ATOM     53  C   UNL A   1      41.210  32.155  35.480  1.00  0.00     0.049 A 
ATOM     54  C   UNL A   1      41.292  28.780  31.016  1.00  0.00     0.074 A 
ATOM     55  C   UNL A   1      42.119  31.873  36.486  1.00  0.00     0.029 A 
ATOM     56  N   UNL A   1      41.424  31.216  34.479  1.00  0.00    -0.354 N 
ATOM     57  N   UNL A   1      41.397  29.475  32.123  1.00  0.00    -0.248 NA
ATOM     58  C   UNL A   1      42.289  27.708  30.884  1.00  0.00     0.031 C 
ATOM     59  C   UNL A   1      42.922  30.807  36.068  1.00  0.00     0.029 A 
ATOM     60  C   UNL A   1      42.470  30.375  34.831  1.00  0.00     0.049 A 
ATOM     61  H   UNL A   1      40.908  31.156  33.643  1.00  0.00     0.167 HD
ATOM     62  C   UNL A   1      42.449  28.911  32.831  1.00  0.00     0.074 A 
ATOM     63  C   UNL A   1      42.942  27.805  32.034  1.00  0.00     0.031 C 
ATOM     64  C   UNL A   1      42.957  29.277  34.034  1.00  0.00     0.037 A 
BRANCH  51  65
ATOM     65  C   UNL A   1      40.171  34.175  36.579  1.00  0.00     0.064 A 
ATOM     66  C   UNL A   1      39.344  33.941  37.687  1.00  0.00     0.173 A 
ATOM     67  C   UNL A   1      41.006  35.303  36.613  1.00  0.00     0.173 A 
ATOM     68  F   UNL A   1      38.523  32.881  37.705  1.00  0.00    -0.203 F 
ATOM     69  C   UNL A   1      39.339  34.809  38.777  1.00  0.00     0.198 A 
ATOM     70  C   UNL A   1      41.022  36.151  37.717  1.00  0.00     0.198 A 
ATOM     71  F   UNL A   1      41.825  35.571  35.585  1.00  0.00    -0.203 F 
ATOM     72  F   UNL A   1      38.513  34.583  39.808  1.00  0.00    -0.200 F 
ATOM     73  C   UNL A   1      40.186  35.907  38.796  1.00  0.00     0.200 A 
ATOM     74  F   UNL A   1      41.854  37.202  37.742  1.00  0.00    -0.200 F 
ATOM     75  F   UNL A   1      40.193  36.731  39.853  1.00  0.00    -0.200 F 
ENDBRANCH  51  65
BRANCH  52  76
ATOM     76  C   UNL A   1      40.300  27.998  28.737  1.00  0.00     0.064 A 
ATOM     77  C   UNL A   1      41.034  28.290  27.580  1.00  0.00     0.173 A 
ATOM     78  C   UNL A   1      39.608  26.778  28.783  1.00  0.00     0.173 A 
ATOM     79  F   UNL A   1      41.698  29.452  27.484  1.00  0.00    -0.203 F 
ATOM     80  C   UNL A   1      41.074  27.400  26.510  1.00  0.00     0.198 A 
ATOM     81  C   UNL A   1      39.673  25.876  27.723  1.00  0.00     0.198 A 
ATOM     82  F   UNL A   1      38.898  26.449  29.871  1.00  0.00    -0.203 F 
ATOM     83  F   UNL A   1      41.762  27.716  25.404  1.00  0.00    -0.200 F 
ATOM     84  C   UNL A   1      40.403  26.188  26.587  1.00  0.00     0.200 A 
ATOM     85  F   UNL A   1      39.039  24.698  27.810  1.00  0.00    -0.200 F 
ATOM     86  F   UNL A   1      40.459  25.323  25.566  1.00  0.00    -0.200 F 
ENDBRANCH  52  76
BRANCH  64  87
ATOM     87  C   UNL A   1      44.094  28.463  34.586  1.00  0.00     0.064 A 
ATOM     88  C   UNL A   1      45.433  28.829  34.381  1.00  0.00     0.173 A 
ATOM     89  C   UNL A   1      43.838  27.336  35.384  1.00  0.00     0.173 A 
ATOM     90  F   UNL A   1      45.733  29.889  33.616  1.00  0.00    -0.203 F 
ATOM     91  C   UNL A   1      46.472  28.086  34.937  1.00  0.00     0.198 A 
ATOM     92  C   UNL A   1      44.879  26.617  35.966  1.00  0.00     0.198 A 
ATOM     93  F   UNL A   1      42.577  26.945  35.618  1.00  0.00    -0.203 F 
ATOM     94  F   UNL A   1      47.744  28.430  34.690  1.00  0.00    -0.200 F 
ATOM     95  C   UNL A   1      46.194  26.988  35.737  1.00  0.00     0.200 A 
ATOM     96  F   UNL A   1      44.607  25.567  36.754  1.00  0.00    -0.200 F 
ATOM     97  F   UNL A   1      47.196  26.285  36.285  1.00  0.00    -0.200 F 
ENDBRANCH  64  87
ENDBRANCH  38  39
ENDBRANCH  31  33
ENDBRANCH  30  31
ENDBRANCH  29  30
ENDBRANCH  28  29
ENDBRANCH  27  28
ENDBRANCH   1  27
TORSDOF 18
ENDMDL
MODEL 2
REMARK VINA RESULT:     -11.3      0.593      2.003
REMARK SMILES CC[N@@H+](C)Cc1cc2c(cc1Cl)C=C(C(=O)OCCOCCOC(=O)c1ccc(-c3c4nc(c(-c5c(F)c(F)c(F)c(F)c5F)c5ccc([nH]5)c(-c5c(F)c(F)c(F)c(F)c5F)c5nc(c(-c6c(F)c(F)c(F)c(F)c6F)c6ccc3[nH]6)C=C5)C=C4)cc1)[C@@H](C(F)(F)F)O2
REMARK SMILES IDX 19 1 18 2 17 3 15 4 16 5 14 6 6 7 7 8 11 9 8 10 10 11 12 12
REMARK SMILES IDX 9 13 94 14 13 15 89 16 5 17 3 18 4 19 2 21 1 22 90 23 91 24
REMARK SMILES IDX 92 25 93 26 20 27 21 28 22 29 23 30 24 31 25 32 26 33 27 34
REMARK SMILES IDX 88 35 28 36 87 37 29 38 30 39 31 40 81 41 32 42 86 43 80 44
REMARK SMILES IDX 82 45 33 46 85 47 79 48 78 49 34 51 66 52 46 53 65 54 47 55
REMARK SMILES IDX 50 56 64 57 83 58 48 59 49 60 63 62 84 63 51 64 35 65 36 66
REMARK SMILES IDX 44 67 37 68 38 69 42 70 45 71 39 72 40 73 43 74 41 75 67 76
REMARK SMILES IDX 68 77 76 78 69 79 70 80 74 81 77 82 71 83 72 84 75 85 73 86
REMARK SMILES IDX 52 87 53 88 61 89 54 90 55 91 59 92 62 93 56 94 57 95 60 96
REMARK SMILES IDX 58 97
REMARK H PARENT 3 20 82 50 50 61
REMARK Flexibility Score: inf
ROOT
ATOM      1  C   UNL A   1      32.506  30.373  26.883  1.00  0.00     0.202 C 
ENDROOT
BRANCH   1   2
ATOM      2  C   UNL A   1      32.979  29.638  25.626  1.00  0.00     0.261 C 
BRANCH   2   3
ATOM      3  O   UNL A   1      33.550  28.361  25.939  1.00  0.00    -0.460 OA
BRANCH   3   4
ATOM      4  C   UNL A   1      33.715  27.546  24.869  1.00  0.00     0.338 C 
ATOM      5  O   UNL A   1      34.126  27.860  23.765  1.00  0.00    -0.246 OA
BRANCH   4   6
ATOM      6  C   UNL A   1      33.438  26.154  25.270  1.00  0.00     0.087 C 
ATOM      7  C   UNL A   1      33.567  21.158  25.711  1.00  0.00     0.029 A 
ATOM      8  C   UNL A   1      32.623  22.163  25.986  1.00  0.00     0.058 A 
ATOM      9  C   UNL A   1      34.869  21.578  25.371  1.00  0.00     0.050 A 
ATOM     10  C   UNL A   1      32.937  23.517  25.875  1.00  0.00     0.128 A 
ATOM     11  C   UNL A   1      35.189  22.938  25.271  1.00  0.00     0.033 A 
ATOM     12  Cl  UNL A   1      36.138  20.459  25.009  1.00  0.00    -0.084 Cl
ATOM     13  C   UNL A   1      34.211  23.909  25.482  1.00  0.00     0.019 A 
ATOM     14  O   UNL A   1      31.931  24.390  26.172  1.00  0.00    -0.475 OA
ATOM     15  C   UNL A   1      34.477  25.309  25.218  1.00  0.00     0.027 C 
ATOM     16  C   UNL A   1      32.053  25.759  25.703  1.00  0.00     0.316 C 
BRANCH   7  17
ATOM     17  C   UNL A   1      33.178  19.688  25.644  1.00  0.00     0.300 C 
BRANCH  17  18
ATOM     18  N   UNL A   1      33.346  18.942  24.387  1.00  0.00    -0.334 N 
ATOM     19  C   UNL A   1      32.304  19.169  23.397  1.00  0.00     0.333 C 
ATOM     20  H   UNL A   1      34.173  19.390  23.991  1.00  0.00     0.348 HD
BRANCH  18  21
ATOM     21  C   UNL A   1      33.777  17.552  24.507  1.00  0.00     0.258 C 
ATOM     22  C   UNL A   1      34.108  16.927  23.155  1.00  0.00     0.071 C 
ENDBRANCH  18  21
ENDBRANCH  17  18
ENDBRANCH   7  17
BRANCH  16  23
ATOM     23  C   UNL A   1      30.997  26.002  24.617  1.00  0.00     0.430 C 
ATOM     24  F   UNL A   1      31.510  25.788  23.380  1.00  0.00    -0.167 F 
ATOM     25  F   UNL A   1      29.942  25.164  24.746  1.00  0.00    -0.167 F 
ATOM     26  F   UNL A   1      30.518  27.266  24.645  1.00  0.00    -0.167 F 
ENDBRANCH  16  23
ENDBRANCH   4   6
ENDBRANCH   3   4
ENDBRANCH   2   3
ENDBRANCH   1   2
BRANCH   1  27
ATOM     27  O   UNL A   1      31.417  31.282  26.752  1.00  0.00    -0.374 OA
BRANCH  27  28
ATOM     28  C   UNL A   1      31.692  32.681  26.722  1.00  0.00     0.202 C 
BRANCH  28  29
ATOM     29  C   UNL A   1      32.820  33.227  27.607  1.00  0.00     0.261 C 
BRANCH  29  30
ATOM     30  O   UNL A   1      32.337  34.101  28.642  1.00  0.00    -0.460 OA
BRANCH  30  31
ATOM     31  C   UNL A   1      33.156  35.139  28.940  1.00  0.00     0.338 C 
ATOM     32  O   UNL A   1      32.938  36.329  28.781  1.00  0.00    -0.246 OA
BRANCH  31  33
ATOM     33  C   UNL A   1      34.312  34.635  29.702  1.00  0.00     0.060 A 
ATOM     34  C   UNL A   1      34.147  34.054  30.960  1.00  0.00     0.016 A 
ATOM     35  C   UNL A   1      35.579  34.712  29.110  1.00  0.00     0.016 A 
ATOM     36  C   UNL A   1      35.260  33.519  31.613  1.00  0.00     0.010 A 
ATOM     37  C   UNL A   1      36.689  34.184  29.766  1.00  0.00     0.010 A 
ATOM     38  C   UNL A   1      36.532  33.561  31.011  1.00  0.00    -0.014 A 
BRANCH  38  39
ATOM     39  C   UNL A   1      37.668  32.822  31.614  1.00  0.00     0.031 A 
ATOM     40  C   UNL A   1      38.234  33.201  32.947  1.00  0.00     0.074 A 
ATOM     41  C   UNL A   1      38.210  31.810  30.910  1.00  0.00     0.049 A 
ATOM     42  N   UNL A   1      39.196  32.625  33.624  1.00  0.00    -0.248 NA
ATOM     43  C   UNL A   1      37.655  34.381  33.604  1.00  0.00     0.031 C 
ATOM     44  C   UNL A   1      37.765  31.384  29.583  1.00  0.00     0.029 A 
ATOM     45  N   UNL A   1      39.241  30.958  31.209  1.00  0.00    -0.354 N 
ATOM     46  C   UNL A   1      39.325  33.356  34.796  1.00  0.00     0.074 A 
ATOM     47  C   UNL A   1      38.379  34.450  34.714  1.00  0.00     0.031 C 
ATOM     48  C   UNL A   1      38.497  30.330  29.195  1.00  0.00     0.029 A 
ATOM     49  C   UNL A   1      39.484  30.029  30.228  1.00  0.00     0.049 A 
ATOM     50  H   UNL A   1      39.758  31.008  32.045  1.00  0.00     0.167 HD
ATOM     51  C   UNL A   1      40.147  33.120  35.847  1.00  0.00     0.037 A 
ATOM     52  C   UNL A   1      40.397  29.041  30.166  1.00  0.00     0.037 A 
ATOM     53  C   UNL A   1      41.101  32.039  35.906  1.00  0.00     0.049 A 
ATOM     54  C   UNL A   1      41.328  28.830  31.326  1.00  0.00     0.074 A 
ATOM     55  C   UNL A   1      41.955  31.700  36.943  1.00  0.00     0.029 A 
ATOM     56  N   UNL A   1      41.343  31.134  34.882  1.00  0.00    -0.354 N 
ATOM     57  N   UNL A   1      41.393  29.481  32.463  1.00  0.00    -0.248 NA
ATOM     58  C   UNL A   1      42.307  27.742  31.201  1.00  0.00     0.031 C 
ATOM     59  C   UNL A   1      42.754  30.632  36.523  1.00  0.00     0.029 A 
ATOM     60  C   UNL A   1      42.353  30.257  35.251  1.00  0.00     0.049 A 
ATOM     61  H   UNL A   1      40.868  31.116  34.021  1.00  0.00     0.167 HD
ATOM     62  C   UNL A   1      42.398  28.868  33.198  1.00  0.00     0.074 A 
ATOM     63  C   UNL A   1      42.906  27.782  32.384  1.00  0.00     0.031 C 
ATOM     64  C   UNL A   1      42.855  29.178  34.436  1.00  0.00     0.037 A 
BRANCH  51  65
ATOM     65  C   UNL A   1      40.053  34.040  37.031  1.00  0.00     0.064 A 
ATOM     66  C   UNL A   1      40.802  35.224  37.100  1.00  0.00     0.173 A 
ATOM     67  C   UNL A   1      39.150  33.776  38.073  1.00  0.00     0.173 A 
ATOM     68  F   UNL A   1      41.683  35.523  36.133  1.00  0.00    -0.203 F 
ATOM     69  C   UNL A   1      40.665  36.100  38.174  1.00  0.00     0.198 A 
ATOM     70  C   UNL A   1      38.994  34.669  39.131  1.00  0.00     0.198 A 
ATOM     71  F   UNL A   1      38.402  32.663  38.056  1.00  0.00    -0.203 F 
ATOM     72  F   UNL A   1      41.418  37.208  38.234  1.00  0.00    -0.200 F 
ATOM     73  C   UNL A   1      39.754  35.827  39.183  1.00  0.00     0.200 A 
ATOM     74  F   UNL A   1      38.099  34.413  40.095  1.00  0.00    -0.200 F 
ATOM     75  F   UNL A   1      39.610  36.680  40.207  1.00  0.00    -0.200 F 
ENDBRANCH  51  65
BRANCH  52  76
ATOM     76  C   UNL A   1      40.430  28.156  28.975  1.00  0.00     0.064 A 
ATOM     77  C   UNL A   1      39.684  26.971  28.941  1.00  0.00     0.173 A 
ATOM     78  C   UNL A   1      41.164  28.501  27.830  1.00  0.00     0.173 A 
ATOM     79  F   UNL A   1      38.980  26.591  30.018  1.00  0.00    -0.203 F 
ATOM     80  C   UNL A   1      39.673  26.160  27.808  1.00  0.00     0.198 A 
ATOM     81  C   UNL A   1      41.128  27.704  26.688  1.00  0.00     0.198 A 
ATOM     82  F   UNL A   1      41.888  29.629  27.810  1.00  0.00    -0.203 F 
ATOM     83  F   UNL A   1      38.973  25.018  27.812  1.00  0.00    -0.200 F 
ATOM     84  C   UNL A   1      40.385  26.533  26.678  1.00  0.00     0.200 A 
ATOM     85  F   UNL A   1      41.802  28.079  25.592  1.00  0.00    -0.200 F 
ATOM     86  F   UNL A   1      40.357  25.765  25.582  1.00  0.00    -0.200 F 
ENDBRANCH  52  76
BRANCH  64  87
ATOM     87  C   UNL A   1      43.947  28.319  35.011  1.00  0.00     0.064 A 
ATOM     88  C   UNL A   1      43.666  27.142  35.720  1.00  0.00     0.173 A 
ATOM     89  C   UNL A   1      45.296  28.646  34.794  1.00  0.00     0.173 A 
ATOM     90  F   UNL A   1      42.395  26.790  35.967  1.00  0.00    -0.203 F 
ATOM     91  C   UNL A   1      44.692  26.337  36.209  1.00  0.00     0.198 A 
ATOM     92  C   UNL A   1      46.318  27.820  35.253  1.00  0.00     0.198 A 
ATOM     93  F   UNL A   1      45.622  29.756  34.117  1.00  0.00    -0.203 F 
ATOM     94  F   UNL A   1      44.399  25.240  36.922  1.00  0.00    -0.200 F 
ATOM     95  C   UNL A   1      46.016  26.670  35.966  1.00  0.00     0.200 A 
ATOM     96  F   UNL A   1      47.596  28.136  35.001  1.00  0.00    -0.200 F 
ATOM     97  F   UNL A   1      47.002  25.885  36.422  1.00  0.00    -0.200 F 
ENDBRANCH  64  87
ENDBRANCH  38  39
ENDBRANCH  31  33
ENDBRANCH  30  31
ENDBRANCH  29  30
ENDBRANCH  28  29
ENDBRANCH  27  28
ENDBRANCH   1  27
TORSDOF 18
ENDMDL
MODEL 3
REMARK VINA RESULT:     -11.3      5.326      9.487
REMARK SMILES CC[N@@H+](C)Cc1cc2c(cc1Cl)C=C(C(=O)OCCOCCOC(=O)c1ccc(-c3c4nc(c(-c5c(F)c(F)c(F)c(F)c5F)c5ccc([nH]5)c(-c5c(F)c(F)c(F)c(F)c5F)c5nc(c(-c6c(F)c(F)c(F)c(F)c6F)c6ccc3[nH]6)C=C5)C=C4)cc1)[C@@H](C(F)(F)F)O2
REMARK SMILES IDX 19 1 18 2 17 3 15 4 16 5 14 6 6 7 7 8 11 9 8 10 10 11 12 12
REMARK SMILES IDX 9 13 94 14 13 15 89 16 5 17 3 18 4 19 2 21 1 22 90 23 91 24
REMARK SMILES IDX 92 25 93 26 20 27 21 28 22 29 23 30 24 31 25 32 26 33 27 34
REMARK SMILES IDX 88 35 28 36 87 37 29 38 30 39 31 40 81 41 32 42 86 43 80 44
REMARK SMILES IDX 82 45 33 46 85 47 79 48 78 49 34 51 66 52 46 53 65 54 47 55
REMARK SMILES IDX 50 56 64 57 83 58 48 59 49 60 63 62 84 63 51 64 35 65 36 66
REMARK SMILES IDX 44 67 37 68 38 69 42 70 45 71 39 72 40 73 43 74 41 75 67 76
REMARK SMILES IDX 68 77 76 78 69 79 70 80 74 81 77 82 71 83 72 84 75 85 73 86
REMARK SMILES IDX 52 87 53 88 61 89 54 90 55 91 59 92 62 93 56 94 57 95 60 96
REMARK SMILES IDX 58 97
REMARK H PARENT 3 20 82 50 50 61
REMARK Flexibility Score: inf
ROOT
ATOM      1  C   UNL A   1      36.990  22.209  24.545  1.00  0.00     0.202 C 
ENDROOT
BRANCH   1   2
ATOM      2  C   UNL A   1      36.989  23.676  24.983  1.00  0.00     0.261 C 
BRANCH   2   3
ATOM      3  O   UNL A   1      36.176  23.885  26.144  1.00  0.00    -0.460 OA
BRANCH   3   4
ATOM      4  C   UNL A   1      34.862  23.607  25.963  1.00  0.00     0.338 C 
ATOM      5  O   UNL A   1      34.216  22.733  26.515  1.00  0.00    -0.246 OA
BRANCH   4   6
ATOM      6  C   UNL A   1      34.268  24.618  25.070  1.00  0.00     0.087 C 
ATOM      7  C   UNL A   1      31.659  28.505  23.264  1.00  0.00     0.029 A 
ATOM      8  C   UNL A   1      32.229  27.341  22.718  1.00  0.00     0.058 A 
ATOM      9  C   UNL A   1      31.979  28.807  24.603  1.00  0.00     0.050 A 
ATOM     10  C   UNL A   1      33.030  26.489  23.476  1.00  0.00     0.128 A 
ATOM     11  C   UNL A   1      32.795  27.958  25.363  1.00  0.00     0.033 A 
ATOM     12  Cl  UNL A   1      31.358  30.205  25.411  1.00  0.00    -0.084 Cl
ATOM     13  C   UNL A   1      33.287  26.776  24.811  1.00  0.00     0.019 A 
ATOM     14  O   UNL A   1      33.522  25.395  22.825  1.00  0.00    -0.475 OA
ATOM     15  C   UNL A   1      33.988  25.805  25.628  1.00  0.00     0.027 C 
ATOM     16  C   UNL A   1      34.012  24.287  23.625  1.00  0.00     0.316 C 
BRANCH   7  17
ATOM     17  C   UNL A   1      30.633  29.331  22.500  1.00  0.00     0.300 C 
BRANCH  17  18
ATOM     18  N   UNL A   1      29.226  29.332  22.931  1.00  0.00    -0.334 N 
ATOM     19  C   UNL A   1      28.647  28.013  23.131  1.00  0.00     0.333 C 
ATOM     20  H   UNL A   1      29.300  29.722  23.872  1.00  0.00     0.348 HD
BRANCH  18  21
ATOM     21  C   UNL A   1      28.344  30.289  22.271  1.00  0.00     0.258 C 
ATOM     22  C   UNL A   1      27.677  31.244  23.257  1.00  0.00     0.071 C 
ENDBRANCH  18  21
ENDBRANCH  17  18
ENDBRANCH   7  17
BRANCH  16  23
ATOM     23  C   UNL A   1      33.062  23.095  23.447  1.00  0.00     0.430 C 
ATOM     24  F   UNL A   1      32.509  23.091  22.209  1.00  0.00    -0.167 F 
ATOM     25  F   UNL A   1      33.708  21.914  23.585  1.00  0.00    -0.167 F 
ATOM     26  F   UNL A   1      32.050  23.113  24.344  1.00  0.00    -0.167 F 
ENDBRANCH  16  23
ENDBRANCH   4   6
ENDBRANCH   3   4
ENDBRANCH   2   3
ENDBRANCH   1   2
BRANCH   1  27
ATOM     27  O   UNL A   1      37.617  21.259  25.401  1.00  0.00    -0.374 OA
BRANCH  27  28
ATOM     28  C   UNL A   1      37.753  19.912  24.949  1.00  0.00     0.202 C 
BRANCH  28  29
ATOM     29  C   UNL A   1      38.995  19.117  25.375  1.00  0.00     0.261 C 
BRANCH  29  30
ATOM     30  O   UNL A   1      39.636  19.675  26.536  1.00  0.00    -0.460 OA
BRANCH  30  31
ATOM     31  C   UNL A   1      40.967  19.893  26.402  1.00  0.00     0.338 C 
ATOM     32  O   UNL A   1      41.797  19.152  25.898  1.00  0.00    -0.246 OA
BRANCH  31  33
ATOM     33  C   UNL A   1      41.265  21.287  26.773  1.00  0.00     0.060 A 
ATOM     34  C   UNL A   1      42.267  21.589  27.695  1.00  0.00     0.016 A 
ATOM     35  C   UNL A   1      40.546  22.309  26.138  1.00  0.00     0.016 A 
ATOM     36  C   UNL A   1      42.568  22.927  27.959  1.00  0.00     0.010 A 
ATOM     37  C   UNL A   1      40.844  23.643  26.407  1.00  0.00     0.010 A 
ATOM     38  C   UNL A   1      41.876  23.960  27.301  1.00  0.00    -0.014 A 
BRANCH  38  39
ATOM     39  C   UNL A   1      42.329  25.366  27.433  1.00  0.00     0.031 A 
ATOM     40  C   UNL A   1      41.509  26.392  28.152  1.00  0.00     0.074 A 
ATOM     41  C   UNL A   1      43.493  25.713  26.854  1.00  0.00     0.049 A 
ATOM     42  N   UNL A   1      41.791  27.650  28.389  1.00  0.00    -0.248 NA
ATOM     43  C   UNL A   1      40.203  25.958  28.666  1.00  0.00     0.031 C 
ATOM     44  C   UNL A   1      44.350  24.805  26.091  1.00  0.00     0.029 A 
ATOM     45  N   UNL A   1      44.157  26.912  26.817  1.00  0.00    -0.354 N 
ATOM     46  C   UNL A   1      40.710  28.153  29.097  1.00  0.00     0.074 A 
ATOM     47  C   UNL A   1      39.743  27.080  29.206  1.00  0.00     0.031 C 
ATOM     48  C   UNL A   1      45.443  25.470  25.690  1.00  0.00     0.029 A 
ATOM     49  C   UNL A   1      45.347  26.857  26.135  1.00  0.00     0.049 A 
ATOM     50  H   UNL A   1      43.814  27.733  27.238  1.00  0.00     0.167 HD
ATOM     51  C   UNL A   1      40.554  29.393  29.621  1.00  0.00     0.037 A 
ATOM     52  C   UNL A   1      46.263  27.815  25.895  1.00  0.00     0.037 A 
ATOM     53  C   UNL A   1      41.515  30.460  29.486  1.00  0.00     0.049 A 
ATOM     54  C   UNL A   1      46.042  29.194  26.449  1.00  0.00     0.074 A 
ATOM     55  C   UNL A   1      41.460  31.741  30.010  1.00  0.00     0.029 A 
ATOM     56  N   UNL A   1      42.697  30.380  28.762  1.00  0.00    -0.354 N 
ATOM     57  N   UNL A   1      45.051  29.642  27.181  1.00  0.00    -0.248 NA
ATOM     58  C   UNL A   1      47.071  30.200  26.151  1.00  0.00     0.031 C 
ATOM     59  C   UNL A   1      42.573  32.452  29.553  1.00  0.00     0.029 A 
ATOM     60  C   UNL A   1      43.363  31.597  28.801  1.00  0.00     0.049 A 
ATOM     61  H   UNL A   1      43.016  29.577  28.291  1.00  0.00     0.167 HD
ATOM     62  C   UNL A   1      45.348  30.970  27.454  1.00  0.00     0.074 A 
ATOM     63  C   UNL A   1      46.620  31.252  26.821  1.00  0.00     0.031 C 
ATOM     64  C   UNL A   1      44.629  31.872  28.168  1.00  0.00     0.037 A 
BRANCH  51  65
ATOM     65  C   UNL A   1      39.299  29.672  30.400  1.00  0.00     0.064 A 
ATOM     66  C   UNL A   1      39.250  29.509  31.792  1.00  0.00     0.173 A 
ATOM     67  C   UNL A   1      38.158  30.180  29.760  1.00  0.00     0.173 A 
ATOM     68  F   UNL A   1      40.311  29.023  32.453  1.00  0.00    -0.203 F 
ATOM     69  C   UNL A   1      38.100  29.825  32.513  1.00  0.00     0.198 A 
ATOM     70  C   UNL A   1      37.021  30.524  30.488  1.00  0.00     0.198 A 
ATOM     71  F   UNL A   1      38.151  30.364  28.432  1.00  0.00    -0.203 F 
ATOM     72  F   UNL A   1      38.066  29.627  33.838  1.00  0.00    -0.200 F 
ATOM     73  C   UNL A   1      36.991  30.343  31.862  1.00  0.00     0.200 A 
ATOM     74  F   UNL A   1      35.956  31.042  29.859  1.00  0.00    -0.200 F 
ATOM     75  F   UNL A   1      35.892  30.663  32.558  1.00  0.00    -0.200 F 
ENDBRANCH  51  65
BRANCH  52  76
ATOM     76  C   UNL A   1      47.489  27.473  25.131  1.00  0.00     0.064 A 
ATOM     77  C   UNL A   1      47.571  27.723  23.755  1.00  0.00     0.173 A 
ATOM     78  C   UNL A   1      48.620  26.941  25.768  1.00  0.00     0.173 A 
ATOM     79  F   UNL A   1      46.509  28.215  23.100  1.00  0.00    -0.203 F 
ATOM     80  C   UNL A   1      48.736  27.449  23.043  1.00  0.00     0.198 A 
ATOM     81  C   UNL A   1      49.795  26.696  25.060  1.00  0.00     0.198 A 
ATOM     82  F   UNL A   1      48.596  26.693  27.086  1.00  0.00    -0.203 F 
ATOM     83  F   UNL A   1      48.778  27.671  21.722  1.00  0.00    -0.200 F 
ATOM     84  C   UNL A   1      49.850  26.947  23.698  1.00  0.00     0.200 A 
ATOM     85  F   UNL A   1      50.875  26.230  25.701  1.00  0.00    -0.200 F 
ATOM     86  F   UNL A   1      50.978  26.705  23.016  1.00  0.00    -0.200 F 
ENDBRANCH  52  76
BRANCH  64  87
ATOM     87  C   UNL A   1      45.206  33.251  28.331  1.00  0.00     0.064 A 
ATOM     88  C   UNL A   1      46.108  33.557  29.361  1.00  0.00     0.173 A 
ATOM     89  C   UNL A   1      44.900  34.262  27.406  1.00  0.00     0.173 A 
ATOM     90  F   UNL A   1      46.424  32.632  30.279  1.00  0.00    -0.203 F 
ATOM     91  C   UNL A   1      46.665  34.829  29.470  1.00  0.00     0.198 A 
ATOM     92  C   UNL A   1      45.486  35.522  27.499  1.00  0.00     0.198 A 
ATOM     93  F   UNL A   1      44.048  34.022  26.398  1.00  0.00    -0.203 F 
ATOM     94  F   UNL A   1      47.490  35.111  30.488  1.00  0.00    -0.200 F 
ATOM     95  C   UNL A   1      46.363  35.806  28.534  1.00  0.00     0.200 A 
ATOM     96  F   UNL A   1      45.205  36.459  26.582  1.00  0.00    -0.200 F 
ATOM     97  F   UNL A   1      46.913  37.025  28.631  1.00  0.00    -0.200 F 
ENDBRANCH  64  87
ENDBRANCH  38  39
ENDBRANCH  31  33
ENDBRANCH  30  31
ENDBRANCH  29  30
ENDBRANCH  28  29
ENDBRANCH  27  28
ENDBRANCH   1  27
TORSDOF 18
ENDMDL
