MODEL 1
REMARK VINA RESULT:     -11.7      0.000      0.000
REMARK SMILES O=C(OCCOCCOC(=O)c1[nH]ncc1C[N@H+]1CCC[C@@H](C(=O)c2ccc(Oc3ccccc3)cc2)C1)c1ccc(-c2c3nc(c(-c4c(F)c(F)c(F)c(F)c4F)c4ccc([nH]4)c(-c4c(F)c(F)c(F)c(F)c4F)c4nc(c(-c5c(F)c(F)c(F)c(F)c5F)c5ccc2[nH]5)C=C4)C=C3)cc1
REMARK SMILES IDX 8 1 7 2 6 3 5 4 4 5 3 6 2 7 1 8 39 9 40 10 101 11 41 12
REMARK SMILES IDX 100 13 42 14 43 15 44 16 94 17 45 18 99 19 93 20 95 21 46 22
REMARK SMILES IDX 98 23 92 24 91 25 47 27 79 28 59 29 78 30 60 31 63 32 77 33
REMARK SMILES IDX 96 34 61 35 62 36 76 38 97 39 64 40 48 41 49 42 57 43 50 44
REMARK SMILES IDX 51 45 55 46 58 47 52 48 53 49 56 50 54 51 80 52 81 53 89 54
REMARK SMILES IDX 82 55 83 56 87 57 90 58 84 59 85 60 88 61 86 62 65 63 66 64
REMARK SMILES IDX 74 65 67 66 68 67 72 68 75 69 69 70 70 71 73 72 71 73 9 74
REMARK SMILES IDX 10 75 11 76 12 77 13 78 16 79 14 80 15 82 17 83 18 84 19 85
REMARK SMILES IDX 38 86 20 88 22 89 21 90 23 91 24 92 25 93 26 94 37 95 27 96
REMARK SMILES IDX 36 97 28 98 29 99 30 100 31 101 35 102 32 103 34 104 33 105
REMARK H PARENT 95 26 63 37 13 81 18 87
REMARK Flexibility Score: inf
ROOT
ATOM      1  C   UNL A   1      31.542  23.492  25.858  1.00  0.00     0.261 C 
ENDROOT
BRANCH   1   2
ATOM      2  C   UNL A   1      31.749  24.672  26.813  1.00  0.00     0.202 C 
BRANCH   2   3
ATOM      3  O   UNL A   1      32.313  25.759  26.071  1.00  0.00    -0.374 OA
BRANCH   3   4
ATOM      4  C   UNL A   1      32.110  27.069  26.601  1.00  0.00     0.202 C 
BRANCH   4   5
ATOM      5  C   UNL A   1      33.323  27.986  26.450  1.00  0.00     0.261 C 
BRANCH   5   6
ATOM      6  O   UNL A   1      33.181  29.132  27.303  1.00  0.00    -0.460 OA
BRANCH   6   7
ATOM      7  C   UNL A   1      34.091  30.086  27.594  1.00  0.00     0.338 C 
ATOM      8  O   UNL A   1      33.731  31.263  27.570  1.00  0.00    -0.246 OA
BRANCH   7   9
ATOM      9  C   UNL A   1      35.519  29.812  27.949  1.00  0.00     0.060 A 
ATOM     10  C   UNL A   1      36.615  30.007  27.108  1.00  0.00     0.016 A 
ATOM     11  C   UNL A   1      35.775  29.421  29.275  1.00  0.00     0.016 A 
ATOM     12  C   UNL A   1      37.914  29.811  27.544  1.00  0.00     0.010 A 
ATOM     13  C   UNL A   1      37.083  29.234  29.734  1.00  0.00     0.010 A 
ATOM     14  C   UNL A   1      38.154  29.426  28.857  1.00  0.00    -0.014 A 
BRANCH  14  15
ATOM     15  C   UNL A   1      39.545  29.118  29.216  1.00  0.00     0.031 A 
ATOM     16  C   UNL A   1      40.227  30.010  30.201  1.00  0.00     0.074 A 
ATOM     17  C   UNL A   1      40.086  27.958  28.805  1.00  0.00     0.049 A 
ATOM     18  N   UNL A   1      41.434  29.935  30.690  1.00  0.00    -0.248 NA
ATOM     19  C   UNL A   1      39.429  31.130  30.730  1.00  0.00     0.031 C 
ATOM     20  C   UNL A   1      39.412  26.968  27.962  1.00  0.00     0.029 A 
ATOM     21  N   UNL A   1      41.302  27.394  29.075  1.00  0.00    -0.354 N 
ATOM     22  C   UNL A   1      41.543  30.998  31.574  1.00  0.00     0.074 A 
ATOM     23  C   UNL A   1      40.288  31.714  31.549  1.00  0.00     0.031 C 
ATOM     24  C   UNL A   1      40.221  25.909  27.796  1.00  0.00     0.029 A 
ATOM     25  C   UNL A   1      41.488  26.177  28.467  1.00  0.00     0.049 A 
ATOM     26  H   UNL A   1      41.980  27.820  29.649  1.00  0.00     0.167 HD
ATOM     27  C   UNL A   1      42.608  31.337  32.335  1.00  0.00     0.037 A 
ATOM     28  C   UNL A   1      42.583  25.394  28.436  1.00  0.00     0.037 A 
ATOM     29  C   UNL A   1      43.847  30.610  32.316  1.00  0.00     0.049 A 
ATOM     30  C   UNL A   1      43.797  25.866  29.193  1.00  0.00     0.074 A 
ATOM     31  C   UNL A   1      45.039  30.905  32.948  1.00  0.00     0.029 A 
ATOM     32  N   UNL A   1      44.043  29.425  31.615  1.00  0.00    -0.354 N 
ATOM     33  N   UNL A   1      43.934  26.922  29.960  1.00  0.00    -0.248 NA
ATOM     34  C   UNL A   1      45.010  25.051  29.070  1.00  0.00     0.031 C 
ATOM     35  C   UNL A   1      45.969  29.919  32.597  1.00  0.00     0.029 A 
ATOM     36  C   UNL A   1      45.341  28.981  31.789  1.00  0.00     0.049 A 
ATOM     37  H   UNL A   1      43.358  28.970  31.074  1.00  0.00     0.167 HD
ATOM     38  C   UNL A   1      45.240  26.893  30.425  1.00  0.00     0.074 A 
ATOM     39  C   UNL A   1      45.845  25.696  29.873  1.00  0.00     0.031 C 
ATOM     40  C   UNL A   1      45.891  27.773  31.226  1.00  0.00     0.037 A 
BRANCH  27  41
ATOM     41  C   UNL A   1      42.480  32.574  33.172  1.00  0.00     0.064 A 
ATOM     42  C   UNL A   1      42.810  33.844  32.672  1.00  0.00     0.173 A 
ATOM     43  C   UNL A   1      42.067  32.483  34.509  1.00  0.00     0.173 A 
ATOM     44  F   UNL A   1      43.243  33.981  31.410  1.00  0.00    -0.203 F 
ATOM     45  C   UNL A   1      42.757  34.971  33.490  1.00  0.00     0.198 A 
ATOM     46  C   UNL A   1      41.991  33.615  35.316  1.00  0.00     0.198 A 
ATOM     47  F   UNL A   1      41.753  31.291  35.040  1.00  0.00    -0.203 F 
ATOM     48  F   UNL A   1      43.136  36.163  33.011  1.00  0.00    -0.200 F 
ATOM     49  C   UNL A   1      42.345  34.856  34.810  1.00  0.00     0.200 A 
ATOM     50  F   UNL A   1      41.593  33.501  36.590  1.00  0.00    -0.200 F 
ATOM     51  F   UNL A   1      42.306  35.939  35.598  1.00  0.00    -0.200 F 
ENDBRANCH  27  41
BRANCH  28  52
ATOM     52  C   UNL A   1      42.603  24.147  27.625  1.00  0.00     0.064 A 
ATOM     53  C   UNL A   1      42.299  22.898  28.187  1.00  0.00     0.173 A 
ATOM     54  C   UNL A   1      42.966  24.172  26.268  1.00  0.00     0.173 A 
ATOM     55  F   UNL A   1      41.966  22.811  29.483  1.00  0.00    -0.203 F 
ATOM     56  C   UNL A   1      42.385  21.727  27.434  1.00  0.00     0.198 A 
ATOM     57  C   UNL A   1      43.017  23.005  25.508  1.00  0.00     0.198 A 
ATOM     58  F   UNL A   1      43.270  25.336  25.674  1.00  0.00    -0.203 F 
ATOM     59  F   UNL A   1      42.148  20.543  28.014  1.00  0.00    -0.200 F 
ATOM     60  C   UNL A   1      42.739  21.782  26.095  1.00  0.00     0.200 A 
ATOM     61  F   UNL A   1      43.345  23.067  24.210  1.00  0.00    -0.200 F 
ATOM     62  F   UNL A   1      42.825  20.656  25.374  1.00  0.00    -0.200 F 
ENDBRANCH  28  52
BRANCH  40  63
ATOM     63  C   UNL A   1      47.311  27.444  31.572  1.00  0.00     0.064 A 
ATOM     64  C   UNL A   1      47.629  26.583  32.632  1.00  0.00     0.173 A 
ATOM     65  C   UNL A   1      48.362  27.965  30.803  1.00  0.00     0.173 A 
ATOM     66  F   UNL A   1      46.655  26.075  33.404  1.00  0.00    -0.203 F 
ATOM     67  C   UNL A   1      48.953  26.278  32.929  1.00  0.00     0.198 A 
ATOM     68  C   UNL A   1      49.683  27.633  31.083  1.00  0.00     0.198 A 
ATOM     69  F   UNL A   1      48.105  28.787  29.774  1.00  0.00    -0.203 F 
ATOM     70  F   UNL A   1      49.239  25.496  33.978  1.00  0.00    -0.200 F 
ATOM     71  C   UNL A   1      49.977  26.796  32.150  1.00  0.00     0.200 A 
ATOM     72  F   UNL A   1      50.670  28.120  30.321  1.00  0.00    -0.200 F 
ATOM     73  F   UNL A   1      51.251  26.494  32.432  1.00  0.00    -0.200 F 
ENDBRANCH  40  63
ENDBRANCH  14  15
ENDBRANCH   7   9
ENDBRANCH   6   7
ENDBRANCH   5   6
ENDBRANCH   4   5
ENDBRANCH   3   4
ENDBRANCH   2   3
ENDBRANCH   1   2
BRANCH   1  74
ATOM     74  O   UNL A   1      31.686  22.283  26.612  1.00  0.00    -0.459 OA
BRANCH  74  75
ATOM     75  C   UNL A   1      32.925  21.725  26.592  1.00  0.00     0.356 C 
ATOM     76  O   UNL A   1      33.909  22.136  27.191  1.00  0.00    -0.244 OA
BRANCH  75  77
ATOM     77  C   UNL A   1      32.853  20.480  25.882  1.00  0.00     0.152 A 
ATOM     78  N   UNL A   1      32.928  19.273  26.516  1.00  0.00    -0.271 N 
ATOM     79  C   UNL A   1      32.690  20.187  24.535  1.00  0.00     0.059 A 
ATOM     80  N   UNL A   1      32.649  18.228  25.720  1.00  0.00    -0.183 NA
ATOM     81  H   UNL A   1      33.162  19.178  27.467  1.00  0.00     0.190 HD
ATOM     82  C   UNL A   1      32.524  18.782  24.511  1.00  0.00     0.145 A 
BRANCH  79  83
ATOM     83  C   UNL A   1      32.711  21.125  23.367  1.00  0.00     0.303 C 
BRANCH  83  84
ATOM     84  N   UNL A   1      33.418  22.385  23.675  1.00  0.00    -0.330 N 
ATOM     85  C   UNL A   1      34.872  22.247  23.808  1.00  0.00     0.262 C 
ATOM     86  C   UNL A   1      33.027  23.452  22.748  1.00  0.00     0.274 C 
ATOM     87  H   UNL A   1      33.110  22.657  24.609  1.00  0.00     0.348 HD
ATOM     88  C   UNL A   1      35.559  23.559  24.179  1.00  0.00     0.062 C 
ATOM     89  C   UNL A   1      33.675  24.795  23.092  1.00  0.00     0.116 C 
ATOM     90  C   UNL A   1      35.197  24.647  23.176  1.00  0.00     0.023 C 
BRANCH  89  91
ATOM     91  C   UNL A   1      33.104  25.822  22.118  1.00  0.00     0.171 C 
ATOM     92  O   UNL A   1      33.378  25.794  20.918  1.00  0.00    -0.294 OA
BRANCH  91  93
ATOM     93  C   UNL A   1      32.143  26.845  22.565  1.00  0.00     0.018 A 
ATOM     94  C   UNL A   1      30.826  26.444  22.790  1.00  0.00     0.015 A 
ATOM     95  C   UNL A   1      32.511  28.183  22.708  1.00  0.00     0.015 A 
ATOM     96  C   UNL A   1      29.884  27.382  23.208  1.00  0.00     0.048 A 
ATOM     97  C   UNL A   1      31.573  29.111  23.167  1.00  0.00     0.048 A 
ATOM     98  C   UNL A   1      30.253  28.718  23.407  1.00  0.00     0.127 A 
BRANCH  98  99
ATOM     99  O   UNL A   1      29.228  29.533  23.835  1.00  0.00    -0.457 OA
BRANCH  99 100
ATOM    100  C   UNL A   1      28.844  30.590  23.051  1.00  0.00     0.127 A 
ATOM    101  C   UNL A   1      28.473  30.319  21.735  1.00  0.00     0.047 A 
ATOM    102  C   UNL A   1      28.912  31.906  23.513  1.00  0.00     0.047 A 
ATOM    103  C   UNL A   1      28.114  31.367  20.889  1.00  0.00     0.004 A 
ATOM    104  C   UNL A   1      28.533  32.951  22.672  1.00  0.00     0.004 A 
ATOM    105  C   UNL A   1      28.132  32.681  21.362  1.00  0.00     0.000 A 
ENDBRANCH  99 100
ENDBRANCH  98  99
ENDBRANCH  91  93
ENDBRANCH  89  91
ENDBRANCH  83  84
ENDBRANCH  79  83
ENDBRANCH  75  77
ENDBRANCH  74  75
ENDBRANCH   1  74
TORSDOF 20
ENDMDL
MODEL 2
REMARK VINA RESULT:     -11.2      6.392     10.584
REMARK SMILES O=C(OCCOCCOC(=O)c1[nH]ncc1C[N@H+]1CCC[C@@H](C(=O)c2ccc(Oc3ccccc3)cc2)C1)c1ccc(-c2c3nc(c(-c4c(F)c(F)c(F)c(F)c4F)c4ccc([nH]4)c(-c4c(F)c(F)c(F)c(F)c4F)c4nc(c(-c5c(F)c(F)c(F)c(F)c5F)c5ccc2[nH]5)C=C4)C=C3)cc1
REMARK SMILES IDX 8 1 7 2 6 3 5 4 4 5 3 6 2 7 1 8 39 9 40 10 101 11 41 12
REMARK SMILES IDX 100 13 42 14 43 15 44 16 94 17 45 18 99 19 93 20 95 21 46 22
REMARK SMILES IDX 98 23 92 24 91 25 47 27 79 28 59 29 78 30 60 31 63 32 77 33
REMARK SMILES IDX 96 34 61 35 62 36 76 38 97 39 64 40 48 41 49 42 57 43 50 44
REMARK SMILES IDX 51 45 55 46 58 47 52 48 53 49 56 50 54 51 80 52 81 53 89 54
REMARK SMILES IDX 82 55 83 56 87 57 90 58 84 59 85 60 88 61 86 62 65 63 66 64
REMARK SMILES IDX 74 65 67 66 68 67 72 68 75 69 69 70 70 71 73 72 71 73 9 74
REMARK SMILES IDX 10 75 11 76 12 77 13 78 16 79 14 80 15 82 17 83 18 84 19 85
REMARK SMILES IDX 38 86 20 88 22 89 21 90 23 91 24 92 25 93 26 94 37 95 27 96
REMARK SMILES IDX 36 97 28 98 29 99 30 100 31 101 35 102 32 103 34 104 33 105
REMARK H PARENT 95 26 63 37 13 81 18 87
REMARK Flexibility Score: inf
ROOT
ATOM      1  C   UNL A   1      37.324  33.441  37.187  1.00  0.00     0.261 C 
ENDROOT
BRANCH   1   2
ATOM      2  C   UNL A   1      37.776  32.134  37.845  1.00  0.00     0.202 C 
BRANCH   2   3
ATOM      3  O   UNL A   1      38.865  32.426  38.727  1.00  0.00    -0.374 OA
BRANCH   3   4
ATOM      4  C   UNL A   1      38.706  33.551  39.592  1.00  0.00     0.202 C 
BRANCH   4   5
ATOM      5  C   UNL A   1      40.025  34.106  40.125  1.00  0.00     0.261 C 
BRANCH   5   6
ATOM      6  O   UNL A   1      40.208  35.456  39.674  1.00  0.00    -0.460 OA
BRANCH   6   7
ATOM      7  C   UNL A   1      40.950  35.908  38.640  1.00  0.00     0.338 C 
ATOM      8  O   UNL A   1      41.350  37.072  38.673  1.00  0.00    -0.246 OA
BRANCH   7   9
ATOM      9  C   UNL A   1      41.326  35.086  37.448  1.00  0.00     0.060 A 
ATOM     10  C   UNL A   1      40.443  34.624  36.471  1.00  0.00     0.016 A 
ATOM     11  C   UNL A   1      42.698  34.850  37.252  1.00  0.00     0.016 A 
ATOM     12  C   UNL A   1      40.885  33.941  35.350  1.00  0.00     0.010 A 
ATOM     13  C   UNL A   1      43.161  34.175  36.117  1.00  0.00     0.010 A 
ATOM     14  C   UNL A   1      42.244  33.716  35.168  1.00  0.00    -0.014 A 
BRANCH  14  15
ATOM     15  C   UNL A   1      42.631  32.880  34.023  1.00  0.00     0.031 A 
ATOM     16  C   UNL A   1      42.903  33.561  32.721  1.00  0.00     0.074 A 
ATOM     17  C   UNL A   1      42.911  31.581  34.225  1.00  0.00     0.049 A 
ATOM     18  N   UNL A   1      43.277  33.049  31.581  1.00  0.00    -0.248 NA
ATOM     19  C   UNL A   1      42.758  35.027  32.708  1.00  0.00     0.031 C 
ATOM     20  C   UNL A   1      42.810  30.889  35.512  1.00  0.00     0.029 A 
ATOM     21  N   UNL A   1      43.378  30.624  33.367  1.00  0.00    -0.354 N 
ATOM     22  C   UNL A   1      43.404  34.126  30.715  1.00  0.00     0.074 A 
ATOM     23  C   UNL A   1      43.056  35.319  31.452  1.00  0.00     0.031 C 
ATOM     24  C   UNL A   1      43.220  29.619  35.361  1.00  0.00     0.029 A 
ATOM     25  C   UNL A   1      43.548  29.396  33.957  1.00  0.00     0.049 A 
ATOM     26  H   UNL A   1      43.573  30.798  32.417  1.00  0.00     0.167 HD
ATOM     27  C   UNL A   1      43.779  34.105  29.416  1.00  0.00     0.037 A 
ATOM     28  C   UNL A   1      43.897  28.220  33.402  1.00  0.00     0.037 A 
ATOM     29  C   UNL A   1      44.098  32.893  28.713  1.00  0.00     0.049 A 
ATOM     30  C   UNL A   1      44.185  28.208  31.923  1.00  0.00     0.074 A 
ATOM     31  C   UNL A   1      44.383  32.713  27.374  1.00  0.00     0.029 A 
ATOM     32  N   UNL A   1      44.172  31.642  29.314  1.00  0.00    -0.354 N 
ATOM     33  N   UNL A   1      44.217  29.212  31.078  1.00  0.00    -0.248 NA
ATOM     34  C   UNL A   1      44.469  26.903  31.316  1.00  0.00     0.031 C 
ATOM     35  C   UNL A   1      44.591  31.347  27.157  1.00  0.00     0.029 A 
ATOM     36  C   UNL A   1      44.489  30.681  28.371  1.00  0.00     0.049 A 
ATOM     37  H   UNL A   1      44.022  31.465  30.271  1.00  0.00     0.167 HD
ATOM     38  C   UNL A   1      44.541  28.667  29.845  1.00  0.00     0.074 A 
ATOM     39  C   UNL A   1      44.720  27.244  30.060  1.00  0.00     0.031 C 
ATOM     40  C   UNL A   1      44.669  29.276  28.640  1.00  0.00     0.037 A 
BRANCH  27  41
ATOM     41  C   UNL A   1      43.782  35.415  28.688  1.00  0.00     0.064 A 
ATOM     42  C   UNL A   1      42.611  35.964  28.146  1.00  0.00     0.173 A 
ATOM     43  C   UNL A   1      44.985  36.108  28.488  1.00  0.00     0.173 A 
ATOM     44  F   UNL A   1      41.440  35.324  28.279  1.00  0.00    -0.203 F 
ATOM     45  C   UNL A   1      42.649  37.145  27.406  1.00  0.00     0.198 A 
ATOM     46  C   UNL A   1      45.016  37.301  27.770  1.00  0.00     0.198 A 
ATOM     47  F   UNL A   1      46.136  35.619  28.974  1.00  0.00    -0.203 F 
ATOM     48  F   UNL A   1      41.528  37.619  26.844  1.00  0.00    -0.200 F 
ATOM     49  C   UNL A   1      43.850  37.813  27.222  1.00  0.00     0.200 A 
ATOM     50  F   UNL A   1      46.177  37.945  27.594  1.00  0.00    -0.200 F 
ATOM     51  F   UNL A   1      43.887  38.942  26.500  1.00  0.00    -0.200 F 
ENDBRANCH  27  41
BRANCH  28  52
ATOM     52  C   UNL A   1      43.927  26.974  34.214  1.00  0.00     0.064 A 
ATOM     53  C   UNL A   1      45.129  26.439  34.698  1.00  0.00     0.173 A 
ATOM     54  C   UNL A   1      42.746  26.266  34.496  1.00  0.00     0.173 A 
ATOM     55  F   UNL A   1      46.289  27.062  34.443  1.00  0.00    -0.203 F 
ATOM     56  C   UNL A   1      45.153  25.236  35.403  1.00  0.00     0.198 A 
ATOM     57  C   UNL A   1      42.767  25.082  35.230  1.00  0.00     0.198 A 
ATOM     58  F   UNL A   1      41.564  26.725  34.057  1.00  0.00    -0.203 F 
ATOM     59  F   UNL A   1      46.323  24.718  35.800  1.00  0.00    -0.200 F 
ATOM     60  C   UNL A   1      43.972  24.561  35.673  1.00  0.00     0.200 A 
ATOM     61  F   UNL A   1      41.620  24.443  35.500  1.00  0.00    -0.200 F 
ATOM     62  F   UNL A   1      43.996  23.403  36.346  1.00  0.00    -0.200 F 
ENDBRANCH  28  52
BRANCH  40  63
ATOM     63  C   UNL A   1      45.055  28.404  27.484  1.00  0.00     0.064 A 
ATOM     64  C   UNL A   1      44.101  27.919  26.579  1.00  0.00     0.173 A 
ATOM     65  C   UNL A   1      46.403  28.089  27.260  1.00  0.00     0.173 A 
ATOM     66  F   UNL A   1      42.798  28.184  26.765  1.00  0.00    -0.203 F 
ATOM     67  C   UNL A   1      44.481  27.123  25.504  1.00  0.00     0.198 A 
ATOM     68  C   UNL A   1      46.782  27.319  26.165  1.00  0.00     0.198 A 
ATOM     69  F   UNL A   1      47.352  28.537  28.096  1.00  0.00    -0.203 F 
ATOM     70  F   UNL A   1      43.549  26.626  24.679  1.00  0.00    -0.200 F 
ATOM     71  C   UNL A   1      45.821  26.831  25.293  1.00  0.00     0.200 A 
ATOM     72  F   UNL A   1      48.077  27.050  25.954  1.00  0.00    -0.200 F 
ATOM     73  F   UNL A   1      46.185  26.071  24.252  1.00  0.00    -0.200 F 
ENDBRANCH  40  63
ENDBRANCH  14  15
ENDBRANCH   7   9
ENDBRANCH   6   7
ENDBRANCH   5   6
ENDBRANCH   4   5
ENDBRANCH   3   4
ENDBRANCH   2   3
ENDBRANCH   1   2
BRANCH   1  74
ATOM     74  O   UNL A   1      36.457  33.109  36.096  1.00  0.00    -0.459 OA
BRANCH  74  75
ATOM     75  C   UNL A   1      36.599  33.876  34.983  1.00  0.00     0.356 C 
ATOM     76  O   UNL A   1      37.502  34.674  34.769  1.00  0.00    -0.244 OA
BRANCH  75  77
ATOM     77  C   UNL A   1      35.606  33.480  34.026  1.00  0.00     0.152 A 
ATOM     78  N   UNL A   1      34.362  34.041  33.991  1.00  0.00    -0.271 N 
ATOM     79  C   UNL A   1      35.630  32.554  32.992  1.00  0.00     0.059 A 
ATOM     80  N   UNL A   1      33.641  33.686  32.914  1.00  0.00    -0.183 NA
ATOM     81  H   UNL A   1      34.025  34.649  34.687  1.00  0.00     0.190 HD
ATOM     82  C   UNL A   1      34.404  32.767  32.318  1.00  0.00     0.145 A 
BRANCH  79  83
ATOM     83  C   UNL A   1      36.686  31.542  32.670  1.00  0.00     0.303 C 
BRANCH  83  84
ATOM     84  N   UNL A   1      37.540  31.965  31.542  1.00  0.00    -0.330 N 
ATOM     85  C   UNL A   1      37.908  33.384  31.558  1.00  0.00     0.262 C 
ATOM     86  C   UNL A   1      38.697  31.076  31.391  1.00  0.00     0.274 C 
ATOM     87  H   UNL A   1      36.965  31.869  30.705  1.00  0.00     0.348 HD
ATOM     88  C   UNL A   1      38.744  33.793  30.348  1.00  0.00     0.062 C 
ATOM     89  C   UNL A   1      39.557  31.433  30.177  1.00  0.00     0.116 C 
ATOM     90  C   UNL A   1      39.977  32.905  30.235  1.00  0.00     0.023 C 
BRANCH  89  91
ATOM     91  C   UNL A   1      40.654  30.375  30.087  1.00  0.00     0.171 C 
ATOM     92  O   UNL A   1      41.727  30.506  30.675  1.00  0.00    -0.294 OA
BRANCH  91  93
ATOM     93  C   UNL A   1      40.441  29.117  29.350  1.00  0.00     0.018 A 
ATOM     94  C   UNL A   1      39.677  29.168  28.184  1.00  0.00     0.015 A 
ATOM     95  C   UNL A   1      40.933  27.899  29.822  1.00  0.00     0.015 A 
ATOM     96  C   UNL A   1      39.447  28.000  27.461  1.00  0.00     0.048 A 
ATOM     97  C   UNL A   1      40.734  26.738  29.073  1.00  0.00     0.048 A 
ATOM     98  C   UNL A   1      39.981  26.780  27.895  1.00  0.00     0.127 A 
BRANCH  98  99
ATOM     99  O   UNL A   1      39.689  25.709  27.079  1.00  0.00    -0.457 OA
BRANCH  99 100
ATOM    100  C   UNL A   1      40.540  24.635  27.057  1.00  0.00     0.127 A 
ATOM    101  C   UNL A   1      41.740  24.773  26.360  1.00  0.00     0.047 A 
ATOM    102  C   UNL A   1      40.187  23.410  27.626  1.00  0.00     0.047 A 
ATOM    103  C   UNL A   1      42.618  23.694  26.277  1.00  0.00     0.004 A 
ATOM    104  C   UNL A   1      41.076  22.338  27.560  1.00  0.00     0.004 A 
ATOM    105  C   UNL A   1      42.292  22.482  26.887  1.00  0.00     0.000 A 
ENDBRANCH  99 100
ENDBRANCH  98  99
ENDBRANCH  91  93
ENDBRANCH  89  91
ENDBRANCH  83  84
ENDBRANCH  79  83
ENDBRANCH  75  77
ENDBRANCH  74  75
ENDBRANCH   1  74
TORSDOF 20
ENDMDL
MODEL 3
REMARK VINA RESULT:     -11.2      6.768     10.466
REMARK SMILES O=C(OCCOCCOC(=O)c1[nH]ncc1C[N@H+]1CCC[C@@H](C(=O)c2ccc(Oc3ccccc3)cc2)C1)c1ccc(-c2c3nc(c(-c4c(F)c(F)c(F)c(F)c4F)c4ccc([nH]4)c(-c4c(F)c(F)c(F)c(F)c4F)c4nc(c(-c5c(F)c(F)c(F)c(F)c5F)c5ccc2[nH]5)C=C4)C=C3)cc1
REMARK SMILES IDX 8 1 7 2 6 3 5 4 4 5 3 6 2 7 1 8 39 9 40 10 101 11 41 12
REMARK SMILES IDX 100 13 42 14 43 15 44 16 94 17 45 18 99 19 93 20 95 21 46 22
REMARK SMILES IDX 98 23 92 24 91 25 47 27 79 28 59 29 78 30 60 31 63 32 77 33
REMARK SMILES IDX 96 34 61 35 62 36 76 38 97 39 64 40 48 41 49 42 57 43 50 44
REMARK SMILES IDX 51 45 55 46 58 47 52 48 53 49 56 50 54 51 80 52 81 53 89 54
REMARK SMILES IDX 82 55 83 56 87 57 90 58 84 59 85 60 88 61 86 62 65 63 66 64
REMARK SMILES IDX 74 65 67 66 68 67 72 68 75 69 69 70 70 71 73 72 71 73 9 74
REMARK SMILES IDX 10 75 11 76 12 77 13 78 16 79 14 80 15 82 17 83 18 84 19 85
REMARK SMILES IDX 38 86 20 88 22 89 21 90 23 91 24 92 25 93 26 94 37 95 27 96
REMARK SMILES IDX 36 97 28 98 29 99 30 100 31 101 35 102 32 103 34 104 33 105
REMARK H PARENT 95 26 63 37 13 81 18 87
REMARK Flexibility Score: inf
ROOT
ATOM      1  C   UNL A   1      44.503  21.088  24.670  1.00  0.00     0.261 C 
ENDROOT
BRANCH   1   2
ATOM      2  C   UNL A   1      46.005  21.195  24.950  1.00  0.00     0.202 C 
BRANCH   2   3
ATOM      3  O   UNL A   1      46.242  22.401  25.685  1.00  0.00    -0.374 OA
BRANCH   3   4
ATOM      4  C   UNL A   1      46.579  23.560  24.923  1.00  0.00     0.202 C 
BRANCH   4   5
ATOM      5  C   UNL A   1      46.009  24.857  25.494  1.00  0.00     0.261 C 
BRANCH   5   6
ATOM      6  O   UNL A   1      46.014  25.881  24.488  1.00  0.00    -0.460 OA
BRANCH   6   7
ATOM      7  C   UNL A   1      46.196  27.211  24.637  1.00  0.00     0.338 C 
ATOM      8  O   UNL A   1      46.732  27.833  23.720  1.00  0.00    -0.246 OA
BRANCH   7   9
ATOM      9  C   UNL A   1      45.784  27.989  25.848  1.00  0.00     0.060 A 
ATOM     10  C   UNL A   1      44.472  28.167  26.288  1.00  0.00     0.016 A 
ATOM     11  C   UNL A   1      46.818  28.493  26.656  1.00  0.00     0.016 A 
ATOM     12  C   UNL A   1      44.181  28.829  27.468  1.00  0.00     0.010 A 
ATOM     13  C   UNL A   1      46.540  29.150  27.859  1.00  0.00     0.010 A 
ATOM     14  C   UNL A   1      45.212  29.321  28.259  1.00  0.00    -0.014 A 
BRANCH  14  15
ATOM     15  C   UNL A   1      44.828  30.118  29.432  1.00  0.00     0.031 A 
ATOM     16  C   UNL A   1      44.677  31.594  29.255  1.00  0.00     0.074 A 
ATOM     17  C   UNL A   1      44.444  29.488  30.555  1.00  0.00     0.049 A 
ATOM     18  N   UNL A   1      44.329  32.501  30.125  1.00  0.00    -0.248 NA
ATOM     19  C   UNL A   1      44.929  32.119  27.901  1.00  0.00     0.031 C 
ATOM     20  C   UNL A   1      44.424  28.035  30.739  1.00  0.00     0.029 A 
ATOM     21  N   UNL A   1      43.955  29.981  31.734  1.00  0.00    -0.354 N 
ATOM     22  C   UNL A   1      44.328  33.702  29.429  1.00  0.00     0.074 A 
ATOM     23  C   UNL A   1      44.721  33.415  28.069  1.00  0.00     0.031 C 
ATOM     24  C   UNL A   1      43.931  27.754  31.957  1.00  0.00     0.029 A 
ATOM     25  C   UNL A   1      43.664  29.006  32.656  1.00  0.00     0.049 A 
ATOM     26  H   UNL A   1      43.825  30.942  31.905  1.00  0.00     0.167 HD
ATOM     27  C   UNL A   1      44.023  34.932  29.900  1.00  0.00     0.037 A 
ATOM     28  C   UNL A   1      43.262  29.130  33.934  1.00  0.00     0.037 A 
ATOM     29  C   UNL A   1      43.655  35.179  31.267  1.00  0.00     0.049 A 
ATOM     30  C   UNL A   1      43.054  30.524  34.466  1.00  0.00     0.074 A 
ATOM     31  C   UNL A   1      43.430  36.383  31.904  1.00  0.00     0.029 A 
ATOM     32  N   UNL A   1      43.458  34.178  32.211  1.00  0.00    -0.354 N 
ATOM     33  N   UNL A   1      43.141  31.672  33.834  1.00  0.00    -0.248 NA
ATOM     34  C   UNL A   1      42.708  30.645  35.886  1.00  0.00     0.031 C 
ATOM     35  C   UNL A   1      43.135  36.113  33.245  1.00  0.00     0.029 A 
ATOM     36  C   UNL A   1      43.123  34.737  33.431  1.00  0.00     0.049 A 
ATOM     37  H   UNL A   1      43.543  33.212  32.037  1.00  0.00     0.167 HD
ATOM     38  C   UNL A   1      42.845  32.650  34.771  1.00  0.00     0.074 A 
ATOM     39  C   UNL A   1      42.551  31.955  36.010  1.00  0.00     0.031 C 
ATOM     40  C   UNL A   1      42.827  33.999  34.633  1.00  0.00     0.037 A 
BRANCH  27  41
ATOM     41  C   UNL A   1      44.155  36.078  28.942  1.00  0.00     0.064 A 
ATOM     42  C   UNL A   1      43.076  36.518  28.161  1.00  0.00     0.173 A 
ATOM     43  C   UNL A   1      45.392  36.715  28.769  1.00  0.00     0.173 A 
ATOM     44  F   UNL A   1      41.879  35.920  28.263  1.00  0.00    -0.203 F 
ATOM     45  C   UNL A   1      43.239  37.535  27.221  1.00  0.00     0.198 A 
ATOM     46  C   UNL A   1      45.546  37.747  27.847  1.00  0.00     0.198 A 
ATOM     47  F   UNL A   1      46.460  36.324  29.482  1.00  0.00    -0.203 F 
ATOM     48  F   UNL A   1      42.211  37.896  26.442  1.00  0.00    -0.200 F 
ATOM     49  C   UNL A   1      44.473  38.150  27.068  1.00  0.00     0.200 A 
ATOM     50  F   UNL A   1      46.739  38.340  27.701  1.00  0.00    -0.200 F 
ATOM     51  F   UNL A   1      44.631  39.119  26.155  1.00  0.00    -0.200 F 
ENDBRANCH  27  41
BRANCH  28  52
ATOM     52  C   UNL A   1      43.097  27.931  34.800  1.00  0.00     0.064 A 
ATOM     53  C   UNL A   1      41.931  27.154  34.767  1.00  0.00     0.173 A 
ATOM     54  C   UNL A   1      44.098  27.555  35.712  1.00  0.00     0.173 A 
ATOM     55  F   UNL A   1      40.933  27.477  33.931  1.00  0.00    -0.203 F 
ATOM     56  C   UNL A   1      41.760  26.070  35.629  1.00  0.00     0.198 A 
ATOM     57  C   UNL A   1      43.940  26.451  36.548  1.00  0.00     0.198 A 
ATOM     58  F   UNL A   1      45.236  28.260  35.791  1.00  0.00    -0.203 F 
ATOM     59  F   UNL A   1      40.609  25.384  35.618  1.00  0.00    -0.200 F 
ATOM     60  C   UNL A   1      42.766  25.717  36.515  1.00  0.00     0.200 A 
ATOM     61  F   UNL A   1      44.924  26.106  37.390  1.00  0.00    -0.200 F 
ATOM     62  F   UNL A   1      42.600  24.679  37.345  1.00  0.00    -0.200 F 
ENDBRANCH  28  52
BRANCH  40  63
ATOM     63  C   UNL A   1      42.441  34.794  35.844  1.00  0.00     0.064 A 
ATOM     64  C   UNL A   1      43.384  35.157  36.815  1.00  0.00     0.173 A 
ATOM     65  C   UNL A   1      41.119  35.230  36.008  1.00  0.00     0.173 A 
ATOM     66  F   UNL A   1      44.658  34.747  36.706  1.00  0.00    -0.203 F 
ATOM     67  C   UNL A   1      43.010  35.907  37.925  1.00  0.00     0.198 A 
ATOM     68  C   UNL A   1      40.755  36.007  37.102  1.00  0.00     0.198 A 
ATOM     69  F   UNL A   1      40.183  34.913  35.099  1.00  0.00    -0.203 F 
ATOM     70  F   UNL A   1      43.915  36.200  38.869  1.00  0.00    -0.200 F 
ATOM     71  C   UNL A   1      41.698  36.338  38.063  1.00  0.00     0.200 A 
ATOM     72  F   UNL A   1      39.492  36.436  37.227  1.00  0.00    -0.200 F 
ATOM     73  F   UNL A   1      41.342  37.068  39.128  1.00  0.00    -0.200 F 
ENDBRANCH  40  63
ENDBRANCH  14  15
ENDBRANCH   7   9
ENDBRANCH   6   7
ENDBRANCH   5   6
ENDBRANCH   4   5
ENDBRANCH   3   4
ENDBRANCH   2   3
ENDBRANCH   1   2
BRANCH   1  74
ATOM     74  O   UNL A   1      43.826  20.983  25.928  1.00  0.00    -0.459 OA
BRANCH  74  75
ATOM     75  C   UNL A   1      42.784  21.837  26.104  1.00  0.00     0.356 C 
ATOM     76  O   UNL A   1      41.671  21.727  25.608  1.00  0.00    -0.244 OA
BRANCH  75  77
ATOM     77  C   UNL A   1      43.150  22.805  27.098  1.00  0.00     0.152 A 
ATOM     78  N   UNL A   1      44.253  22.657  27.889  1.00  0.00    -0.271 N 
ATOM     79  C   UNL A   1      42.578  24.013  27.474  1.00  0.00     0.059 A 
ATOM     80  N   UNL A   1      44.544  23.746  28.619  1.00  0.00    -0.183 NA
ATOM     81  H   UNL A   1      44.787  21.830  27.921  1.00  0.00     0.190 HD
ATOM     82  C   UNL A   1      43.515  24.563  28.382  1.00  0.00     0.145 A 
BRANCH  79  83
ATOM     83  C   UNL A   1      41.266  24.596  27.047  1.00  0.00     0.303 C 
BRANCH  83  84
ATOM     84  N   UNL A   1      41.174  26.040  27.346  1.00  0.00    -0.330 N 
ATOM     85  C   UNL A   1      40.880  26.882  26.182  1.00  0.00     0.262 C 
ATOM     86  C   UNL A   1      40.272  26.290  28.475  1.00  0.00     0.274 C 
ATOM     87  H   UNL A   1      42.111  26.328  27.628  1.00  0.00     0.348 HD
ATOM     88  C   UNL A   1      40.846  28.370  26.521  1.00  0.00     0.062 C 
ATOM     89  C   UNL A   1      40.220  27.768  28.868  1.00  0.00     0.116 C 
ATOM     90  C   UNL A   1      39.860  28.630  27.654  1.00  0.00     0.023 C 
BRANCH  89  91
ATOM     91  C   UNL A   1      39.333  27.865  30.107  1.00  0.00     0.171 C 
ATOM     92  O   UNL A   1      38.757  26.878  30.566  1.00  0.00    -0.294 OA
BRANCH  91  93
ATOM     93  C   UNL A   1      39.192  29.131  30.847  1.00  0.00     0.018 A 
ATOM     94  C   UNL A   1      37.901  29.611  31.072  1.00  0.00     0.015 A 
ATOM     95  C   UNL A   1      40.303  29.863  31.265  1.00  0.00     0.015 A 
ATOM     96  C   UNL A   1      37.725  30.808  31.762  1.00  0.00     0.048 A 
ATOM     97  C   UNL A   1      40.120  31.040  31.993  1.00  0.00     0.048 A 
ATOM     98  C   UNL A   1      38.830  31.525  32.234  1.00  0.00     0.127 A 
BRANCH  98  99
ATOM     99  O   UNL A   1      38.512  32.681  32.913  1.00  0.00    -0.457 OA
BRANCH  99 100
ATOM    100  C   UNL A   1      38.283  32.622  34.262  1.00  0.00     0.127 A 
ATOM    101  C   UNL A   1      37.325  33.484  34.795  1.00  0.00     0.047 A 
ATOM    102  C   UNL A   1      39.044  31.802  35.098  1.00  0.00     0.047 A 
ATOM    103  C   UNL A   1      37.088  33.487  36.168  1.00  0.00     0.004 A 
ATOM    104  C   UNL A   1      38.790  31.792  36.469  1.00  0.00     0.004 A 
ATOM    105  C   UNL A   1      37.811  32.632  37.003  1.00  0.00     0.000 A 
ENDBRANCH  99 100
ENDBRANCH  98  99
ENDBRANCH  91  93
ENDBRANCH  89  91
ENDBRANCH  83  84
ENDBRANCH  79  83
ENDBRANCH  75  77
ENDBRANCH  74  75
ENDBRANCH   1  74
TORSDOF 20
ENDMDL
