MODEL 1
REMARK VINA RESULT:     -10.8      0.000      0.000
REMARK SMILES CCCC[C@@H](C(=O)OCCOCCOC(=O)c1ccc(-c2c3nc(c(-c4c(F)c(F)c(F)c(F)c4F)c4ccc([nH]4)c(-c4c(F)c(F)c(F)c(F)c4F)c4nc(c(-c5c(F)c(F)c(F)c(F)c5F)c5ccc2[nH]5)C=C4)C=C3)cc1)[C@@H](O)c1cccc(C(F)(F)F)c1
REMARK SMILES IDX 10 1 9 2 8 3 6 4 7 5 5 6 4 7 3 8 2 9 1 10 80 11 81 12 82 14
REMARK SMILES IDX 83 15 91 16 84 17 86 18 85 19 87 20 88 21 89 22 90 23 11 24
REMARK SMILES IDX 12 25 13 26 14 27 15 28 16 29 17 30 18 31 79 32 19 33 78 34
REMARK SMILES IDX 20 35 21 36 22 37 72 38 23 39 77 40 71 41 73 42 24 43 76 44
REMARK SMILES IDX 70 45 69 46 25 48 57 49 37 50 56 51 38 52 41 53 55 54 74 55
REMARK SMILES IDX 39 56 40 57 54 59 75 60 42 61 26 62 27 63 35 64 28 65 29 66
REMARK SMILES IDX 33 67 36 68 30 69 31 70 34 71 32 72 58 73 59 74 67 75 60 76
REMARK SMILES IDX 61 77 65 78 68 79 62 80 63 81 66 82 64 83 43 84 44 85 52 86
REMARK SMILES IDX 45 87 46 88 50 89 53 90 47 91 48 92 51 93 49 94
REMARK H PARENT 81 13 73 47 41 58
REMARK Flexibility Score: inf
ROOT
ATOM      1  C   UNL A   1      33.981  21.087  26.319  1.00  0.00     0.202 C 
ENDROOT
BRANCH   1   2
ATOM      2  C   UNL A   1      33.022  21.268  25.140  1.00  0.00     0.261 C 
BRANCH   2   3
ATOM      3  O   UNL A   1      32.771  22.664  24.938  1.00  0.00    -0.463 OA
BRANCH   3   4
ATOM      4  C   UNL A   1      31.479  23.049  25.064  1.00  0.00     0.312 C 
ATOM      5  O   UNL A   1      30.649  22.459  25.745  1.00  0.00    -0.252 OA
BRANCH   4   6
ATOM      6  C   UNL A   1      31.202  24.345  24.314  1.00  0.00     0.132 C 
BRANCH   6   7
ATOM      7  C   UNL A   1      32.471  25.105  23.856  1.00  0.00     0.018 C 
BRANCH   7   8
ATOM      8  C   UNL A   1      32.701  25.236  22.346  1.00  0.00     0.001 C 
BRANCH   8   9
ATOM      9  C   UNL A   1      33.275  26.570  21.875  1.00  0.00    -0.003 C 
ATOM     10  C   UNL A   1      33.696  27.476  23.018  1.00  0.00     0.004 C 
ENDBRANCH   8   9
ENDBRANCH   7   8
ENDBRANCH   6   7
BRANCH   6  11
ATOM     11  C   UNL A   1      30.305  25.286  25.157  1.00  0.00     0.158 C 
BRANCH  11  12
ATOM     12  O   UNL A   1      30.721  25.239  26.528  1.00  0.00    -0.388 OA
ATOM     13  H   UNL A   1      30.098  24.698  27.038  1.00  0.00     0.211 HD
ENDBRANCH  11  12
BRANCH  11  14
ATOM     14  C   UNL A   1      30.335  26.738  24.733  1.00  0.00    -0.018 A 
ATOM     15  C   UNL A   1      29.784  27.129  23.504  1.00  0.00     0.006 A 
ATOM     16  C   UNL A   1      30.980  27.701  25.524  1.00  0.00     0.019 A 
ATOM     17  C   UNL A   1      29.899  28.448  23.063  1.00  0.00     0.001 A 
ATOM     18  C   UNL A   1      31.110  29.027  25.086  1.00  0.00     0.056 A 
ATOM     19  C   UNL A   1      30.566  29.389  23.845  1.00  0.00     0.013 A 
BRANCH  18  20
ATOM     20  C   UNL A   1      31.864  30.042  25.908  1.00  0.00     0.416 C 
ATOM     21  F   UNL A   1      31.399  31.308  25.724  1.00  0.00    -0.166 F 
ATOM     22  F   UNL A   1      31.774  29.804  27.247  1.00  0.00    -0.166 F 
ATOM     23  F   UNL A   1      33.198  30.091  25.631  1.00  0.00    -0.166 F 
ENDBRANCH  18  20
ENDBRANCH  11  14
ENDBRANCH   6  11
ENDBRANCH   4   6
ENDBRANCH   3   4
ENDBRANCH   2   3
ENDBRANCH   1   2
BRANCH   1  24
ATOM     24  O   UNL A   1      35.374  21.208  26.023  1.00  0.00    -0.374 OA
BRANCH  24  25
ATOM     25  C   UNL A   1      35.909  20.409  24.967  1.00  0.00     0.202 C 
BRANCH  25  26
ATOM     26  C   UNL A   1      37.436  20.302  24.860  1.00  0.00     0.261 C 
BRANCH  26  27
ATOM     27  O   UNL A   1      38.119  21.494  25.287  1.00  0.00    -0.460 OA
BRANCH  27  28
ATOM     28  C   UNL A   1      39.206  21.267  26.062  1.00  0.00     0.338 C 
ATOM     29  O   UNL A   1      39.832  20.219  26.174  1.00  0.00    -0.246 OA
BRANCH  28  30
ATOM     30  C   UNL A   1      39.686  22.517  26.671  1.00  0.00     0.060 A 
ATOM     31  C   UNL A   1      39.158  23.718  26.177  1.00  0.00     0.016 A 
ATOM     32  C   UNL A   1      40.716  22.530  27.613  1.00  0.00     0.016 A 
ATOM     33  C   UNL A   1      39.693  24.936  26.585  1.00  0.00     0.010 A 
ATOM     34  C   UNL A   1      41.259  23.757  28.015  1.00  0.00     0.010 A 
ATOM     35  C   UNL A   1      40.775  24.962  27.473  1.00  0.00    -0.014 A 
BRANCH  35  36
ATOM     36  C   UNL A   1      41.489  26.242  27.707  1.00  0.00     0.031 A 
ATOM     37  C   UNL A   1      40.787  27.344  28.455  1.00  0.00     0.074 A 
ATOM     38  C   UNL A   1      42.760  26.405  27.304  1.00  0.00     0.049 A 
ATOM     39  N   UNL A   1      41.214  28.542  28.763  1.00  0.00    -0.248 NA
ATOM     40  C   UNL A   1      39.421  27.055  28.917  1.00  0.00     0.031 C 
ATOM     41  C   UNL A   1      43.560  25.397  26.611  1.00  0.00     0.029 A 
ATOM     42  N   UNL A   1      43.601  27.483  27.421  1.00  0.00    -0.354 N 
ATOM     43  C   UNL A   1      40.170  29.150  29.448  1.00  0.00     0.074 A 
ATOM     44  C   UNL A   1      39.078  28.201  29.487  1.00  0.00     0.031 C 
ATOM     45  C   UNL A   1      44.775  25.909  26.352  1.00  0.00     0.029 A 
ATOM     46  C   UNL A   1      44.828  27.288  26.836  1.00  0.00     0.049 A 
ATOM     47  H   UNL A   1      43.349  28.316  27.880  1.00  0.00     0.167 HD
ATOM     48  C   UNL A   1      40.129  30.385  30.003  1.00  0.00     0.037 A 
ATOM     49  C   UNL A   1      45.866  28.135  26.691  1.00  0.00     0.037 A 
ATOM     50  C   UNL A   1      41.217  31.326  29.971  1.00  0.00     0.049 A 
ATOM     51  C   UNL A   1      45.771  29.527  27.261  1.00  0.00     0.074 A 
ATOM     52  C   UNL A   1      41.281  32.592  30.528  1.00  0.00     0.029 A 
ATOM     53  N   UNL A   1      42.433  31.105  29.340  1.00  0.00    -0.354 N 
ATOM     54  N   UNL A   1      44.792  30.083  27.932  1.00  0.00    -0.248 NA
ATOM     55  C   UNL A   1      46.930  30.407  27.057  1.00  0.00     0.031 C 
ATOM     56  C   UNL A   1      42.516  33.156  30.189  1.00  0.00     0.029 A 
ATOM     57  C   UNL A   1      43.242  32.222  29.469  1.00  0.00     0.049 A 
ATOM     58  H   UNL A   1      42.683  30.276  28.871  1.00  0.00     0.167 HD
ATOM     59  C   UNL A   1      45.225  31.363  28.253  1.00  0.00     0.074 A 
ATOM     60  C   UNL A   1      46.561  31.499  27.714  1.00  0.00     0.031 C 
ATOM     61  C   UNL A   1      44.574  32.340  28.933  1.00  0.00     0.037 A 
BRANCH  48  62
ATOM     62  C   UNL A   1      38.853  30.804  30.672  1.00  0.00     0.064 A 
ATOM     63  C   UNL A   1      37.753  31.277  29.939  1.00  0.00     0.173 A 
ATOM     64  C   UNL A   1      38.714  30.695  32.064  1.00  0.00     0.173 A 
ATOM     65  F   UNL A   1      37.840  31.413  28.607  1.00  0.00    -0.203 F 
ATOM     66  C   UNL A   1      36.572  31.645  30.578  1.00  0.00     0.198 A 
ATOM     67  C   UNL A   1      37.522  31.037  32.696  1.00  0.00     0.198 A 
ATOM     68  F   UNL A   1      39.734  30.245  32.811  1.00  0.00    -0.203 F 
ATOM     69  F   UNL A   1      35.550  32.133  29.861  1.00  0.00    -0.200 F 
ATOM     70  C   UNL A   1      36.455  31.519  31.954  1.00  0.00     0.200 A 
ATOM     71  F   UNL A   1      37.407  30.903  34.024  1.00  0.00    -0.200 F 
ATOM     72  F   UNL A   1      35.314  31.866  32.565  1.00  0.00    -0.200 F 
ENDBRANCH  48  62
BRANCH  49  73
ATOM     73  C   UNL A   1      47.083  27.697  25.959  1.00  0.00     0.064 A 
ATOM     74  C   UNL A   1      48.224  27.260  26.644  1.00  0.00     0.173 A 
ATOM     75  C   UNL A   1      47.134  27.728  24.557  1.00  0.00     0.173 A 
ATOM     76  F   UNL A   1      48.233  27.239  27.985  1.00  0.00    -0.203 F 
ATOM     77  C   UNL A   1      49.378  26.886  25.956  1.00  0.00     0.198 A 
ATOM     78  C   UNL A   1      48.277  27.327  23.870  1.00  0.00     0.198 A 
ATOM     79  F   UNL A   1      46.069  28.141  23.855  1.00  0.00    -0.203 F 
ATOM     80  F   UNL A   1      50.472  26.518  26.636  1.00  0.00    -0.200 F 
ATOM     81  C   UNL A   1      49.401  26.914  24.569  1.00  0.00     0.200 A 
ATOM     82  F   UNL A   1      48.292  27.346  22.530  1.00  0.00    -0.200 F 
ATOM     83  F   UNL A   1      50.509  26.554  23.908  1.00  0.00    -0.200 F 
ENDBRANCH  49  73
BRANCH  61  84
ATOM     84  C   UNL A   1      45.309  33.628  29.165  1.00  0.00     0.064 A 
ATOM     85  C   UNL A   1      46.140  33.813  30.280  1.00  0.00     0.173 A 
ATOM     86  C   UNL A   1      45.216  34.675  28.234  1.00  0.00     0.173 A 
ATOM     87  F   UNL A   1      46.252  32.847  31.204  1.00  0.00    -0.203 F 
ATOM     88  C   UNL A   1      46.830  35.008  30.468  1.00  0.00     0.198 A 
ATOM     89  C   UNL A   1      45.932  35.857  28.410  1.00  0.00     0.198 A 
ATOM     90  F   UNL A   1      44.442  34.547  27.147  1.00  0.00    -0.203 F 
ATOM     91  F   UNL A   1      47.582  35.179  31.563  1.00  0.00    -0.200 F 
ATOM     92  C   UNL A   1      46.732  36.025  29.529  1.00  0.00     0.200 A 
ATOM     93  F   UNL A   1      45.846  36.832  27.496  1.00  0.00    -0.200 F 
ATOM     94  F   UNL A   1      47.404  37.170  29.708  1.00  0.00    -0.200 F 
ENDBRANCH  61  84
ENDBRANCH  35  36
ENDBRANCH  28  30
ENDBRANCH  27  28
ENDBRANCH  26  27
ENDBRANCH  25  26
ENDBRANCH  24  25
ENDBRANCH   1  24
TORSDOF 21
ENDMDL
MODEL 2
REMARK VINA RESULT:     -10.8      1.434      7.580
REMARK SMILES CCCC[C@@H](C(=O)OCCOCCOC(=O)c1ccc(-c2c3nc(c(-c4c(F)c(F)c(F)c(F)c4F)c4ccc([nH]4)c(-c4c(F)c(F)c(F)c(F)c4F)c4nc(c(-c5c(F)c(F)c(F)c(F)c5F)c5ccc2[nH]5)C=C4)C=C3)cc1)[C@@H](O)c1cccc(C(F)(F)F)c1
REMARK SMILES IDX 10 1 9 2 8 3 6 4 7 5 5 6 4 7 3 8 2 9 1 10 80 11 81 12 82 14
REMARK SMILES IDX 83 15 91 16 84 17 86 18 85 19 87 20 88 21 89 22 90 23 11 24
REMARK SMILES IDX 12 25 13 26 14 27 15 28 16 29 17 30 18 31 79 32 19 33 78 34
REMARK SMILES IDX 20 35 21 36 22 37 72 38 23 39 77 40 71 41 73 42 24 43 76 44
REMARK SMILES IDX 70 45 69 46 25 48 57 49 37 50 56 51 38 52 41 53 55 54 74 55
REMARK SMILES IDX 39 56 40 57 54 59 75 60 42 61 26 62 27 63 35 64 28 65 29 66
REMARK SMILES IDX 33 67 36 68 30 69 31 70 34 71 32 72 58 73 59 74 67 75 60 76
REMARK SMILES IDX 61 77 65 78 68 79 62 80 63 81 66 82 64 83 43 84 44 85 52 86
REMARK SMILES IDX 45 87 46 88 50 89 53 90 47 91 48 92 51 93 49 94
REMARK H PARENT 81 13 73 47 41 58
REMARK Flexibility Score: inf
ROOT
ATOM      1  C   UNL A   1      35.360  23.034  25.067  1.00  0.00     0.202 C 
ENDROOT
BRANCH   1   2
ATOM      2  C   UNL A   1      34.702  24.184  24.302  1.00  0.00     0.261 C 
BRANCH   2   3
ATOM      3  O   UNL A   1      34.760  23.918  22.896  1.00  0.00    -0.463 OA
BRANCH   3   4
ATOM      4  C   UNL A   1      33.581  24.006  22.235  1.00  0.00     0.312 C 
ATOM      5  O   UNL A   1      33.287  23.328  21.259  1.00  0.00    -0.252 OA
BRANCH   4   6
ATOM      6  C   UNL A   1      32.638  25.001  22.900  1.00  0.00     0.132 C 
BRANCH   6   7
ATOM      7  C   UNL A   1      31.223  24.447  23.192  1.00  0.00     0.018 C 
BRANCH   7   8
ATOM      8  C   UNL A   1      30.646  24.703  24.590  1.00  0.00     0.001 C 
BRANCH   8   9
ATOM      9  C   UNL A   1      31.271  23.895  25.724  1.00  0.00    -0.003 C 
ATOM     10  C   UNL A   1      31.467  22.430  25.377  1.00  0.00     0.004 C 
ENDBRANCH   8   9
ENDBRANCH   7   8
ENDBRANCH   6   7
BRANCH   6  11
ATOM     11  C   UNL A   1      32.528  26.298  22.059  1.00  0.00     0.158 C 
BRANCH  11  12
ATOM     12  O   UNL A   1      31.729  26.046  20.896  1.00  0.00    -0.388 OA
ATOM     13  H   UNL A   1      31.469  26.890  20.493  1.00  0.00     0.211 HD
ENDBRANCH  11  12
BRANCH  11  14
ATOM     14  C   UNL A   1      31.903  27.470  22.782  1.00  0.00    -0.018 A 
ATOM     15  C   UNL A   1      32.521  28.015  23.918  1.00  0.00     0.006 A 
ATOM     16  C   UNL A   1      30.661  27.982  22.376  1.00  0.00     0.019 A 
ATOM     17  C   UNL A   1      31.899  29.029  24.646  1.00  0.00     0.001 A 
ATOM     18  C   UNL A   1      30.022  28.994  23.107  1.00  0.00     0.056 A 
ATOM     19  C   UNL A   1      30.653  29.509  24.250  1.00  0.00     0.013 A 
BRANCH  18  20
ATOM     20  C   UNL A   1      28.656  29.491  22.707  1.00  0.00     0.416 C 
ATOM     21  F   UNL A   1      27.707  28.517  22.776  1.00  0.00    -0.166 F 
ATOM     22  F   UNL A   1      28.210  30.501  23.506  1.00  0.00    -0.166 F 
ATOM     23  F   UNL A   1      28.599  29.976  21.434  1.00  0.00    -0.166 F 
ENDBRANCH  18  20
ENDBRANCH  11  14
ENDBRANCH   6  11
ENDBRANCH   4   6
ENDBRANCH   3   4
ENDBRANCH   2   3
ENDBRANCH   1   2
BRANCH   1  24
ATOM     24  O   UNL A   1      35.694  21.875  24.300  1.00  0.00    -0.374 OA
BRANCH  24  25
ATOM     25  C   UNL A   1      36.053  20.685  25.001  1.00  0.00     0.202 C 
BRANCH  25  26
ATOM     26  C   UNL A   1      37.533  20.279  25.001  1.00  0.00     0.261 C 
BRANCH  26  27
ATOM     27  O   UNL A   1      38.426  21.389  25.198  1.00  0.00    -0.460 OA
BRANCH  27  28
ATOM     28  C   UNL A   1      39.394  21.172  26.120  1.00  0.00     0.338 C 
ATOM     29  O   UNL A   1      39.995  20.124  26.331  1.00  0.00    -0.246 OA
BRANCH  28  30
ATOM     30  C   UNL A   1      39.786  22.428  26.776  1.00  0.00     0.060 A 
ATOM     31  C   UNL A   1      39.101  23.591  26.398  1.00  0.00     0.016 A 
ATOM     32  C   UNL A   1      40.876  22.497  27.645  1.00  0.00     0.016 A 
ATOM     33  C   UNL A   1      39.537  24.835  26.848  1.00  0.00     0.010 A 
ATOM     34  C   UNL A   1      41.318  23.750  28.089  1.00  0.00     0.010 A 
ATOM     35  C   UNL A   1      40.674  24.925  27.660  1.00  0.00    -0.014 A 
BRANCH  35  36
ATOM     36  C   UNL A   1      41.267  26.259  27.929  1.00  0.00     0.031 A 
ATOM     37  C   UNL A   1      42.664  26.548  27.450  1.00  0.00     0.074 A 
ATOM     38  C   UNL A   1      40.555  27.217  28.547  1.00  0.00     0.049 A 
ATOM     39  N   UNL A   1      43.380  27.635  27.582  1.00  0.00    -0.248 NA
ATOM     40  C   UNL A   1      43.344  25.464  26.725  1.00  0.00     0.031 C 
ATOM     41  C   UNL A   1      39.179  27.073  29.017  1.00  0.00     0.029 A 
ATOM     42  N   UNL A   1      40.896  28.503  28.884  1.00  0.00    -0.354 N 
ATOM     43  C   UNL A   1      44.594  27.365  26.963  1.00  0.00     0.074 A 
ATOM     44  C   UNL A   1      44.530  26.003  26.480  1.00  0.00     0.031 C 
ATOM     45  C   UNL A   1      38.795  28.224  29.595  1.00  0.00     0.029 A 
ATOM     46  C   UNL A   1      39.906  29.173  29.560  1.00  0.00     0.049 A 
ATOM     47  H   UNL A   1      41.766  28.905  28.664  1.00  0.00     0.167 HD
ATOM     48  C   UNL A   1      45.662  28.184  26.804  1.00  0.00     0.037 A 
ATOM     49  C   UNL A   1      39.907  30.405  30.104  1.00  0.00     0.037 A 
ATOM     50  C   UNL A   1      45.722  29.541  27.278  1.00  0.00     0.049 A 
ATOM     51  C   UNL A   1      41.132  31.274  29.970  1.00  0.00     0.074 A 
ATOM     52  C   UNL A   1      46.750  30.458  27.142  1.00  0.00     0.029 A 
ATOM     53  N   UNL A   1      44.712  30.175  27.987  1.00  0.00    -0.354 N 
ATOM     54  N   UNL A   1      42.264  31.021  29.359  1.00  0.00    -0.248 NA
ATOM     55  C   UNL A   1      41.076  32.601  30.598  1.00  0.00     0.031 C 
ATOM     56  C   UNL A   1      46.383  31.629  27.813  1.00  0.00     0.029 A 
ATOM     57  C   UNL A   1      45.104  31.461  28.320  1.00  0.00     0.049 A 
ATOM     58  H   UNL A   1      43.845  29.770  28.218  1.00  0.00     0.167 HD
ATOM     59  C   UNL A   1      43.041  32.163  29.504  1.00  0.00     0.074 A 
ATOM     60  C   UNL A   1      42.248  33.116  30.251  1.00  0.00     0.031 C 
ATOM     61  C   UNL A   1      44.300  32.401  29.059  1.00  0.00     0.037 A 
BRANCH  48  62
ATOM     62  C   UNL A   1      46.868  27.624  26.109  1.00  0.00     0.064 A 
ATOM     63  C   UNL A   1      47.010  27.681  24.714  1.00  0.00     0.173 A 
ATOM     64  C   UNL A   1      47.915  27.057  26.852  1.00  0.00     0.173 A 
ATOM     65  F   UNL A   1      46.032  28.200  23.957  1.00  0.00    -0.203 F 
ATOM     66  C   UNL A   1      48.146  27.170  24.089  1.00  0.00     0.198 A 
ATOM     67  C   UNL A   1      49.060  26.574  26.226  1.00  0.00     0.198 A 
ATOM     68  F   UNL A   1      47.830  26.982  28.189  1.00  0.00    -0.203 F 
ATOM     69  F   UNL A   1      48.241  27.197  22.752  1.00  0.00    -0.200 F 
ATOM     70  C   UNL A   1      49.171  26.624  24.845  1.00  0.00     0.200 A 
ATOM     71  F   UNL A   1      50.056  26.057  26.960  1.00  0.00    -0.200 F 
ATOM     72  F   UNL A   1      50.267  26.141  24.242  1.00  0.00    -0.200 F 
ENDBRANCH  48  62
BRANCH  49  73
ATOM     73  C   UNL A   1      38.712  30.890  30.844  1.00  0.00     0.064 A 
ATOM     74  C   UNL A   1      37.662  31.539  30.181  1.00  0.00     0.173 A 
ATOM     75  C   UNL A   1      38.609  30.730  32.234  1.00  0.00     0.173 A 
ATOM     76  F   UNL A   1      37.728  31.740  28.858  1.00  0.00    -0.203 F 
ATOM     77  C   UNL A   1      36.561  32.027  30.884  1.00  0.00     0.198 A 
ATOM     78  C   UNL A   1      37.495  31.192  32.931  1.00  0.00     0.198 A 
ATOM     79  F   UNL A   1      39.588  30.119  32.915  1.00  0.00    -0.203 F 
ATOM     80  F   UNL A   1      35.593  32.687  30.233  1.00  0.00    -0.200 F 
ATOM     81  C   UNL A   1      36.476  31.847  32.257  1.00  0.00     0.200 A 
ATOM     82  F   UNL A   1      37.411  31.008  34.255  1.00  0.00    -0.200 F 
ATOM     83  F   UNL A   1      35.416  32.315  32.930  1.00  0.00    -0.200 F 
ENDBRANCH  49  73
BRANCH  61  84
ATOM     84  C   UNL A   1      44.886  33.755  29.335  1.00  0.00     0.064 A 
ATOM     85  C   UNL A   1      44.690  34.836  28.463  1.00  0.00     0.173 A 
ATOM     86  C   UNL A   1      45.615  33.986  30.513  1.00  0.00     0.173 A 
ATOM     87  F   UNL A   1      44.012  34.664  27.318  1.00  0.00    -0.203 F 
ATOM     88  C   UNL A   1      45.224  36.091  28.746  1.00  0.00     0.198 A 
ATOM     89  C   UNL A   1      46.122  35.249  30.807  1.00  0.00     0.198 A 
ATOM     90  F   UNL A   1      45.825  32.989  31.384  1.00  0.00    -0.203 F 
ATOM     91  F   UNL A   1      45.063  37.097  27.876  1.00  0.00    -0.200 F 
ATOM     92  C   UNL A   1      45.932  36.298  29.921  1.00  0.00     0.200 A 
ATOM     93  F   UNL A   1      46.793  35.450  31.949  1.00  0.00    -0.200 F 
ATOM     94  F   UNL A   1      46.437  37.508  30.195  1.00  0.00    -0.200 F 
ENDBRANCH  61  84
ENDBRANCH  35  36
ENDBRANCH  28  30
ENDBRANCH  27  28
ENDBRANCH  26  27
ENDBRANCH  25  26
ENDBRANCH  24  25
ENDBRANCH   1  24
TORSDOF 21
ENDMDL
MODEL 3
REMARK VINA RESULT:     -10.8      1.070      2.432
REMARK SMILES CCCC[C@@H](C(=O)OCCOCCOC(=O)c1ccc(-c2c3nc(c(-c4c(F)c(F)c(F)c(F)c4F)c4ccc([nH]4)c(-c4c(F)c(F)c(F)c(F)c4F)c4nc(c(-c5c(F)c(F)c(F)c(F)c5F)c5ccc2[nH]5)C=C4)C=C3)cc1)[C@@H](O)c1cccc(C(F)(F)F)c1
REMARK SMILES IDX 10 1 9 2 8 3 6 4 7 5 5 6 4 7 3 8 2 9 1 10 80 11 81 12 82 14
REMARK SMILES IDX 83 15 91 16 84 17 86 18 85 19 87 20 88 21 89 22 90 23 11 24
REMARK SMILES IDX 12 25 13 26 14 27 15 28 16 29 17 30 18 31 79 32 19 33 78 34
REMARK SMILES IDX 20 35 21 36 22 37 72 38 23 39 77 40 71 41 73 42 24 43 76 44
REMARK SMILES IDX 70 45 69 46 25 48 57 49 37 50 56 51 38 52 41 53 55 54 74 55
REMARK SMILES IDX 39 56 40 57 54 59 75 60 42 61 26 62 27 63 35 64 28 65 29 66
REMARK SMILES IDX 33 67 36 68 30 69 31 70 34 71 32 72 58 73 59 74 67 75 60 76
REMARK SMILES IDX 61 77 65 78 68 79 62 80 63 81 66 82 64 83 43 84 44 85 52 86
REMARK SMILES IDX 45 87 46 88 50 89 53 90 47 91 48 92 51 93 49 94
REMARK H PARENT 81 13 73 47 41 58
REMARK Flexibility Score: inf
ROOT
ATOM      1  C   UNL A   1      35.403  23.180  25.009  1.00  0.00     0.202 C 
ENDROOT
BRANCH   1   2
ATOM      2  C   UNL A   1      34.672  24.346  24.340  1.00  0.00     0.261 C 
BRANCH   2   3
ATOM      3  O   UNL A   1      34.736  24.199  22.917  1.00  0.00    -0.463 OA
BRANCH   3   4
ATOM      4  C   UNL A   1      33.543  24.192  22.276  1.00  0.00     0.312 C 
ATOM      5  O   UNL A   1      33.279  23.473  21.321  1.00  0.00    -0.252 OA
BRANCH   4   6
ATOM      6  C   UNL A   1      32.546  25.137  22.935  1.00  0.00     0.132 C 
BRANCH   6   7
ATOM      7  C   UNL A   1      31.145  24.526  23.176  1.00  0.00     0.018 C 
BRANCH   7   8
ATOM      8  C   UNL A   1      30.501  24.770  24.547  1.00  0.00     0.001 C 
BRANCH   8   9
ATOM      9  C   UNL A   1      31.401  24.526  25.755  1.00  0.00    -0.003 C 
ATOM     10  C   UNL A   1      31.747  25.798  26.509  1.00  0.00     0.004 C 
ENDBRANCH   8   9
ENDBRANCH   7   8
ENDBRANCH   6   7
BRANCH   6  11
ATOM     11  C   UNL A   1      32.412  26.448  22.119  1.00  0.00     0.158 C 
BRANCH  11  12
ATOM     12  O   UNL A   1      31.788  26.164  20.860  1.00  0.00    -0.388 OA
ATOM     13  H   UNL A   1      30.861  25.915  21.007  1.00  0.00     0.211 HD
ENDBRANCH  11  12
BRANCH  11  14
ATOM     14  C   UNL A   1      31.591  27.528  22.787  1.00  0.00    -0.018 A 
ATOM     15  C   UNL A   1      30.384  27.959  22.215  1.00  0.00     0.006 A 
ATOM     16  C   UNL A   1      32.058  28.169  23.945  1.00  0.00     0.019 A 
ATOM     17  C   UNL A   1      29.675  29.023  22.772  1.00  0.00     0.001 A 
ATOM     18  C   UNL A   1      31.359  29.247  24.507  1.00  0.00     0.056 A 
ATOM     19  C   UNL A   1      30.164  29.670  23.906  1.00  0.00     0.013 A 
BRANCH  18  20
ATOM     20  C   UNL A   1      31.901  29.977  25.710  1.00  0.00     0.416 C 
ATOM     21  F   UNL A   1      31.433  31.252  25.799  1.00  0.00    -0.166 F 
ATOM     22  F   UNL A   1      31.564  29.375  26.885  1.00  0.00    -0.166 F 
ATOM     23  F   UNL A   1      33.260  30.078  25.724  1.00  0.00    -0.166 F 
ENDBRANCH  18  20
ENDBRANCH  11  14
ENDBRANCH   6  11
ENDBRANCH   4   6
ENDBRANCH   3   4
ENDBRANCH   2   3
ENDBRANCH   1   2
BRANCH   1  24
ATOM     24  O   UNL A   1      35.411  21.945  24.290  1.00  0.00    -0.374 OA
BRANCH  24  25
ATOM     25  C   UNL A   1      35.768  20.758  24.997  1.00  0.00     0.202 C 
BRANCH  25  26
ATOM     26  C   UNL A   1      37.238  20.320  24.955  1.00  0.00     0.261 C 
BRANCH  26  27
ATOM     27  O   UNL A   1      38.160  21.411  25.122  1.00  0.00    -0.460 OA
BRANCH  27  28
ATOM     28  C   UNL A   1      39.175  21.159  25.981  1.00  0.00     0.338 C 
ATOM     29  O   UNL A   1      39.750  20.091  26.157  1.00  0.00    -0.246 OA
BRANCH  28  30
ATOM     30  C   UNL A   1      39.654  22.401  26.608  1.00  0.00     0.060 A 
ATOM     31  C   UNL A   1      39.134  23.608  26.121  1.00  0.00     0.016 A 
ATOM     32  C   UNL A   1      40.675  22.401  27.560  1.00  0.00     0.016 A 
ATOM     33  C   UNL A   1      39.669  24.821  26.547  1.00  0.00     0.010 A 
ATOM     34  C   UNL A   1      41.218  23.622  27.979  1.00  0.00     0.010 A 
ATOM     35  C   UNL A   1      40.743  24.834  27.445  1.00  0.00    -0.014 A 
BRANCH  35  36
ATOM     36  C   UNL A   1      41.459  26.109  27.698  1.00  0.00     0.031 A 
ATOM     37  C   UNL A   1      40.751  27.210  28.441  1.00  0.00     0.074 A 
ATOM     38  C   UNL A   1      42.738  26.268  27.318  1.00  0.00     0.049 A 
ATOM     39  N   UNL A   1      41.177  28.404  28.763  1.00  0.00    -0.248 NA
ATOM     40  C   UNL A   1      39.375  26.924  28.878  1.00  0.00     0.031 C 
ATOM     41  C   UNL A   1      43.544  25.261  26.632  1.00  0.00     0.029 A 
ATOM     42  N   UNL A   1      43.582  27.341  27.455  1.00  0.00    -0.354 N 
ATOM     43  C   UNL A   1      40.125  29.013  29.434  1.00  0.00     0.074 A 
ATOM     44  C   UNL A   1      39.028  28.069  29.449  1.00  0.00     0.031 C 
ATOM     45  C   UNL A   1      44.766  25.768  26.397  1.00  0.00     0.029 A 
ATOM     46  C   UNL A   1      44.817  27.144  26.889  1.00  0.00     0.049 A 
ATOM     47  H   UNL A   1      43.326  28.173  27.914  1.00  0.00     0.167 HD
ATOM     48  C   UNL A   1      40.080  30.245  29.995  1.00  0.00     0.037 A 
ATOM     49  C   UNL A   1      45.861  27.986  26.767  1.00  0.00     0.037 A 
ATOM     50  C   UNL A   1      41.174  31.181  29.987  1.00  0.00     0.049 A 
ATOM     51  C   UNL A   1      45.764  29.375  27.343  1.00  0.00     0.074 A 
ATOM     52  C   UNL A   1      41.234  32.443  30.552  1.00  0.00     0.029 A 
ATOM     53  N   UNL A   1      42.399  30.958  29.376  1.00  0.00    -0.354 N 
ATOM     54  N   UNL A   1      44.776  29.932  28.001  1.00  0.00    -0.248 NA
ATOM     55  C   UNL A   1      46.931  30.251  27.164  1.00  0.00     0.031 C 
ATOM     56  C   UNL A   1      42.477  33.004  30.238  1.00  0.00     0.029 A 
ATOM     57  C   UNL A   1      43.211  32.070  29.525  1.00  0.00     0.049 A 
ATOM     58  H   UNL A   1      42.653  30.130  28.906  1.00  0.00     0.167 HD
ATOM     59  C   UNL A   1      45.210  31.209  28.337  1.00  0.00     0.074 A 
ATOM     60  C   UNL A   1      46.556  31.341  27.822  1.00  0.00     0.031 C 
ATOM     61  C   UNL A   1      44.552  32.184  29.012  1.00  0.00     0.037 A 
BRANCH  48  62
ATOM     62  C   UNL A   1      38.795  30.666  30.646  1.00  0.00     0.064 A 
ATOM     63  C   UNL A   1      38.602  30.569  32.032  1.00  0.00     0.173 A 
ATOM     64  C   UNL A   1      37.757  31.210  29.875  1.00  0.00     0.173 A 
ATOM     65  F   UNL A   1      39.559  30.043  32.812  1.00  0.00    -0.203 F 
ATOM     66  C   UNL A   1      37.407  30.981  32.619  1.00  0.00     0.198 A 
ATOM     67  C   UNL A   1      36.576  31.647  30.468  1.00  0.00     0.198 A 
ATOM     68  F   UNL A   1      37.892  31.329  28.545  1.00  0.00    -0.203 F 
ATOM     69  F   UNL A   1      37.229  30.840  33.940  1.00  0.00    -0.200 F 
ATOM     70  C   UNL A   1      36.399  31.525  31.838  1.00  0.00     0.200 A 
ATOM     71  F   UNL A   1      35.607  32.184  29.714  1.00  0.00    -0.200 F 
ATOM     72  F   UNL A   1      35.254  31.928  32.406  1.00  0.00    -0.200 F 
ENDBRANCH  48  62
BRANCH  49  73
ATOM     73  C   UNL A   1      47.089  27.547  26.053  1.00  0.00     0.064 A 
ATOM     74  C   UNL A   1      47.198  27.657  24.661  1.00  0.00     0.173 A 
ATOM     75  C   UNL A   1      48.170  26.987  26.752  1.00  0.00     0.173 A 
ATOM     76  F   UNL A   1      46.180  28.160  23.947  1.00  0.00    -0.203 F 
ATOM     77  C   UNL A   1      48.336  27.209  23.991  1.00  0.00     0.198 A 
ATOM     78  C   UNL A   1      49.317  26.566  26.084  1.00  0.00     0.198 A 
ATOM     79  F   UNL A   1      48.114  26.856  28.084  1.00  0.00    -0.203 F 
ATOM     80  F   UNL A   1      48.395  27.282  22.654  1.00  0.00    -0.200 F 
ATOM     81  C   UNL A   1      49.397  26.670  24.704  1.00  0.00     0.200 A 
ATOM     82  F   UNL A   1      50.344  26.055  26.777  1.00  0.00    -0.200 F 
ATOM     83  F   UNL A   1      50.489  26.240  24.059  1.00  0.00    -0.200 F 
ENDBRANCH  49  73
BRANCH  61  84
ATOM     84  C   UNL A   1      45.290  33.468  29.263  1.00  0.00     0.064 A 
ATOM     85  C   UNL A   1      45.172  34.567  28.400  1.00  0.00     0.173 A 
ATOM     86  C   UNL A   1      46.089  33.614  30.408  1.00  0.00     0.173 A 
ATOM     87  F   UNL A   1      44.430  34.473  27.286  1.00  0.00    -0.203 F 
ATOM     88  C   UNL A   1      45.847  35.757  28.661  1.00  0.00     0.198 A 
ATOM     89  C   UNL A   1      46.738  34.815  30.681  1.00  0.00     0.198 A 
ATOM     90  F   UNL A   1      46.229  32.596  31.270  1.00  0.00    -0.203 F 
ATOM     91  F   UNL A   1      45.756  36.779  27.799  1.00  0.00    -0.200 F 
ATOM     92  C   UNL A   1      46.623  35.883  29.805  1.00  0.00     0.200 A 
ATOM     93  F   UNL A   1      47.475  34.938  31.793  1.00  0.00    -0.200 F 
ATOM     94  F   UNL A   1      47.264  37.031  30.057  1.00  0.00    -0.200 F 
ENDBRANCH  61  84
ENDBRANCH  35  36
ENDBRANCH  28  30
ENDBRANCH  27  28
ENDBRANCH  26  27
ENDBRANCH  25  26
ENDBRANCH  24  25
ENDBRANCH   1  24
TORSDOF 21
ENDMDL
