MODEL 1
REMARK VINA RESULT:     -10.6      0.000      0.000
REMARK SMILES Cc1nn(C)c(OCC(C)(C)[NH+](C)C)c1C(=O)OCCOCCOC(=O)c1ccc(-c2c3nc(c(-c4c(F)c(F)c(F)c(F)c4F)c4ccc([nH]4)c(-c4c(F)c(F)c(F)c(F)c4F)c4nc(c(-c5c(F)c(F)c(F)c(F)c5F)c5ccc2[nH]5)C=C4)C=C3)cc1
REMARK SMILES IDX 20 1 19 2 18 3 16 4 17 5 15 6 1 7 2 8 3 9 4 10 6 11 5 12
REMARK SMILES IDX 7 13 8 14 9 15 10 16 11 17 12 18 13 19 14 20 21 22 22 23
REMARK SMILES IDX 23 24 24 25 25 26 26 27 27 28 28 29 89 30 29 31 88 32 30 33
REMARK SMILES IDX 31 34 32 35 82 36 33 37 87 38 81 39 83 40 34 41 86 42 80 43
REMARK SMILES IDX 79 44 35 46 67 47 47 48 66 49 48 50 51 51 65 52 84 53 49 54
REMARK SMILES IDX 50 55 64 57 85 58 52 59 36 60 37 61 45 62 38 63 39 64 43 65
REMARK SMILES IDX 46 66 40 67 41 68 44 69 42 70 68 71 69 72 77 73 70 74 71 75
REMARK SMILES IDX 75 76 78 77 72 78 73 79 76 80 74 81 53 82 54 83 62 84 55 85
REMARK SMILES IDX 56 86 60 87 63 88 57 89 58 90 61 91 59 92
REMARK H PARENT 12 21 83 45 51 56
REMARK Flexibility Score: inf
ROOT
ATOM      1  C   UNL A   1      32.804  28.315  26.450  1.00  0.00     0.202 C 
ENDROOT
BRANCH   1   2
ATOM      2  C   UNL A   1      31.569  27.588  27.044  1.00  0.00     0.261 C 
BRANCH   2   3
ATOM      3  O   UNL A   1      31.485  26.161  26.920  1.00  0.00    -0.459 OA
BRANCH   3   4
ATOM      4  C   UNL A   1      30.593  25.848  25.941  1.00  0.00     0.345 C 
ATOM      5  O   UNL A   1      29.463  25.494  26.246  1.00  0.00    -0.246 OA
BRANCH   4   6
ATOM      6  C   UNL A   1      31.000  25.997  24.565  1.00  0.00     0.144 A 
ATOM      7  C   UNL A   1      29.199  27.605  23.480  1.00  0.00     0.070 C 
ATOM      8  C   UNL A   1      30.375  26.696  23.490  1.00  0.00     0.078 A 
ATOM      9  N   UNL A   1      31.028  26.519  22.335  1.00  0.00    -0.174 NA
ATOM     10  N   UNL A   1      32.090  25.773  22.674  1.00  0.00    -0.236 N 
ATOM     11  C   UNL A   1      32.209  25.544  24.025  1.00  0.00     0.227 A 
ATOM     12  C   UNL A   1      32.997  25.336  21.638  1.00  0.00     0.178 C 
BRANCH  11  13
ATOM     13  O   UNL A   1      33.363  25.011  24.449  1.00  0.00    -0.471 OA
BRANCH  13  14
ATOM     14  C   UNL A   1      33.473  23.694  24.992  1.00  0.00     0.299 C 
BRANCH  14  15
ATOM     15  C   UNL A   1      34.851  22.905  24.791  1.00  0.00     0.126 C 
ATOM     16  C   UNL A   1      35.564  23.093  23.421  1.00  0.00     0.082 C 
ATOM     17  C   UNL A   1      35.789  23.473  25.898  1.00  0.00     0.082 C 
BRANCH  15  18
ATOM     18  N   UNL A   1      34.643  21.437  25.049  1.00  0.00    -0.333 N 
ATOM     19  C   UNL A   1      35.898  20.677  25.009  1.00  0.00     0.333 C 
ATOM     20  C   UNL A   1      33.933  21.126  26.292  1.00  0.00     0.333 C 
ATOM     21  H   UNL A   1      34.042  21.147  24.277  1.00  0.00     0.348 HD
ENDBRANCH  15  18
ENDBRANCH  14  15
ENDBRANCH  13  14
ENDBRANCH  11  13
ENDBRANCH   4   6
ENDBRANCH   3   4
ENDBRANCH   2   3
ENDBRANCH   1   2
BRANCH   1  22
ATOM     22  O   UNL A   1      32.747  29.429  25.571  1.00  0.00    -0.374 OA
BRANCH  22  23
ATOM     23  C   UNL A   1      31.678  30.367  25.572  1.00  0.00     0.202 C 
BRANCH  23  24
ATOM     24  C   UNL A   1      31.694  31.588  26.489  1.00  0.00     0.261 C 
BRANCH  24  25
ATOM     25  O   UNL A   1      32.625  31.470  27.566  1.00  0.00    -0.460 OA
BRANCH  25  26
ATOM     26  C   UNL A   1      33.482  32.514  27.652  1.00  0.00     0.338 C 
ATOM     27  O   UNL A   1      33.218  33.704  27.622  1.00  0.00    -0.246 OA
BRANCH  26  28
ATOM     28  C   UNL A   1      34.811  32.010  28.023  1.00  0.00     0.060 A 
ATOM     29  C   UNL A   1      34.924  30.644  28.317  1.00  0.00     0.016 A 
ATOM     30  C   UNL A   1      35.902  32.871  28.141  1.00  0.00     0.016 A 
ATOM     31  C   UNL A   1      36.121  30.138  28.795  1.00  0.00     0.010 A 
ATOM     32  C   UNL A   1      37.096  32.369  28.651  1.00  0.00     0.010 A 
ATOM     33  C   UNL A   1      37.184  31.016  29.025  1.00  0.00    -0.014 A 
BRANCH  33  34
ATOM     34  C   UNL A   1      38.293  30.557  29.880  1.00  0.00     0.031 A 
ATOM     35  C   UNL A   1      39.279  29.589  29.291  1.00  0.00     0.074 A 
ATOM     36  C   UNL A   1      38.441  31.044  31.121  1.00  0.00     0.049 A 
ATOM     37  N   UNL A   1      40.307  29.010  29.849  1.00  0.00    -0.248 NA
ATOM     38  C   UNL A   1      39.076  29.224  27.878  1.00  0.00     0.031 C 
ATOM     39  C   UNL A   1      37.572  32.039  31.747  1.00  0.00     0.029 A 
ATOM     40  N   UNL A   1      39.380  30.763  32.076  1.00  0.00    -0.354 N 
ATOM     41  C   UNL A   1      40.863  28.205  28.863  1.00  0.00     0.074 A 
ATOM     42  C   UNL A   1      40.047  28.347  27.680  1.00  0.00     0.031 C 
ATOM     43  C   UNL A   1      38.011  32.274  32.994  1.00  0.00     0.029 A 
ATOM     44  C   UNL A   1      39.164  31.418  33.261  1.00  0.00     0.049 A 
ATOM     45  H   UNL A   1      40.136  30.150  31.927  1.00  0.00     0.167 HD
ATOM     46  C   UNL A   1      41.962  27.421  28.947  1.00  0.00     0.037 A 
ATOM     47  C   UNL A   1      39.815  31.304  34.433  1.00  0.00     0.037 A 
ATOM     48  C   UNL A   1      42.763  27.300  30.135  1.00  0.00     0.049 A 
ATOM     49  C   UNL A   1      40.988  30.362  34.519  1.00  0.00     0.074 A 
ATOM     50  C   UNL A   1      43.906  26.549  30.332  1.00  0.00     0.029 A 
ATOM     51  N   UNL A   1      42.496  27.950  31.332  1.00  0.00    -0.354 N 
ATOM     52  N   UNL A   1      41.521  29.611  33.584  1.00  0.00    -0.248 NA
ATOM     53  C   UNL A   1      41.652  30.253  35.824  1.00  0.00     0.031 C 
ATOM     54  C   UNL A   1      44.295  26.693  31.667  1.00  0.00     0.029 A 
ATOM     55  C   UNL A   1      43.435  27.591  32.283  1.00  0.00     0.049 A 
ATOM     56  H   UNL A   1      41.748  28.573  31.483  1.00  0.00     0.167 HD
ATOM     57  C   UNL A   1      42.601  28.971  34.176  1.00  0.00     0.074 A 
ATOM     58  C   UNL A   1      42.655  29.433  35.548  1.00  0.00     0.031 C 
ATOM     59  C   UNL A   1      43.472  28.080  33.639  1.00  0.00     0.037 A 
BRANCH  46  60
ATOM     60  C   UNL A   1      42.339  26.610  27.743  1.00  0.00     0.064 A 
ATOM     61  C   UNL A   1      43.307  27.045  26.826  1.00  0.00     0.173 A 
ATOM     62  C   UNL A   1      41.749  25.355  27.527  1.00  0.00     0.173 A 
ATOM     63  F   UNL A   1      43.886  28.245  26.974  1.00  0.00    -0.203 F 
ATOM     64  C   UNL A   1      43.660  26.260  25.730  1.00  0.00     0.198 A 
ATOM     65  C   UNL A   1      42.127  24.560  26.449  1.00  0.00     0.198 A 
ATOM     66  F   UNL A   1      40.814  24.893  28.372  1.00  0.00    -0.203 F 
ATOM     67  F   UNL A   1      44.557  26.713  24.844  1.00  0.00    -0.200 F 
ATOM     68  C   UNL A   1      43.077  25.015  25.549  1.00  0.00     0.200 A 
ATOM     69  F   UNL A   1      41.570  23.351  26.283  1.00  0.00    -0.200 F 
ATOM     70  F   UNL A   1      43.429  24.254  24.503  1.00  0.00    -0.200 F 
ENDBRANCH  46  60
BRANCH  47  71
ATOM     71  C   UNL A   1      39.362  32.078  35.618  1.00  0.00     0.064 A 
ATOM     72  C   UNL A   1      38.470  31.526  36.547  1.00  0.00     0.173 A 
ATOM     73  C   UNL A   1      39.790  33.398  35.831  1.00  0.00     0.173 A 
ATOM     74  F   UNL A   1      38.018  30.275  36.379  1.00  0.00    -0.203 F 
ATOM     75  C   UNL A   1      37.999  32.273  37.626  1.00  0.00     0.198 A 
ATOM     76  C   UNL A   1      39.346  34.132  36.929  1.00  0.00     0.198 A 
ATOM     77  F   UNL A   1      40.646  33.974  34.975  1.00  0.00    -0.203 F 
ATOM     78  F   UNL A   1      37.101  31.740  38.465  1.00  0.00    -0.200 F 
ATOM     79  C   UNL A   1      38.441  33.573  37.818  1.00  0.00     0.200 A 
ATOM     80  F   UNL A   1      39.788  35.382  37.119  1.00  0.00    -0.200 F 
ATOM     81  F   UNL A   1      37.986  34.292  38.854  1.00  0.00    -0.200 F 
ENDBRANCH  47  71
BRANCH  59  82
ATOM     82  C   UNL A   1      44.586  27.590  34.519  1.00  0.00     0.064 A 
ATOM     83  C   UNL A   1      44.472  26.411  35.269  1.00  0.00     0.173 A 
ATOM     84  C   UNL A   1      45.800  28.293  34.577  1.00  0.00     0.173 A 
ATOM     85  F   UNL A   1      43.328  25.711  35.258  1.00  0.00    -0.203 F 
ATOM     86  C   UNL A   1      45.521  25.971  36.071  1.00  0.00     0.198 A 
ATOM     87  C   UNL A   1      46.860  27.828  35.348  1.00  0.00     0.198 A 
ATOM     88  F   UNL A   1      45.965  29.420  33.868  1.00  0.00    -0.203 F 
ATOM     89  F   UNL A   1      45.370  24.873  36.824  1.00  0.00    -0.200 F 
ATOM     90  C   UNL A   1      46.716  26.674  36.103  1.00  0.00     0.200 A 
ATOM     91  F   UNL A   1      48.020  28.498  35.363  1.00  0.00    -0.200 F 
ATOM     92  F   UNL A   1      47.728  26.243  36.868  1.00  0.00    -0.200 F 
ENDBRANCH  59  82
ENDBRANCH  33  34
ENDBRANCH  26  28
ENDBRANCH  25  26
ENDBRANCH  24  25
ENDBRANCH  23  24
ENDBRANCH  22  23
ENDBRANCH   1  22
TORSDOF 18
ENDMDL
MODEL 2
REMARK VINA RESULT:     -10.5      1.504      8.202
REMARK SMILES Cc1nn(C)c(OCC(C)(C)[NH+](C)C)c1C(=O)OCCOCCOC(=O)c1ccc(-c2c3nc(c(-c4c(F)c(F)c(F)c(F)c4F)c4ccc([nH]4)c(-c4c(F)c(F)c(F)c(F)c4F)c4nc(c(-c5c(F)c(F)c(F)c(F)c5F)c5ccc2[nH]5)C=C4)C=C3)cc1
REMARK SMILES IDX 20 1 19 2 18 3 16 4 17 5 15 6 1 7 2 8 3 9 4 10 6 11 5 12
REMARK SMILES IDX 7 13 8 14 9 15 10 16 11 17 12 18 13 19 14 20 21 22 22 23
REMARK SMILES IDX 23 24 24 25 25 26 26 27 27 28 28 29 89 30 29 31 88 32 30 33
REMARK SMILES IDX 31 34 32 35 82 36 33 37 87 38 81 39 83 40 34 41 86 42 80 43
REMARK SMILES IDX 79 44 35 46 67 47 47 48 66 49 48 50 51 51 65 52 84 53 49 54
REMARK SMILES IDX 50 55 64 57 85 58 52 59 36 60 37 61 45 62 38 63 39 64 43 65
REMARK SMILES IDX 46 66 40 67 41 68 44 69 42 70 68 71 69 72 77 73 70 74 71 75
REMARK SMILES IDX 75 76 78 77 72 78 73 79 76 80 74 81 53 82 54 83 62 84 55 85
REMARK SMILES IDX 56 86 60 87 63 88 57 89 58 90 61 91 59 92
REMARK H PARENT 12 21 83 45 51 56
REMARK Flexibility Score: inf
ROOT
ATOM      1  C   UNL A   1      32.583  28.662  26.934  1.00  0.00     0.202 C 
ENDROOT
BRANCH   1   2
ATOM      2  C   UNL A   1      33.685  28.592  25.844  1.00  0.00     0.261 C 
BRANCH   2   3
ATOM      3  O   UNL A   1      33.336  28.917  24.490  1.00  0.00    -0.459 OA
BRANCH   3   4
ATOM      4  C   UNL A   1      33.109  27.768  23.797  1.00  0.00     0.345 C 
ATOM      5  O   UNL A   1      33.950  27.366  23.006  1.00  0.00    -0.246 OA
BRANCH   4   6
ATOM      6  C   UNL A   1      31.898  27.031  24.062  1.00  0.00     0.144 A 
ATOM      7  C   UNL A   1      32.693  24.771  25.186  1.00  0.00     0.070 C 
ATOM      8  C   UNL A   1      31.714  25.722  24.599  1.00  0.00     0.078 A 
ATOM      9  N   UNL A   1      30.425  25.364  24.606  1.00  0.00    -0.174 NA
ATOM     10  N   UNL A   1      29.785  26.448  24.144  1.00  0.00    -0.236 N 
ATOM     11  C   UNL A   1      30.599  27.535  23.933  1.00  0.00     0.227 A 
ATOM     12  C   UNL A   1      28.353  26.390  23.961  1.00  0.00     0.178 C 
BRANCH  11  13
ATOM     13  O   UNL A   1      29.994  28.708  23.697  1.00  0.00    -0.471 OA
BRANCH  13  14
ATOM     14  C   UNL A   1      29.736  29.215  22.387  1.00  0.00     0.299 C 
BRANCH  14  15
ATOM     15  C   UNL A   1      28.641  30.372  22.225  1.00  0.00     0.126 C 
ATOM     16  C   UNL A   1      28.016  30.542  20.811  1.00  0.00     0.082 C 
ATOM     17  C   UNL A   1      27.500  29.967  23.206  1.00  0.00     0.082 C 
BRANCH  15  18
ATOM     18  N   UNL A   1      29.215  31.687  22.680  1.00  0.00    -0.333 N 
ATOM     19  C   UNL A   1      28.661  32.827  21.941  1.00  0.00     0.333 C 
ATOM     20  C   UNL A   1      29.098  31.945  24.118  1.00  0.00     0.333 C 
ATOM     21  H   UNL A   1      30.209  31.593  22.470  1.00  0.00     0.348 HD
ENDBRANCH  15  18
ENDBRANCH  14  15
ENDBRANCH  13  14
ENDBRANCH  11  13
ENDBRANCH   4   6
ENDBRANCH   3   4
ENDBRANCH   2   3
ENDBRANCH   1   2
BRANCH   1  22
ATOM     22  O   UNL A   1      31.878  29.838  27.304  1.00  0.00    -0.374 OA
BRANCH  22  23
ATOM     23  C   UNL A   1      31.798  30.990  26.474  1.00  0.00     0.202 C 
BRANCH  23  24
ATOM     24  C   UNL A   1      31.779  32.396  27.069  1.00  0.00     0.261 C 
BRANCH  24  25
ATOM     25  O   UNL A   1      33.025  33.081  26.934  1.00  0.00    -0.460 OA
BRANCH  25  26
ATOM     26  C   UNL A   1      33.546  33.488  28.115  1.00  0.00     0.338 C 
ATOM     27  O   UNL A   1      33.013  34.174  28.970  1.00  0.00    -0.246 OA
BRANCH  26  28
ATOM     28  C   UNL A   1      34.816  32.786  28.343  1.00  0.00     0.060 A 
ATOM     29  C   UNL A   1      34.757  31.404  28.572  1.00  0.00     0.016 A 
ATOM     30  C   UNL A   1      36.025  33.481  28.395  1.00  0.00     0.016 A 
ATOM     31  C   UNL A   1      35.905  30.714  28.920  1.00  0.00     0.010 A 
ATOM     32  C   UNL A   1      37.173  32.792  28.775  1.00  0.00     0.010 A 
ATOM     33  C   UNL A   1      37.099  31.423  29.086  1.00  0.00    -0.014 A 
BRANCH  33  34
ATOM     34  C   UNL A   1      38.200  30.771  29.818  1.00  0.00     0.031 A 
ATOM     35  C   UNL A   1      38.382  31.121  31.267  1.00  0.00     0.074 A 
ATOM     36  C   UNL A   1      38.966  29.851  29.214  1.00  0.00     0.049 A 
ATOM     37  N   UNL A   1      39.296  30.718  32.108  1.00  0.00    -0.248 NA
ATOM     38  C   UNL A   1      37.400  32.053  31.846  1.00  0.00     0.031 C 
ATOM     39  C   UNL A   1      38.814  29.401  27.831  1.00  0.00     0.029 A 
ATOM     40  N   UNL A   1      40.029  29.133  29.691  1.00  0.00    -0.354 N 
ATOM     41  C   UNL A   1      39.007  31.356  33.307  1.00  0.00     0.074 A 
ATOM     42  C   UNL A   1      37.851  32.193  33.083  1.00  0.00     0.031 C 
ATOM     43  C   UNL A   1      39.763  28.489  27.566  1.00  0.00     0.029 A 
ATOM     44  C   UNL A   1      40.608  28.326  28.747  1.00  0.00     0.049 A 
ATOM     45  H   UNL A   1      40.345  29.189  30.622  1.00  0.00     0.167 HD
ATOM     46  C   UNL A   1      39.654  31.244  34.490  1.00  0.00     0.037 A 
ATOM     47  C   UNL A   1      41.718  27.569  28.831  1.00  0.00     0.037 A 
ATOM     48  C   UNL A   1      40.800  30.399  34.692  1.00  0.00     0.049 A 
ATOM     49  C   UNL A   1      42.465  27.527  30.139  1.00  0.00     0.074 A 
ATOM     50  C   UNL A   1      41.528  30.194  35.849  1.00  0.00     0.029 A 
ATOM     51  N   UNL A   1      41.387  29.622  33.703  1.00  0.00    -0.354 N 
ATOM     52  N   UNL A   1      42.184  28.120  31.276  1.00  0.00    -0.248 NA
ATOM     53  C   UNL A   1      43.682  26.707  30.178  1.00  0.00     0.031 C 
ATOM     54  C   UNL A   1      42.594  29.342  35.545  1.00  0.00     0.029 A 
ATOM     55  C   UNL A   1      42.488  28.959  34.216  1.00  0.00     0.049 A 
ATOM     56  H   UNL A   1      41.067  29.552  32.774  1.00  0.00     0.167 HD
ATOM     57  C   UNL A   1      43.166  27.717  32.171  1.00  0.00     0.074 A 
ATOM     58  C   UNL A   1      44.042  26.818  31.448  1.00  0.00     0.031 C 
ATOM     59  C   UNL A   1      43.333  28.057  33.474  1.00  0.00     0.037 A 
BRANCH  46  60
ATOM     60  C   UNL A   1      39.166  32.076  35.638  1.00  0.00     0.064 A 
ATOM     61  C   UNL A   1      38.311  31.558  36.622  1.00  0.00     0.173 A 
ATOM     62  C   UNL A   1      39.597  33.405  35.779  1.00  0.00     0.173 A 
ATOM     63  F   UNL A   1      37.853  30.301  36.525  1.00  0.00    -0.203 F 
ATOM     64  C   UNL A   1      37.894  32.343  37.695  1.00  0.00     0.198 A 
ATOM     65  C   UNL A   1      39.204  34.176  36.868  1.00  0.00     0.198 A 
ATOM     66  F   UNL A   1      40.412  33.950  34.863  1.00  0.00    -0.203 F 
ATOM     67  F   UNL A   1      37.044  31.841  38.601  1.00  0.00    -0.200 F 
ATOM     68  C   UNL A   1      38.349  33.647  37.822  1.00  0.00     0.200 A 
ATOM     69  F   UNL A   1      39.654  35.432  36.994  1.00  0.00    -0.200 F 
ATOM     70  F   UNL A   1      37.960  34.397  38.863  1.00  0.00    -0.200 F 
ENDBRANCH  46  60
BRANCH  47  71
ATOM     71  C   UNL A   1      42.201  26.815  27.645  1.00  0.00     0.064 A 
ATOM     72  C   UNL A   1      41.686  25.550  27.331  1.00  0.00     0.173 A 
ATOM     73  C   UNL A   1      43.210  27.332  26.817  1.00  0.00     0.173 A 
ATOM     74  F   UNL A   1      40.733  25.005  28.102  1.00  0.00    -0.203 F 
ATOM     75  C   UNL A   1      42.182  24.818  26.254  1.00  0.00     0.198 A 
ATOM     76  C   UNL A   1      43.681  26.614  25.720  1.00  0.00     0.198 A 
ATOM     77  F   UNL A   1      43.735  28.539  27.069  1.00  0.00    -0.203 F 
ATOM     78  F   UNL A   1      41.713  23.586  26.012  1.00  0.00    -0.200 F 
ATOM     79  C   UNL A   1      43.175  25.352  25.447  1.00  0.00     0.200 A 
ATOM     80  F   UNL A   1      44.628  27.141  24.934  1.00  0.00    -0.200 F 
ATOM     81  F   UNL A   1      43.653  24.646  24.413  1.00  0.00    -0.200 F 
ENDBRANCH  47  71
BRANCH  59  82
ATOM     82  C   UNL A   1      44.472  27.414  34.212  1.00  0.00     0.064 A 
ATOM     83  C   UNL A   1      45.754  27.982  34.232  1.00  0.00     0.173 A 
ATOM     84  C   UNL A   1      44.263  26.235  34.944  1.00  0.00     0.173 A 
ATOM     85  F   UNL A   1      46.009  29.101  33.538  1.00  0.00    -0.203 F 
ATOM     86  C   UNL A   1      46.793  27.374  34.931  1.00  0.00     0.198 A 
ATOM     87  C   UNL A   1      45.294  25.652  35.673  1.00  0.00     0.198 A 
ATOM     88  F   UNL A   1      43.051  25.658  34.967  1.00  0.00    -0.203 F 
ATOM     89  F   UNL A   1      48.024  27.902  34.889  1.00  0.00    -0.200 F 
ATOM     90  C   UNL A   1      46.560  26.215  35.658  1.00  0.00     0.200 A 
ATOM     91  F   UNL A   1      45.062  24.544  36.390  1.00  0.00    -0.200 F 
ATOM     92  F   UNL A   1      47.559  25.637  36.338  1.00  0.00    -0.200 F 
ENDBRANCH  59  82
ENDBRANCH  33  34
ENDBRANCH  26  28
ENDBRANCH  25  26
ENDBRANCH  24  25
ENDBRANCH  23  24
ENDBRANCH  22  23
ENDBRANCH   1  22
TORSDOF 18
ENDMDL
MODEL 3
REMARK VINA RESULT:     -10.5      4.225      9.528
REMARK SMILES Cc1nn(C)c(OCC(C)(C)[NH+](C)C)c1C(=O)OCCOCCOC(=O)c1ccc(-c2c3nc(c(-c4c(F)c(F)c(F)c(F)c4F)c4ccc([nH]4)c(-c4c(F)c(F)c(F)c(F)c4F)c4nc(c(-c5c(F)c(F)c(F)c(F)c5F)c5ccc2[nH]5)C=C4)C=C3)cc1
REMARK SMILES IDX 20 1 19 2 18 3 16 4 17 5 15 6 1 7 2 8 3 9 4 10 6 11 5 12
REMARK SMILES IDX 7 13 8 14 9 15 10 16 11 17 12 18 13 19 14 20 21 22 22 23
REMARK SMILES IDX 23 24 24 25 25 26 26 27 27 28 28 29 89 30 29 31 88 32 30 33
REMARK SMILES IDX 31 34 32 35 82 36 33 37 87 38 81 39 83 40 34 41 86 42 80 43
REMARK SMILES IDX 79 44 35 46 67 47 47 48 66 49 48 50 51 51 65 52 84 53 49 54
REMARK SMILES IDX 50 55 64 57 85 58 52 59 36 60 37 61 45 62 38 63 39 64 43 65
REMARK SMILES IDX 46 66 40 67 41 68 44 69 42 70 68 71 69 72 77 73 70 74 71 75
REMARK SMILES IDX 75 76 78 77 72 78 73 79 76 80 74 81 53 82 54 83 62 84 55 85
REMARK SMILES IDX 56 86 60 87 63 88 57 89 58 90 61 91 59 92
REMARK H PARENT 12 21 83 45 51 56
REMARK Flexibility Score: inf
ROOT
ATOM      1  C   UNL A   1      34.766  22.734  26.499  1.00  0.00     0.202 C 
ENDROOT
BRANCH   1   2
ATOM      2  C   UNL A   1      33.449  23.555  26.536  1.00  0.00     0.261 C 
BRANCH   2   3
ATOM      3  O   UNL A   1      33.499  24.952  26.213  1.00  0.00    -0.459 OA
BRANCH   3   4
ATOM      4  C   UNL A   1      32.241  25.468  26.260  1.00  0.00     0.345 C 
ATOM      5  O   UNL A   1      31.366  24.868  26.868  1.00  0.00    -0.246 OA
BRANCH   4   6
ATOM      6  C   UNL A   1      31.995  26.742  25.630  1.00  0.00     0.144 A 
ATOM      7  C   UNL A   1      31.530  28.422  27.623  1.00  0.00     0.070 C 
ATOM      8  C   UNL A   1      31.628  27.997  26.202  1.00  0.00     0.078 A 
ATOM      9  N   UNL A   1      31.406  28.924  25.264  1.00  0.00    -0.174 NA
ATOM     10  N   UNL A   1      31.687  28.296  24.113  1.00  0.00    -0.236 N 
ATOM     11  C   UNL A   1      32.184  27.024  24.273  1.00  0.00     0.227 A 
ATOM     12  C   UNL A   1      31.493  28.999  22.866  1.00  0.00     0.178 C 
BRANCH  11  13
ATOM     13  O   UNL A   1      32.701  26.435  23.186  1.00  0.00    -0.471 OA
BRANCH  13  14
ATOM     14  C   UNL A   1      32.065  25.360  22.493  1.00  0.00     0.299 C 
BRANCH  14  15
ATOM     15  C   UNL A   1      32.840  23.962  22.391  1.00  0.00     0.126 C 
ATOM     16  C   UNL A   1      32.985  23.353  20.967  1.00  0.00     0.082 C 
ATOM     17  C   UNL A   1      34.270  24.271  22.926  1.00  0.00     0.082 C 
BRANCH  15  18
ATOM     18  N   UNL A   1      32.197  22.953  23.303  1.00  0.00    -0.333 N 
ATOM     19  C   UNL A   1      30.847  23.351  23.719  1.00  0.00     0.333 C 
ATOM     20  C   UNL A   1      32.153  21.586  22.775  1.00  0.00     0.333 C 
ATOM     21  H   UNL A   1      32.816  22.943  24.114  1.00  0.00     0.348 HD
ENDBRANCH  15  18
ENDBRANCH  14  15
ENDBRANCH  13  14
ENDBRANCH  11  13
ENDBRANCH   4   6
ENDBRANCH   3   4
ENDBRANCH   2   3
ENDBRANCH   1   2
BRANCH   1  22
ATOM     22  O   UNL A   1      35.403  22.271  25.318  1.00  0.00    -0.374 OA
BRANCH  22  23
ATOM     23  C   UNL A   1      35.780  20.914  25.118  1.00  0.00     0.202 C 
BRANCH  23  24
ATOM     24  C   UNL A   1      37.248  20.505  25.024  1.00  0.00     0.261 C 
BRANCH  24  25
ATOM     25  O   UNL A   1      38.150  21.597  25.205  1.00  0.00    -0.460 OA
BRANCH  25  26
ATOM     26  C   UNL A   1      39.183  21.311  26.031  1.00  0.00     0.338 C 
ATOM     27  O   UNL A   1      39.799  20.262  26.122  1.00  0.00    -0.246 OA
BRANCH  26  28
ATOM     28  C   UNL A   1      39.632  22.549  26.680  1.00  0.00     0.060 A 
ATOM     29  C   UNL A   1      39.054  23.751  26.247  1.00  0.00     0.016 A 
ATOM     30  C   UNL A   1      40.641  22.534  27.643  1.00  0.00     0.016 A 
ATOM     31  C   UNL A   1      39.529  24.958  26.731  1.00  0.00     0.010 A 
ATOM     32  C   UNL A   1      41.139  23.748  28.107  1.00  0.00     0.010 A 
ATOM     33  C   UNL A   1      40.617  24.955  27.610  1.00  0.00    -0.014 A 
BRANCH  33  34
ATOM     34  C   UNL A   1      41.353  26.216  27.810  1.00  0.00     0.031 A 
ATOM     35  C   UNL A   1      40.652  27.330  28.535  1.00  0.00     0.074 A 
ATOM     36  C   UNL A   1      42.627  26.330  27.409  1.00  0.00     0.049 A 
ATOM     37  N   UNL A   1      41.067  28.540  28.795  1.00  0.00    -0.248 NA
ATOM     38  C   UNL A   1      39.297  27.038  29.033  1.00  0.00     0.031 C 
ATOM     39  C   UNL A   1      43.406  25.276  26.761  1.00  0.00     0.029 A 
ATOM     40  N   UNL A   1      43.489  27.391  27.488  1.00  0.00    -0.354 N 
ATOM     41  C   UNL A   1      40.023  29.155  29.473  1.00  0.00     0.074 A 
ATOM     42  C   UNL A   1      38.944  28.199  29.563  1.00  0.00     0.031 C 
ATOM     43  C   UNL A   1      44.632  25.751  26.486  1.00  0.00     0.029 A 
ATOM     44  C   UNL A   1      44.705  27.149  26.903  1.00  0.00     0.049 A 
ATOM     45  H   UNL A   1      43.257  28.244  27.923  1.00  0.00     0.167 HD
ATOM     46  C   UNL A   1      39.979  30.410  29.976  1.00  0.00     0.037 A 
ATOM     47  C   UNL A   1      45.741  27.984  26.705  1.00  0.00     0.037 A 
ATOM     48  C   UNL A   1      41.068  31.344  29.881  1.00  0.00     0.049 A 
ATOM     49  C   UNL A   1      45.632  29.401  27.207  1.00  0.00     0.074 A 
ATOM     50  C   UNL A   1      41.143  32.635  30.366  1.00  0.00     0.029 A 
ATOM     51  N   UNL A   1      42.275  31.080  29.248  1.00  0.00    -0.354 N 
ATOM     52  N   UNL A   1      44.650  29.979  27.858  1.00  0.00    -0.248 NA
ATOM     53  C   UNL A   1      46.777  30.283  26.948  1.00  0.00     0.031 C 
ATOM     54  C   UNL A   1      42.371  33.176  29.972  1.00  0.00     0.029 A 
ATOM     55  C   UNL A   1      43.090  32.197  29.303  1.00  0.00     0.049 A 
ATOM     56  H   UNL A   1      42.516  30.224  28.823  1.00  0.00     0.167 HD
ATOM     57  C   UNL A   1      45.073  31.276  28.118  1.00  0.00     0.074 A 
ATOM     58  C   UNL A   1      46.406  31.395  27.565  1.00  0.00     0.031 C 
ATOM     59  C   UNL A   1      44.421  32.281  28.755  1.00  0.00     0.037 A 
BRANCH  46  60
ATOM     60  C   UNL A   1      38.709  30.856  30.638  1.00  0.00     0.064 A 
ATOM     61  C   UNL A   1      37.607  31.316  29.901  1.00  0.00     0.173 A 
ATOM     62  C   UNL A   1      38.578  30.782  32.034  1.00  0.00     0.173 A 
ATOM     63  F   UNL A   1      37.686  31.426  28.566  1.00  0.00    -0.203 F 
ATOM     64  C   UNL A   1      36.429  31.698  30.537  1.00  0.00     0.198 A 
ATOM     65  C   UNL A   1      37.388  31.135  32.663  1.00  0.00     0.198 A 
ATOM     66  F   UNL A   1      39.603  30.353  32.786  1.00  0.00    -0.203 F 
ATOM     67  F   UNL A   1      35.404  32.174  29.817  1.00  0.00    -0.200 F 
ATOM     68  C   UNL A   1      36.317  31.598  31.916  1.00  0.00     0.200 A 
ATOM     69  F   UNL A   1      37.279  31.026  33.995  1.00  0.00    -0.200 F 
ATOM     70  F   UNL A   1      35.177  31.951  32.526  1.00  0.00    -0.200 F 
ENDBRANCH  46  60
BRANCH  47  71
ATOM     71  C   UNL A   1      46.953  27.515  25.984  1.00  0.00     0.064 A 
ATOM     72  C   UNL A   1      48.048  26.982  26.677  1.00  0.00     0.173 A 
ATOM     73  C   UNL A   1      47.053  27.617  24.588  1.00  0.00     0.173 A 
ATOM     74  F   UNL A   1      48.008  26.879  28.014  1.00  0.00    -0.203 F 
ATOM     75  C   UNL A   1      49.207  26.597  26.006  1.00  0.00     0.198 A 
ATOM     76  C   UNL A   1      48.199  27.201  23.914  1.00  0.00     0.198 A 
ATOM     77  F   UNL A   1      46.033  28.117  23.875  1.00  0.00    -0.203 F 
ATOM     78  F   UNL A   1      50.261  26.147  26.700  1.00  0.00    -0.200 F 
ATOM     79  C   UNL A   1      49.280  26.704  24.625  1.00  0.00     0.200 A 
ATOM     80  F   UNL A   1      48.257  27.290  22.579  1.00  0.00    -0.200 F 
ATOM     81  F   UNL A   1      50.396  26.336  23.981  1.00  0.00    -0.200 F 
ENDBRANCH  47  71
BRANCH  59  82
ATOM     82  C   UNL A   1      45.160  33.575  28.934  1.00  0.00     0.064 A 
ATOM     83  C   UNL A   1      45.065  34.617  28.000  1.00  0.00     0.173 A 
ATOM     84  C   UNL A   1      45.942  33.789  30.081  1.00  0.00     0.173 A 
ATOM     85  F   UNL A   1      44.341  34.458  26.882  1.00  0.00    -0.203 F 
ATOM     86  C   UNL A   1      45.752  35.812  28.191  1.00  0.00     0.198 A 
ATOM     87  C   UNL A   1      46.595  35.000  30.287  1.00  0.00     0.198 A 
ATOM     88  F   UNL A   1      46.057  32.829  31.011  1.00  0.00    -0.203 F 
ATOM     89  F   UNL A   1      45.692  36.772  27.258  1.00  0.00    -0.200 F 
ATOM     90  C   UNL A   1      46.508  36.006  29.337  1.00  0.00     0.200 A 
ATOM     91  F   UNL A   1      47.310  35.192  31.404  1.00  0.00    -0.200 F 
ATOM     92  F   UNL A   1      47.160  37.162  29.524  1.00  0.00    -0.200 F 
ENDBRANCH  59  82
ENDBRANCH  33  34
ENDBRANCH  26  28
ENDBRANCH  25  26
ENDBRANCH  24  25
ENDBRANCH  23  24
ENDBRANCH  22  23
ENDBRANCH   1  22
TORSDOF 18
ENDMDL
