MODEL 1
REMARK VINA RESULT:     -13.0      0.000      0.000
REMARK SMILES Cc1ccccc1OC1(C(=O)OCCOCCOC(=O)c2ccc(-c3c4nc(c(-c5c(F)c(F)c(F)c(F)c5F)c5ccc([nH]5)c(-c5c(F)c(F)c(F)c(F)c5F)c5nc(c(-c6c(F)c(F)c(F)c(F)c6F)c6ccc3[nH]6)C=C5)C=C4)cc2)CCN(c2ncc(C#N)c(N)n2)CC1
REMARK SMILES IDX 15 1 14 2 13 3 12 4 10 5 11 6 9 7 84 8 97 9 85 10 96 11
REMARK SMILES IDX 86 12 8 13 7 14 1 15 2 16 3 17 4 18 6 19 5 20 87 21 88 22
REMARK SMILES IDX 95 23 89 24 93 25 90 26 94 27 91 30 92 31 16 32 17 33 18 34
REMARK SMILES IDX 19 35 20 36 21 37 22 38 83 39 23 40 82 41 24 42 25 43 26 44
REMARK SMILES IDX 76 45 27 46 81 47 75 48 77 49 28 50 80 51 74 52 73 53 29 55
REMARK SMILES IDX 61 56 41 57 60 58 42 59 45 60 59 61 78 62 43 63 44 64 58 66
REMARK SMILES IDX 79 67 46 68 30 69 31 70 39 71 32 72 33 73 37 74 40 75 34 76
REMARK SMILES IDX 35 77 38 78 36 79 62 80 63 81 71 82 64 83 65 84 69 85 72 86
REMARK SMILES IDX 66 87 67 88 70 89 68 90 47 91 48 92 56 93 49 94 50 95 54 96
REMARK SMILES IDX 57 97 51 98 52 99 55 100 53 101
REMARK H PARENT 94 28 94 29 77 54 45 65
REMARK Flexibility Score: inf
ROOT
ATOM      1  O   UNL A   1      38.199  20.523  24.995  1.00  0.00    -0.374 OA
ENDROOT
BRANCH   1   2
ATOM      2  C   UNL A   1      36.864  20.076  25.000  1.00  0.00     0.202 C 
BRANCH   2   3
ATOM      3  C   UNL A   1      36.052  21.261  25.396  1.00  0.00     0.261 C 
BRANCH   3   4
ATOM      4  O   UNL A   1      34.657  21.202  25.014  1.00  0.00    -0.460 OA
BRANCH   4   5
ATOM      5  C   UNL A   1      33.590  21.165  25.891  1.00  0.00     0.350 C 
ATOM      6  O   UNL A   1      33.651  21.082  27.107  1.00  0.00    -0.247 OA
BRANCH   5   7
ATOM      7  C   UNL A   1      32.293  21.178  25.028  1.00  0.00     0.209 C 
ATOM      8  C   UNL A   1      31.354  22.027  25.889  1.00  0.00     0.082 C 
ATOM      9  C   UNL A   1      32.816  21.655  23.670  1.00  0.00     0.082 C 
ATOM     10  C   UNL A   1      31.215  23.486  25.491  1.00  0.00     0.124 C 
ATOM     11  C   UNL A   1      32.303  22.988  23.193  1.00  0.00     0.124 C 
ATOM     12  N   UNL A   1      31.870  23.883  24.252  1.00  0.00    -0.340 N 
BRANCH   7  13
ATOM     13  O   UNL A   1      31.779  19.839  24.930  1.00  0.00    -0.475 OA
BRANCH  13  14
ATOM     14  C   UNL A   1      32.440  18.713  24.506  1.00  0.00     0.123 A 
ATOM     15  C   UNL A   1      32.260  18.639  21.892  1.00  0.00     0.048 C 
ATOM     16  C   UNL A   1      32.698  18.166  23.234  1.00  0.00    -0.009 A 
ATOM     17  C   UNL A   1      33.442  16.965  23.127  1.00  0.00     0.007 A 
ATOM     18  C   UNL A   1      33.906  16.284  24.238  1.00  0.00     0.001 A 
ATOM     19  C   UNL A   1      32.917  17.993  25.619  1.00  0.00     0.047 A 
ATOM     20  C   UNL A   1      33.632  16.796  25.494  1.00  0.00     0.004 A 
ENDBRANCH  13  14
ENDBRANCH   7  13
BRANCH  12  21
ATOM     21  C   UNL A   1      31.269  25.049  23.764  1.00  0.00     0.227 A 
ATOM     22  N   UNL A   1      32.059  26.014  23.283  1.00  0.00    -0.220 NA
ATOM     23  N   UNL A   1      29.941  25.199  23.923  1.00  0.00    -0.195 NA
ATOM     24  C   UNL A   1      31.453  27.143  22.873  1.00  0.00     0.138 A 
ATOM     25  C   UNL A   1      29.367  26.349  23.548  1.00  0.00     0.147 A 
ATOM     26  C   UNL A   1      30.100  27.364  22.976  1.00  0.00     0.113 A 
BRANCH  25  27
ATOM     27  N   UNL A   1      28.030  26.466  23.877  1.00  0.00    -0.382 N 
ATOM     28  H   UNL A   1      27.358  25.921  23.407  1.00  0.00     0.158 HD
ATOM     29  H   UNL A   1      27.749  27.093  24.582  1.00  0.00     0.158 HD
ENDBRANCH  25  27
BRANCH  26  30
ATOM     30  C   UNL A   1      29.516  28.569  22.487  1.00  0.00     0.105 C 
ATOM     31  N   UNL A   1      29.057  29.535  22.055  1.00  0.00    -0.192 NA
ENDBRANCH  26  30
ENDBRANCH  12  21
ENDBRANCH   5   7
ENDBRANCH   4   5
ENDBRANCH   3   4
ENDBRANCH   2   3
ENDBRANCH   1   2
BRANCH   1  32
ATOM     32  C   UNL A   1      38.448  21.778  25.583  1.00  0.00     0.202 C 
BRANCH  32  33
ATOM     33  C   UNL A   1      39.644  21.733  26.537  1.00  0.00     0.261 C 
BRANCH  33  34
ATOM     34  O   UNL A   1      39.787  22.990  27.250  1.00  0.00    -0.460 OA
BRANCH  34  35
ATOM     35  C   UNL A   1      40.743  23.868  26.819  1.00  0.00     0.338 C 
ATOM     36  O   UNL A   1      41.864  23.557  26.455  1.00  0.00    -0.246 OA
BRANCH  35  37
ATOM     37  C   UNL A   1      40.303  25.279  27.057  1.00  0.00     0.060 A 
ATOM     38  C   UNL A   1      40.704  26.326  26.200  1.00  0.00     0.016 A 
ATOM     39  C   UNL A   1      39.801  25.581  28.315  1.00  0.00     0.016 A 
ATOM     40  C   UNL A   1      40.789  27.642  26.686  1.00  0.00     0.010 A 
ATOM     41  C   UNL A   1      40.073  26.824  28.836  1.00  0.00     0.010 A 
ATOM     42  C   UNL A   1      40.592  27.860  28.044  1.00  0.00    -0.014 A 
BRANCH  42  43
ATOM     43  C   UNL A   1      40.845  29.093  28.792  1.00  0.00     0.031 A 
ATOM     44  C   UNL A   1      39.692  30.025  28.861  1.00  0.00     0.074 A 
ATOM     45  C   UNL A   1      41.929  29.249  29.600  1.00  0.00     0.049 A 
ATOM     46  N   UNL A   1      39.747  31.177  29.417  1.00  0.00    -0.248 NA
ATOM     47  C   UNL A   1      38.371  29.768  28.273  1.00  0.00     0.031 C 
ATOM     48  C   UNL A   1      42.084  30.108  30.779  1.00  0.00     0.029 A 
ATOM     49  N   UNL A   1      43.179  28.611  29.559  1.00  0.00    -0.354 N 
ATOM     50  C   UNL A   1      38.463  31.642  29.566  1.00  0.00     0.074 A 
ATOM     51  C   UNL A   1      37.660  30.806  28.720  1.00  0.00     0.031 C 
ATOM     52  C   UNL A   1      43.387  30.197  31.117  1.00  0.00     0.029 A 
ATOM     53  C   UNL A   1      44.142  29.467  30.114  1.00  0.00     0.049 A 
ATOM     54  H   UNL A   1      43.352  27.712  29.198  1.00  0.00     0.167 HD
ATOM     55  C   UNL A   1      38.263  32.611  30.498  1.00  0.00     0.037 A 
ATOM     56  C   UNL A   1      45.194  29.899  29.369  1.00  0.00     0.037 A 
ATOM     57  C   UNL A   1      39.566  33.079  30.993  1.00  0.00     0.049 A 
ATOM     58  C   UNL A   1      44.988  31.374  29.214  1.00  0.00     0.074 A 
ATOM     59  C   UNL A   1      40.272  32.879  32.165  1.00  0.00     0.029 A 
ATOM     60  N   UNL A   1      40.489  33.556  30.059  1.00  0.00    -0.354 N 
ATOM     61  N   UNL A   1      43.796  31.916  29.198  1.00  0.00    -0.248 NA
ATOM     62  C   UNL A   1      46.066  32.348  29.310  1.00  0.00     0.031 C 
ATOM     63  C   UNL A   1      41.648  33.170  31.892  1.00  0.00     0.029 A 
ATOM     64  C   UNL A   1      41.775  33.562  30.565  1.00  0.00     0.049 A 
ATOM     65  H   UNL A   1      40.252  33.853  29.152  1.00  0.00     0.167 HD
ATOM     66  C   UNL A   1      43.925  33.241  29.472  1.00  0.00     0.074 A 
ATOM     67  C   UNL A   1      45.361  33.481  29.468  1.00  0.00     0.031 C 
ATOM     68  C   UNL A   1      42.880  34.069  29.754  1.00  0.00     0.037 A 
BRANCH  55  69
ATOM     69  C   UNL A   1      36.936  33.045  31.083  1.00  0.00     0.064 A 
ATOM     70  C   UNL A   1      36.035  33.780  30.282  1.00  0.00     0.173 A 
ATOM     71  C   UNL A   1      36.509  32.855  32.415  1.00  0.00     0.173 A 
ATOM     72  F   UNL A   1      36.309  34.046  28.997  1.00  0.00    -0.203 F 
ATOM     73  C   UNL A   1      34.822  34.281  30.770  1.00  0.00     0.198 A 
ATOM     74  C   UNL A   1      35.276  33.320  32.892  1.00  0.00     0.198 A 
ATOM     75  F   UNL A   1      37.270  32.258  33.336  1.00  0.00    -0.203 F 
ATOM     76  F   UNL A   1      34.032  35.005  29.967  1.00  0.00    -0.200 F 
ATOM     77  C   UNL A   1      34.437  34.041  32.072  1.00  0.00     0.200 A 
ATOM     78  F   UNL A   1      34.921  33.077  34.163  1.00  0.00    -0.200 F 
ATOM     79  F   UNL A   1      33.272  34.509  32.537  1.00  0.00    -0.200 F 
ENDBRANCH  55  69
BRANCH  56  80
ATOM     80  C   UNL A   1      45.624  28.858  28.383  1.00  0.00     0.064 A 
ATOM     81  C   UNL A   1      46.253  27.708  28.918  1.00  0.00     0.173 A 
ATOM     82  C   UNL A   1      44.982  28.712  27.146  1.00  0.00     0.173 A 
ATOM     83  F   UNL A   1      46.885  27.780  30.101  1.00  0.00    -0.203 F 
ATOM     84  C   UNL A   1      46.086  26.448  28.339  1.00  0.00     0.198 A 
ATOM     85  C   UNL A   1      44.817  27.444  26.571  1.00  0.00     0.198 A 
ATOM     86  F   UNL A   1      44.371  29.758  26.573  1.00  0.00    -0.203 F 
ATOM     87  F   UNL A   1      46.531  25.350  28.972  1.00  0.00    -0.200 F 
ATOM     88  C   UNL A   1      45.318  26.312  27.197  1.00  0.00     0.200 A 
ATOM     89  F   UNL A   1      44.069  27.301  25.467  1.00  0.00    -0.200 F 
ATOM     90  F   UNL A   1      44.988  25.089  26.753  1.00  0.00    -0.200 F 
ENDBRANCH  56  80
BRANCH  68  91
ATOM     91  C   UNL A   1      42.878  35.492  29.271  1.00  0.00     0.064 A 
ATOM     92  C   UNL A   1      43.369  36.560  30.043  1.00  0.00     0.173 A 
ATOM     93  C   UNL A   1      42.551  35.807  27.933  1.00  0.00     0.173 A 
ATOM     94  F   UNL A   1      43.888  36.376  31.265  1.00  0.00    -0.203 F 
ATOM     95  C   UNL A   1      43.400  37.864  29.562  1.00  0.00     0.198 A 
ATOM     96  C   UNL A   1      42.680  37.095  27.426  1.00  0.00     0.198 A 
ATOM     97  F   UNL A   1      42.137  34.879  27.060  1.00  0.00    -0.203 F 
ATOM     98  F   UNL A   1      43.785  38.854  30.376  1.00  0.00    -0.200 F 
ATOM     99  C   UNL A   1      43.064  38.130  28.252  1.00  0.00     0.200 A 
ATOM    100  F   UNL A   1      42.445  37.320  26.127  1.00  0.00    -0.200 F 
ATOM    101  F   UNL A   1      43.134  39.379  27.779  1.00  0.00    -0.200 F 
ENDBRANCH  68  91
ENDBRANCH  42  43
ENDBRANCH  35  37
ENDBRANCH  34  35
ENDBRANCH  33  34
ENDBRANCH  32  33
ENDBRANCH   1  32
TORSDOF 19
ENDMDL
MODEL 2
REMARK VINA RESULT:     -12.7      3.792      9.929
REMARK SMILES Cc1ccccc1OC1(C(=O)OCCOCCOC(=O)c2ccc(-c3c4nc(c(-c5c(F)c(F)c(F)c(F)c5F)c5ccc([nH]5)c(-c5c(F)c(F)c(F)c(F)c5F)c5nc(c(-c6c(F)c(F)c(F)c(F)c6F)c6ccc3[nH]6)C=C5)C=C4)cc2)CCN(c2ncc(C#N)c(N)n2)CC1
REMARK SMILES IDX 15 1 14 2 13 3 12 4 10 5 11 6 9 7 84 8 97 9 85 10 96 11
REMARK SMILES IDX 86 12 8 13 7 14 1 15 2 16 3 17 4 18 6 19 5 20 87 21 88 22
REMARK SMILES IDX 95 23 89 24 93 25 90 26 94 27 91 30 92 31 16 32 17 33 18 34
REMARK SMILES IDX 19 35 20 36 21 37 22 38 83 39 23 40 82 41 24 42 25 43 26 44
REMARK SMILES IDX 76 45 27 46 81 47 75 48 77 49 28 50 80 51 74 52 73 53 29 55
REMARK SMILES IDX 61 56 41 57 60 58 42 59 45 60 59 61 78 62 43 63 44 64 58 66
REMARK SMILES IDX 79 67 46 68 30 69 31 70 39 71 32 72 33 73 37 74 40 75 34 76
REMARK SMILES IDX 35 77 38 78 36 79 62 80 63 81 71 82 64 83 65 84 69 85 72 86
REMARK SMILES IDX 66 87 67 88 70 89 68 90 47 91 48 92 56 93 49 94 50 95 54 96
REMARK SMILES IDX 57 97 51 98 52 99 55 100 53 101
REMARK H PARENT 94 28 94 29 77 54 45 65
REMARK Flexibility Score: inf
ROOT
ATOM      1  O   UNL A   1      32.130  28.966  27.216  1.00  0.00    -0.374 OA
ENDROOT
BRANCH   1   2
ATOM      2  C   UNL A   1      31.461  27.848  26.684  1.00  0.00     0.202 C 
BRANCH   2   3
ATOM      3  C   UNL A   1      32.420  26.715  26.816  1.00  0.00     0.261 C 
BRANCH   3   4
ATOM      4  O   UNL A   1      32.285  25.678  25.815  1.00  0.00    -0.460 OA
BRANCH   4   5
ATOM      5  C   UNL A   1      33.249  25.332  24.888  1.00  0.00     0.350 C 
ATOM      6  O   UNL A   1      34.401  25.733  24.853  1.00  0.00    -0.247 OA
BRANCH   5   7
ATOM      7  C   UNL A   1      32.567  24.388  23.854  1.00  0.00     0.209 C 
ATOM      8  C   UNL A   1      33.774  23.679  23.235  1.00  0.00     0.082 C 
ATOM      9  C   UNL A   1      31.539  23.653  24.719  1.00  0.00     0.082 C 
ATOM     10  C   UNL A   1      34.085  22.293  23.771  1.00  0.00     0.124 C 
ATOM     11  C   UNL A   1      31.746  22.170  24.879  1.00  0.00     0.124 C 
ATOM     12  N   UNL A   1      33.119  21.730  24.704  1.00  0.00    -0.340 N 
BRANCH   7  13
ATOM     13  O   UNL A   1      31.909  25.183  22.853  1.00  0.00    -0.475 OA
BRANCH  13  14
ATOM     14  C   UNL A   1      31.532  26.500  22.939  1.00  0.00     0.123 A 
ATOM     15  C   UNL A   1      33.647  27.957  22.414  1.00  0.00     0.048 C 
ATOM     16  C   UNL A   1      32.214  27.716  22.740  1.00  0.00    -0.009 A 
ATOM     17  C   UNL A   1      31.520  28.942  22.894  1.00  0.00     0.007 A 
ATOM     18  C   UNL A   1      30.188  28.992  23.266  1.00  0.00     0.001 A 
ATOM     19  C   UNL A   1      30.179  26.583  23.324  1.00  0.00     0.047 A 
ATOM     20  C   UNL A   1      29.516  27.805  23.493  1.00  0.00     0.004 A 
ENDBRANCH  13  14
ENDBRANCH   7  13
BRANCH  12  21
ATOM     21  C   UNL A   1      33.246  20.336  24.718  1.00  0.00     0.227 A 
ATOM     22  N   UNL A   1      32.150  19.602  24.934  1.00  0.00    -0.220 NA
ATOM     23  N   UNL A   1      34.482  19.806  24.645  1.00  0.00    -0.195 NA
ATOM     24  C   UNL A   1      32.318  18.268  24.994  1.00  0.00     0.138 A 
ATOM     25  C   UNL A   1      34.628  18.479  24.752  1.00  0.00     0.147 A 
ATOM     26  C   UNL A   1      33.541  17.648  24.902  1.00  0.00     0.113 A 
BRANCH  25  27
ATOM     27  N   UNL A   1      35.937  18.041  24.806  1.00  0.00    -0.382 N 
ATOM     28  H   UNL A   1      36.394  17.751  23.984  1.00  0.00     0.158 HD
ATOM     29  H   UNL A   1      36.414  18.021  25.668  1.00  0.00     0.158 HD
ENDBRANCH  25  27
BRANCH  26  30
ATOM     30  C   UNL A   1      33.645  16.226  24.936  1.00  0.00     0.105 C 
ATOM     31  N   UNL A   1      33.701  15.076  24.993  1.00  0.00    -0.192 NA
ENDBRANCH  26  30
ENDBRANCH  12  21
ENDBRANCH   5   7
ENDBRANCH   4   5
ENDBRANCH   3   4
ENDBRANCH   2   3
ENDBRANCH   1   2
BRANCH   1  32
ATOM     32  C   UNL A   1      32.656  29.888  26.292  1.00  0.00     0.202 C 
BRANCH  32  33
ATOM     33  C   UNL A   1      32.998  31.226  26.953  1.00  0.00     0.261 C 
BRANCH  33  34
ATOM     34  O   UNL A   1      33.846  31.030  28.115  1.00  0.00    -0.460 OA
BRANCH  34  35
ATOM     35  C   UNL A   1      35.151  31.431  28.033  1.00  0.00     0.338 C 
ATOM     36  O   UNL A   1      35.524  32.518  27.624  1.00  0.00    -0.246 OA
BRANCH  35  37
ATOM     37  C   UNL A   1      36.071  30.283  28.310  1.00  0.00     0.060 A 
ATOM     38  C   UNL A   1      36.137  29.688  29.588  1.00  0.00     0.016 A 
ATOM     39  C   UNL A   1      37.093  30.059  27.400  1.00  0.00     0.016 A 
ATOM     40  C   UNL A   1      37.315  29.048  30.008  1.00  0.00     0.010 A 
ATOM     41  C   UNL A   1      38.299  29.611  27.883  1.00  0.00     0.010 A 
ATOM     42  C   UNL A   1      38.437  29.126  29.193  1.00  0.00    -0.014 A 
BRANCH  42  43
ATOM     43  C   UNL A   1      39.806  28.729  29.526  1.00  0.00     0.031 A 
ATOM     44  C   UNL A   1      40.198  27.381  29.044  1.00  0.00     0.074 A 
ATOM     45  C   UNL A   1      40.736  29.617  29.973  1.00  0.00     0.049 A 
ATOM     46  N   UNL A   1      41.331  26.842  29.296  1.00  0.00    -0.248 NA
ATOM     47  C   UNL A   1      39.332  26.487  28.263  1.00  0.00     0.031 C 
ATOM     48  C   UNL A   1      42.197  29.563  29.849  1.00  0.00     0.029 A 
ATOM     49  N   UNL A   1      40.562  30.840  30.641  1.00  0.00    -0.354 N 
ATOM     50  C   UNL A   1      41.479  25.751  28.474  1.00  0.00     0.074 A 
ATOM     51  C   UNL A   1      40.166  25.490  27.958  1.00  0.00     0.031 C 
ATOM     52  C   UNL A   1      42.764  30.468  30.673  1.00  0.00     0.029 A 
ATOM     53  C   UNL A   1      41.692  31.088  31.433  1.00  0.00     0.049 A 
ATOM     54  H   UNL A   1      39.776  31.427  30.565  1.00  0.00     0.167 HD
ATOM     55  C   UNL A   1      42.746  25.305  28.262  1.00  0.00     0.037 A 
ATOM     56  C   UNL A   1      41.577  31.211  32.782  1.00  0.00     0.037 A 
ATOM     57  C   UNL A   1      43.662  26.013  29.170  1.00  0.00     0.049 A 
ATOM     58  C   UNL A   1      42.302  30.031  33.350  1.00  0.00     0.074 A 
ATOM     59  C   UNL A   1      44.587  27.026  28.996  1.00  0.00     0.029 A 
ATOM     60  N   UNL A   1      43.401  25.954  30.541  1.00  0.00    -0.354 N 
ATOM     61  N   UNL A   1      42.385  28.889  32.714  1.00  0.00    -0.248 NA
ATOM     62  C   UNL A   1      43.169  30.109  34.518  1.00  0.00     0.031 C 
ATOM     63  C   UNL A   1      44.816  27.622  30.278  1.00  0.00     0.029 A 
ATOM     64  C   UNL A   1      44.045  26.965  31.229  1.00  0.00     0.049 A 
ATOM     65  H   UNL A   1      42.830  25.275  30.965  1.00  0.00     0.167 HD
ATOM     66  C   UNL A   1      43.418  28.181  33.242  1.00  0.00     0.074 A 
ATOM     67  C   UNL A   1      43.836  28.948  34.407  1.00  0.00     0.031 C 
ATOM     68  C   UNL A   1      43.933  27.049  32.684  1.00  0.00     0.037 A 
BRANCH  55  69
ATOM     69  C   UNL A   1      43.204  24.365  27.169  1.00  0.00     0.064 A 
ATOM     70  C   UNL A   1      42.732  23.034  27.159  1.00  0.00     0.173 A 
ATOM     71  C   UNL A   1      44.147  24.655  26.158  1.00  0.00     0.173 A 
ATOM     72  F   UNL A   1      41.840  22.609  28.065  1.00  0.00    -0.203 F 
ATOM     73  C   UNL A   1      43.166  22.084  26.228  1.00  0.00     0.198 A 
ATOM     74  C   UNL A   1      44.548  23.715  25.201  1.00  0.00     0.198 A 
ATOM     75  F   UNL A   1      44.763  25.837  26.068  1.00  0.00    -0.203 F 
ATOM     76  F   UNL A   1      42.708  20.826  26.300  1.00  0.00    -0.200 F 
ATOM     77  C   UNL A   1      44.064  22.427  25.240  1.00  0.00     0.200 A 
ATOM     78  F   UNL A   1      45.425  24.071  24.249  1.00  0.00    -0.200 F 
ATOM     79  F   UNL A   1      44.472  21.521  24.341  1.00  0.00    -0.200 F 
ENDBRANCH  55  69
BRANCH  56  80
ATOM     80  C   UNL A   1      40.269  31.835  33.159  1.00  0.00     0.064 A 
ATOM     81  C   UNL A   1      40.102  33.199  32.817  1.00  0.00     0.173 A 
ATOM     82  C   UNL A   1      39.104  31.068  33.294  1.00  0.00     0.173 A 
ATOM     83  F   UNL A   1      41.179  33.988  32.670  1.00  0.00    -0.203 F 
ATOM     84  C   UNL A   1      38.856  33.713  32.449  1.00  0.00     0.198 A 
ATOM     85  C   UNL A   1      37.857  31.590  32.923  1.00  0.00     0.198 A 
ATOM     86  F   UNL A   1      39.182  29.772  33.624  1.00  0.00    -0.203 F 
ATOM     87  F   UNL A   1      38.760  34.953  31.946  1.00  0.00    -0.200 F 
ATOM     88  C   UNL A   1      37.745  32.888  32.448  1.00  0.00     0.200 A 
ATOM     89  F   UNL A   1      36.775  30.797  32.912  1.00  0.00    -0.200 F 
ATOM     90  F   UNL A   1      36.594  33.317  31.908  1.00  0.00    -0.200 F 
ENDBRANCH  56  80
BRANCH  68  91
ATOM     91  C   UNL A   1      44.412  25.918  33.550  1.00  0.00     0.064 A 
ATOM     92  C   UNL A   1      43.548  25.160  34.362  1.00  0.00     0.173 A 
ATOM     93  C   UNL A   1      45.735  25.434  33.452  1.00  0.00     0.173 A 
ATOM     94  F   UNL A   1      42.228  25.390  34.406  1.00  0.00    -0.203 F 
ATOM     95  C   UNL A   1      44.002  24.089  35.122  1.00  0.00     0.198 A 
ATOM     96  C   UNL A   1      46.160  24.301  34.136  1.00  0.00     0.198 A 
ATOM     97  F   UNL A   1      46.651  26.012  32.662  1.00  0.00    -0.203 F 
ATOM     98  F   UNL A   1      43.155  23.466  35.951  1.00  0.00    -0.200 F 
ATOM     99  C   UNL A   1      45.305  23.654  35.002  1.00  0.00     0.200 A 
ATOM    100  F   UNL A   1      47.399  23.833  33.934  1.00  0.00    -0.200 F 
ATOM    101  F   UNL A   1      45.730  22.598  35.704  1.00  0.00    -0.200 F 
ENDBRANCH  68  91
ENDBRANCH  42  43
ENDBRANCH  35  37
ENDBRANCH  34  35
ENDBRANCH  33  34
ENDBRANCH  32  33
ENDBRANCH   1  32
TORSDOF 19
ENDMDL
MODEL 3
REMARK VINA RESULT:     -12.7      2.138      4.908
REMARK SMILES Cc1ccccc1OC1(C(=O)OCCOCCOC(=O)c2ccc(-c3c4nc(c(-c5c(F)c(F)c(F)c(F)c5F)c5ccc([nH]5)c(-c5c(F)c(F)c(F)c(F)c5F)c5nc(c(-c6c(F)c(F)c(F)c(F)c6F)c6ccc3[nH]6)C=C5)C=C4)cc2)CCN(c2ncc(C#N)c(N)n2)CC1
REMARK SMILES IDX 15 1 14 2 13 3 12 4 10 5 11 6 9 7 84 8 97 9 85 10 96 11
REMARK SMILES IDX 86 12 8 13 7 14 1 15 2 16 3 17 4 18 6 19 5 20 87 21 88 22
REMARK SMILES IDX 95 23 89 24 93 25 90 26 94 27 91 30 92 31 16 32 17 33 18 34
REMARK SMILES IDX 19 35 20 36 21 37 22 38 83 39 23 40 82 41 24 42 25 43 26 44
REMARK SMILES IDX 76 45 27 46 81 47 75 48 77 49 28 50 80 51 74 52 73 53 29 55
REMARK SMILES IDX 61 56 41 57 60 58 42 59 45 60 59 61 78 62 43 63 44 64 58 66
REMARK SMILES IDX 79 67 46 68 30 69 31 70 39 71 32 72 33 73 37 74 40 75 34 76
REMARK SMILES IDX 35 77 38 78 36 79 62 80 63 81 71 82 64 83 65 84 69 85 72 86
REMARK SMILES IDX 66 87 67 88 70 89 68 90 47 91 48 92 56 93 49 94 50 95 54 96
REMARK SMILES IDX 57 97 51 98 52 99 55 100 53 101
REMARK H PARENT 94 28 94 29 77 54 45 65
REMARK Flexibility Score: inf
ROOT
ATOM      1  O   UNL A   1      36.473  21.979  25.312  1.00  0.00    -0.374 OA
ENDROOT
BRANCH   1   2
ATOM      2  C   UNL A   1      36.209  22.982  24.361  1.00  0.00     0.202 C 
BRANCH   2   3
ATOM      3  C   UNL A   1      35.805  24.179  25.150  1.00  0.00     0.261 C 
BRANCH   3   4
ATOM      4  O   UNL A   1      34.435  24.607  24.957  1.00  0.00    -0.460 OA
BRANCH   4   5
ATOM      5  C   UNL A   1      33.713  24.471  23.788  1.00  0.00     0.350 C 
ATOM      6  O   UNL A   1      33.988  24.958  22.703  1.00  0.00    -0.247 OA
BRANCH   5   7
ATOM      7  C   UNL A   1      32.444  23.637  24.133  1.00  0.00     0.209 C 
ATOM      8  C   UNL A   1      32.354  22.693  22.931  1.00  0.00     0.082 C 
ATOM      9  C   UNL A   1      32.762  23.138  25.545  1.00  0.00     0.082 C 
ATOM     10  C   UNL A   1      32.904  21.292  23.136  1.00  0.00     0.124 C 
ATOM     11  C   UNL A   1      32.921  21.648  25.702  1.00  0.00     0.124 C 
ATOM     12  N   UNL A   1      33.317  20.952  24.491  1.00  0.00    -0.340 N 
BRANCH   7  13
ATOM     13  O   UNL A   1      31.300  24.507  24.149  1.00  0.00    -0.475 OA
BRANCH  13  14
ATOM     14  C   UNL A   1      31.286  25.878  24.183  1.00  0.00     0.123 A 
ATOM     15  C   UNL A   1      31.849  26.607  26.638  1.00  0.00     0.048 C 
ATOM     16  C   UNL A   1      31.534  26.823  25.198  1.00  0.00    -0.009 A 
ATOM     17  C   UNL A   1      31.451  28.206  24.903  1.00  0.00     0.007 A 
ATOM     18  C   UNL A   1      31.103  28.672  23.647  1.00  0.00     0.001 A 
ATOM     19  C   UNL A   1      30.925  26.382  22.918  1.00  0.00     0.047 A 
ATOM     20  C   UNL A   1      30.828  27.753  22.650  1.00  0.00     0.004 A 
ENDBRANCH  13  14
ENDBRANCH   7  13
BRANCH  12  21
ATOM     21  C   UNL A   1      33.315  19.561  24.640  1.00  0.00     0.227 A 
ATOM     22  N   UNL A   1      32.153  18.954  24.900  1.00  0.00    -0.220 NA
ATOM     23  N   UNL A   1      34.497  18.917  24.645  1.00  0.00    -0.195 NA
ATOM     24  C   UNL A   1      32.195  17.623  25.091  1.00  0.00     0.138 A 
ATOM     25  C   UNL A   1      34.518  17.598  24.882  1.00  0.00     0.147 A 
ATOM     26  C   UNL A   1      33.357  16.887  25.085  1.00  0.00     0.113 A 
BRANCH  25  27
ATOM     27  N   UNL A   1      35.780  17.051  25.006  1.00  0.00    -0.382 N 
ATOM     28  H   UNL A   1      36.546  17.625  25.236  1.00  0.00     0.158 HD
ATOM     29  H   UNL A   1      35.914  16.085  24.865  1.00  0.00     0.158 HD
ENDBRANCH  25  27
BRANCH  26  30
ATOM     30  C   UNL A   1      33.328  15.473  25.257  1.00  0.00     0.105 C 
ATOM     31  N   UNL A   1      33.270  14.327  25.377  1.00  0.00    -0.192 NA
ENDBRANCH  26  30
ENDBRANCH  12  21
ENDBRANCH   5   7
ENDBRANCH   4   5
ENDBRANCH   3   4
ENDBRANCH   2   3
ENDBRANCH   1   2
BRANCH   1  32
ATOM     32  C   UNL A   1      37.343  20.945  24.917  1.00  0.00     0.202 C 
BRANCH  32  33
ATOM     33  C   UNL A   1      38.642  20.952  25.728  1.00  0.00     0.261 C 
BRANCH  33  34
ATOM     34  O   UNL A   1      39.272  22.260  25.688  1.00  0.00    -0.460 OA
BRANCH  34  35
ATOM     35  C   UNL A   1      39.880  22.715  26.825  1.00  0.00     0.338 C 
ATOM     36  O   UNL A   1      40.377  22.006  27.684  1.00  0.00    -0.246 OA
BRANCH  35  37
ATOM     37  C   UNL A   1      39.664  24.189  26.980  1.00  0.00     0.060 A 
ATOM     38  C   UNL A   1      40.338  25.119  26.160  1.00  0.00     0.016 A 
ATOM     39  C   UNL A   1      39.076  24.620  28.160  1.00  0.00     0.016 A 
ATOM     40  C   UNL A   1      40.589  26.419  26.628  1.00  0.00     0.010 A 
ATOM     41  C   UNL A   1      39.493  25.819  28.687  1.00  0.00     0.010 A 
ATOM     42  C   UNL A   1      40.273  26.721  27.947  1.00  0.00    -0.014 A 
BRANCH  42  43
ATOM     43  C   UNL A   1      40.643  27.923  28.697  1.00  0.00     0.031 A 
ATOM     44  C   UNL A   1      39.627  29.005  28.677  1.00  0.00     0.074 A 
ATOM     45  C   UNL A   1      41.682  27.945  29.576  1.00  0.00     0.049 A 
ATOM     46  N   UNL A   1      39.804  30.149  29.222  1.00  0.00    -0.248 NA
ATOM     47  C   UNL A   1      38.326  28.919  28.001  1.00  0.00     0.031 C 
ATOM     48  C   UNL A   1      41.875  28.799  30.754  1.00  0.00     0.029 A 
ATOM     49  N   UNL A   1      42.832  27.141  29.628  1.00  0.00    -0.354 N 
ATOM     50  C   UNL A   1      38.590  30.790  29.277  1.00  0.00     0.074 A 
ATOM     51  C   UNL A   1      37.737  30.054  28.387  1.00  0.00     0.031 C 
ATOM     52  C   UNL A   1      43.152  28.715  31.180  1.00  0.00     0.029 A 
ATOM     53  C   UNL A   1      43.864  27.868  30.239  1.00  0.00     0.049 A 
ATOM     54  H   UNL A   1      42.903  26.220  29.290  1.00  0.00     0.167 HD
ATOM     55  C   UNL A   1      38.463  31.795  30.183  1.00  0.00     0.037 A 
ATOM     56  C   UNL A   1      45.013  28.137  29.564  1.00  0.00     0.037 A 
ATOM     57  C   UNL A   1      39.783  32.090  30.761  1.00  0.00     0.049 A 
ATOM     58  C   UNL A   1      45.024  29.622  29.379  1.00  0.00     0.074 A 
ATOM     59  C   UNL A   1      40.374  31.819  31.981  1.00  0.00     0.029 A 
ATOM     60  N   UNL A   1      40.823  32.417  29.888  1.00  0.00    -0.354 N 
ATOM     61  N   UNL A   1      43.922  30.322  29.275  1.00  0.00    -0.248 NA
ATOM     62  C   UNL A   1      46.218  30.442  29.538  1.00  0.00     0.031 C 
ATOM     63  C   UNL A   1      41.792  31.913  31.801  1.00  0.00     0.029 A 
ATOM     64  C   UNL A   1      42.061  32.257  30.481  1.00  0.00     0.049 A 
ATOM     65  H   UNL A   1      40.690  32.725  28.964  1.00  0.00     0.167 HD
ATOM     66  C   UNL A   1      44.214  31.622  29.543  1.00  0.00     0.074 A 
ATOM     67  C   UNL A   1      45.667  31.663  29.635  1.00  0.00     0.031 C 
ATOM     68  C   UNL A   1      43.277  32.591  29.743  1.00  0.00     0.037 A 
BRANCH  55  69
ATOM     69  C   UNL A   1      37.173  32.418  30.670  1.00  0.00     0.064 A 
ATOM     70  C   UNL A   1      36.465  33.296  29.819  1.00  0.00     0.173 A 
ATOM     71  C   UNL A   1      36.611  32.276  31.958  1.00  0.00     0.173 A 
ATOM     72  F   UNL A   1      36.884  33.536  28.569  1.00  0.00    -0.203 F 
ATOM     73  C   UNL A   1      35.306  33.969  30.222  1.00  0.00     0.198 A 
ATOM     74  C   UNL A   1      35.428  32.917  32.346  1.00  0.00     0.198 A 
ATOM     75  F   UNL A   1      37.192  31.555  32.920  1.00  0.00    -0.203 F 
ATOM     76  F   UNL A   1      34.705  34.819  29.378  1.00  0.00    -0.200 F 
ATOM     77  C   UNL A   1      34.779  33.771  31.481  1.00  0.00     0.200 A 
ATOM     78  F   UNL A   1      34.934  32.712  33.577  1.00  0.00    -0.200 F 
ATOM     79  F   UNL A   1      33.664  34.406  31.863  1.00  0.00    -0.200 F 
ENDBRANCH  55  69
BRANCH  56  80
ATOM     80  C   UNL A   1      45.360  27.027  28.621  1.00  0.00     0.064 A 
ATOM     81  C   UNL A   1      45.079  27.255  27.252  1.00  0.00     0.173 A 
ATOM     82  C   UNL A   1      46.376  26.107  28.915  1.00  0.00     0.173 A 
ATOM     83  F   UNL A   1      44.119  28.126  26.902  1.00  0.00    -0.203 F 
ATOM     84  C   UNL A   1      45.893  26.735  26.243  1.00  0.00     0.198 A 
ATOM     85  C   UNL A   1      47.189  25.589  27.898  1.00  0.00     0.198 A 
ATOM     86  F   UNL A   1      46.692  25.833  30.188  1.00  0.00    -0.203 F 
ATOM     87  F   UNL A   1      45.720  27.123  24.969  1.00  0.00    -0.200 F 
ATOM     88  C   UNL A   1      46.982  25.949  26.574  1.00  0.00     0.200 A 
ATOM     89  F   UNL A   1      48.251  24.832  28.209  1.00  0.00    -0.200 F 
ATOM     90  F   UNL A   1      47.879  25.616  25.632  1.00  0.00    -0.200 F 
ENDBRANCH  56  80
BRANCH  68  91
ATOM     91  C   UNL A   1      43.504  33.991  29.245  1.00  0.00     0.064 A 
ATOM     92  C   UNL A   1      43.581  34.311  27.878  1.00  0.00     0.173 A 
ATOM     93  C   UNL A   1      43.467  35.093  30.128  1.00  0.00     0.173 A 
ATOM     94  F   UNL A   1      43.442  33.383  26.920  1.00  0.00    -0.203 F 
ATOM     95  C   UNL A   1      43.747  35.618  27.435  1.00  0.00     0.198 A 
ATOM     96  C   UNL A   1      43.531  36.405  29.673  1.00  0.00     0.198 A 
ATOM     97  F   UNL A   1      43.325  34.945  31.452  1.00  0.00    -0.203 F 
ATOM     98  F   UNL A   1      43.913  35.852  26.127  1.00  0.00    -0.200 F 
ATOM     99  C   UNL A   1      43.713  36.665  28.331  1.00  0.00     0.200 A 
ATOM    100  F   UNL A   1      43.397  37.414  30.544  1.00  0.00    -0.200 F 
ATOM    101  F   UNL A   1      43.832  37.925  27.899  1.00  0.00    -0.200 F 
ENDBRANCH  68  91
ENDBRANCH  42  43
ENDBRANCH  35  37
ENDBRANCH  34  35
ENDBRANCH  33  34
ENDBRANCH  32  33
ENDBRANCH   1  32
TORSDOF 19
ENDMDL
