MODEL 1
REMARK VINA RESULT:     -10.7      0.000      0.000
REMARK SMILES CC[C@H]1CCCCN1S(=O)(=O)CC(=O)OCCOCCOC(=O)c1ccc(-c2c3nc(c(-c4c(F)c(F)c(F)c(F)c4F)c4ccc([nH]4)c(-c4c(F)c(F)c(F)c(F)c4F)c4nc(c(-c5c(F)c(F)c(F)c(F)c5F)c5ccc2[nH]5)C=C4)C=C3)cc1
REMARK SMILES IDX 17 1 16 2 15 3 13 4 14 5 12 6 9 7 10 8 11 9 8 10 3 11 4 12
REMARK SMILES IDX 5 13 7 14 6 15 2 16 1 17 18 18 19 19 20 20 21 21 22 22 23 23
REMARK SMILES IDX 24 24 25 25 86 26 26 27 85 28 27 29 28 30 29 31 79 32 30 33
REMARK SMILES IDX 84 34 78 35 80 36 31 37 83 38 77 39 76 40 32 42 64 43 44 44
REMARK SMILES IDX 63 45 45 46 48 47 62 48 81 49 46 50 47 51 61 53 82 54 49 55
REMARK SMILES IDX 33 56 34 57 42 58 35 59 36 60 40 61 43 62 37 63 38 64 41 65
REMARK SMILES IDX 39 66 65 67 66 68 74 69 67 70 68 71 72 72 75 73 69 74 70 75
REMARK SMILES IDX 73 76 71 77 50 78 51 79 59 80 52 81 53 82 57 83 60 84 54 85
REMARK SMILES IDX 55 86 58 87 56 88
REMARK H PARENT 80 41 48 52
REMARK Flexibility Score: inf
ROOT
ATOM      1  C   UNL A   1      35.263  21.820  24.442  1.00  0.00     0.202 C 
ENDROOT
BRANCH   1   2
ATOM      2  C   UNL A   1      33.811  21.366  24.258  1.00  0.00     0.261 C 
BRANCH   2   3
ATOM      3  O   UNL A   1      32.884  22.435  23.977  1.00  0.00    -0.462 OA
BRANCH   3   4
ATOM      4  C   UNL A   1      31.776  22.456  24.749  1.00  0.00     0.322 C 
ATOM      5  O   UNL A   1      31.390  21.492  25.411  1.00  0.00    -0.251 OA
BRANCH   4   6
ATOM      6  C   UNL A   1      30.945  23.679  24.716  1.00  0.00     0.276 C 
BRANCH   6   7
ATOM      7  S   UNL A   1      31.324  25.059  25.741  1.00  0.00     0.225 S 
ATOM      8  O   UNL A   1      32.506  24.643  26.477  1.00  0.00    -0.212 OA
ATOM      9  O   UNL A   1      30.151  25.485  26.471  1.00  0.00    -0.212 OA
BRANCH   7  10
ATOM     10  N   UNL A   1      31.825  26.364  24.748  1.00  0.00    -0.198 NA
ATOM     11  C   UNL A   1      31.460  27.737  25.336  1.00  0.00     0.072 C 
ATOM     12  C   UNL A   1      31.640  28.798  24.240  1.00  0.00     0.020 C 
ATOM     13  C   UNL A   1      33.061  28.819  23.694  1.00  0.00     0.003 C 
ATOM     14  C   UNL A   1      33.231  26.335  24.247  1.00  0.00     0.102 C 
ATOM     15  C   UNL A   1      33.469  27.434  23.209  1.00  0.00     0.017 C 
BRANCH  11  16
ATOM     16  C   UNL A   1      32.243  28.067  26.633  1.00  0.00     0.017 C 
ATOM     17  C   UNL A   1      31.932  29.424  27.251  1.00  0.00     0.005 C 
ENDBRANCH  11  16
ENDBRANCH   7  10
ENDBRANCH   6   7
ENDBRANCH   4   6
ENDBRANCH   3   4
ENDBRANCH   2   3
ENDBRANCH   1   2
BRANCH   1  18
ATOM     18  O   UNL A   1      36.030  21.108  25.408  1.00  0.00    -0.374 OA
BRANCH  18  19
ATOM     19  C   UNL A   1      36.628  19.878  24.998  1.00  0.00     0.202 C 
BRANCH  19  20
ATOM     20  C   UNL A   1      38.156  19.855  24.991  1.00  0.00     0.261 C 
BRANCH  20  21
ATOM     21  O   UNL A   1      38.695  21.102  25.460  1.00  0.00    -0.460 OA
BRANCH  21  22
ATOM     22  C   UNL A   1      39.825  20.951  26.182  1.00  0.00     0.338 C 
ATOM     23  O   UNL A   1      40.610  20.014  26.134  1.00  0.00    -0.246 OA
BRANCH  22  24
ATOM     24  C   UNL A   1      40.126  22.184  26.924  1.00  0.00     0.060 A 
ATOM     25  C   UNL A   1      39.505  23.361  26.491  1.00  0.00     0.016 A 
ATOM     26  C   UNL A   1      41.118  22.220  27.906  1.00  0.00     0.016 A 
ATOM     27  C   UNL A   1      39.933  24.591  26.984  1.00  0.00     0.010 A 
ATOM     28  C   UNL A   1      41.545  23.459  28.402  1.00  0.00     0.010 A 
ATOM     29  C   UNL A   1      40.991  24.652  27.903  1.00  0.00    -0.014 A 
BRANCH  29  30
ATOM     30  C   UNL A   1      41.589  25.977  28.201  1.00  0.00     0.031 A 
ATOM     31  C   UNL A   1      42.953  26.312  27.660  1.00  0.00     0.074 A 
ATOM     32  C   UNL A   1      40.881  26.911  28.862  1.00  0.00     0.049 A 
ATOM     33  N   UNL A   1      43.591  27.456  27.662  1.00  0.00    -0.248 NA
ATOM     34  C   UNL A   1      43.697  25.211  27.028  1.00  0.00     0.031 C 
ATOM     35  C   UNL A   1      39.551  26.712  29.431  1.00  0.00     0.029 A 
ATOM     36  N   UNL A   1      41.180  28.220  29.146  1.00  0.00    -0.354 N 
ATOM     37  C   UNL A   1      44.800  27.217  27.024  1.00  0.00     0.074 A 
ATOM     38  C   UNL A   1      44.828  25.811  26.682  1.00  0.00     0.031 C 
ATOM     39  C   UNL A   1      39.138  27.865  29.986  1.00  0.00     0.029 A 
ATOM     40  C   UNL A   1      40.177  28.879  29.813  1.00  0.00     0.049 A 
ATOM     41  H   UNL A   1      42.032  28.646  28.896  1.00  0.00     0.167 HD
ATOM     42  C   UNL A   1      45.792  28.093  26.731  1.00  0.00     0.037 A 
ATOM     43  C   UNL A   1      40.101  30.159  30.224  1.00  0.00     0.037 A 
ATOM     44  C   UNL A   1      45.769  29.491  27.071  1.00  0.00     0.049 A 
ATOM     45  C   UNL A   1      41.223  31.110  29.901  1.00  0.00     0.074 A 
ATOM     46  C   UNL A   1      46.717  30.464  26.801  1.00  0.00     0.029 A 
ATOM     47  N   UNL A   1      44.745  30.115  27.766  1.00  0.00    -0.354 N 
ATOM     48  N   UNL A   1      42.334  30.888  29.242  1.00  0.00    -0.248 NA
ATOM     49  C   UNL A   1      41.068  32.497  30.362  1.00  0.00     0.031 C 
ATOM     50  C   UNL A   1      46.284  31.668  27.367  1.00  0.00     0.029 A 
ATOM     51  C   UNL A   1      45.045  31.456  27.952  1.00  0.00     0.049 A 
ATOM     52  H   UNL A   1      43.925  29.672  28.082  1.00  0.00     0.167 HD
ATOM     53  C   UNL A   1      42.997  32.107  29.187  1.00  0.00     0.074 A 
ATOM     54  C   UNL A   1      42.155  33.071  29.865  1.00  0.00     0.031 C 
ATOM     55  C   UNL A   1      44.196  32.403  28.626  1.00  0.00     0.037 A 
BRANCH  42  56
ATOM     56  C   UNL A   1      46.996  27.558  26.011  1.00  0.00     0.064 A 
ATOM     57  C   UNL A   1      47.084  27.580  24.611  1.00  0.00     0.173 A 
ATOM     58  C   UNL A   1      48.089  27.052  26.730  1.00  0.00     0.173 A 
ATOM     59  F   UNL A   1      46.061  28.045  23.878  1.00  0.00    -0.203 F 
ATOM     60  C   UNL A   1      48.212  27.094  23.957  1.00  0.00     0.198 A 
ATOM     61  C   UNL A   1      49.225  26.589  26.074  1.00  0.00     0.198 A 
ATOM     62  F   UNL A   1      48.057  27.013  28.071  1.00  0.00    -0.203 F 
ATOM     63  F   UNL A   1      48.259  27.089  22.618  1.00  0.00    -0.200 F 
ATOM     64  C   UNL A   1      49.284  26.604  24.688  1.00  0.00     0.200 A 
ATOM     65  F   UNL A   1      50.265  26.125  26.782  1.00  0.00    -0.200 F 
ATOM     66  F   UNL A   1      50.372  26.142  24.057  1.00  0.00    -0.200 F 
ENDBRANCH  42  56
BRANCH  43  67
ATOM     67  C   UNL A   1      38.899  30.625  30.960  1.00  0.00     0.064 A 
ATOM     68  C   UNL A   1      37.775  31.112  30.279  1.00  0.00     0.173 A 
ATOM     69  C   UNL A   1      38.852  30.595  32.362  1.00  0.00     0.173 A 
ATOM     70  F   UNL A   1      37.782  31.183  28.940  1.00  0.00    -0.203 F 
ATOM     71  C   UNL A   1      36.654  31.564  30.973  1.00  0.00     0.198 A 
ATOM     72  C   UNL A   1      37.721  31.023  33.053  1.00  0.00     0.198 A 
ATOM     73  F   UNL A   1      39.903  30.138  33.058  1.00  0.00    -0.203 F 
ATOM     74  F   UNL A   1      35.607  32.061  30.299  1.00  0.00    -0.200 F 
ATOM     75  C   UNL A   1      36.626  31.513  32.358  1.00  0.00     0.200 A 
ATOM     76  F   UNL A   1      37.694  30.963  34.391  1.00  0.00    -0.200 F 
ATOM     77  F   UNL A   1      35.546  31.943  33.024  1.00  0.00    -0.200 F 
ENDBRANCH  43  67
BRANCH  55  78
ATOM     78  C   UNL A   1      44.654  33.830  28.700  1.00  0.00     0.064 A 
ATOM     79  C   UNL A   1      44.299  34.767  27.718  1.00  0.00     0.173 A 
ATOM     80  C   UNL A   1      45.437  34.270  29.777  1.00  0.00     0.173 A 
ATOM     81  F   UNL A   1      43.562  34.393  26.662  1.00  0.00    -0.203 F 
ATOM     82  C   UNL A   1      44.739  36.087  27.797  1.00  0.00     0.198 A 
ATOM     83  C   UNL A   1      45.853  35.595  29.866  1.00  0.00     0.198 A 
ATOM     84  F   UNL A   1      45.797  33.414  30.745  1.00  0.00    -0.203 F 
ATOM     85  F   UNL A   1      44.431  36.953  26.822  1.00  0.00    -0.200 F 
ATOM     86  C   UNL A   1      45.511  36.501  28.873  1.00  0.00     0.200 A 
ATOM     87  F   UNL A   1      46.590  35.997  30.911  1.00  0.00    -0.200 F 
ATOM     88  F   UNL A   1      45.935  37.770  28.946  1.00  0.00    -0.200 F 
ENDBRANCH  55  78
ENDBRANCH  29  30
ENDBRANCH  22  24
ENDBRANCH  21  22
ENDBRANCH  20  21
ENDBRANCH  19  20
ENDBRANCH  18  19
ENDBRANCH   1  18
TORSDOF 17
ENDMDL
MODEL 2
REMARK VINA RESULT:     -10.6      4.213      9.994
REMARK SMILES CC[C@H]1CCCCN1S(=O)(=O)CC(=O)OCCOCCOC(=O)c1ccc(-c2c3nc(c(-c4c(F)c(F)c(F)c(F)c4F)c4ccc([nH]4)c(-c4c(F)c(F)c(F)c(F)c4F)c4nc(c(-c5c(F)c(F)c(F)c(F)c5F)c5ccc2[nH]5)C=C4)C=C3)cc1
REMARK SMILES IDX 17 1 16 2 15 3 13 4 14 5 12 6 9 7 10 8 11 9 8 10 3 11 4 12
REMARK SMILES IDX 5 13 7 14 6 15 2 16 1 17 18 18 19 19 20 20 21 21 22 22 23 23
REMARK SMILES IDX 24 24 25 25 86 26 26 27 85 28 27 29 28 30 29 31 79 32 30 33
REMARK SMILES IDX 84 34 78 35 80 36 31 37 83 38 77 39 76 40 32 42 64 43 44 44
REMARK SMILES IDX 63 45 45 46 48 47 62 48 81 49 46 50 47 51 61 53 82 54 49 55
REMARK SMILES IDX 33 56 34 57 42 58 35 59 36 60 40 61 43 62 37 63 38 64 41 65
REMARK SMILES IDX 39 66 65 67 66 68 74 69 67 70 68 71 72 72 75 73 69 74 70 75
REMARK SMILES IDX 73 76 71 77 50 78 51 79 59 80 52 81 53 82 57 83 60 84 54 85
REMARK SMILES IDX 55 86 58 87 56 88
REMARK H PARENT 80 41 48 52
REMARK Flexibility Score: inf
ROOT
ATOM      1  C   UNL A   1      31.238  28.196  24.219  1.00  0.00     0.202 C 
ENDROOT
BRANCH   1   2
ATOM      2  C   UNL A   1      31.874  27.775  22.890  1.00  0.00     0.261 C 
BRANCH   2   3
ATOM      3  O   UNL A   1      31.733  26.374  22.579  1.00  0.00    -0.462 OA
BRANCH   3   4
ATOM      4  C   UNL A   1      32.834  25.781  22.069  1.00  0.00     0.322 C 
ATOM      5  O   UNL A   1      33.288  26.038  20.953  1.00  0.00    -0.251 OA
BRANCH   4   6
ATOM      6  C   UNL A   1      33.462  24.706  22.866  1.00  0.00     0.276 C 
BRANCH   6   7
ATOM      7  S   UNL A   1      33.772  24.918  24.586  1.00  0.00     0.225 S 
ATOM      8  O   UNL A   1      32.506  24.592  25.221  1.00  0.00    -0.212 OA
ATOM      9  O   UNL A   1      34.374  26.209  24.836  1.00  0.00    -0.212 OA
BRANCH   7  10
ATOM     10  N   UNL A   1      34.880  23.716  25.102  1.00  0.00    -0.198 NA
ATOM     11  C   UNL A   1      34.216  22.348  25.331  1.00  0.00     0.072 C 
ATOM     12  C   UNL A   1      35.200  21.453  26.099  1.00  0.00     0.020 C 
ATOM     13  C   UNL A   1      36.516  21.282  25.352  1.00  0.00     0.003 C 
ATOM     14  C   UNL A   1      36.151  23.589  24.329  1.00  0.00     0.102 C 
ATOM     15  C   UNL A   1      37.127  22.638  25.025  1.00  0.00     0.017 C 
BRANCH  11  16
ATOM     16  C   UNL A   1      33.701  21.699  24.021  1.00  0.00     0.017 C 
ATOM     17  C   UNL A   1      32.376  20.956  24.142  1.00  0.00     0.005 C 
ENDBRANCH  11  16
ENDBRANCH   7  10
ENDBRANCH   6   7
ENDBRANCH   4   6
ENDBRANCH   3   4
ENDBRANCH   2   3
ENDBRANCH   1   2
BRANCH   1  18
ATOM     18  O   UNL A   1      32.136  28.537  25.271  1.00  0.00    -0.374 OA
BRANCH  18  19
ATOM     19  C   UNL A   1      32.569  29.896  25.353  1.00  0.00     0.202 C 
BRANCH  19  20
ATOM     20  C   UNL A   1      31.912  30.735  26.448  1.00  0.00     0.261 C 
BRANCH  20  21
ATOM     21  O   UNL A   1      32.747  30.808  27.615  1.00  0.00    -0.460 OA
BRANCH  21  22
ATOM     22  C   UNL A   1      33.536  31.903  27.632  1.00  0.00     0.338 C 
ATOM     23  O   UNL A   1      33.173  33.072  27.643  1.00  0.00    -0.246 OA
BRANCH  22  24
ATOM     24  C   UNL A   1      34.939  31.520  27.845  1.00  0.00     0.060 A 
ATOM     25  C   UNL A   1      35.212  30.158  28.020  1.00  0.00     0.016 A 
ATOM     26  C   UNL A   1      35.935  32.478  28.039  1.00  0.00     0.016 A 
ATOM     27  C   UNL A   1      36.467  29.757  28.469  1.00  0.00     0.010 A 
ATOM     28  C   UNL A   1      37.198  32.071  28.489  1.00  0.00     0.010 A 
ATOM     29  C   UNL A   1      37.451  30.713  28.757  1.00  0.00    -0.014 A 
BRANCH  29  30
ATOM     30  C   UNL A   1      38.672  30.273  29.477  1.00  0.00     0.031 A 
ATOM     31  C   UNL A   1      38.894  30.716  30.898  1.00  0.00     0.074 A 
ATOM     32  C   UNL A   1      39.525  29.403  28.906  1.00  0.00     0.049 A 
ATOM     33  N   UNL A   1      39.799  30.326  31.761  1.00  0.00    -0.248 NA
ATOM     34  C   UNL A   1      37.969  31.736  31.420  1.00  0.00     0.031 C 
ATOM     35  C   UNL A   1      39.417  28.895  27.541  1.00  0.00     0.029 A 
ATOM     36  N   UNL A   1      40.636  28.780  29.414  1.00  0.00    -0.354 N 
ATOM     37  C   UNL A   1      39.546  31.038  32.925  1.00  0.00     0.074 A 
ATOM     38  C   UNL A   1      38.428  31.916  32.650  1.00  0.00     0.031 C 
ATOM     39  C   UNL A   1      40.417  28.024  27.321  1.00  0.00     0.029 A 
ATOM     40  C   UNL A   1      41.233  27.916  28.530  1.00  0.00     0.049 A 
ATOM     41  H   UNL A   1      40.974  28.936  30.326  1.00  0.00     0.167 HD
ATOM     42  C   UNL A   1      40.175  30.956  34.123  1.00  0.00     0.037 A 
ATOM     43  C   UNL A   1      42.308  27.119  28.683  1.00  0.00     0.037 A 
ATOM     44  C   UNL A   1      41.289  30.086  34.399  1.00  0.00     0.049 A 
ATOM     45  C   UNL A   1      43.001  27.057  30.019  1.00  0.00     0.074 A 
ATOM     46  C   UNL A   1      41.982  29.917  35.585  1.00  0.00     0.029 A 
ATOM     47  N   UNL A   1      41.878  29.243  33.469  1.00  0.00    -0.354 N 
ATOM     48  N   UNL A   1      42.714  27.688  31.131  1.00  0.00    -0.248 NA
ATOM     49  C   UNL A   1      44.155  26.153  30.123  1.00  0.00     0.031 C 
ATOM     50  C   UNL A   1      43.016  29.000  35.363  1.00  0.00     0.029 A 
ATOM     51  C   UNL A   1      42.939  28.565  34.050  1.00  0.00     0.049 A 
ATOM     52  H   UNL A   1      41.586  29.141  32.535  1.00  0.00     0.167 HD
ATOM     53  C   UNL A   1      43.633  27.241  32.072  1.00  0.00     0.074 A 
ATOM     54  C   UNL A   1      44.476  26.271  31.404  1.00  0.00     0.031 C 
ATOM     55  C   UNL A   1      43.766  27.601  33.373  1.00  0.00     0.037 A 
BRANCH  42  56
ATOM     56  C   UNL A   1      39.678  31.842  35.228  1.00  0.00     0.064 A 
ATOM     57  C   UNL A   1      40.132  33.161  35.370  1.00  0.00     0.173 A 
ATOM     58  C   UNL A   1      38.710  31.378  36.131  1.00  0.00     0.173 A 
ATOM     59  F   UNL A   1      41.065  33.648  34.538  1.00  0.00    -0.203 F 
ATOM     60  C   UNL A   1      39.652  33.977  36.392  1.00  0.00     0.198 A 
ATOM     61  C   UNL A   1      38.215  32.204  37.136  1.00  0.00     0.198 A 
ATOM     62  F   UNL A   1      38.240  30.126  36.034  1.00  0.00    -0.203 F 
ATOM     63  F   UNL A   1      40.128  35.221  36.533  1.00  0.00    -0.200 F 
ATOM     64  C   UNL A   1      38.690  33.501  37.269  1.00  0.00     0.200 A 
ATOM     65  F   UNL A   1      37.277  31.745  37.978  1.00  0.00    -0.200 F 
ATOM     66  F   UNL A   1      38.224  34.288  38.248  1.00  0.00    -0.200 F 
ENDBRANCH  42  56
BRANCH  43  67
ATOM     67  C   UNL A   1      42.775  26.287  27.545  1.00  0.00     0.064 A 
ATOM     68  C   UNL A   1      42.223  25.024  27.296  1.00  0.00     0.173 A 
ATOM     69  C   UNL A   1      43.787  26.740  26.686  1.00  0.00     0.173 A 
ATOM     70  F   UNL A   1      41.271  24.538  28.104  1.00  0.00    -0.203 F 
ATOM     71  C   UNL A   1      42.676  24.238  26.237  1.00  0.00     0.198 A 
ATOM     72  C   UNL A   1      44.220  25.965  25.613  1.00  0.00     0.198 A 
ATOM     73  F   UNL A   1      44.347  27.942  26.884  1.00  0.00    -0.203 F 
ATOM     74  F   UNL A   1      42.158  23.017  26.043  1.00  0.00    -0.200 F 
ATOM     75  C   UNL A   1      43.669  24.712  25.394  1.00  0.00     0.200 A 
ATOM     76  F   UNL A   1      45.173  26.431  24.795  1.00  0.00    -0.200 F 
ATOM     77  F   UNL A   1      44.099  23.959  24.373  1.00  0.00    -0.200 F 
ENDBRANCH  43  67
BRANCH  55  78
ATOM     78  C   UNL A   1      44.848  26.924  34.163  1.00  0.00     0.064 A 
ATOM     79  C   UNL A   1      44.619  25.715  34.836  1.00  0.00     0.173 A 
ATOM     80  C   UNL A   1      46.134  27.480  34.230  1.00  0.00     0.173 A 
ATOM     81  F   UNL A   1      43.403  25.149  34.813  1.00  0.00    -0.203 F 
ATOM     82  C   UNL A   1      45.631  25.103  35.572  1.00  0.00     0.198 A 
ATOM     83  C   UNL A   1      47.149  26.853  34.946  1.00  0.00     0.198 A 
ATOM     84  F   UNL A   1      46.406  28.632  33.598  1.00  0.00    -0.203 F 
ATOM     85  F   UNL A   1      45.376  23.974  36.248  1.00  0.00    -0.200 F 
ATOM     86  C   UNL A   1      46.896  25.670  35.623  1.00  0.00     0.200 A 
ATOM     87  F   UNL A   1      48.375  27.396  34.985  1.00  0.00    -0.200 F 
ATOM     88  F   UNL A   1      47.867  25.080  36.333  1.00  0.00    -0.200 F 
ENDBRANCH  55  78
ENDBRANCH  29  30
ENDBRANCH  22  24
ENDBRANCH  21  22
ENDBRANCH  20  21
ENDBRANCH  19  20
ENDBRANCH  18  19
ENDBRANCH   1  18
TORSDOF 17
ENDMDL
MODEL 3
REMARK VINA RESULT:     -10.6      4.683      7.341
REMARK SMILES CC[C@H]1CCCCN1S(=O)(=O)CC(=O)OCCOCCOC(=O)c1ccc(-c2c3nc(c(-c4c(F)c(F)c(F)c(F)c4F)c4ccc([nH]4)c(-c4c(F)c(F)c(F)c(F)c4F)c4nc(c(-c5c(F)c(F)c(F)c(F)c5F)c5ccc2[nH]5)C=C4)C=C3)cc1
REMARK SMILES IDX 17 1 16 2 15 3 13 4 14 5 12 6 9 7 10 8 11 9 8 10 3 11 4 12
REMARK SMILES IDX 5 13 7 14 6 15 2 16 1 17 18 18 19 19 20 20 21 21 22 22 23 23
REMARK SMILES IDX 24 24 25 25 86 26 26 27 85 28 27 29 28 30 29 31 79 32 30 33
REMARK SMILES IDX 84 34 78 35 80 36 31 37 83 38 77 39 76 40 32 42 64 43 44 44
REMARK SMILES IDX 63 45 45 46 48 47 62 48 81 49 46 50 47 51 61 53 82 54 49 55
REMARK SMILES IDX 33 56 34 57 42 58 35 59 36 60 40 61 43 62 37 63 38 64 41 65
REMARK SMILES IDX 39 66 65 67 66 68 74 69 67 70 68 71 72 72 75 73 69 74 70 75
REMARK SMILES IDX 73 76 71 77 50 78 51 79 59 80 52 81 53 82 57 83 60 84 54 85
REMARK SMILES IDX 55 86 58 87 56 88
REMARK H PARENT 80 41 48 52
REMARK Flexibility Score: inf
ROOT
ATOM      1  C   UNL A   1      40.892  21.368  26.416  1.00  0.00     0.202 C 
ENDROOT
BRANCH   1   2
ATOM      2  C   UNL A   1      39.423  21.499  26.002  1.00  0.00     0.261 C 
BRANCH   2   3
ATOM      3  O   UNL A   1      38.832  22.779  26.303  1.00  0.00    -0.462 OA
BRANCH   3   4
ATOM      4  C   UNL A   1      37.679  23.050  25.653  1.00  0.00     0.322 C 
ATOM      5  O   UNL A   1      37.023  24.077  25.834  1.00  0.00    -0.251 OA
BRANCH   4   6
ATOM      6  C   UNL A   1      37.143  22.010  24.750  1.00  0.00     0.276 C 
BRANCH   6   7
ATOM      7  S   UNL A   1      35.681  21.120  25.163  1.00  0.00     0.225 S 
ATOM      8  O   UNL A   1      35.438  21.457  26.555  1.00  0.00    -0.212 OA
ATOM      9  O   UNL A   1      35.811  19.730  24.785  1.00  0.00    -0.212 OA
BRANCH   7  10
ATOM     10  N   UNL A   1      34.365  21.780  24.283  1.00  0.00    -0.198 NA
ATOM     11  C   UNL A   1      33.316  20.725  23.894  1.00  0.00     0.072 C 
ATOM     12  C   UNL A   1      32.378  21.339  22.844  1.00  0.00     0.020 C 
ATOM     13  C   UNL A   1      31.693  22.598  23.358  1.00  0.00     0.003 C 
ATOM     14  C   UNL A   1      33.729  23.012  24.837  1.00  0.00     0.102 C 
ATOM     15  C   UNL A   1      32.725  23.606  23.848  1.00  0.00     0.017 C 
BRANCH  11  16
ATOM     16  C   UNL A   1      32.561  20.143  25.116  1.00  0.00     0.017 C 
ATOM     17  C   UNL A   1      32.539  18.622  25.201  1.00  0.00     0.005 C 
ENDBRANCH  11  16
ENDBRANCH   7  10
ENDBRANCH   6   7
ENDBRANCH   4   6
ENDBRANCH   3   4
ENDBRANCH   2   3
ENDBRANCH   1   2
BRANCH   1  18
ATOM     18  O   UNL A   1      41.860  21.784  25.457  1.00  0.00    -0.374 OA
BRANCH  18  19
ATOM     19  C   UNL A   1      43.238  21.601  25.789  1.00  0.00     0.202 C 
BRANCH  19  20
ATOM     20  C   UNL A   1      44.229  22.437  24.980  1.00  0.00     0.261 C 
BRANCH  20  21
ATOM     21  O   UNL A   1      43.633  23.671  24.547  1.00  0.00    -0.460 OA
BRANCH  21  22
ATOM     22  C   UNL A   1      44.297  24.761  24.987  1.00  0.00     0.338 C 
ATOM     23  O   UNL A   1      45.406  25.140  24.635  1.00  0.00    -0.246 OA
BRANCH  22  24
ATOM     24  C   UNL A   1      43.421  25.589  25.828  1.00  0.00     0.060 A 
ATOM     25  C   UNL A   1      43.938  26.804  26.291  1.00  0.00     0.016 A 
ATOM     26  C   UNL A   1      42.193  25.114  26.292  1.00  0.00     0.016 A 
ATOM     27  C   UNL A   1      43.263  27.511  27.283  1.00  0.00     0.010 A 
ATOM     28  C   UNL A   1      41.515  25.828  27.289  1.00  0.00     0.010 A 
ATOM     29  C   UNL A   1      42.075  27.001  27.826  1.00  0.00    -0.014 A 
BRANCH  29  30
ATOM     30  C   UNL A   1      41.530  27.638  29.051  1.00  0.00     0.031 A 
ATOM     31  C   UNL A   1      42.263  27.479  30.356  1.00  0.00     0.074 A 
ATOM     32  C   UNL A   1      40.449  28.436  28.982  1.00  0.00     0.049 A 
ATOM     33  N   UNL A   1      42.057  28.074  31.505  1.00  0.00    -0.248 NA
ATOM     34  C   UNL A   1      43.381  26.521  30.370  1.00  0.00     0.031 C 
ATOM     35  C   UNL A   1      39.657  28.674  27.779  1.00  0.00     0.029 A 
ATOM     36  N   UNL A   1      39.847  29.206  29.945  1.00  0.00    -0.354 N 
ATOM     37  C   UNL A   1      43.023  27.577  32.369  1.00  0.00     0.074 A 
ATOM     38  C   UNL A   1      43.791  26.599  31.628  1.00  0.00     0.031 C 
ATOM     39  C   UNL A   1      38.677  29.547  28.070  1.00  0.00     0.029 A 
ATOM     40  C   UNL A   1      38.774  29.925  29.479  1.00  0.00     0.049 A 
ATOM     41  H   UNL A   1      40.155  29.241  30.879  1.00  0.00     0.167 HD
ATOM     42  C   UNL A   1      43.261  27.916  33.659  1.00  0.00     0.037 A 
ATOM     43  C   UNL A   1      37.970  30.798  30.116  1.00  0.00     0.037 A 
ATOM     44  C   UNL A   1      42.498  28.886  34.400  1.00  0.00     0.049 A 
ATOM     45  C   UNL A   1      38.245  31.146  31.555  1.00  0.00     0.074 A 
ATOM     46  C   UNL A   1      42.674  29.312  35.705  1.00  0.00     0.029 A 
ATOM     47  N   UNL A   1      41.404  29.575  33.899  1.00  0.00    -0.354 N 
ATOM     48  N   UNL A   1      39.199  30.717  32.344  1.00  0.00    -0.248 NA
ATOM     49  C   UNL A   1      37.342  32.121  32.183  1.00  0.00     0.031 C 
ATOM     50  C   UNL A   1      41.662  30.230  36.008  1.00  0.00     0.029 A 
ATOM     51  C   UNL A   1      40.882  30.410  34.875  1.00  0.00     0.049 A 
ATOM     52  H   UNL A   1      41.050  29.485  32.986  1.00  0.00     0.167 HD
ATOM     53  C   UNL A   1      39.027  31.384  33.550  1.00  0.00     0.074 A 
ATOM     54  C   UNL A   1      37.887  32.260  33.384  1.00  0.00     0.031 C 
ATOM     55  C   UNL A   1      39.749  31.279  34.694  1.00  0.00     0.037 A 
BRANCH  42  56
ATOM     56  C   UNL A   1      44.394  27.222  34.358  1.00  0.00     0.064 A 
ATOM     57  C   UNL A   1      45.695  27.748  34.348  1.00  0.00     0.173 A 
ATOM     58  C   UNL A   1      44.170  26.038  35.075  1.00  0.00     0.173 A 
ATOM     59  F   UNL A   1      45.962  28.873  33.667  1.00  0.00    -0.203 F 
ATOM     60  C   UNL A   1      46.733  27.101  35.012  1.00  0.00     0.198 A 
ATOM     61  C   UNL A   1      45.206  25.407  35.758  1.00  0.00     0.198 A 
ATOM     62  F   UNL A   1      42.943  25.496  35.120  1.00  0.00    -0.203 F 
ATOM     63  F   UNL A   1      47.976  27.601  34.957  1.00  0.00    -0.200 F 
ATOM     64  C   UNL A   1      46.488  25.936  35.721  1.00  0.00     0.200 A 
ATOM     65  F   UNL A   1      44.964  24.285  36.451  1.00  0.00    -0.200 F 
ATOM     66  F   UNL A   1      47.487  25.317  36.364  1.00  0.00    -0.200 F 
ENDBRANCH  42  56
BRANCH  43  67
ATOM     67  C   UNL A   1      36.845  31.431  29.383  1.00  0.00     0.064 A 
ATOM     68  C   UNL A   1      36.853  32.799  29.080  1.00  0.00     0.173 A 
ATOM     69  C   UNL A   1      35.734  30.677  28.972  1.00  0.00     0.173 A 
ATOM     70  F   UNL A   1      37.881  33.564  29.473  1.00  0.00    -0.203 F 
ATOM     71  C   UNL A   1      35.788  33.393  28.407  1.00  0.00     0.198 A 
ATOM     72  C   UNL A   1      34.682  31.268  28.276  1.00  0.00     0.198 A 
ATOM     73  F   UNL A   1      35.679  29.364  29.239  1.00  0.00    -0.203 F 
ATOM     74  F   UNL A   1      35.804  34.711  28.164  1.00  0.00    -0.200 F 
ATOM     75  C   UNL A   1      34.707  32.626  28.000  1.00  0.00     0.200 A 
ATOM     76  F   UNL A   1      33.645  30.521  27.876  1.00  0.00    -0.200 F 
ATOM     77  F   UNL A   1      33.686  33.197  27.347  1.00  0.00    -0.200 F 
ENDBRANCH  43  67
BRANCH  55  78
ATOM     78  C   UNL A   1      39.341  32.152  35.843  1.00  0.00     0.064 A 
ATOM     79  C   UNL A   1      38.366  31.746  36.766  1.00  0.00     0.173 A 
ATOM     80  C   UNL A   1      39.950  33.402  36.038  1.00  0.00     0.173 A 
ATOM     81  F   UNL A   1      37.746  30.566  36.616  1.00  0.00    -0.203 F 
ATOM     82  C   UNL A   1      37.992  32.572  37.823  1.00  0.00     0.198 A 
ATOM     83  C   UNL A   1      39.592  34.213  37.111  1.00  0.00     0.198 A 
ATOM     84  F   UNL A   1      40.894  33.833  35.188  1.00  0.00    -0.203 F 
ATOM     85  F   UNL A   1      37.022  32.185  38.663  1.00  0.00    -0.200 F 
ATOM     86  C   UNL A   1      38.609  33.803  37.997  1.00  0.00     0.200 A 
ATOM     87  F   UNL A   1      40.197  35.397  37.284  1.00  0.00    -0.200 F 
ATOM     88  F   UNL A   1      38.247  34.596  39.014  1.00  0.00    -0.200 F 
ENDBRANCH  55  78
ENDBRANCH  29  30
ENDBRANCH  22  24
ENDBRANCH  21  22
ENDBRANCH  20  21
ENDBRANCH  19  20
ENDBRANCH  18  19
ENDBRANCH   1  18
TORSDOF 17
ENDMDL
