MODEL 1
REMARK VINA RESULT:     -11.4      0.000      0.000
REMARK SMILES COc1cc([C@@H]2[NH2+][C@H](C(=O)OCCOCCOC(=O)c3ccc(-c4c5nc(c(-c6c(F)c(F)c(F)c(F)c6F)c6ccc([nH]6)c(-c6c(F)c(F)c(F)c(F)c6F)c6nc(c(-c7c(F)c(F)c(F)c(F)c7F)c7ccc4[nH]7)C=C6)C=C5)cc3)CS2)ccc1OCc1ccc(Cl)cc1
REMARK SMILES IDX 13 1 12 2 11 3 9 4 10 5 8 6 6 7 7 8 84 9 83 12 5 13 3 14
REMARK SMILES IDX 4 15 87 16 86 17 85 18 2 19 1 20 88 21 89 22 90 23 91 24
REMARK SMILES IDX 96 25 92 26 95 27 93 28 94 29 14 30 15 31 16 32 17 33 18 34
REMARK SMILES IDX 19 35 20 36 21 37 82 38 22 39 81 40 23 41 24 42 25 43 75 44
REMARK SMILES IDX 26 45 80 46 74 47 76 48 27 49 79 50 73 51 72 52 28 54 60 55
REMARK SMILES IDX 40 56 59 57 41 58 44 59 58 60 77 61 42 62 43 63 57 65 78 66
REMARK SMILES IDX 45 67 29 68 30 69 38 70 31 71 32 72 36 73 39 74 33 75 34 76
REMARK SMILES IDX 37 77 35 78 61 79 62 80 70 81 63 82 64 83 68 84 71 85 65 86
REMARK SMILES IDX 66 87 69 88 67 89 46 90 47 91 55 92 48 93 49 94 53 95 56 96
REMARK SMILES IDX 50 97 51 98 54 99 52 100
REMARK H PARENT 7 10 7 11 76 53 44 64
REMARK Flexibility Score: inf
ROOT
ATOM      1  C   UNL A   1      33.039  30.533  27.189  1.00  0.00     0.202 C 
ENDROOT
BRANCH   1   2
ATOM      2  C   UNL A   1      33.639  29.450  26.290  1.00  0.00     0.261 C 
BRANCH   2   3
ATOM      3  O   UNL A   1      32.665  29.067  25.304  1.00  0.00    -0.459 OA
BRANCH   3   4
ATOM      4  C   UNL A   1      33.091  28.922  24.026  1.00  0.00     0.365 C 
ATOM      5  O   UNL A   1      34.266  28.810  23.692  1.00  0.00    -0.245 OA
BRANCH   4   6
ATOM      6  C   UNL A   1      31.947  28.956  23.005  1.00  0.00     0.304 C 
ATOM      7  C   UNL A   1      30.455  27.086  22.563  1.00  0.00     0.274 C 
ATOM      8  N   UNL A   1      31.762  27.673  22.262  1.00  0.00    -0.319 N 
ATOM      9  S   UNL A   1      29.346  28.408  23.073  1.00  0.00    -0.087 SA
ATOM     10  H   UNL A   1      31.825  27.854  21.260  1.00  0.00     0.348 HD
ATOM     11  H   UNL A   1      32.491  27.019  22.548  1.00  0.00     0.348 HD
ATOM     12  C   UNL A   1      30.680  29.443  23.698  1.00  0.00     0.153 C 
BRANCH   7  13
ATOM     13  C   UNL A   1      30.560  25.918  23.525  1.00  0.00     0.024 A 
ATOM     14  C   UNL A   1      31.206  23.582  23.936  1.00  0.00     0.161 A 
ATOM     15  C   UNL A   1      31.054  24.679  23.069  1.00  0.00     0.061 A 
ATOM     16  C   UNL A   1      30.911  23.720  25.294  1.00  0.00     0.161 A 
ATOM     17  C   UNL A   1      30.445  24.955  25.755  1.00  0.00     0.051 A 
ATOM     18  C   UNL A   1      30.253  26.028  24.886  1.00  0.00     0.015 A 
BRANCH  14  19
ATOM     19  O   UNL A   1      31.769  22.437  23.438  1.00  0.00    -0.493 OA
ATOM     20  C   UNL A   1      32.959  22.689  22.688  1.00  0.00     0.278 C 
ENDBRANCH  14  19
BRANCH  16  21
ATOM     21  O   UNL A   1      31.011  22.803  26.300  1.00  0.00    -0.485 OA
BRANCH  21  22
ATOM     22  C   UNL A   1      32.133  22.814  27.173  1.00  0.00     0.265 C 
BRANCH  22  23
ATOM     23  C   UNL A   1      33.485  22.641  26.533  1.00  0.00    -0.011 A 
ATOM     24  C   UNL A   1      34.355  23.709  26.295  1.00  0.00     0.009 A 
ATOM     25  C   UNL A   1      33.854  21.348  26.126  1.00  0.00     0.009 A 
ATOM     26  C   UNL A   1      35.601  23.481  25.712  1.00  0.00     0.021 A 
ATOM     27  C   UNL A   1      35.096  21.120  25.539  1.00  0.00     0.021 A 
ATOM     28  C   UNL A   1      35.969  22.188  25.347  1.00  0.00     0.041 A 
ATOM     29  Cl  UNL A   1      37.517  21.905  24.653  1.00  0.00    -0.084 Cl
ENDBRANCH  22  23
ENDBRANCH  21  22
ENDBRANCH  16  21
ENDBRANCH   7  13
ENDBRANCH   4   6
ENDBRANCH   3   4
ENDBRANCH   2   3
ENDBRANCH   1   2
BRANCH   1  30
ATOM     30  O   UNL A   1      31.728  30.957  26.799  1.00  0.00    -0.374 OA
BRANCH  30  31
ATOM     31  C   UNL A   1      31.512  32.367  26.782  1.00  0.00     0.202 C 
BRANCH  31  32
ATOM     32  C   UNL A   1      32.680  33.225  27.282  1.00  0.00     0.261 C 
BRANCH  32  33
ATOM     33  O   UNL A   1      32.282  34.217  28.240  1.00  0.00    -0.460 OA
BRANCH  33  34
ATOM     34  C   UNL A   1      33.274  35.050  28.633  1.00  0.00     0.338 C 
ATOM     35  O   UNL A   1      33.249  36.275  28.661  1.00  0.00    -0.246 OA
BRANCH  34  36
ATOM     36  C   UNL A   1      34.424  34.277  29.134  1.00  0.00     0.060 A 
ATOM     37  C   UNL A   1      34.233  33.418  30.225  1.00  0.00     0.016 A 
ATOM     38  C   UNL A   1      35.696  34.459  28.602  1.00  0.00     0.016 A 
ATOM     39  C   UNL A   1      35.323  32.761  30.808  1.00  0.00     0.010 A 
ATOM     40  C   UNL A   1      36.778  33.800  29.190  1.00  0.00     0.010 A 
ATOM     41  C   UNL A   1      36.617  32.954  30.308  1.00  0.00    -0.014 A 
BRANCH  41  42
ATOM     42  C   UNL A   1      37.820  32.360  30.970  1.00  0.00     0.031 A 
ATOM     43  C   UNL A   1      38.529  31.200  30.312  1.00  0.00     0.074 A 
ATOM     44  C   UNL A   1      38.219  32.752  32.199  1.00  0.00     0.049 A 
ATOM     45  N   UNL A   1      39.471  30.420  30.782  1.00  0.00    -0.248 NA
ATOM     46  C   UNL A   1      38.087  30.848  28.953  1.00  0.00     0.031 C 
ATOM     47  C   UNL A   1      37.598  33.803  33.008  1.00  0.00     0.029 A 
ATOM     48  N   UNL A   1      39.185  32.226  33.031  1.00  0.00    -0.354 N 
ATOM     49  C   UNL A   1      39.727  29.490  29.782  1.00  0.00     0.074 A 
ATOM     50  C   UNL A   1      38.770  29.737  28.724  1.00  0.00     0.031 C 
ATOM     51  C   UNL A   1      38.130  33.781  34.243  1.00  0.00     0.029 A 
ATOM     52  C   UNL A   1      39.143  32.731  34.309  1.00  0.00     0.049 A 
ATOM     53  H   UNL A   1      39.841  31.552  32.737  1.00  0.00     0.167 HD
ATOM     54  C   UNL A   1      40.704  28.554  29.713  1.00  0.00     0.037 A 
ATOM     55  C   UNL A   1      39.824  32.375  35.416  1.00  0.00     0.037 A 
ATOM     56  C   UNL A   1      41.703  28.343  30.726  1.00  0.00     0.049 A 
ATOM     57  C   UNL A   1      40.901  31.326  35.333  1.00  0.00     0.074 A 
ATOM     58  C   UNL A   1      42.821  27.528  30.681  1.00  0.00     0.029 A 
ATOM     59  N   UNL A   1      41.704  28.952  31.969  1.00  0.00    -0.354 N 
ATOM     60  N   UNL A   1      41.233  30.556  34.326  1.00  0.00    -0.248 NA
ATOM     61  C   UNL A   1      41.734  31.133  36.530  1.00  0.00     0.031 C 
ATOM     62  C   UNL A   1      43.480  27.615  31.912  1.00  0.00     0.029 A 
ATOM     63  C   UNL A   1      42.795  28.519  32.706  1.00  0.00     0.049 A 
ATOM     64  H   UNL A   1      41.030  29.597  32.283  1.00  0.00     0.167 HD
ATOM     65  C   UNL A   1      42.355  29.849  34.741  1.00  0.00     0.074 A 
ATOM     66  C   UNL A   1      42.634  30.261  36.099  1.00  0.00     0.031 C 
ATOM     67  C   UNL A   1      43.099  28.958  34.043  1.00  0.00     0.037 A 
BRANCH  54  68
ATOM     68  C   UNL A   1      40.780  27.720  28.465  1.00  0.00     0.064 A 
ATOM     69  C   UNL A   1      41.549  28.126  27.362  1.00  0.00     0.173 A 
ATOM     70  C   UNL A   1      40.117  26.487  28.384  1.00  0.00     0.173 A 
ATOM     71  F   UNL A   1      42.200  29.299  27.388  1.00  0.00    -0.203 F 
ATOM     72  C   UNL A   1      41.617  27.349  26.210  1.00  0.00     0.198 A 
ATOM     73  C   UNL A   1      40.216  25.695  27.242  1.00  0.00     0.198 A 
ATOM     74  F   UNL A   1      39.380  26.045  29.413  1.00  0.00    -0.203 F 
ATOM     75  F   UNL A   1      42.310  27.787  25.149  1.00  0.00    -0.200 F 
ATOM     76  C   UNL A   1      40.957  26.132  26.153  1.00  0.00     0.200 A 
ATOM     77  F   UNL A   1      39.592  24.511  27.193  1.00  0.00    -0.200 F 
ATOM     78  F   UNL A   1      41.030  25.381  25.045  1.00  0.00    -0.200 F 
ENDBRANCH  54  68
BRANCH  55  79
ATOM     79  C   UNL A   1      39.551  33.047  36.713  1.00  0.00     0.064 A 
ATOM     80  C   UNL A   1      38.571  32.554  37.586  1.00  0.00     0.173 A 
ATOM     81  C   UNL A   1      40.218  34.226  37.075  1.00  0.00     0.173 A 
ATOM     82  F   UNL A   1      37.889  31.445  37.265  1.00  0.00    -0.203 F 
ATOM     83  C   UNL A   1      38.241  33.234  38.755  1.00  0.00     0.198 A 
ATOM     84  C   UNL A   1      39.902  34.894  38.258  1.00  0.00     0.198 A 
ATOM     85  F   UNL A   1      41.161  34.738  36.272  1.00  0.00    -0.203 F 
ATOM     86  F   UNL A   1      37.256  32.774  39.539  1.00  0.00    -0.200 F 
ATOM     87  C   UNL A   1      38.907  34.403  39.090  1.00  0.00     0.200 A 
ATOM     88  F   UNL A   1      40.548  36.022  38.582  1.00  0.00    -0.200 F 
ATOM     89  F   UNL A   1      38.577  35.066  40.209  1.00  0.00    -0.200 F 
ENDBRANCH  55  79
BRANCH  67  90
ATOM     90  C   UNL A   1      44.353  28.441  34.688  1.00  0.00     0.064 A 
ATOM     91  C   UNL A   1      44.382  27.245  35.419  1.00  0.00     0.173 A 
ATOM     92  C   UNL A   1      45.555  29.155  34.554  1.00  0.00     0.173 A 
ATOM     93  F   UNL A   1      43.257  26.533  35.592  1.00  0.00    -0.203 F 
ATOM     94  C   UNL A   1      45.559  26.798  36.016  1.00  0.00     0.198 A 
ATOM     95  C   UNL A   1      46.736  28.690  35.124  1.00  0.00     0.198 A 
ATOM     96  F   UNL A   1      45.585  30.304  33.861  1.00  0.00    -0.203 F 
ATOM     97  F   UNL A   1      45.550  25.681  36.754  1.00  0.00    -0.200 F 
ATOM     98  C   UNL A   1      46.735  27.517  35.863  1.00  0.00     0.200 A 
ATOM     99  F   UNL A   1      47.874  29.380  34.964  1.00  0.00    -0.200 F 
ATOM    100  F   UNL A   1      47.867  27.084  36.435  1.00  0.00    -0.200 F 
ENDBRANCH  67  90
ENDBRANCH  41  42
ENDBRANCH  34  36
ENDBRANCH  33  34
ENDBRANCH  32  33
ENDBRANCH  31  32
ENDBRANCH  30  31
ENDBRANCH   1  30
TORSDOF 19
ENDMDL
MODEL 2
REMARK VINA RESULT:     -11.4      0.684      7.185
REMARK SMILES COc1cc([C@@H]2[NH2+][C@H](C(=O)OCCOCCOC(=O)c3ccc(-c4c5nc(c(-c6c(F)c(F)c(F)c(F)c6F)c6ccc([nH]6)c(-c6c(F)c(F)c(F)c(F)c6F)c6nc(c(-c7c(F)c(F)c(F)c(F)c7F)c7ccc4[nH]7)C=C6)C=C5)cc3)CS2)ccc1OCc1ccc(Cl)cc1
REMARK SMILES IDX 13 1 12 2 11 3 9 4 10 5 8 6 6 7 7 8 84 9 83 12 5 13 3 14
REMARK SMILES IDX 4 15 87 16 86 17 85 18 2 19 1 20 88 21 89 22 90 23 91 24
REMARK SMILES IDX 96 25 92 26 95 27 93 28 94 29 14 30 15 31 16 32 17 33 18 34
REMARK SMILES IDX 19 35 20 36 21 37 82 38 22 39 81 40 23 41 24 42 25 43 75 44
REMARK SMILES IDX 26 45 80 46 74 47 76 48 27 49 79 50 73 51 72 52 28 54 60 55
REMARK SMILES IDX 40 56 59 57 41 58 44 59 58 60 77 61 42 62 43 63 57 65 78 66
REMARK SMILES IDX 45 67 29 68 30 69 38 70 31 71 32 72 36 73 39 74 33 75 34 76
REMARK SMILES IDX 37 77 35 78 61 79 62 80 70 81 63 82 64 83 68 84 71 85 65 86
REMARK SMILES IDX 66 87 69 88 67 89 46 90 47 91 55 92 48 93 49 94 53 95 56 96
REMARK SMILES IDX 50 97 51 98 54 99 52 100
REMARK H PARENT 7 10 7 11 76 53 44 64
REMARK Flexibility Score: inf
ROOT
ATOM      1  C   UNL A   1      33.040  30.499  27.157  1.00  0.00     0.202 C 
ENDROOT
BRANCH   1   2
ATOM      2  C   UNL A   1      33.594  29.425  26.218  1.00  0.00     0.261 C 
BRANCH   2   3
ATOM      3  O   UNL A   1      32.588  29.087  25.248  1.00  0.00    -0.459 OA
BRANCH   3   4
ATOM      4  C   UNL A   1      32.982  28.958  23.958  1.00  0.00     0.365 C 
ATOM      5  O   UNL A   1      34.149  28.879  23.590  1.00  0.00    -0.245 OA
BRANCH   4   6
ATOM      6  C   UNL A   1      31.808  28.962  22.970  1.00  0.00     0.304 C 
ATOM      7  C   UNL A   1      30.315  27.075  22.615  1.00  0.00     0.274 C 
ATOM      8  N   UNL A   1      31.609  27.661  22.263  1.00  0.00    -0.319 N 
ATOM      9  S   UNL A   1      29.213  28.403  23.127  1.00  0.00    -0.087 SA
ATOM     10  H   UNL A   1      31.641  27.819  21.255  1.00  0.00     0.348 HD
ATOM     11  H   UNL A   1      32.349  27.018  22.542  1.00  0.00     0.348 HD
ATOM     12  C   UNL A   1      30.559  29.459  23.688  1.00  0.00     0.153 C 
BRANCH   7  13
ATOM     13  C   UNL A   1      30.454  25.930  23.601  1.00  0.00     0.024 A 
ATOM     14  C   UNL A   1      31.127  23.609  24.047  1.00  0.00     0.161 A 
ATOM     15  C   UNL A   1      30.943  24.684  23.160  1.00  0.00     0.061 A 
ATOM     16  C   UNL A   1      30.869  23.776  25.409  1.00  0.00     0.161 A 
ATOM     17  C   UNL A   1      30.407  25.018  25.855  1.00  0.00     0.051 A 
ATOM     18  C   UNL A   1      30.183  26.070  24.967  1.00  0.00     0.015 A 
BRANCH  14  19
ATOM     19  O   UNL A   1      31.684  22.456  23.560  1.00  0.00    -0.493 OA
ATOM     20  C   UNL A   1      32.837  22.700  22.752  1.00  0.00     0.278 C 
ENDBRANCH  14  19
BRANCH  16  21
ATOM     21  O   UNL A   1      31.003  22.883  26.433  1.00  0.00    -0.485 OA
BRANCH  21  22
ATOM     22  C   UNL A   1      32.160  22.904  27.258  1.00  0.00     0.265 C 
BRANCH  22  23
ATOM     23  C   UNL A   1      33.480  22.669  26.570  1.00  0.00    -0.011 A 
ATOM     24  C   UNL A   1      34.360  23.704  26.241  1.00  0.00     0.009 A 
ATOM     25  C   UNL A   1      33.804  21.350  26.214  1.00  0.00     0.009 A 
ATOM     26  C   UNL A   1      35.574  23.419  25.618  1.00  0.00     0.021 A 
ATOM     27  C   UNL A   1      35.015  21.064  25.588  1.00  0.00     0.021 A 
ATOM     28  C   UNL A   1      35.900  22.101  25.304  1.00  0.00     0.041 A 
ATOM     29  Cl  UNL A   1      37.410  21.749  24.560  1.00  0.00    -0.084 Cl
ENDBRANCH  22  23
ENDBRANCH  21  22
ENDBRANCH  16  21
ENDBRANCH   7  13
ENDBRANCH   4   6
ENDBRANCH   3   4
ENDBRANCH   2   3
ENDBRANCH   1   2
BRANCH   1  30
ATOM     30  O   UNL A   1      31.725  30.953  26.815  1.00  0.00    -0.374 OA
BRANCH  30  31
ATOM     31  C   UNL A   1      31.546  32.368  26.788  1.00  0.00     0.202 C 
BRANCH  31  32
ATOM     32  C   UNL A   1      32.772  33.202  27.175  1.00  0.00     0.261 C 
BRANCH  32  33
ATOM     33  O   UNL A   1      32.487  34.198  28.169  1.00  0.00    -0.460 OA
BRANCH  33  34
ATOM     34  C   UNL A   1      33.569  34.880  28.608  1.00  0.00     0.338 C 
ATOM     35  O   UNL A   1      33.695  36.097  28.702  1.00  0.00    -0.246 OA
BRANCH  34  36
ATOM     36  C   UNL A   1      34.610  33.946  29.072  1.00  0.00     0.060 A 
ATOM     37  C   UNL A   1      34.241  32.897  29.924  1.00  0.00     0.016 A 
ATOM     38  C   UNL A   1      35.948  34.149  28.751  1.00  0.00     0.016 A 
ATOM     39  C   UNL A   1      35.216  32.063  30.483  1.00  0.00     0.010 A 
ATOM     40  C   UNL A   1      36.915  33.313  29.315  1.00  0.00     0.010 A 
ATOM     41  C   UNL A   1      36.572  32.268  30.199  1.00  0.00    -0.014 A 
BRANCH  41  42
ATOM     42  C   UNL A   1      37.651  31.473  30.863  1.00  0.00     0.031 A 
ATOM     43  C   UNL A   1      38.151  31.896  32.224  1.00  0.00     0.074 A 
ATOM     44  C   UNL A   1      38.278  30.459  30.227  1.00  0.00     0.049 A 
ATOM     45  N   UNL A   1      39.188  31.472  32.904  1.00  0.00    -0.248 NA
ATOM     46  C   UNL A   1      37.400  32.971  32.892  1.00  0.00     0.031 C 
ATOM     47  C   UNL A   1      37.975  29.974  28.880  1.00  0.00     0.029 A 
ATOM     48  N   UNL A   1      39.384  29.725  30.599  1.00  0.00    -0.354 N 
ATOM     49  C   UNL A   1      39.212  32.228  34.068  1.00  0.00     0.074 A 
ATOM     50  C   UNL A   1      38.152  33.207  33.956  1.00  0.00     0.031 C 
ATOM     51  C   UNL A   1      38.922  29.097  28.503  1.00  0.00     0.029 A 
ATOM     52  C   UNL A   1      39.889  28.941  29.587  1.00  0.00     0.049 A 
ATOM     53  H   UNL A   1      39.777  29.760  31.501  1.00  0.00     0.167 HD
ATOM     54  C   UNL A   1      40.000  32.089  35.163  1.00  0.00     0.037 A 
ATOM     55  C   UNL A   1      41.013  28.201  29.528  1.00  0.00     0.037 A 
ATOM     56  C   UNL A   1      41.011  31.078  35.316  1.00  0.00     0.049 A 
ATOM     57  C   UNL A   1      41.887  28.061  30.746  1.00  0.00     0.074 A 
ATOM     58  C   UNL A   1      41.752  30.761  36.442  1.00  0.00     0.029 A 
ATOM     59  N   UNL A   1      41.424  30.220  34.312  1.00  0.00    -0.354 N 
ATOM     60  N   UNL A   1      41.806  28.675  31.899  1.00  0.00    -0.248 NA
ATOM     61  C   UNL A   1      42.983  27.082  30.667  1.00  0.00     0.031 C 
ATOM     62  C   UNL A   1      42.642  29.734  36.108  1.00  0.00     0.029 A 
ATOM     63  C   UNL A   1      42.421  29.383  34.787  1.00  0.00     0.049 A 
ATOM     64  H   UNL A   1      41.063  30.206  33.396  1.00  0.00     0.167 HD
ATOM     65  C   UNL A   1      42.785  28.104  32.705  1.00  0.00     0.074 A 
ATOM     66  C   UNL A   1      43.464  27.112  31.901  1.00  0.00     0.031 C 
ATOM     67  C   UNL A   1      43.071  28.366  34.003  1.00  0.00     0.037 A 
BRANCH  54  68
ATOM     68  C   UNL A   1      39.756  33.022  36.316  1.00  0.00     0.064 A 
ATOM     69  C   UNL A   1      38.845  32.700  37.335  1.00  0.00     0.173 A 
ATOM     70  C   UNL A   1      40.468  34.225  36.429  1.00  0.00     0.173 A 
ATOM     71  F   UNL A   1      38.137  31.562  37.272  1.00  0.00    -0.203 F 
ATOM     72  C   UNL A   1      38.625  33.566  38.401  1.00  0.00     0.198 A 
ATOM     73  C   UNL A   1      40.270  35.074  37.516  1.00  0.00     0.198 A 
ATOM     74  F   UNL A   1      41.359  34.575  35.490  1.00  0.00    -0.203 F 
ATOM     75  F   UNL A   1      37.707  33.263  39.330  1.00  0.00    -0.200 F 
ATOM     76  C   UNL A   1      39.342  34.749  38.495  1.00  0.00     0.200 A 
ATOM     77  F   UNL A   1      40.976  36.208  37.615  1.00  0.00    -0.200 F 
ATOM     78  F   UNL A   1      39.135  35.578  39.527  1.00  0.00    -0.200 F 
ENDBRANCH  54  68
BRANCH  55  79
ATOM     79  C   UNL A   1      41.371  27.480  28.278  1.00  0.00     0.064 A 
ATOM     80  C   UNL A   1      42.208  28.072  27.323  1.00  0.00     0.173 A 
ATOM     81  C   UNL A   1      40.835  26.218  27.989  1.00  0.00     0.173 A 
ATOM     82  F   UNL A   1      42.719  29.291  27.546  1.00  0.00    -0.203 F 
ATOM     83  C   UNL A   1      42.467  27.445  26.107  1.00  0.00     0.198 A 
ATOM     84  C   UNL A   1      41.114  25.580  26.780  1.00  0.00     0.198 A 
ATOM     85  F   UNL A   1      40.026  25.613  28.871  1.00  0.00    -0.203 F 
ATOM     86  F   UNL A   1      43.220  28.061  25.185  1.00  0.00    -0.200 F 
ATOM     87  C   UNL A   1      41.920  26.199  25.837  1.00  0.00     0.200 A 
ATOM     88  F   UNL A   1      40.587  24.376  26.521  1.00  0.00    -0.200 F 
ATOM     89  F   UNL A   1      42.158  25.604  24.659  1.00  0.00    -0.200 F 
ENDBRANCH  55  79
BRANCH  67  90
ATOM     90  C   UNL A   1      44.094  27.497  34.678  1.00  0.00     0.064 A 
ATOM     91  C   UNL A   1      45.443  27.864  34.773  1.00  0.00     0.173 A 
ATOM     92  C   UNL A   1      43.704  26.280  35.258  1.00  0.00     0.173 A 
ATOM     93  F   UNL A   1      45.872  29.010  34.221  1.00  0.00    -0.203 F 
ATOM     94  C   UNL A   1      46.370  27.031  35.397  1.00  0.00     0.198 A 
ATOM     95  C   UNL A   1      44.626  25.464  35.909  1.00  0.00     0.198 A 
ATOM     96  F   UNL A   1      42.424  25.882  35.201  1.00  0.00    -0.203 F 
ATOM     97  F   UNL A   1      47.664  27.377  35.428  1.00  0.00    -0.200 F 
ATOM     98  C   UNL A   1      45.960  25.836  35.969  1.00  0.00     0.200 A 
ATOM     99  F   UNL A   1      44.223  24.316  36.471  1.00  0.00    -0.200 F 
ATOM    100  F   UNL A   1      46.852  25.038  36.571  1.00  0.00    -0.200 F 
ENDBRANCH  67  90
ENDBRANCH  41  42
ENDBRANCH  34  36
ENDBRANCH  33  34
ENDBRANCH  32  33
ENDBRANCH  31  32
ENDBRANCH  30  31
ENDBRANCH   1  30
TORSDOF 19
ENDMDL
MODEL 3
REMARK VINA RESULT:     -11.3      4.932     10.841
REMARK SMILES COc1cc([C@@H]2[NH2+][C@H](C(=O)OCCOCCOC(=O)c3ccc(-c4c5nc(c(-c6c(F)c(F)c(F)c(F)c6F)c6ccc([nH]6)c(-c6c(F)c(F)c(F)c(F)c6F)c6nc(c(-c7c(F)c(F)c(F)c(F)c7F)c7ccc4[nH]7)C=C6)C=C5)cc3)CS2)ccc1OCc1ccc(Cl)cc1
REMARK SMILES IDX 13 1 12 2 11 3 9 4 10 5 8 6 6 7 7 8 84 9 83 12 5 13 3 14
REMARK SMILES IDX 4 15 87 16 86 17 85 18 2 19 1 20 88 21 89 22 90 23 91 24
REMARK SMILES IDX 96 25 92 26 95 27 93 28 94 29 14 30 15 31 16 32 17 33 18 34
REMARK SMILES IDX 19 35 20 36 21 37 82 38 22 39 81 40 23 41 24 42 25 43 75 44
REMARK SMILES IDX 26 45 80 46 74 47 76 48 27 49 79 50 73 51 72 52 28 54 60 55
REMARK SMILES IDX 40 56 59 57 41 58 44 59 58 60 77 61 42 62 43 63 57 65 78 66
REMARK SMILES IDX 45 67 29 68 30 69 38 70 31 71 32 72 36 73 39 74 33 75 34 76
REMARK SMILES IDX 37 77 35 78 61 79 62 80 70 81 63 82 64 83 68 84 71 85 65 86
REMARK SMILES IDX 66 87 69 88 67 89 46 90 47 91 55 92 48 93 49 94 53 95 56 96
REMARK SMILES IDX 50 97 51 98 54 99 52 100
REMARK H PARENT 7 10 7 11 76 53 44 64
REMARK Flexibility Score: inf
ROOT
ATOM      1  C   UNL A   1      34.482  34.184  31.476  1.00  0.00     0.202 C 
ENDROOT
BRANCH   1   2
ATOM      2  C   UNL A   1      34.787  32.811  32.079  1.00  0.00     0.261 C 
BRANCH   2   3
ATOM      3  O   UNL A   1      36.148  32.796  32.545  1.00  0.00    -0.459 OA
BRANCH   3   4
ATOM      4  C   UNL A   1      36.401  33.351  33.755  1.00  0.00     0.365 C 
ATOM      5  O   UNL A   1      35.809  33.067  34.790  1.00  0.00    -0.245 OA
BRANCH   4   6
ATOM      6  C   UNL A   1      37.495  34.426  33.703  1.00  0.00     0.304 C 
ATOM      7  C   UNL A   1      39.803  34.060  34.376  1.00  0.00     0.274 C 
ATOM      8  N   UNL A   1      38.452  34.369  34.848  1.00  0.00    -0.319 N 
ATOM      9  S   UNL A   1      39.935  34.581  32.659  1.00  0.00    -0.087 SA
ATOM     10  H   UNL A   1      38.462  35.273  35.322  1.00  0.00     0.348 HD
ATOM     11  H   UNL A   1      38.153  33.637  35.492  1.00  0.00     0.348 HD
ATOM     12  C   UNL A   1      38.175  34.375  32.341  1.00  0.00     0.153 C 
BRANCH   7  13
ATOM     13  C   UNL A   1      40.189  32.618  34.650  1.00  0.00     0.024 A 
ATOM     14  C   UNL A   1      41.274  30.973  36.118  1.00  0.00     0.161 A 
ATOM     15  C   UNL A   1      40.930  32.300  35.805  1.00  0.00     0.061 A 
ATOM     16  C   UNL A   1      40.837  29.928  35.301  1.00  0.00     0.161 A 
ATOM     17  C   UNL A   1      40.080  30.237  34.167  1.00  0.00     0.051 A 
ATOM     18  C   UNL A   1      39.779  31.557  33.834  1.00  0.00     0.015 A 
BRANCH  14  19
ATOM     19  O   UNL A   1      41.922  30.734  37.301  1.00  0.00    -0.493 OA
ATOM     20  C   UNL A   1      43.337  30.622  37.141  1.00  0.00     0.278 C 
ENDBRANCH  14  19
BRANCH  16  21
ATOM     21  O   UNL A   1      41.033  28.584  35.434  1.00  0.00    -0.485 OA
BRANCH  21  22
ATOM     22  C   UNL A   1      41.447  27.804  34.320  1.00  0.00     0.265 C 
BRANCH  22  23
ATOM     23  C   UNL A   1      42.113  26.490  34.629  1.00  0.00    -0.011 A 
ATOM     24  C   UNL A   1      41.539  25.525  35.461  1.00  0.00     0.009 A 
ATOM     25  C   UNL A   1      43.386  26.258  34.082  1.00  0.00     0.009 A 
ATOM     26  C   UNL A   1      42.200  24.320  35.696  1.00  0.00     0.021 A 
ATOM     27  C   UNL A   1      44.049  25.058  34.319  1.00  0.00     0.021 A 
ATOM     28  C   UNL A   1      43.446  24.088  35.116  1.00  0.00     0.041 A 
ATOM     29  Cl  UNL A   1      44.247  22.591  35.386  1.00  0.00    -0.084 Cl
ENDBRANCH  22  23
ENDBRANCH  21  22
ENDBRANCH  16  21
ENDBRANCH   7  13
ENDBRANCH   4   6
ENDBRANCH   3   4
ENDBRANCH   2   3
ENDBRANCH   1   2
BRANCH   1  30
ATOM     30  O   UNL A   1      33.694  34.136  30.281  1.00  0.00    -0.374 OA
BRANCH  30  31
ATOM     31  C   UNL A   1      34.414  34.286  29.059  1.00  0.00     0.202 C 
BRANCH  31  32
ATOM     32  C   UNL A   1      34.376  33.083  28.110  1.00  0.00     0.261 C 
BRANCH  32  33
ATOM     33  O   UNL A   1      34.389  31.822  28.796  1.00  0.00    -0.460 OA
BRANCH  33  34
ATOM     34  C   UNL A   1      34.575  30.747  27.995  1.00  0.00     0.338 C 
ATOM     35  O   UNL A   1      33.835  30.349  27.101  1.00  0.00    -0.246 OA
BRANCH  34  36
ATOM     36  C   UNL A   1      35.880  30.123  28.270  1.00  0.00     0.060 A 
ATOM     37  C   UNL A   1      36.144  29.656  29.565  1.00  0.00     0.016 A 
ATOM     38  C   UNL A   1      36.872  30.077  27.295  1.00  0.00     0.016 A 
ATOM     39  C   UNL A   1      37.413  29.169  29.897  1.00  0.00     0.010 A 
ATOM     40  C   UNL A   1      38.136  29.591  27.635  1.00  0.00     0.010 A 
ATOM     41  C   UNL A   1      38.435  29.143  28.940  1.00  0.00    -0.014 A 
BRANCH  41  42
ATOM     42  C   UNL A   1      39.834  28.737  29.283  1.00  0.00     0.031 A 
ATOM     43  C   UNL A   1      40.776  29.758  29.875  1.00  0.00     0.074 A 
ATOM     44  C   UNL A   1      40.316  27.516  28.965  1.00  0.00     0.049 A 
ATOM     45  N   UNL A   1      42.068  29.683  30.081  1.00  0.00    -0.248 NA
ATOM     46  C   UNL A   1      40.188  31.054  30.248  1.00  0.00     0.031 C 
ATOM     47  C   UNL A   1      39.564  26.439  28.317  1.00  0.00     0.029 A 
ATOM     48  N   UNL A   1      41.598  27.017  29.047  1.00  0.00    -0.354 N 
ATOM     49  C   UNL A   1      42.440  30.916  30.602  1.00  0.00     0.074 A 
ATOM     50  C   UNL A   1      41.261  31.754  30.581  1.00  0.00     0.031 C 
ATOM     51  C   UNL A   1      40.411  25.452  27.978  1.00  0.00     0.029 A 
ATOM     52  C   UNL A   1      41.762  25.814  28.401  1.00  0.00     0.049 A 
ATOM     53  H   UNL A   1      42.327  27.478  29.522  1.00  0.00     0.167 HD
ATOM     54  C   UNL A   1      43.635  31.305  31.110  1.00  0.00     0.037 A 
ATOM     55  C   UNL A   1      42.874  25.094  28.154  1.00  0.00     0.037 A 
ATOM     56  C   UNL A   1      44.796  30.462  31.200  1.00  0.00     0.049 A 
ATOM     57  C   UNL A   1      44.199  25.540  28.714  1.00  0.00     0.074 A 
ATOM     58  C   UNL A   1      46.000  30.714  31.835  1.00  0.00     0.029 A 
ATOM     59  N   UNL A   1      44.898  29.202  30.637  1.00  0.00    -0.354 N 
ATOM     60  N   UNL A   1      44.503  26.649  29.341  1.00  0.00    -0.248 NA
ATOM     61  C   UNL A   1      45.326  24.605  28.574  1.00  0.00     0.031 C 
ATOM     62  C   UNL A   1      46.846  29.619  31.624  1.00  0.00     0.029 A 
ATOM     63  C   UNL A   1      46.152  28.669  30.896  1.00  0.00     0.049 A 
ATOM     64  H   UNL A   1      44.187  28.751  30.127  1.00  0.00     0.167 HD
ATOM     65  C   UNL A   1      45.828  26.511  29.737  1.00  0.00     0.074 A 
ATOM     66  C   UNL A   1      46.278  25.223  29.258  1.00  0.00     0.031 C 
ATOM     67  C   UNL A   1      46.590  27.370  30.456  1.00  0.00     0.037 A 
BRANCH  54  68
ATOM     68  C   UNL A   1      43.731  32.697  31.670  1.00  0.00     0.064 A 
ATOM     69  C   UNL A   1      43.615  32.937  33.049  1.00  0.00     0.173 A 
ATOM     70  C   UNL A   1      43.983  33.792  30.832  1.00  0.00     0.173 A 
ATOM     71  F   UNL A   1      43.371  31.924  33.893  1.00  0.00    -0.203 F 
ATOM     72  C   UNL A   1      43.707  34.228  33.563  1.00  0.00     0.198 A 
ATOM     73  C   UNL A   1      44.109  35.078  31.354  1.00  0.00     0.198 A 
ATOM     74  F   UNL A   1      44.115  33.617  29.510  1.00  0.00    -0.203 F 
ATOM     75  F   UNL A   1      43.534  34.438  34.875  1.00  0.00    -0.200 F 
ATOM     76  C   UNL A   1      43.960  35.295  32.716  1.00  0.00     0.200 A 
ATOM     77  F   UNL A   1      44.371  36.108  30.538  1.00  0.00    -0.200 F 
ATOM     78  F   UNL A   1      44.056  36.537  33.213  1.00  0.00    -0.200 F 
ENDBRANCH  54  68
BRANCH  55  79
ATOM     79  C   UNL A   1      42.793  23.834  27.370  1.00  0.00     0.064 A 
ATOM     80  C   UNL A   1      42.432  22.627  27.984  1.00  0.00     0.173 A 
ATOM     81  C   UNL A   1      43.136  23.801  26.011  1.00  0.00     0.173 A 
ATOM     82  F   UNL A   1      42.126  22.608  29.289  1.00  0.00    -0.203 F 
ATOM     83  C   UNL A   1      42.452  21.427  27.278  1.00  0.00     0.198 A 
ATOM     84  C   UNL A   1      43.133  22.602  25.299  1.00  0.00     0.198 A 
ATOM     85  F   UNL A   1      43.491  24.930  25.381  1.00  0.00    -0.203 F 
ATOM     86  F   UNL A   1      42.163  20.278  27.906  1.00  0.00    -0.200 F 
ATOM     87  C   UNL A   1      42.802  21.415  25.936  1.00  0.00     0.200 A 
ATOM     88  F   UNL A   1      43.469  22.593  24.002  1.00  0.00    -0.200 F 
ATOM     89  F   UNL A   1      42.836  20.257  25.262  1.00  0.00    -0.200 F 
ENDBRANCH  55  79
BRANCH  67  90
ATOM     90  C   UNL A   1      47.958  26.909  30.869  1.00  0.00     0.064 A 
ATOM     91  C   UNL A   1      48.174  26.137  32.019  1.00  0.00     0.173 A 
ATOM     92  C   UNL A   1      49.073  27.233  30.079  1.00  0.00     0.173 A 
ATOM     93  F   UNL A   1      47.145  25.813  32.817  1.00  0.00    -0.203 F 
ATOM     94  C   UNL A   1      49.457  25.734  32.381  1.00  0.00     0.198 A 
ATOM     95  C   UNL A   1      50.351  26.802  30.426  1.00  0.00     0.198 A 
ATOM     96  F   UNL A   1      48.923  27.965  28.965  1.00  0.00    -0.203 F 
ATOM     97  F   UNL A   1      49.646  25.044  33.513  1.00  0.00    -0.200 F 
ATOM     98  C   UNL A   1      50.543  26.061  31.582  1.00  0.00     0.200 A 
ATOM     99  F   UNL A   1      51.395  27.109  29.645  1.00  0.00    -0.200 F 
ATOM    100  F   UNL A   1      51.776  25.670  31.930  1.00  0.00    -0.200 F 
ENDBRANCH  67  90
ENDBRANCH  41  42
ENDBRANCH  34  36
ENDBRANCH  33  34
ENDBRANCH  32  33
ENDBRANCH  31  32
ENDBRANCH  30  31
ENDBRANCH   1  30
TORSDOF 19
ENDMDL
