MODEL 1
REMARK VINA RESULT:     -11.9      0.000      0.000
REMARK SMILES Cc1ccc(NC(=O)N2CCCC[C@@H]2C(=O)OCCOCCOC(=O)c2ccc(-c3c4nc(c(-c5c(F)c(F)c(F)c(F)c5F)c5ccc([nH]5)c(-c5c(F)c(F)c(F)c(F)c5F)c5nc(c(-c6c(F)c(F)c(F)c(F)c6F)c6ccc3[nH]6)C=C5)C=C4)cc2)cc1
REMARK SMILES IDX 20 1 19 2 18 3 17 4 15 5 16 6 14 7 9 8 10 9 11 10 13 11
REMARK SMILES IDX 12 12 7 13 6 14 8 16 5 17 1 18 2 19 3 20 90 21 4 22 89 23
REMARK SMILES IDX 21 24 22 25 23 26 24 27 25 28 26 29 27 30 88 31 28 32 87 33
REMARK SMILES IDX 29 34 30 35 31 36 81 37 32 38 86 39 80 40 82 41 33 42 85 43
REMARK SMILES IDX 79 44 78 45 34 47 66 48 46 49 65 50 47 51 50 52 64 53 83 54
REMARK SMILES IDX 48 55 49 56 63 58 84 59 51 60 35 61 36 62 44 63 37 64 38 65
REMARK SMILES IDX 42 66 45 67 39 68 40 69 43 70 41 71 67 72 68 73 76 74 69 75
REMARK SMILES IDX 70 76 74 77 77 78 71 79 72 80 75 81 73 82 52 83 53 84 61 85
REMARK SMILES IDX 54 86 55 87 59 88 62 89 56 90 57 91 60 92 58 93
REMARK H PARENT 6 15 82 46 50 57
REMARK Flexibility Score: inf
ROOT
ATOM      1  O   UNL A   1      31.551  29.520  25.710  1.00  0.00    -0.374 OA
ENDROOT
BRANCH   1   2
ATOM      2  C   UNL A   1      31.320  28.756  24.534  1.00  0.00     0.202 C 
BRANCH   2   3
ATOM      3  C   UNL A   1      31.024  27.340  24.979  1.00  0.00     0.261 C 
BRANCH   3   4
ATOM      4  O   UNL A   1      32.050  26.419  24.565  1.00  0.00    -0.462 OA
BRANCH   4   5
ATOM      5  C   UNL A   1      32.983  26.044  25.499  1.00  0.00     0.329 C 
ATOM      6  O   UNL A   1      33.758  26.819  26.019  1.00  0.00    -0.250 OA
BRANCH   5   7
ATOM      7  C   UNL A   1      32.894  24.525  25.796  1.00  0.00     0.196 C 
ATOM      8  N   UNL A   1      32.757  23.623  24.612  1.00  0.00    -0.311 N 
ATOM      9  C   UNL A   1      31.950  22.406  24.744  1.00  0.00     0.122 C 
ATOM     10  C   UNL A   1      30.802  22.460  25.732  1.00  0.00     0.022 C 
ATOM     11  C   UNL A   1      31.785  24.367  26.876  1.00  0.00     0.037 C 
ATOM     12  C   UNL A   1      31.303  22.952  27.073  1.00  0.00     0.005 C 
BRANCH   8  13
ATOM     13  C   UNL A   1      33.535  23.616  23.467  1.00  0.00     0.322 C 
ATOM     14  N   UNL A   1      34.872  23.784  23.481  1.00  0.00    -0.308 N 
ATOM     15  H   UNL A   1      35.197  24.363  22.753  1.00  0.00     0.171 HD
ATOM     16  O   UNL A   1      33.015  23.540  22.345  1.00  0.00    -0.248 OA
BRANCH  14  17
ATOM     17  C   UNL A   1      35.898  23.312  24.305  1.00  0.00     0.042 A 
ATOM     18  C   UNL A   1      39.327  21.811  26.415  1.00  0.00     0.044 C 
ATOM     19  C   UNL A   1      38.070  22.287  25.752  1.00  0.00    -0.051 A 
ATOM     20  C   UNL A   1      37.588  23.577  26.005  1.00  0.00     0.005 A 
ATOM     21  C   UNL A   1      37.404  21.483  24.822  1.00  0.00     0.005 A 
ATOM     22  C   UNL A   1      36.491  24.078  25.300  1.00  0.00     0.026 A 
ATOM     23  C   UNL A   1      36.308  21.986  24.122  1.00  0.00     0.026 A 
ENDBRANCH  14  17
ENDBRANCH   8  13
ENDBRANCH   5   7
ENDBRANCH   4   5
ENDBRANCH   3   4
ENDBRANCH   2   3
ENDBRANCH   1   2
BRANCH   1  24
ATOM     24  C   UNL A   1      32.854  30.068  25.850  1.00  0.00     0.202 C 
BRANCH  24  25
ATOM     25  C   UNL A   1      33.183  30.541  27.273  1.00  0.00     0.261 C 
BRANCH  25  26
ATOM     26  O   UNL A   1      34.414  31.291  27.253  1.00  0.00    -0.460 OA
BRANCH  26  27
ATOM     27  C   UNL A   1      35.056  31.396  28.444  1.00  0.00     0.338 C 
ATOM     28  O   UNL A   1      35.018  32.368  29.188  1.00  0.00    -0.246 OA
BRANCH  27  29
ATOM     29  C   UNL A   1      36.042  30.287  28.579  1.00  0.00     0.060 A 
ATOM     30  C   UNL A   1      36.228  29.666  29.828  1.00  0.00     0.016 A 
ATOM     31  C   UNL A   1      36.970  30.080  27.560  1.00  0.00     0.016 A 
ATOM     32  C   UNL A   1      37.410  28.959  30.096  1.00  0.00     0.010 A 
ATOM     33  C   UNL A   1      38.163  29.452  27.854  1.00  0.00     0.010 A 
ATOM     34  C   UNL A   1      38.415  28.921  29.130  1.00  0.00    -0.014 A 
BRANCH  34  35
ATOM     35  C   UNL A   1      39.797  28.473  29.350  1.00  0.00     0.031 A 
ATOM     36  C   UNL A   1      40.179  27.091  28.970  1.00  0.00     0.074 A 
ATOM     37  C   UNL A   1      40.788  29.360  29.620  1.00  0.00     0.049 A 
ATOM     38  N   UNL A   1      41.342  26.583  29.198  1.00  0.00    -0.248 NA
ATOM     39  C   UNL A   1      39.277  26.134  28.336  1.00  0.00     0.031 C 
ATOM     40  C   UNL A   1      42.215  29.195  29.342  1.00  0.00     0.029 A 
ATOM     41  N   UNL A   1      40.735  30.643  30.191  1.00  0.00    -0.354 N 
ATOM     42  C   UNL A   1      41.467  25.435  28.459  1.00  0.00     0.074 A 
ATOM     43  C   UNL A   1      40.112  25.119  28.082  1.00  0.00     0.031 C 
ATOM     44  C   UNL A   1      42.915  30.181  29.921  1.00  0.00     0.029 A 
ATOM     45  C   UNL A   1      41.997  30.883  30.786  1.00  0.00     0.049 A 
ATOM     46  H   UNL A   1      39.967  31.258  30.180  1.00  0.00     0.167 HD
ATOM     47  C   UNL A   1      42.728  24.993  28.169  1.00  0.00     0.037 A 
ATOM     48  C   UNL A   1      42.112  31.027  32.135  1.00  0.00     0.037 A 
ATOM     49  C   UNL A   1      43.747  25.747  28.939  1.00  0.00     0.049 A 
ATOM     50  C   UNL A   1      42.902  29.895  32.753  1.00  0.00     0.074 A 
ATOM     51  C   UNL A   1      44.812  26.584  28.640  1.00  0.00     0.029 A 
ATOM     52  N   UNL A   1      43.588  25.851  30.318  1.00  0.00    -0.354 N 
ATOM     53  N   UNL A   1      43.476  28.954  32.056  1.00  0.00    -0.248 NA
ATOM     54  C   UNL A   1      43.042  29.669  34.186  1.00  0.00     0.031 C 
ATOM     55  C   UNL A   1      45.281  27.172  29.862  1.00  0.00     0.029 A 
ATOM     56  C   UNL A   1      44.528  26.671  30.910  1.00  0.00     0.049 A 
ATOM     57  H   UNL A   1      42.879  25.386  30.819  1.00  0.00     0.167 HD
ATOM     58  C   UNL A   1      43.956  27.977  32.870  1.00  0.00     0.074 A 
ATOM     59  C   UNL A   1      43.662  28.475  34.208  1.00  0.00     0.031 C 
ATOM     60  C   UNL A   1      44.506  26.831  32.366  1.00  0.00     0.037 A 
BRANCH  47  61
ATOM     61  C   UNL A   1      43.089  23.960  27.104  1.00  0.00     0.064 A 
ATOM     62  C   UNL A   1      42.749  22.597  27.285  1.00  0.00     0.173 A 
ATOM     63  C   UNL A   1      43.816  24.207  25.918  1.00  0.00     0.173 A 
ATOM     64  F   UNL A   1      42.053  22.187  28.353  1.00  0.00    -0.203 F 
ATOM     65  C   UNL A   1      43.117  21.592  26.378  1.00  0.00     0.198 A 
ATOM     66  C   UNL A   1      44.145  23.210  24.991  1.00  0.00     0.198 A 
ATOM     67  F   UNL A   1      44.287  25.412  25.599  1.00  0.00    -0.203 F 
ATOM     68  F   UNL A   1      42.799  20.314  26.636  1.00  0.00    -0.200 F 
ATOM     69  C   UNL A   1      43.807  21.899  25.226  1.00  0.00     0.200 A 
ATOM     70  F   UNL A   1      44.813  23.539  23.876  1.00  0.00    -0.200 F 
ATOM     71  F   UNL A   1      44.153  20.942  24.354  1.00  0.00    -0.200 F 
ENDBRANCH  47  61
BRANCH  48  72
ATOM     72  C   UNL A   1      40.928  31.746  32.689  1.00  0.00     0.064 A 
ATOM     73  C   UNL A   1      39.941  30.960  33.325  1.00  0.00     0.173 A 
ATOM     74  C   UNL A   1      41.008  33.097  33.053  1.00  0.00     0.173 A 
ATOM     75  F   UNL A   1      39.837  29.652  33.038  1.00  0.00    -0.203 F 
ATOM     76  C   UNL A   1      39.182  31.462  34.380  1.00  0.00     0.198 A 
ATOM     77  C   UNL A   1      40.240  33.596  34.109  1.00  0.00     0.198 A 
ATOM     78  F   UNL A   1      41.930  33.894  32.494  1.00  0.00    -0.203 F 
ATOM     79  F   UNL A   1      38.379  30.643  35.078  1.00  0.00    -0.200 F 
ATOM     80  C   UNL A   1      39.363  32.769  34.798  1.00  0.00     0.200 A 
ATOM     81  F   UNL A   1      40.429  34.853  34.534  1.00  0.00    -0.200 F 
ATOM     82  F   UNL A   1      38.747  33.209  35.904  1.00  0.00    -0.200 F 
ENDBRANCH  48  72
BRANCH  60  83
ATOM     83  C   UNL A   1      45.007  25.714  33.244  1.00  0.00     0.064 A 
ATOM     84  C   UNL A   1      46.346  25.294  33.243  1.00  0.00     0.173 A 
ATOM     85  C   UNL A   1      44.140  24.985  34.088  1.00  0.00     0.173 A 
ATOM     86  F   UNL A   1      47.228  25.799  32.368  1.00  0.00    -0.203 F 
ATOM     87  C   UNL A   1      46.813  24.326  34.133  1.00  0.00     0.198 A 
ATOM     88  C   UNL A   1      44.596  23.975  34.930  1.00  0.00     0.198 A 
ATOM     89  F   UNL A   1      42.827  25.237  34.152  1.00  0.00    -0.203 F 
ATOM     90  F   UNL A   1      48.120  24.032  34.168  1.00  0.00    -0.200 F 
ATOM     91  C   UNL A   1      45.939  23.671  34.982  1.00  0.00     0.200 A 
ATOM     92  F   UNL A   1      43.723  23.317  35.707  1.00  0.00    -0.200 F 
ATOM     93  F   UNL A   1      46.387  22.748  35.841  1.00  0.00    -0.200 F 
ENDBRANCH  60  83
ENDBRANCH  34  35
ENDBRANCH  27  29
ENDBRANCH  26  27
ENDBRANCH  25  26
ENDBRANCH  24  25
ENDBRANCH   1  24
TORSDOF 16
ENDMDL
MODEL 2
REMARK VINA RESULT:     -11.8      1.427      3.006
REMARK SMILES Cc1ccc(NC(=O)N2CCCC[C@@H]2C(=O)OCCOCCOC(=O)c2ccc(-c3c4nc(c(-c5c(F)c(F)c(F)c(F)c5F)c5ccc([nH]5)c(-c5c(F)c(F)c(F)c(F)c5F)c5nc(c(-c6c(F)c(F)c(F)c(F)c6F)c6ccc3[nH]6)C=C5)C=C4)cc2)cc1
REMARK SMILES IDX 20 1 19 2 18 3 17 4 15 5 16 6 14 7 9 8 10 9 11 10 13 11
REMARK SMILES IDX 12 12 7 13 6 14 8 16 5 17 1 18 2 19 3 20 90 21 4 22 89 23
REMARK SMILES IDX 21 24 22 25 23 26 24 27 25 28 26 29 27 30 88 31 28 32 87 33
REMARK SMILES IDX 29 34 30 35 31 36 81 37 32 38 86 39 80 40 82 41 33 42 85 43
REMARK SMILES IDX 79 44 78 45 34 47 66 48 46 49 65 50 47 51 50 52 64 53 83 54
REMARK SMILES IDX 48 55 49 56 63 58 84 59 51 60 35 61 36 62 44 63 37 64 38 65
REMARK SMILES IDX 42 66 45 67 39 68 40 69 43 70 41 71 67 72 68 73 76 74 69 75
REMARK SMILES IDX 70 76 74 77 77 78 71 79 72 80 75 81 73 82 52 83 53 84 61 85
REMARK SMILES IDX 54 86 55 87 59 88 62 89 56 90 57 91 60 92 58 93
REMARK H PARENT 6 15 82 46 50 57
REMARK Flexibility Score: inf
ROOT
ATOM      1  O   UNL A   1      32.749  28.789  27.604  1.00  0.00    -0.374 OA
ENDROOT
BRANCH   1   2
ATOM      2  C   UNL A   1      31.533  28.054  27.632  1.00  0.00     0.202 C 
BRANCH   2   3
ATOM      3  C   UNL A   1      31.451  27.285  26.331  1.00  0.00     0.261 C 
BRANCH   3   4
ATOM      4  O   UNL A   1      32.105  26.007  26.417  1.00  0.00    -0.462 OA
BRANCH   4   5
ATOM      5  C   UNL A   1      33.233  25.816  25.658  1.00  0.00     0.329 C 
ATOM      6  O   UNL A   1      33.883  26.725  25.188  1.00  0.00    -0.250 OA
BRANCH   5   7
ATOM      7  C   UNL A   1      33.552  24.306  25.504  1.00  0.00     0.196 C 
ATOM      8  N   UNL A   1      32.993  23.629  24.295  1.00  0.00    -0.311 N 
ATOM      9  C   UNL A   1      32.569  22.229  24.405  1.00  0.00     0.122 C 
ATOM     10  C   UNL A   1      32.073  21.779  25.765  1.00  0.00     0.022 C 
ATOM     11  C   UNL A   1      33.169  23.651  26.862  1.00  0.00     0.037 C 
ATOM     12  C   UNL A   1      33.086  22.146  26.827  1.00  0.00     0.005 C 
BRANCH   8  13
ATOM     13  C   UNL A   1      33.087  24.047  22.978  1.00  0.00     0.322 C 
ATOM     14  N   UNL A   1      32.084  24.666  22.326  1.00  0.00    -0.308 N 
ATOM     15  H   UNL A   1      31.977  24.354  21.397  1.00  0.00     0.171 HD
ATOM     16  O   UNL A   1      34.091  23.789  22.300  1.00  0.00    -0.248 OA
BRANCH  14  17
ATOM     17  C   UNL A   1      31.162  25.654  22.682  1.00  0.00     0.042 A 
ATOM     18  C   UNL A   1      28.230  28.738  23.279  1.00  0.00     0.044 C 
ATOM     19  C   UNL A   1      29.305  27.701  23.155  1.00  0.00    -0.051 A 
ATOM     20  C   UNL A   1      29.113  26.423  23.695  1.00  0.00     0.005 A 
ATOM     21  C   UNL A   1      30.476  27.968  22.441  1.00  0.00     0.005 A 
ATOM     22  C   UNL A   1      30.051  25.411  23.478  1.00  0.00     0.026 A 
ATOM     23  C   UNL A   1      31.410  26.956  22.228  1.00  0.00     0.026 A 
ENDBRANCH  14  17
ENDBRANCH   8  13
ENDBRANCH   5   7
ENDBRANCH   4   5
ENDBRANCH   3   4
ENDBRANCH   2   3
ENDBRANCH   1   2
BRANCH   1  24
ATOM     24  C   UNL A   1      32.822  29.832  26.643  1.00  0.00     0.202 C 
BRANCH  24  25
ATOM     25  C   UNL A   1      33.148  31.209  27.240  1.00  0.00     0.261 C 
BRANCH  25  26
ATOM     26  O   UNL A   1      34.060  31.046  28.343  1.00  0.00    -0.460 OA
BRANCH  26  27
ATOM     27  C   UNL A   1      35.330  31.471  28.121  1.00  0.00     0.338 C 
ATOM     28  O   UNL A   1      35.643  32.542  27.615  1.00  0.00    -0.246 OA
BRANCH  27  29
ATOM     29  C   UNL A   1      36.277  30.337  28.312  1.00  0.00     0.060 A 
ATOM     30  C   UNL A   1      36.408  29.741  29.580  1.00  0.00     0.016 A 
ATOM     31  C   UNL A   1      37.228  30.078  27.325  1.00  0.00     0.016 A 
ATOM     32  C   UNL A   1      37.561  29.006  29.899  1.00  0.00     0.010 A 
ATOM     33  C   UNL A   1      38.392  29.422  27.670  1.00  0.00     0.010 A 
ATOM     34  C   UNL A   1      38.591  28.915  28.965  1.00  0.00    -0.014 A 
BRANCH  34  35
ATOM     35  C   UNL A   1      39.952  28.432  29.236  1.00  0.00     0.031 A 
ATOM     36  C   UNL A   1      40.322  27.051  28.840  1.00  0.00     0.074 A 
ATOM     37  C   UNL A   1      40.948  29.291  29.570  1.00  0.00     0.049 A 
ATOM     38  N   UNL A   1      41.462  26.512  29.109  1.00  0.00    -0.248 NA
ATOM     39  C   UNL A   1      39.430  26.128  28.145  1.00  0.00     0.031 C 
ATOM     40  C   UNL A   1      42.382  29.101  29.354  1.00  0.00     0.029 A 
ATOM     41  N   UNL A   1      40.896  30.561  30.169  1.00  0.00    -0.354 N 
ATOM     42  C   UNL A   1      41.596  25.379  28.348  1.00  0.00     0.074 A 
ATOM     43  C   UNL A   1      40.254  25.101  27.904  1.00  0.00     0.031 C 
ATOM     44  C   UNL A   1      43.077  30.057  29.986  1.00  0.00     0.029 A 
ATOM     45  C   UNL A   1      42.135  30.759  30.825  1.00  0.00     0.049 A 
ATOM     46  H   UNL A   1      40.143  31.193  30.138  1.00  0.00     0.167 HD
ATOM     47  C   UNL A   1      42.860  24.916  28.106  1.00  0.00     0.037 A 
ATOM     48  C   UNL A   1      42.191  30.870  32.181  1.00  0.00     0.037 A 
ATOM     49  C   UNL A   1      43.859  25.630  28.938  1.00  0.00     0.049 A 
ATOM     50  C   UNL A   1      42.929  29.708  32.807  1.00  0.00     0.074 A 
ATOM     51  C   UNL A   1      44.953  26.450  28.707  1.00  0.00     0.029 A 
ATOM     52  N   UNL A   1      43.639  25.706  30.310  1.00  0.00    -0.354 N 
ATOM     53  N   UNL A   1      43.514  28.770  32.114  1.00  0.00    -0.248 NA
ATOM     54  C   UNL A   1      42.998  29.446  34.240  1.00  0.00     0.031 C 
ATOM     55  C   UNL A   1      45.379  26.999  29.963  1.00  0.00     0.029 A 
ATOM     56  C   UNL A   1      44.569  26.491  30.963  1.00  0.00     0.049 A 
ATOM     57  H   UNL A   1      42.898  25.246  30.768  1.00  0.00     0.167 HD
ATOM     58  C   UNL A   1      43.936  27.765  32.926  1.00  0.00     0.074 A 
ATOM     59  C   UNL A   1      43.592  28.239  34.260  1.00  0.00     0.031 C 
ATOM     60  C   UNL A   1      44.484  26.618  32.421  1.00  0.00     0.037 A 
BRANCH  47  61
ATOM     61  C   UNL A   1      43.247  23.899  27.033  1.00  0.00     0.064 A 
ATOM     62  C   UNL A   1      42.878  22.539  27.170  1.00  0.00     0.173 A 
ATOM     63  C   UNL A   1      44.025  24.159  25.883  1.00  0.00     0.173 A 
ATOM     64  F   UNL A   1      42.132  22.119  28.200  1.00  0.00    -0.203 F 
ATOM     65  C   UNL A   1      43.266  21.547  26.258  1.00  0.00     0.198 A 
ATOM     66  C   UNL A   1      44.375  23.176  24.949  1.00  0.00     0.198 A 
ATOM     67  F   UNL A   1      44.529  25.363  25.611  1.00  0.00    -0.203 F 
ATOM     68  F   UNL A   1      42.917  20.270  26.475  1.00  0.00    -0.200 F 
ATOM     69  C   UNL A   1      44.007  21.866  25.141  1.00  0.00     0.200 A 
ATOM     70  F   UNL A   1      45.094  23.518  23.869  1.00  0.00    -0.200 F 
ATOM     71  F   UNL A   1      44.372  20.922  24.263  1.00  0.00    -0.200 F 
ENDBRANCH  47  61
BRANCH  48  72
ATOM     72  C   UNL A   1      40.999  31.603  32.699  1.00  0.00     0.064 A 
ATOM     73  C   UNL A   1      40.967  33.000  32.491  1.00  0.00     0.173 A 
ATOM     74  C   UNL A   1      39.773  30.951  32.882  1.00  0.00     0.173 A 
ATOM     75  F   UNL A   1      42.109  33.675  32.280  1.00  0.00    -0.203 F 
ATOM     76  C   UNL A   1      39.763  33.681  32.319  1.00  0.00     0.198 A 
ATOM     77  C   UNL A   1      38.568  31.640  32.713  1.00  0.00     0.198 A 
ATOM     78  F   UNL A   1      39.735  29.624  33.073  1.00  0.00    -0.203 F 
ATOM     79  F   UNL A   1      39.768  34.971  31.950  1.00  0.00    -0.200 F 
ATOM     80  C   UNL A   1      38.565  32.990  32.389  1.00  0.00     0.200 A 
ATOM     81  F   UNL A   1      37.407  30.971  32.754  1.00  0.00    -0.200 F 
ATOM     82  F   UNL A   1      37.417  33.607  32.075  1.00  0.00    -0.200 F 
ENDBRANCH  48  72
BRANCH  60  83
ATOM     83  C   UNL A   1      44.921  25.471  33.293  1.00  0.00     0.064 A 
ATOM     84  C   UNL A   1      46.256  25.048  33.373  1.00  0.00     0.173 A 
ATOM     85  C   UNL A   1      43.995  24.716  34.048  1.00  0.00     0.173 A 
ATOM     86  F   UNL A   1      47.198  25.580  32.580  1.00  0.00    -0.203 F 
ATOM     87  C   UNL A   1      46.659  24.048  34.260  1.00  0.00     0.198 A 
ATOM     88  C   UNL A   1      44.390  23.677  34.886  1.00  0.00     0.198 A 
ATOM     89  F   UNL A   1      42.681  24.969  34.027  1.00  0.00    -0.203 F 
ATOM     90  F   UNL A   1      47.960  23.751  34.378  1.00  0.00    -0.200 F 
ATOM     91  C   UNL A   1      45.726  23.368  35.022  1.00  0.00     0.200 A 
ATOM     92  F   UNL A   1      43.465  22.995  35.575  1.00  0.00    -0.200 F 
ATOM     93  F   UNL A   1      46.112  22.415  35.879  1.00  0.00    -0.200 F 
ENDBRANCH  60  83
ENDBRANCH  34  35
ENDBRANCH  27  29
ENDBRANCH  26  27
ENDBRANCH  25  26
ENDBRANCH  24  25
ENDBRANCH   1  24
TORSDOF 16
ENDMDL
MODEL 3
REMARK VINA RESULT:     -11.8      3.448      9.621
REMARK SMILES Cc1ccc(NC(=O)N2CCCC[C@@H]2C(=O)OCCOCCOC(=O)c2ccc(-c3c4nc(c(-c5c(F)c(F)c(F)c(F)c5F)c5ccc([nH]5)c(-c5c(F)c(F)c(F)c(F)c5F)c5nc(c(-c6c(F)c(F)c(F)c(F)c6F)c6ccc3[nH]6)C=C5)C=C4)cc2)cc1
REMARK SMILES IDX 20 1 19 2 18 3 17 4 15 5 16 6 14 7 9 8 10 9 11 10 13 11
REMARK SMILES IDX 12 12 7 13 6 14 8 16 5 17 1 18 2 19 3 20 90 21 4 22 89 23
REMARK SMILES IDX 21 24 22 25 23 26 24 27 25 28 26 29 27 30 88 31 28 32 87 33
REMARK SMILES IDX 29 34 30 35 31 36 81 37 32 38 86 39 80 40 82 41 33 42 85 43
REMARK SMILES IDX 79 44 78 45 34 47 66 48 46 49 65 50 47 51 50 52 64 53 83 54
REMARK SMILES IDX 48 55 49 56 63 58 84 59 51 60 35 61 36 62 44 63 37 64 38 65
REMARK SMILES IDX 42 66 45 67 39 68 40 69 43 70 41 71 67 72 68 73 76 74 69 75
REMARK SMILES IDX 70 76 74 77 77 78 71 79 72 80 75 81 73 82 52 83 53 84 61 85
REMARK SMILES IDX 54 86 55 87 59 88 62 89 56 90 57 91 60 92 58 93
REMARK H PARENT 6 15 82 46 50 57
REMARK Flexibility Score: inf
ROOT
ATOM      1  O   UNL A   1      36.598  21.372  25.649  1.00  0.00    -0.374 OA
ENDROOT
BRANCH   1   2
ATOM      2  C   UNL A   1      35.306  21.791  25.231  1.00  0.00     0.202 C 
BRANCH   2   3
ATOM      3  C   UNL A   1      35.210  23.274  25.514  1.00  0.00     0.261 C 
BRANCH   3   4
ATOM      4  O   UNL A   1      33.885  23.661  25.920  1.00  0.00    -0.462 OA
BRANCH   4   5
ATOM      5  C   UNL A   1      32.926  23.768  24.944  1.00  0.00     0.329 C 
ATOM      6  O   UNL A   1      32.221  22.845  24.597  1.00  0.00    -0.250 OA
BRANCH   5   7
ATOM      7  C   UNL A   1      32.871  25.209  24.373  1.00  0.00     0.196 C 
ATOM      8  N   UNL A   1      31.638  25.997  24.677  1.00  0.00    -0.311 N 
ATOM      9  C   UNL A   1      31.139  26.939  23.670  1.00  0.00     0.122 C 
ATOM     10  C   UNL A   1      31.422  26.593  22.222  1.00  0.00     0.022 C 
ATOM     11  C   UNL A   1      33.214  25.080  22.861  1.00  0.00     0.037 C 
ATOM     12  C   UNL A   1      32.896  26.306  22.042  1.00  0.00     0.005 C 
BRANCH   8  13
ATOM     13  C   UNL A   1      31.047  26.188  25.914  1.00  0.00     0.322 C 
ATOM     14  N   UNL A   1      31.630  26.880  26.913  1.00  0.00    -0.308 N 
ATOM     15  H   UNL A   1      31.511  26.460  27.795  1.00  0.00     0.171 HD
ATOM     16  O   UNL A   1      29.969  25.646  26.194  1.00  0.00    -0.248 OA
BRANCH  14  17
ATOM     17  C   UNL A   1      32.366  28.067  26.966  1.00  0.00     0.042 A 
ATOM     18  C   UNL A   1      34.424  31.787  27.588  1.00  0.00     0.044 C 
ATOM     19  C   UNL A   1      33.703  30.513  27.267  1.00  0.00    -0.051 A 
ATOM     20  C   UNL A   1      34.421  29.321  27.110  1.00  0.00     0.005 A 
ATOM     21  C   UNL A   1      32.308  30.481  27.192  1.00  0.00     0.005 A 
ATOM     22  C   UNL A   1      33.754  28.106  26.937  1.00  0.00     0.026 A 
ATOM     23  C   UNL A   1      31.646  29.267  27.017  1.00  0.00     0.026 A 
ENDBRANCH  14  17
ENDBRANCH   8  13
ENDBRANCH   5   7
ENDBRANCH   4   5
ENDBRANCH   3   4
ENDBRANCH   2   3
ENDBRANCH   1   2
BRANCH   1  24
ATOM     24  C   UNL A   1      37.654  22.296  25.428  1.00  0.00     0.202 C 
BRANCH  24  25
ATOM     25  C   UNL A   1      39.011  21.837  25.981  1.00  0.00     0.261 C 
BRANCH  25  26
ATOM     26  O   UNL A   1      39.428  22.738  27.026  1.00  0.00    -0.460 OA
BRANCH  26  27
ATOM     27  C   UNL A   1      40.475  23.547  26.720  1.00  0.00     0.338 C 
ATOM     28  O   UNL A   1      41.611  23.170  26.461  1.00  0.00    -0.246 OA
BRANCH  27  29
ATOM     29  C   UNL A   1      40.121  24.960  27.028  1.00  0.00     0.060 A 
ATOM     30  C   UNL A   1      40.670  26.002  26.257  1.00  0.00     0.016 A 
ATOM     31  C   UNL A   1      39.499  25.252  28.241  1.00  0.00     0.016 A 
ATOM     32  C   UNL A   1      40.720  27.308  26.769  1.00  0.00     0.010 A 
ATOM     33  C   UNL A   1      39.622  26.520  28.772  1.00  0.00     0.010 A 
ATOM     34  C   UNL A   1      40.266  27.550  28.065  1.00  0.00    -0.014 A 
BRANCH  34  35
ATOM     35  C   UNL A   1      40.502  28.776  28.839  1.00  0.00     0.031 A 
ATOM     36  C   UNL A   1      39.448  29.820  28.881  1.00  0.00     0.074 A 
ATOM     37  C   UNL A   1      41.517  28.855  29.736  1.00  0.00     0.049 A 
ATOM     38  N   UNL A   1      39.595  30.960  29.464  1.00  0.00    -0.248 NA
ATOM     39  C   UNL A   1      38.146  29.699  28.232  1.00  0.00     0.031 C 
ATOM     40  C   UNL A   1      41.581  29.715  30.918  1.00  0.00     0.029 A 
ATOM     41  N   UNL A   1      42.732  28.153  29.805  1.00  0.00    -0.354 N 
ATOM     42  C   UNL A   1      38.361  31.545  29.589  1.00  0.00     0.074 A 
ATOM     43  C   UNL A   1      37.534  30.807  28.668  1.00  0.00     0.031 C 
ATOM     44  C   UNL A   1      42.809  29.675  31.454  1.00  0.00     0.029 A 
ATOM     45  C   UNL A   1      43.645  28.975  30.508  1.00  0.00     0.049 A 
ATOM     46  H   UNL A   1      42.915  27.260  29.435  1.00  0.00     0.167 HD
ATOM     47  C   UNL A   1      38.198  32.495  30.560  1.00  0.00     0.037 A 
ATOM     48  C   UNL A   1      44.750  29.474  29.888  1.00  0.00     0.037 A 
ATOM     49  C   UNL A   1      39.501  32.881  31.153  1.00  0.00     0.049 A 
ATOM     50  C   UNL A   1      44.689  30.980  29.762  1.00  0.00     0.074 A 
ATOM     51  C   UNL A   1      40.090  32.816  32.407  1.00  0.00     0.029 A 
ATOM     52  N   UNL A   1      40.531  33.255  30.295  1.00  0.00    -0.354 N 
ATOM     53  N   UNL A   1      43.734  31.706  30.273  1.00  0.00    -0.248 NA
ATOM     54  C   UNL A   1      45.628  31.784  28.989  1.00  0.00     0.031 C 
ATOM     55  C   UNL A   1      41.475  33.167  32.275  1.00  0.00     0.029 A 
ATOM     56  C   UNL A   1      41.726  33.478  30.950  1.00  0.00     0.049 A 
ATOM     57  H   UNL A   1      40.418  33.352  29.321  1.00  0.00     0.167 HD
ATOM     58  C   UNL A   1      43.834  32.995  29.854  1.00  0.00     0.074 A 
ATOM     59  C   UNL A   1      45.048  32.997  29.049  1.00  0.00     0.031 C 
ATOM     60  C   UNL A   1      42.883  33.927  30.170  1.00  0.00     0.037 A 
BRANCH  47  61
ATOM     61  C   UNL A   1      36.861  33.013  31.085  1.00  0.00     0.064 A 
ATOM     62  C   UNL A   1      36.044  33.836  30.273  1.00  0.00     0.173 A 
ATOM     63  C   UNL A   1      36.339  32.804  32.381  1.00  0.00     0.173 A 
ATOM     64  F   UNL A   1      36.384  34.130  29.011  1.00  0.00    -0.203 F 
ATOM     65  C   UNL A   1      34.841  34.402  30.724  1.00  0.00     0.198 A 
ATOM     66  C   UNL A   1      35.117  33.333  32.817  1.00  0.00     0.198 A 
ATOM     67  F   UNL A   1      36.990  32.115  33.318  1.00  0.00    -0.203 F 
ATOM     68  F   UNL A   1      34.141  35.209  29.913  1.00  0.00    -0.200 F 
ATOM     69  C   UNL A   1      34.373  34.143  31.993  1.00  0.00     0.200 A 
ATOM     70  F   UNL A   1      34.684  33.060  34.056  1.00  0.00    -0.200 F 
ATOM     71  F   UNL A   1      33.221  34.675  32.424  1.00  0.00    -0.200 F 
ENDBRANCH  47  61
BRANCH  48  72
ATOM     72  C   UNL A   1      45.303  28.481  28.920  1.00  0.00     0.064 A 
ATOM     73  C   UNL A   1      46.018  27.389  29.462  1.00  0.00     0.173 A 
ATOM     74  C   UNL A   1      44.731  28.311  27.653  1.00  0.00     0.173 A 
ATOM     75  F   UNL A   1      46.563  27.484  30.686  1.00  0.00    -0.203 F 
ATOM     76  C   UNL A   1      46.025  26.144  28.837  1.00  0.00     0.198 A 
ATOM     77  C   UNL A   1      44.745  27.060  27.028  1.00  0.00     0.198 A 
ATOM     78  F   UNL A   1      44.031  29.305  27.088  1.00  0.00    -0.203 F 
ATOM     79  F   UNL A   1      46.562  25.083  29.459  1.00  0.00    -0.200 F 
ATOM     80  C   UNL A   1      45.351  25.971  27.639  1.00  0.00     0.200 A 
ATOM     81  F   UNL A   1      44.074  26.881  25.881  1.00  0.00    -0.200 F 
ATOM     82  F   UNL A   1      45.228  24.745  27.112  1.00  0.00    -0.200 F 
ENDBRANCH  48  72
BRANCH  60  83
ATOM     83  C   UNL A   1      42.945  35.351  29.685  1.00  0.00     0.064 A 
ATOM     84  C   UNL A   1      42.353  35.767  28.484  1.00  0.00     0.173 A 
ATOM     85  C   UNL A   1      43.653  36.348  30.394  1.00  0.00     0.173 A 
ATOM     86  F   UNL A   1      41.794  34.881  27.646  1.00  0.00    -0.203 F 
ATOM     87  C   UNL A   1      42.335  37.109  28.099  1.00  0.00     0.198 A 
ATOM     88  C   UNL A   1      43.688  37.675  29.976  1.00  0.00     0.198 A 
ATOM     89  F   UNL A   1      44.314  36.085  31.528  1.00  0.00    -0.203 F 
ATOM     90  F   UNL A   1      41.667  37.474  26.997  1.00  0.00    -0.200 F 
ATOM     91  C   UNL A   1      42.997  38.064  28.849  1.00  0.00     0.200 A 
ATOM     92  F   UNL A   1      44.379  38.575  30.690  1.00  0.00    -0.200 F 
ATOM     93  F   UNL A   1      42.973  39.352  28.486  1.00  0.00    -0.200 F 
ENDBRANCH  60  83
ENDBRANCH  34  35
ENDBRANCH  27  29
ENDBRANCH  26  27
ENDBRANCH  25  26
ENDBRANCH  24  25
ENDBRANCH   1  24
TORSDOF 16
ENDMDL
