MODEL 1
REMARK VINA RESULT:     -11.9      0.000      0.000
REMARK SMILES O=C(CC1(NC(=O)c2ccncc2Cl)CCCCC1)OCCOCCOC(=O)c1ccc(-c2c3nc(c(-c4c(F)c(F)c(F)c(F)c4F)c4ccc([nH]4)c(-c4c(F)c(F)c(F)c(F)c4F)c4nc(c(-c5c(F)c(F)c(F)c(F)c5F)c5ccc2[nH]5)C=C4)C=C3)cc1
REMARK SMILES IDX 22 1 21 2 20 3 2 4 1 5 3 6 4 7 15 8 19 9 16 10 18 11 17 12
REMARK SMILES IDX 5 13 6 14 7 16 8 17 9 18 13 19 10 20 12 21 14 22 11 23 23 24
REMARK SMILES IDX 24 25 25 26 26 27 27 28 28 29 29 30 30 31 91 32 31 33 90 34
REMARK SMILES IDX 32 35 33 36 34 37 84 38 35 39 89 40 83 41 85 42 36 43 88 44
REMARK SMILES IDX 82 45 81 46 37 48 69 49 49 50 68 51 50 52 53 53 67 54 86 55
REMARK SMILES IDX 51 56 52 57 66 59 87 60 54 61 38 62 39 63 47 64 40 65 41 66
REMARK SMILES IDX 45 67 48 68 42 69 43 70 46 71 44 72 70 73 71 74 79 75 72 76
REMARK SMILES IDX 73 77 77 78 80 79 74 80 75 81 78 82 76 83 55 84 56 85 64 86
REMARK SMILES IDX 57 87 58 88 62 89 65 90 59 91 60 92 63 93 61 94
REMARK H PARENT 5 15 85 47 53 58
REMARK Flexibility Score: inf
ROOT
ATOM      1  C   UNL A   1      38.876  20.758  25.824  1.00  0.00     0.202 C 
ENDROOT
BRANCH   1   2
ATOM      2  C   UNL A   1      37.981  21.955  25.596  1.00  0.00     0.261 C 
BRANCH   2   3
ATOM      3  O   UNL A   1      37.348  21.910  24.305  1.00  0.00    -0.463 OA
BRANCH   3   4
ATOM      4  C   UNL A   1      36.485  22.821  23.807  1.00  0.00     0.308 C 
ATOM      5  O   UNL A   1      36.619  23.190  22.639  1.00  0.00    -0.252 OA
BRANCH   4   6
ATOM      6  C   UNL A   1      35.385  23.424  24.666  1.00  0.00     0.151 C 
BRANCH   6   7
ATOM      7  C   UNL A   1      33.969  22.791  24.650  1.00  0.00     0.051 C 
ATOM      8  C   UNL A   1      33.171  23.175  23.370  1.00  0.00     0.029 C 
ATOM      9  C   UNL A   1      34.094  21.223  24.614  1.00  0.00     0.029 C 
ATOM     10  C   UNL A   1      31.862  22.399  23.176  1.00  0.00     0.002 C 
ATOM     11  C   UNL A   1      32.805  20.443  24.373  1.00  0.00     0.002 C 
ATOM     12  C   UNL A   1      32.113  20.906  23.107  1.00  0.00     0.000 C 
BRANCH   7  13
ATOM     13  N   UNL A   1      33.149  23.248  25.823  1.00  0.00    -0.346 N 
ATOM     14  C   UNL A   1      32.376  24.330  26.199  1.00  0.00     0.253 C 
ATOM     15  H   UNL A   1      33.169  22.574  26.540  1.00  0.00     0.164 HD
ATOM     16  O   UNL A   1      31.697  24.157  27.219  1.00  0.00    -0.269 OA
BRANCH  14  17
ATOM     17  C   UNL A   1      32.385  25.719  25.656  1.00  0.00     0.061 A 
ATOM     18  C   UNL A   1      33.582  26.423  25.903  1.00  0.00     0.035 A 
ATOM     19  C   UNL A   1      31.337  26.442  25.089  1.00  0.00     0.072 A 
ATOM     20  C   UNL A   1      33.707  27.746  25.503  1.00  0.00     0.112 A 
ATOM     21  C   UNL A   1      31.579  27.756  24.681  1.00  0.00     0.132 A 
ATOM     22  Cl  UNL A   1      29.713  25.927  24.958  1.00  0.00    -0.082 Cl
ATOM     23  N   UNL A   1      32.740  28.420  24.859  1.00  0.00    -0.263 NA
ENDBRANCH  14  17
ENDBRANCH   7  13
ENDBRANCH   6   7
ENDBRANCH   4   6
ENDBRANCH   3   4
ENDBRANCH   2   3
ENDBRANCH   1   2
BRANCH   1  24
ATOM     24  O   UNL A   1      39.912  21.072  26.747  1.00  0.00    -0.374 OA
BRANCH  24  25
ATOM     25  C   UNL A   1      41.070  20.241  26.636  1.00  0.00     0.202 C 
BRANCH  25  26
ATOM     26  C   UNL A   1      42.262  21.014  26.068  1.00  0.00     0.261 C 
BRANCH  26  27
ATOM     27  O   UNL A   1      41.827  22.301  25.599  1.00  0.00    -0.460 OA
BRANCH  27  28
ATOM     28  C   UNL A   1      42.795  23.234  25.410  1.00  0.00     0.338 C 
ATOM     29  O   UNL A   1      43.621  23.291  24.523  1.00  0.00    -0.246 OA
BRANCH  28  30
ATOM     30  C   UNL A   1      42.542  24.343  26.354  1.00  0.00     0.060 A 
ATOM     31  C   UNL A   1      43.196  25.566  26.137  1.00  0.00     0.016 A 
ATOM     32  C   UNL A   1      41.609  24.207  27.382  1.00  0.00     0.016 A 
ATOM     33  C   UNL A   1      42.897  26.669  26.935  1.00  0.00     0.010 A 
ATOM     34  C   UNL A   1      41.325  25.301  28.189  1.00  0.00     0.010 A 
ATOM     35  C   UNL A   1      41.971  26.530  27.972  1.00  0.00    -0.014 A 
BRANCH  35  36
ATOM     36  C   UNL A   1      41.738  27.606  28.954  1.00  0.00     0.031 A 
ATOM     37  C   UNL A   1      42.543  27.576  30.216  1.00  0.00     0.074 A 
ATOM     38  C   UNL A   1      40.735  28.481  28.774  1.00  0.00     0.049 A 
ATOM     39  N   UNL A   1      42.346  28.209  31.341  1.00  0.00    -0.248 NA
ATOM     40  C   UNL A   1      43.713  26.682  30.221  1.00  0.00     0.031 C 
ATOM     41  C   UNL A   1      39.910  28.585  27.571  1.00  0.00     0.029 A 
ATOM     42  N   UNL A   1      40.203  29.411  29.631  1.00  0.00    -0.354 N 
ATOM     43  C   UNL A   1      43.344  27.765  32.196  1.00  0.00     0.074 A 
ATOM     44  C   UNL A   1      44.145  26.807  31.466  1.00  0.00     0.031 C 
ATOM     45  C   UNL A   1      38.941  29.492  27.785  1.00  0.00     0.029 A 
ATOM     46  C   UNL A   1      39.054  29.993  29.153  1.00  0.00     0.049 A 
ATOM     47  H   UNL A   1      40.605  29.639  30.500  1.00  0.00     0.167 HD
ATOM     48  C   UNL A   1      43.559  28.127  33.480  1.00  0.00     0.037 A 
ATOM     49  C   UNL A   1      38.169  30.793  29.778  1.00  0.00     0.037 A 
ATOM     50  C   UNL A   1      42.753  29.090  34.179  1.00  0.00     0.049 A 
ATOM     51  C   UNL A   1      38.417  31.155  31.222  1.00  0.00     0.074 A 
ATOM     52  C   UNL A   1      42.917  29.587  35.457  1.00  0.00     0.029 A 
ATOM     53  N   UNL A   1      41.621  29.693  33.650  1.00  0.00    -0.354 N 
ATOM     54  N   UNL A   1      39.392  30.777  32.014  1.00  0.00    -0.248 NA
ATOM     55  C   UNL A   1      37.437  32.043  31.861  1.00  0.00     0.031 C 
ATOM     56  C   UNL A   1      41.854  30.457  35.722  1.00  0.00     0.029 A 
ATOM     57  C   UNL A   1      41.056  30.536  34.591  1.00  0.00     0.049 A 
ATOM     58  H   UNL A   1      41.273  29.545  32.742  1.00  0.00     0.167 HD
ATOM     59  C   UNL A   1      39.156  31.394  33.235  1.00  0.00     0.074 A 
ATOM     60  C   UNL A   1      37.954  32.186  33.073  1.00  0.00     0.031 C 
ATOM     61  C   UNL A   1      39.861  31.313  34.390  1.00  0.00     0.037 A 
BRANCH  48  62
ATOM     62  C   UNL A   1      44.685  27.468  34.217  1.00  0.00     0.064 A 
ATOM     63  C   UNL A   1      44.479  26.339  35.022  1.00  0.00     0.173 A 
ATOM     64  C   UNL A   1      45.997  27.946  34.077  1.00  0.00     0.173 A 
ATOM     65  F   UNL A   1      43.241  25.856  35.205  1.00  0.00    -0.203 F 
ATOM     66  C   UNL A   1      45.545  25.717  35.668  1.00  0.00     0.198 A 
ATOM     67  C   UNL A   1      47.063  27.307  34.704  1.00  0.00     0.198 A 
ATOM     68  F   UNL A   1      46.245  29.027  33.322  1.00  0.00    -0.203 F 
ATOM     69  F   UNL A   1      45.321  24.657  36.457  1.00  0.00    -0.200 F 
ATOM     70  C   UNL A   1      46.836  26.195  35.500  1.00  0.00     0.200 A 
ATOM     71  F   UNL A   1      48.310  27.766  34.534  1.00  0.00    -0.200 F 
ATOM     72  F   UNL A   1      47.862  25.586  36.110  1.00  0.00    -0.200 F 
ENDBRANCH  48  62
BRANCH  49  73
ATOM     73  C   UNL A   1      36.950  31.269  29.071  1.00  0.00     0.064 A 
ATOM     74  C   UNL A   1      36.828  32.602  28.658  1.00  0.00     0.173 A 
ATOM     75  C   UNL A   1      35.868  30.410  28.822  1.00  0.00     0.173 A 
ATOM     76  F   UNL A   1      37.825  33.468  28.896  1.00  0.00    -0.203 F 
ATOM     77  C   UNL A   1      35.666  33.065  28.046  1.00  0.00     0.198 A 
ATOM     78  C   UNL A   1      34.717  30.867  28.182  1.00  0.00     0.198 A 
ATOM     79  F   UNL A   1      35.930  29.124  29.196  1.00  0.00    -0.203 F 
ATOM     80  F   UNL A   1      35.557  34.358  27.710  1.00  0.00    -0.200 F 
ATOM     81  C   UNL A   1      34.613  32.196  27.803  1.00  0.00     0.200 A 
ATOM     82  F   UNL A   1      33.706  30.020  27.940  1.00  0.00    -0.200 F 
ATOM     83  F   UNL A   1      33.494  32.642  27.217  1.00  0.00    -0.200 F 
ENDBRANCH  49  73
BRANCH  61  84
ATOM     84  C   UNL A   1      39.360  32.114  35.555  1.00  0.00     0.064 A 
ATOM     85  C   UNL A   1      39.707  33.462  35.716  1.00  0.00     0.173 A 
ATOM     86  C   UNL A   1      38.476  31.541  36.481  1.00  0.00     0.173 A 
ATOM     87  F   UNL A   1      40.561  34.046  34.863  1.00  0.00    -0.203 F 
ATOM     88  C   UNL A   1      39.198  34.205  36.778  1.00  0.00     0.198 A 
ATOM     89  C   UNL A   1      37.947  32.295  37.523  1.00  0.00     0.198 A 
ATOM     90  F   UNL A   1      38.108  30.256  36.361  1.00  0.00    -0.203 F 
ATOM     91  F   UNL A   1      39.572  35.482  36.937  1.00  0.00    -0.200 F 
ATOM     92  C   UNL A   1      38.313  33.625  37.674  1.00  0.00     0.200 A 
ATOM     93  F   UNL A   1      37.080  31.737  38.379  1.00  0.00    -0.200 F 
ATOM     94  F   UNL A   1      37.814  34.346  38.686  1.00  0.00    -0.200 F 
ENDBRANCH  61  84
ENDBRANCH  35  36
ENDBRANCH  28  30
ENDBRANCH  27  28
ENDBRANCH  26  27
ENDBRANCH  25  26
ENDBRANCH  24  25
ENDBRANCH   1  24
TORSDOF 17
ENDMDL
MODEL 2
REMARK VINA RESULT:     -11.7      4.335      8.714
REMARK SMILES O=C(CC1(NC(=O)c2ccncc2Cl)CCCCC1)OCCOCCOC(=O)c1ccc(-c2c3nc(c(-c4c(F)c(F)c(F)c(F)c4F)c4ccc([nH]4)c(-c4c(F)c(F)c(F)c(F)c4F)c4nc(c(-c5c(F)c(F)c(F)c(F)c5F)c5ccc2[nH]5)C=C4)C=C3)cc1
REMARK SMILES IDX 22 1 21 2 20 3 2 4 1 5 3 6 4 7 15 8 19 9 16 10 18 11 17 12
REMARK SMILES IDX 5 13 6 14 7 16 8 17 9 18 13 19 10 20 12 21 14 22 11 23 23 24
REMARK SMILES IDX 24 25 25 26 26 27 27 28 28 29 29 30 30 31 91 32 31 33 90 34
REMARK SMILES IDX 32 35 33 36 34 37 84 38 35 39 89 40 83 41 85 42 36 43 88 44
REMARK SMILES IDX 82 45 81 46 37 48 69 49 49 50 68 51 50 52 53 53 67 54 86 55
REMARK SMILES IDX 51 56 52 57 66 59 87 60 54 61 38 62 39 63 47 64 40 65 41 66
REMARK SMILES IDX 45 67 48 68 42 69 43 70 46 71 44 72 70 73 71 74 79 75 72 76
REMARK SMILES IDX 73 77 77 78 80 79 74 80 75 81 78 82 76 83 55 84 56 85 64 86
REMARK SMILES IDX 57 87 58 88 62 89 65 90 59 91 60 92 63 93 61 94
REMARK H PARENT 5 15 85 47 53 58
REMARK Flexibility Score: inf
ROOT
ATOM      1  C   UNL A   1      33.675  22.774  27.244  1.00  0.00     0.202 C 
ENDROOT
BRANCH   1   2
ATOM      2  C   UNL A   1      32.245  23.054  26.841  1.00  0.00     0.261 C 
BRANCH   2   3
ATOM      3  O   UNL A   1      31.908  24.443  26.996  1.00  0.00    -0.463 OA
BRANCH   3   4
ATOM      4  C   UNL A   1      31.782  25.351  26.005  1.00  0.00     0.308 C 
ATOM      5  O   UNL A   1      32.160  25.050  24.872  1.00  0.00    -0.252 OA
BRANCH   4   6
ATOM      6  C   UNL A   1      31.225  26.740  26.269  1.00  0.00     0.151 C 
BRANCH   6   7
ATOM      7  C   UNL A   1      32.108  27.985  25.991  1.00  0.00     0.051 C 
ATOM      8  C   UNL A   1      31.504  29.280  26.606  1.00  0.00     0.029 C 
ATOM      9  C   UNL A   1      33.508  27.801  26.686  1.00  0.00     0.029 C 
ATOM     10  C   UNL A   1      32.437  30.498  26.575  1.00  0.00     0.002 C 
ATOM     11  C   UNL A   1      34.424  29.021  26.705  1.00  0.00     0.002 C 
ATOM     12  C   UNL A   1      33.728  30.220  27.317  1.00  0.00     0.000 C 
BRANCH   7  13
ATOM     13  N   UNL A   1      32.259  28.235  24.518  1.00  0.00    -0.346 N 
ATOM     14  C   UNL A   1      31.525  28.751  23.466  1.00  0.00     0.253 C 
ATOM     15  H   UNL A   1      33.146  27.943  24.208  1.00  0.00     0.164 HD
ATOM     16  O   UNL A   1      32.172  28.957  22.431  1.00  0.00    -0.269 OA
BRANCH  14  17
ATOM     17  C   UNL A   1      30.049  28.923  23.351  1.00  0.00     0.061 A 
ATOM     18  C   UNL A   1      29.622  30.266  23.421  1.00  0.00     0.035 A 
ATOM     19  C   UNL A   1      29.053  27.949  23.340  1.00  0.00     0.072 A 
ATOM     20  C   UNL A   1      28.268  30.570  23.386  1.00  0.00     0.112 A 
ATOM     21  C   UNL A   1      27.720  28.359  23.261  1.00  0.00     0.132 A 
ATOM     22  Cl  UNL A   1      29.285  26.269  23.555  1.00  0.00    -0.082 Cl
ATOM     23  N   UNL A   1      27.303  29.642  23.268  1.00  0.00    -0.263 NA
ENDBRANCH  14  17
ENDBRANCH   7  13
ENDBRANCH   6   7
ENDBRANCH   4   6
ENDBRANCH   3   4
ENDBRANCH   2   3
ENDBRANCH   1   2
BRANCH   1  24
ATOM     24  O   UNL A   1      34.513  22.681  26.097  1.00  0.00    -0.374 OA
BRANCH  24  25
ATOM     25  C   UNL A   1      34.632  21.360  25.564  1.00  0.00     0.202 C 
BRANCH  25  26
ATOM     26  C   UNL A   1      36.073  21.053  25.147  1.00  0.00     0.261 C 
BRANCH  26  27
ATOM     27  O   UNL A   1      36.976  21.925  25.845  1.00  0.00    -0.460 OA
BRANCH  27  28
ATOM     28  C   UNL A   1      38.274  21.531  25.902  1.00  0.00     0.338 C 
ATOM     29  O   UNL A   1      38.774  20.523  25.447  1.00  0.00    -0.246 OA
BRANCH  28  30
ATOM     30  C   UNL A   1      39.067  22.665  26.422  1.00  0.00     0.060 A 
ATOM     31  C   UNL A   1      38.647  23.969  26.114  1.00  0.00     0.016 A 
ATOM     32  C   UNL A   1      40.150  22.448  27.273  1.00  0.00     0.016 A 
ATOM     33  C   UNL A   1      39.298  25.064  26.679  1.00  0.00     0.010 A 
ATOM     34  C   UNL A   1      40.811  23.540  27.822  1.00  0.00     0.010 A 
ATOM     35  C   UNL A   1      40.392  24.848  27.522  1.00  0.00    -0.014 A 
BRANCH  35  36
ATOM     36  C   UNL A   1      41.225  25.961  28.014  1.00  0.00     0.031 A 
ATOM     37  C   UNL A   1      40.536  27.068  28.749  1.00  0.00     0.074 A 
ATOM     38  C   UNL A   1      42.522  26.035  27.676  1.00  0.00     0.049 A 
ATOM     39  N   UNL A   1      40.963  28.270  29.028  1.00  0.00    -0.248 NA
ATOM     40  C   UNL A   1      39.161  26.793  29.200  1.00  0.00     0.031 C 
ATOM     41  C   UNL A   1      43.273  24.996  26.972  1.00  0.00     0.029 A 
ATOM     42  N   UNL A   1      43.424  27.057  27.831  1.00  0.00    -0.354 N 
ATOM     43  C   UNL A   1      39.901  28.904  29.657  1.00  0.00     0.074 A 
ATOM     44  C   UNL A   1      38.807  27.960  29.716  1.00  0.00     0.031 C 
ATOM     45  C   UNL A   1      44.509  25.455  26.708  1.00  0.00     0.029 A 
ATOM     46  C   UNL A   1      44.615  26.832  27.184  1.00  0.00     0.049 A 
ATOM     47  H   UNL A   1      43.235  27.870  28.353  1.00  0.00     0.167 HD
ATOM     48  C   UNL A   1      39.852  30.168  30.132  1.00  0.00     0.037 A 
ATOM     49  C   UNL A   1      45.645  27.671  26.959  1.00  0.00     0.037 A 
ATOM     50  C   UNL A   1      40.959  31.083  30.069  1.00  0.00     0.049 A 
ATOM     51  C   UNL A   1      45.550  29.086  27.472  1.00  0.00     0.074 A 
ATOM     52  C   UNL A   1      41.050  32.364  30.579  1.00  0.00     0.029 A 
ATOM     53  N   UNL A   1      42.167  30.807  29.446  1.00  0.00    -0.354 N 
ATOM     54  N   UNL A   1      44.566  29.669  28.115  1.00  0.00    -0.248 NA
ATOM     55  C   UNL A   1      46.702  29.962  27.221  1.00  0.00     0.031 C 
ATOM     56  C   UNL A   1      42.298  32.883  30.221  1.00  0.00     0.029 A 
ATOM     57  C   UNL A   1      43.000  31.908  29.529  1.00  0.00     0.049 A 
ATOM     58  H   UNL A   1      42.398  29.956  29.010  1.00  0.00     0.167 HD
ATOM     59  C   UNL A   1      44.984  30.969  28.360  1.00  0.00     0.074 A 
ATOM     60  C   UNL A   1      46.321  31.085  27.814  1.00  0.00     0.031 C 
ATOM     61  C   UNL A   1      44.327  31.983  28.976  1.00  0.00     0.037 A 
BRANCH  48  62
ATOM     62  C   UNL A   1      38.565  30.644  30.734  1.00  0.00     0.064 A 
ATOM     63  C   UNL A   1      38.379  30.708  32.122  1.00  0.00     0.173 A 
ATOM     64  C   UNL A   1      37.520  31.088  29.909  1.00  0.00     0.173 A 
ATOM     65  F   UNL A   1      39.340  30.276  32.953  1.00  0.00    -0.203 F 
ATOM     66  C   UNL A   1      37.190  31.191  32.663  1.00  0.00     0.198 A 
ATOM     67  C   UNL A   1      36.343  31.593  30.453  1.00  0.00     0.198 A 
ATOM     68  F   UNL A   1      37.647  31.042  28.574  1.00  0.00    -0.203 F 
ATOM     69  F   UNL A   1      37.022  31.215  33.993  1.00  0.00    -0.200 F 
ATOM     70  C   UNL A   1      36.178  31.642  31.829  1.00  0.00     0.200 A 
ATOM     71  F   UNL A   1      35.369  32.035  29.646  1.00  0.00    -0.200 F 
ATOM     72  F   UNL A   1      35.041  32.120  32.352  1.00  0.00    -0.200 F 
ENDBRANCH  48  62
BRANCH  49  73
ATOM     73  C   UNL A   1      46.828  27.220  26.179  1.00  0.00     0.064 A 
ATOM     74  C   UNL A   1      47.886  26.540  26.798  1.00  0.00     0.173 A 
ATOM     75  C   UNL A   1      46.942  27.487  24.805  1.00  0.00     0.173 A 
ATOM     76  F   UNL A   1      47.836  26.284  28.113  1.00  0.00    -0.203 F 
ATOM     77  C   UNL A   1      49.021  26.166  26.082  1.00  0.00     0.198 A 
ATOM     78  C   UNL A   1      48.065  27.086  24.084  1.00  0.00     0.198 A 
ATOM     79  F   UNL A   1      45.960  28.135  24.162  1.00  0.00    -0.203 F 
ATOM     80  F   UNL A   1      50.040  25.566  26.711  1.00  0.00    -0.200 F 
ATOM     81  C   UNL A   1      49.108  26.434  24.724  1.00  0.00     0.200 A 
ATOM     82  F   UNL A   1      48.140  27.337  22.769  1.00  0.00    -0.200 F 
ATOM     83  F   UNL A   1      50.201  26.076  24.037  1.00  0.00    -0.200 F 
ENDBRANCH  49  73
BRANCH  61  84
ATOM     84  C   UNL A   1      45.051  33.289  29.105  1.00  0.00     0.064 A 
ATOM     85  C   UNL A   1      44.907  34.301  28.146  1.00  0.00     0.173 A 
ATOM     86  C   UNL A   1      45.847  33.551  30.230  1.00  0.00     0.173 A 
ATOM     87  F   UNL A   1      44.168  34.090  27.048  1.00  0.00    -0.203 F 
ATOM     88  C   UNL A   1      45.550  35.526  28.302  1.00  0.00     0.198 A 
ATOM     89  C   UNL A   1      46.465  34.786  30.396  1.00  0.00     0.198 A 
ATOM     90  F   UNL A   1      46.008  32.615  31.178  1.00  0.00    -0.203 F 
ATOM     91  F   UNL A   1      45.430  36.467  27.355  1.00  0.00    -0.200 F 
ATOM     92  C   UNL A   1      46.320  35.771  29.430  1.00  0.00     0.200 A 
ATOM     93  F   UNL A   1      47.196  35.026  31.494  1.00  0.00    -0.200 F 
ATOM     94  F   UNL A   1      46.927  36.955  29.584  1.00  0.00    -0.200 F 
ENDBRANCH  61  84
ENDBRANCH  35  36
ENDBRANCH  28  30
ENDBRANCH  27  28
ENDBRANCH  26  27
ENDBRANCH  25  26
ENDBRANCH  24  25
ENDBRANCH   1  24
TORSDOF 17
ENDMDL
MODEL 3
REMARK VINA RESULT:     -11.6      5.207      7.722
REMARK SMILES O=C(CC1(NC(=O)c2ccncc2Cl)CCCCC1)OCCOCCOC(=O)c1ccc(-c2c3nc(c(-c4c(F)c(F)c(F)c(F)c4F)c4ccc([nH]4)c(-c4c(F)c(F)c(F)c(F)c4F)c4nc(c(-c5c(F)c(F)c(F)c(F)c5F)c5ccc2[nH]5)C=C4)C=C3)cc1
REMARK SMILES IDX 22 1 21 2 20 3 2 4 1 5 3 6 4 7 15 8 19 9 16 10 18 11 17 12
REMARK SMILES IDX 5 13 6 14 7 16 8 17 9 18 13 19 10 20 12 21 14 22 11 23 23 24
REMARK SMILES IDX 24 25 25 26 26 27 27 28 28 29 29 30 30 31 91 32 31 33 90 34
REMARK SMILES IDX 32 35 33 36 34 37 84 38 35 39 89 40 83 41 85 42 36 43 88 44
REMARK SMILES IDX 82 45 81 46 37 48 69 49 49 50 68 51 50 52 53 53 67 54 86 55
REMARK SMILES IDX 51 56 52 57 66 59 87 60 54 61 38 62 39 63 47 64 40 65 41 66
REMARK SMILES IDX 45 67 48 68 42 69 43 70 46 71 44 72 70 73 71 74 79 75 72 76
REMARK SMILES IDX 73 77 77 78 80 79 74 80 75 81 78 82 76 83 55 84 56 85 64 86
REMARK SMILES IDX 57 87 58 88 62 89 65 90 59 91 60 92 63 93 61 94
REMARK H PARENT 5 15 85 47 53 58
REMARK Flexibility Score: inf
ROOT
ATOM      1  C   UNL A   1      41.157  21.758  26.085  1.00  0.00     0.202 C 
ENDROOT
BRANCH   1   2
ATOM      2  C   UNL A   1      39.862  22.218  26.716  1.00  0.00     0.261 C 
BRANCH   2   3
ATOM      3  O   UNL A   1      38.753  22.097  25.809  1.00  0.00    -0.463 OA
BRANCH   3   4
ATOM      4  C   UNL A   1      37.751  22.988  25.648  1.00  0.00     0.308 C 
ATOM      5  O   UNL A   1      37.505  23.776  26.562  1.00  0.00    -0.252 OA
BRANCH   4   6
ATOM      6  C   UNL A   1      36.904  23.008  24.386  1.00  0.00     0.151 C 
BRANCH   6   7
ATOM      7  C   UNL A   1      35.378  23.265  24.493  1.00  0.00     0.051 C 
ATOM      8  C   UNL A   1      35.044  24.784  24.567  1.00  0.00     0.029 C 
ATOM      9  C   UNL A   1      34.664  22.740  23.194  1.00  0.00     0.029 C 
ATOM     10  C   UNL A   1      33.553  25.118  24.436  1.00  0.00     0.002 C 
ATOM     11  C   UNL A   1      33.192  23.108  23.029  1.00  0.00     0.002 C 
ATOM     12  C   UNL A   1      32.988  24.606  23.126  1.00  0.00     0.000 C 
BRANCH   7  13
ATOM     13  N   UNL A   1      34.799  22.635  25.728  1.00  0.00    -0.346 N 
ATOM     14  C   UNL A   1      34.468  21.380  26.203  1.00  0.00     0.253 C 
ATOM     15  H   UNL A   1      34.591  23.323  26.401  1.00  0.00     0.164 HD
ATOM     16  O   UNL A   1      34.205  21.332  27.411  1.00  0.00    -0.269 OA
BRANCH  14  17
ATOM     17  C   UNL A   1      34.213  20.127  25.435  1.00  0.00     0.061 A 
ATOM     18  C   UNL A   1      32.867  19.705  25.459  1.00  0.00     0.035 A 
ATOM     19  C   UNL A   1      35.131  19.262  24.845  1.00  0.00     0.072 A 
ATOM     20  C   UNL A   1      32.496  18.522  24.835  1.00  0.00     0.112 A 
ATOM     21  C   UNL A   1      34.651  18.117  24.204  1.00  0.00     0.132 A 
ATOM     22  Cl  UNL A   1      36.834  19.382  24.939  1.00  0.00    -0.082 Cl
ATOM     23  N   UNL A   1      33.358  17.734  24.170  1.00  0.00    -0.263 NA
ENDBRANCH  14  17
ENDBRANCH   7  13
ENDBRANCH   6   7
ENDBRANCH   4   6
ENDBRANCH   3   4
ENDBRANCH   2   3
ENDBRANCH   1   2
BRANCH   1  24
ATOM     24  O   UNL A   1      41.683  20.632  26.778  1.00  0.00    -0.374 OA
BRANCH  24  25
ATOM     25  C   UNL A   1      41.544  19.394  26.077  1.00  0.00     0.202 C 
BRANCH  25  26
ATOM     26  C   UNL A   1      42.895  18.697  25.899  1.00  0.00     0.261 C 
BRANCH  26  27
ATOM     27  O   UNL A   1      43.428  18.999  24.599  1.00  0.00    -0.460 OA
BRANCH  27  28
ATOM     28  C   UNL A   1      44.738  19.353  24.551  1.00  0.00     0.338 C 
ATOM     29  O   UNL A   1      45.683  18.689  24.179  1.00  0.00    -0.246 OA
BRANCH  28  30
ATOM     30  C   UNL A   1      44.821  20.805  24.814  1.00  0.00     0.060 A 
ATOM     31  C   UNL A   1      44.496  21.691  23.774  1.00  0.00     0.016 A 
ATOM     32  C   UNL A   1      45.127  21.284  26.087  1.00  0.00     0.016 A 
ATOM     33  C   UNL A   1      44.451  23.063  24.014  1.00  0.00     0.010 A 
ATOM     34  C   UNL A   1      45.100  22.653  26.322  1.00  0.00     0.010 A 
ATOM     35  C   UNL A   1      44.768  23.544  25.287  1.00  0.00    -0.014 A 
BRANCH  35  36
ATOM     36  C   UNL A   1      44.904  24.988  25.560  1.00  0.00     0.031 A 
ATOM     37  C   UNL A   1      46.278  25.579  25.485  1.00  0.00     0.074 A 
ATOM     38  C   UNL A   1      43.852  25.694  26.003  1.00  0.00     0.049 A 
ATOM     39  N   UNL A   1      46.715  26.720  25.946  1.00  0.00    -0.248 NA
ATOM     40  C   UNL A   1      47.307  24.754  24.831  1.00  0.00     0.031 C 
ATOM     41  C   UNL A   1      42.479  25.197  26.095  1.00  0.00     0.029 A 
ATOM     42  N   UNL A   1      43.787  26.965  26.514  1.00  0.00    -0.354 N 
ATOM     43  C   UNL A   1      48.075  26.734  25.667  1.00  0.00     0.074 A 
ATOM     44  C   UNL A   1      48.394  25.490  25.003  1.00  0.00     0.031 C 
ATOM     45  C   UNL A   1      41.715  26.137  26.680  1.00  0.00     0.029 A 
ATOM     46  C   UNL A   1      42.556  27.276  27.041  1.00  0.00     0.049 A 
ATOM     47  H   UNL A   1      44.546  27.592  26.503  1.00  0.00     0.167 HD
ATOM     48  C   UNL A   1      48.970  27.704  25.954  1.00  0.00     0.037 A 
ATOM     49  C   UNL A   1      42.178  28.336  27.781  1.00  0.00     0.037 A 
ATOM     50  C   UNL A   1      48.623  28.937  26.607  1.00  0.00     0.049 A 
ATOM     51  C   UNL A   1      43.207  29.388  28.114  1.00  0.00     0.074 A 
ATOM     52  C   UNL A   1      49.431  30.022  26.887  1.00  0.00     0.029 A 
ATOM     53  N   UNL A   1      47.358  29.237  27.090  1.00  0.00    -0.354 N 
ATOM     54  N   UNL A   1      44.481  29.427  27.803  1.00  0.00    -0.248 NA
ATOM     55  C   UNL A   1      42.749  30.536  28.907  1.00  0.00     0.031 C 
ATOM     56  C   UNL A   1      48.665  30.962  27.584  1.00  0.00     0.029 A 
ATOM     57  C   UNL A   1      47.370  30.480  27.696  1.00  0.00     0.049 A 
ATOM     58  H   UNL A   1      46.569  28.654  27.012  1.00  0.00     0.167 HD
ATOM     59  C   UNL A   1      44.972  30.607  28.345  1.00  0.00     0.074 A 
ATOM     60  C   UNL A   1      43.853  31.265  28.988  1.00  0.00     0.031 C 
ATOM     61  C   UNL A   1      46.233  31.105  28.321  1.00  0.00     0.037 A 
BRANCH  48  62
ATOM     62  C   UNL A   1      50.404  27.467  25.591  1.00  0.00     0.064 A 
ATOM     63  C   UNL A   1      50.890  27.719  24.300  1.00  0.00     0.173 A 
ATOM     64  C   UNL A   1      51.317  27.028  26.563  1.00  0.00     0.173 A 
ATOM     65  F   UNL A   1      50.054  28.120  23.331  1.00  0.00    -0.203 F 
ATOM     66  C   UNL A   1      52.235  27.530  23.993  1.00  0.00     0.198 A 
ATOM     67  C   UNL A   1      52.664  26.864  26.258  1.00  0.00     0.198 A 
ATOM     68  F   UNL A   1      50.900  26.769  27.812  1.00  0.00    -0.203 F 
ATOM     69  F   UNL A   1      52.672  27.747  22.744  1.00  0.00    -0.200 F 
ATOM     70  C   UNL A   1      53.122  27.113  24.974  1.00  0.00     0.200 A 
ATOM     71  F   UNL A   1      53.522  26.469  27.210  1.00  0.00    -0.200 F 
ATOM     72  F   UNL A   1      54.419  26.947  24.679  1.00  0.00    -0.200 F 
ENDBRANCH  48  62
BRANCH  49  73
ATOM     73  C   UNL A   1      40.787  28.439  28.297  1.00  0.00     0.064 A 
ATOM     74  C   UNL A   1      39.768  29.002  27.518  1.00  0.00     0.173 A 
ATOM     75  C   UNL A   1      40.454  28.007  29.590  1.00  0.00     0.173 A 
ATOM     76  F   UNL A   1      40.042  29.454  26.285  1.00  0.00    -0.203 F 
ATOM     77  C   UNL A   1      38.476  29.152  28.018  1.00  0.00     0.198 A 
ATOM     78  C   UNL A   1      39.154  28.129  30.079  1.00  0.00     0.198 A 
ATOM     79  F   UNL A   1      41.390  27.460  30.379  1.00  0.00    -0.203 F 
ATOM     80  F   UNL A   1      37.535  29.743  27.270  1.00  0.00    -0.200 F 
ATOM     81  C   UNL A   1      38.168  28.711  29.296  1.00  0.00     0.200 A 
ATOM     82  F   UNL A   1      38.859  27.691  31.311  1.00  0.00    -0.200 F 
ATOM     83  F   UNL A   1      36.927  28.857  29.778  1.00  0.00    -0.200 F 
ENDBRANCH  49  73
BRANCH  61  84
ATOM     84  C   UNL A   1      46.459  32.427  28.992  1.00  0.00     0.064 A 
ATOM     85  C   UNL A   1      46.871  32.505  30.329  1.00  0.00     0.173 A 
ATOM     86  C   UNL A   1      46.322  33.621  28.270  1.00  0.00     0.173 A 
ATOM     87  F   UNL A   1      47.002  31.390  31.062  1.00  0.00    -0.203 F 
ATOM     88  C   UNL A   1      47.121  33.738  30.925  1.00  0.00     0.198 A 
ATOM     89  C   UNL A   1      46.600  34.849  28.861  1.00  0.00     0.198 A 
ATOM     90  F   UNL A   1      45.938  33.594  26.984  1.00  0.00    -0.203 F 
ATOM     91  F   UNL A   1      47.477  33.795  32.216  1.00  0.00    -0.200 F 
ATOM     92  C   UNL A   1      46.994  34.907  30.189  1.00  0.00     0.200 A 
ATOM     93  F   UNL A   1      46.491  35.976  28.143  1.00  0.00    -0.200 F 
ATOM     94  F   UNL A   1      47.248  36.091  30.761  1.00  0.00    -0.200 F 
ENDBRANCH  61  84
ENDBRANCH  35  36
ENDBRANCH  28  30
ENDBRANCH  27  28
ENDBRANCH  26  27
ENDBRANCH  25  26
ENDBRANCH  24  25
ENDBRANCH   1  24
TORSDOF 17
ENDMDL
