MODEL 1
REMARK VINA RESULT:     -10.8      0.000      0.000
REMARK SMILES Cc1ncc(C(=O)OCCOCCOC(=O)c2ccc(-c3c4nc(c(-c5c(F)c(F)c(F)c(F)c5F)c5ccc([nH]5)c(-c5c(F)c(F)c(F)c(F)c5F)c5nc(c(-c6c(F)c(F)c(F)c(F)c6F)c6ccc3[nH]6)C=C5)C=C4)cc2)cc1C#N
REMARK SMILES IDX 12 1 11 2 10 3 9 4 8 5 6 6 7 7 5 8 1 9 2 10 3 11 81 12 4 13
REMARK SMILES IDX 80 14 82 15 83 16 13 17 14 18 15 19 16 20 17 21 18 22 79 23
REMARK SMILES IDX 19 24 78 25 20 26 21 27 22 28 72 29 23 30 77 31 71 32 73 33
REMARK SMILES IDX 24 34 76 35 70 36 69 37 25 39 57 40 37 41 56 42 38 43 41 44
REMARK SMILES IDX 55 45 74 46 39 47 40 48 54 50 75 51 42 52 26 53 27 54 35 55
REMARK SMILES IDX 28 56 29 57 33 58 36 59 30 60 31 61 34 62 32 63 58 64 59 65
REMARK SMILES IDX 67 66 60 67 61 68 65 69 68 70 62 71 63 72 66 73 64 74 43 75
REMARK SMILES IDX 44 76 52 77 45 78 46 79 50 80 53 81 47 82 48 83 51 84 49 85
REMARK H PARENT 73 38 41 49
REMARK Flexibility Score: inf
ROOT
ATOM      1  C   UNL A   1      42.459  20.893  26.104  1.00  0.00     0.202 C 
ENDROOT
BRANCH   1   2
ATOM      2  O   UNL A   1      41.718  21.262  27.266  1.00  0.00    -0.374 OA
BRANCH   2   3
ATOM      3  C   UNL A   1      40.305  21.381  27.170  1.00  0.00     0.202 C 
BRANCH   3   4
ATOM      4  C   UNL A   1      39.693  21.957  25.888  1.00  0.00     0.261 C 
BRANCH   4   5
ATOM      5  O   UNL A   1      38.296  21.657  25.756  1.00  0.00    -0.460 OA
BRANCH   5   6
ATOM      6  C   UNL A   1      37.489  22.724  25.971  1.00  0.00     0.339 C 
ATOM      7  O   UNL A   1      37.812  23.806  26.433  1.00  0.00    -0.246 OA
BRANCH   6   8
ATOM      8  C   UNL A   1      36.147  22.479  25.423  1.00  0.00     0.079 A 
ATOM      9  C   UNL A   1      32.394  21.108  23.997  1.00  0.00     0.068 C 
ATOM     10  C   UNL A   1      33.666  21.716  24.513  1.00  0.00     0.055 A 
ATOM     11  N   UNL A   1      34.116  21.203  25.687  1.00  0.00    -0.259 NA
ATOM     12  C   UNL A   1      34.393  22.666  23.785  1.00  0.00     0.074 A 
ATOM     13  C   UNL A   1      35.341  21.584  26.111  1.00  0.00     0.127 A 
ATOM     14  C   UNL A   1      35.650  23.065  24.260  1.00  0.00     0.038 A 
BRANCH  12  15
ATOM     15  C   UNL A   1      33.896  23.202  22.555  1.00  0.00     0.101 C 
ATOM     16  N   UNL A   1      33.493  23.639  21.556  1.00  0.00    -0.192 NA
ENDBRANCH  12  15
ENDBRANCH   6   8
ENDBRANCH   5   6
ENDBRANCH   4   5
ENDBRANCH   3   4
ENDBRANCH   2   3
ENDBRANCH   1   2
BRANCH   1  17
ATOM     17  C   UNL A   1      43.454  21.891  25.494  1.00  0.00     0.261 C 
BRANCH  17  18
ATOM     18  O   UNL A   1      42.830  23.078  24.975  1.00  0.00    -0.460 OA
BRANCH  18  19
ATOM     19  C   UNL A   1      43.581  24.202  25.081  1.00  0.00     0.338 C 
ATOM     20  O   UNL A   1      44.600  24.480  24.473  1.00  0.00    -0.246 OA
BRANCH  19  21
ATOM     21  C   UNL A   1      42.880  25.171  25.936  1.00  0.00     0.060 A 
ATOM     22  C   UNL A   1      43.401  26.468  26.051  1.00  0.00     0.016 A 
ATOM     23  C   UNL A   1      41.782  24.771  26.696  1.00  0.00     0.016 A 
ATOM     24  C   UNL A   1      42.838  27.367  26.951  1.00  0.00     0.010 A 
ATOM     25  C   UNL A   1      41.234  25.666  27.615  1.00  0.00     0.010 A 
ATOM     26  C   UNL A   1      41.782  26.951  27.770  1.00  0.00    -0.014 A 
BRANCH  26  27
ATOM     27  C   UNL A   1      41.374  27.788  28.920  1.00  0.00     0.031 A 
ATOM     28  C   UNL A   1      42.156  27.683  30.198  1.00  0.00     0.074 A 
ATOM     29  C   UNL A   1      40.332  28.631  28.824  1.00  0.00     0.049 A 
ATOM     30  N   UNL A   1      41.944  28.262  31.351  1.00  0.00    -0.248 NA
ATOM     31  C   UNL A   1      43.335  26.801  30.172  1.00  0.00     0.031 C 
ATOM     32  C   UNL A   1      39.534  28.851  27.621  1.00  0.00     0.029 A 
ATOM     33  N   UNL A   1      39.762  29.450  29.766  1.00  0.00    -0.354 N 
ATOM     34  C   UNL A   1      42.959  27.815  32.185  1.00  0.00     0.074 A 
ATOM     35  C   UNL A   1      43.762  26.885  31.423  1.00  0.00     0.031 C 
ATOM     36  C   UNL A   1      38.566  29.741  27.900  1.00  0.00     0.029 A 
ATOM     37  C   UNL A   1      38.658  30.124  29.309  1.00  0.00     0.049 A 
ATOM     38  H   UNL A   1      40.113  29.546  30.680  1.00  0.00     0.167 HD
ATOM     39  C   UNL A   1      43.205  28.165  33.469  1.00  0.00     0.037 A 
ATOM     40  C   UNL A   1      37.808  30.940  29.964  1.00  0.00     0.037 A 
ATOM     41  C   UNL A   1      42.397  29.089  34.221  1.00  0.00     0.049 A 
ATOM     42  C   UNL A   1      38.048  31.237  31.423  1.00  0.00     0.074 A 
ATOM     43  C   UNL A   1      42.571  29.517  35.525  1.00  0.00     0.029 A 
ATOM     44  N   UNL A   1      41.259  29.720  33.739  1.00  0.00    -0.354 N 
ATOM     45  N   UNL A   1      39.024  30.836  32.201  1.00  0.00    -0.248 NA
ATOM     46  C   UNL A   1      37.068  32.103  32.093  1.00  0.00     0.031 C 
ATOM     47  C   UNL A   1      41.502  30.354  35.855  1.00  0.00     0.029 A 
ATOM     48  C   UNL A   1      40.701  30.507  34.734  1.00  0.00     0.049 A 
ATOM     49  H   UNL A   1      40.902  29.623  32.828  1.00  0.00     0.167 HD
ATOM     50  C   UNL A   1      38.794  31.423  33.440  1.00  0.00     0.074 A 
ATOM     51  C   UNL A   1      37.595  32.223  33.304  1.00  0.00     0.031 C 
ATOM     52  C   UNL A   1      39.511  31.307  34.585  1.00  0.00     0.037 A 
BRANCH  39  53
ATOM     53  C   UNL A   1      44.390  27.546  34.151  1.00  0.00     0.064 A 
ATOM     54  C   UNL A   1      45.633  28.194  34.197  1.00  0.00     0.173 A 
ATOM     55  C   UNL A   1      44.261  26.327  34.834  1.00  0.00     0.173 A 
ATOM     56  F   UNL A   1      45.814  29.354  33.549  1.00  0.00    -0.203 F 
ATOM     57  C   UNL A   1      46.705  27.639  34.890  1.00  0.00     0.198 A 
ATOM     58  C   UNL A   1      45.324  25.791  35.555  1.00  0.00     0.198 A 
ATOM     59  F   UNL A   1      43.092  25.665  34.825  1.00  0.00    -0.203 F 
ATOM     60  F   UNL A   1      47.893  28.259  34.890  1.00  0.00    -0.200 F 
ATOM     61  C   UNL A   1      46.546  26.446  35.579  1.00  0.00     0.200 A 
ATOM     62  F   UNL A   1      45.164  24.648  36.236  1.00  0.00    -0.200 F 
ATOM     63  F   UNL A   1      47.573  25.926  36.267  1.00  0.00    -0.200 F 
ENDBRANCH  39  53
BRANCH  40  64
ATOM     64  C   UNL A   1      36.660  31.544  29.238  1.00  0.00     0.064 A 
ATOM     65  C   UNL A   1      35.557  30.765  28.865  1.00  0.00     0.173 A 
ATOM     66  C   UNL A   1      36.635  32.909  28.912  1.00  0.00     0.173 A 
ATOM     67  F   UNL A   1      35.544  29.451  29.132  1.00  0.00    -0.203 F 
ATOM     68  C   UNL A   1      34.476  31.325  28.187  1.00  0.00     0.198 A 
ATOM     69  C   UNL A   1      35.539  33.474  28.263  1.00  0.00     0.198 A 
ATOM     70  F   UNL A   1      37.666  33.699  29.245  1.00  0.00    -0.203 F 
ATOM     71  F   UNL A   1      33.452  30.548  27.806  1.00  0.00    -0.200 F 
ATOM     72  C   UNL A   1      34.463  32.680  27.895  1.00  0.00     0.200 A 
ATOM     73  F   UNL A   1      35.523  34.787  27.998  1.00  0.00    -0.200 F 
ATOM     74  F   UNL A   1      33.417  33.221  27.257  1.00  0.00    -0.200 F 
ENDBRANCH  40  64
BRANCH  52  75
ATOM     75  C   UNL A   1      39.043  32.076  35.790  1.00  0.00     0.064 A 
ATOM     76  C   UNL A   1      38.225  31.488  36.765  1.00  0.00     0.173 A 
ATOM     77  C   UNL A   1      39.491  33.387  36.015  1.00  0.00     0.173 A 
ATOM     78  F   UNL A   1      37.761  30.240  36.596  1.00  0.00    -0.203 F 
ATOM     79  C   UNL A   1      37.859  32.189  37.912  1.00  0.00     0.198 A 
ATOM     80  C   UNL A   1      39.155  34.072  37.180  1.00  0.00     0.198 A 
ATOM     81  F   UNL A   1      40.285  33.995  35.121  1.00  0.00    -0.203 F 
ATOM     82  F   UNL A   1      37.044  31.620  38.810  1.00  0.00    -0.200 F 
ATOM     83  C   UNL A   1      38.334  33.475  38.124  1.00  0.00     0.200 A 
ATOM     84  F   UNL A   1      39.634  35.305  37.393  1.00  0.00    -0.200 F 
ATOM     85  F   UNL A   1      38.000  34.139  39.239  1.00  0.00    -0.200 F 
ENDBRANCH  52  75
ENDBRANCH  26  27
ENDBRANCH  19  21
ENDBRANCH  18  19
ENDBRANCH  17  18
ENDBRANCH   1  17
TORSDOF 15
ENDMDL
MODEL 2
REMARK VINA RESULT:     -10.6      3.795      5.757
REMARK SMILES Cc1ncc(C(=O)OCCOCCOC(=O)c2ccc(-c3c4nc(c(-c5c(F)c(F)c(F)c(F)c5F)c5ccc([nH]5)c(-c5c(F)c(F)c(F)c(F)c5F)c5nc(c(-c6c(F)c(F)c(F)c(F)c6F)c6ccc3[nH]6)C=C5)C=C4)cc2)cc1C#N
REMARK SMILES IDX 12 1 11 2 10 3 9 4 8 5 6 6 7 7 5 8 1 9 2 10 3 11 81 12 4 13
REMARK SMILES IDX 80 14 82 15 83 16 13 17 14 18 15 19 16 20 17 21 18 22 79 23
REMARK SMILES IDX 19 24 78 25 20 26 21 27 22 28 72 29 23 30 77 31 71 32 73 33
REMARK SMILES IDX 24 34 76 35 70 36 69 37 25 39 57 40 37 41 56 42 38 43 41 44
REMARK SMILES IDX 55 45 74 46 39 47 40 48 54 50 75 51 42 52 26 53 27 54 35 55
REMARK SMILES IDX 28 56 29 57 33 58 36 59 30 60 31 61 34 62 32 63 58 64 59 65
REMARK SMILES IDX 67 66 60 67 61 68 65 69 68 70 62 71 63 72 66 73 64 74 43 75
REMARK SMILES IDX 44 76 52 77 45 78 46 79 50 80 53 81 47 82 48 83 51 84 49 85
REMARK H PARENT 73 38 41 49
REMARK Flexibility Score: inf
ROOT
ATOM      1  C   UNL A   1      41.477  19.895  26.651  1.00  0.00     0.202 C 
ENDROOT
BRANCH   1   2
ATOM      2  O   UNL A   1      42.227  19.911  25.438  1.00  0.00    -0.374 OA
BRANCH   2   3
ATOM      3  C   UNL A   1      43.503  19.286  25.412  1.00  0.00     0.202 C 
BRANCH   3   4
ATOM      4  C   UNL A   1      44.740  20.135  25.102  1.00  0.00     0.261 C 
BRANCH   4   5
ATOM      5  O   UNL A   1      44.599  21.499  25.525  1.00  0.00    -0.460 OA
BRANCH   5   6
ATOM      6  C   UNL A   1      44.601  22.388  24.502  1.00  0.00     0.339 C 
ATOM      7  O   UNL A   1      44.174  22.206  23.374  1.00  0.00    -0.246 OA
BRANCH   6   8
ATOM      8  C   UNL A   1      45.057  23.707  24.962  1.00  0.00     0.079 A 
ATOM      9  C   UNL A   1      46.614  27.178  26.841  1.00  0.00     0.068 C 
ATOM     10  C   UNL A   1      46.069  26.017  26.058  1.00  0.00     0.055 A 
ATOM     11  N   UNL A   1      46.833  24.895  26.085  1.00  0.00    -0.259 NA
ATOM     12  C   UNL A   1      44.815  26.055  25.437  1.00  0.00     0.074 A 
ATOM     13  C   UNL A   1      46.313  23.769  25.548  1.00  0.00     0.127 A 
ATOM     14  C   UNL A   1      44.309  24.879  24.864  1.00  0.00     0.038 A 
BRANCH  12  15
ATOM     15  C   UNL A   1      44.030  27.250  25.412  1.00  0.00     0.101 C 
ATOM     16  N   UNL A   1      43.393  28.223  25.394  1.00  0.00    -0.192 NA
ENDBRANCH  12  15
ENDBRANCH   6   8
ENDBRANCH   5   6
ENDBRANCH   4   5
ENDBRANCH   3   4
ENDBRANCH   2   3
ENDBRANCH   1   2
BRANCH   1  17
ATOM     17  C   UNL A   1      41.205  21.215  27.389  1.00  0.00     0.261 C 
BRANCH  17  18
ATOM     18  O   UNL A   1      41.137  22.355  26.517  1.00  0.00    -0.460 OA
BRANCH  18  19
ATOM     19  C   UNL A   1      39.897  22.887  26.381  1.00  0.00     0.338 C 
ATOM     20  O   UNL A   1      38.880  22.328  26.008  1.00  0.00    -0.246 OA
BRANCH  19  21
ATOM     21  C   UNL A   1      39.893  24.249  26.937  1.00  0.00     0.060 A 
ATOM     22  C   UNL A   1      40.552  25.266  26.231  1.00  0.00     0.016 A 
ATOM     23  C   UNL A   1      39.334  24.493  28.190  1.00  0.00     0.016 A 
ATOM     24  C   UNL A   1      40.679  26.533  26.792  1.00  0.00     0.010 A 
ATOM     25  C   UNL A   1      39.483  25.757  28.762  1.00  0.00     0.010 A 
ATOM     26  C   UNL A   1      40.185  26.768  28.080  1.00  0.00    -0.014 A 
BRANCH  26  27
ATOM     27  C   UNL A   1      40.567  28.005  28.796  1.00  0.00     0.031 A 
ATOM     28  C   UNL A   1      41.975  28.136  29.302  1.00  0.00     0.074 A 
ATOM     29  C   UNL A   1      39.678  28.995  28.984  1.00  0.00     0.049 A 
ATOM     30  N   UNL A   1      42.516  29.091  30.012  1.00  0.00    -0.248 NA
ATOM     31  C   UNL A   1      42.896  27.037  28.965  1.00  0.00     0.031 C 
ATOM     32  C   UNL A   1      38.303  28.997  28.494  1.00  0.00     0.029 A 
ATOM     33  N   UNL A   1      39.805  30.187  29.651  1.00  0.00    -0.354 N 
ATOM     34  C   UNL A   1      43.837  28.710  30.206  1.00  0.00     0.074 A 
ATOM     35  C   UNL A   1      44.006  27.418  29.579  1.00  0.00     0.031 C 
ATOM     36  C   UNL A   1      37.705  30.135  28.888  1.00  0.00     0.029 A 
ATOM     37  C   UNL A   1      38.646  30.921  29.686  1.00  0.00     0.049 A 
ATOM     38  H   UNL A   1      40.646  30.488  30.064  1.00  0.00     0.167 HD
ATOM     39  C   UNL A   1      44.821  29.388  30.839  1.00  0.00     0.037 A 
ATOM     40  C   UNL A   1      38.374  32.084  30.310  1.00  0.00     0.037 A 
ATOM     41  C   UNL A   1      44.642  30.672  31.466  1.00  0.00     0.049 A 
ATOM     42  C   UNL A   1      39.464  32.772  31.092  1.00  0.00     0.074 A 
ATOM     43  C   UNL A   1      45.582  31.445  32.124  1.00  0.00     0.029 A 
ATOM     44  N   UNL A   1      43.442  31.366  31.519  1.00  0.00    -0.354 N 
ATOM     45  N   UNL A   1      40.718  32.424  31.250  1.00  0.00    -0.248 NA
ATOM     46  C   UNL A   1      39.100  34.018  31.782  1.00  0.00     0.031 C 
ATOM     47  C   UNL A   1      44.936  32.575  32.632  1.00  0.00     0.029 A 
ATOM     48  C   UNL A   1      43.611  32.543  32.230  1.00  0.00     0.049 A 
ATOM     49  H   UNL A   1      42.597  31.067  31.112  1.00  0.00     0.167 HD
ATOM     50  C   UNL A   1      41.299  33.418  32.029  1.00  0.00     0.074 A 
ATOM     51  C   UNL A   1      40.263  34.395  32.295  1.00  0.00     0.031 C 
ATOM     52  C   UNL A   1      42.573  33.513  32.482  1.00  0.00     0.037 A 
BRANCH  39  53
ATOM     53  C   UNL A   1      46.183  28.759  30.898  1.00  0.00     0.064 A 
ATOM     54  C   UNL A   1      46.510  27.806  31.875  1.00  0.00     0.173 A 
ATOM     55  C   UNL A   1      47.146  29.054  29.922  1.00  0.00     0.173 A 
ATOM     56  F   UNL A   1      45.630  27.499  32.839  1.00  0.00    -0.203 F 
ATOM     57  C   UNL A   1      47.754  27.182  31.878  1.00  0.00     0.198 A 
ATOM     58  C   UNL A   1      48.377  28.402  29.907  1.00  0.00     0.198 A 
ATOM     59  F   UNL A   1      46.885  29.956  28.963  1.00  0.00    -0.203 F 
ATOM     60  F   UNL A   1      48.057  26.301  32.841  1.00  0.00    -0.200 F 
ATOM     61  C   UNL A   1      48.680  27.470  30.887  1.00  0.00     0.200 A 
ATOM     62  F   UNL A   1      49.263  28.668  28.938  1.00  0.00    -0.200 F 
ATOM     63  F   UNL A   1      49.869  26.849  30.877  1.00  0.00    -0.200 F 
ENDBRANCH  39  53
BRANCH  40  64
ATOM     64  C   UNL A   1      37.015  32.677  30.205  1.00  0.00     0.064 A 
ATOM     65  C   UNL A   1      36.062  32.468  31.211  1.00  0.00     0.173 A 
ATOM     66  C   UNL A   1      36.644  33.471  29.109  1.00  0.00     0.173 A 
ATOM     67  F   UNL A   1      36.361  31.697  32.266  1.00  0.00    -0.203 F 
ATOM     68  C   UNL A   1      34.787  33.022  31.121  1.00  0.00     0.198 A 
ATOM     69  C   UNL A   1      35.379  34.051  29.037  1.00  0.00     0.198 A 
ATOM     70  F   UNL A   1      37.517  33.701  28.119  1.00  0.00    -0.203 F 
ATOM     71  F   UNL A   1      33.882  32.773  32.078  1.00  0.00    -0.200 F 
ATOM     72  C   UNL A   1      34.449  33.822  30.040  1.00  0.00     0.200 A 
ATOM     73  F   UNL A   1      35.063  34.837  27.998  1.00  0.00    -0.200 F 
ATOM     74  F   UNL A   1      33.229  34.367  29.962  1.00  0.00    -0.200 F 
ENDBRANCH  40  64
BRANCH  52  75
ATOM     75  C   UNL A   1      42.944  34.720  33.299  1.00  0.00     0.064 A 
ATOM     76  C   UNL A   1      43.337  35.923  32.695  1.00  0.00     0.173 A 
ATOM     77  C   UNL A   1      42.819  34.699  34.697  1.00  0.00     0.173 A 
ATOM     78  F   UNL A   1      43.480  35.995  31.363  1.00  0.00    -0.203 F 
ATOM     79  C   UNL A   1      43.607  37.055  33.461  1.00  0.00     0.198 A 
ATOM     80  C   UNL A   1      43.053  35.842  35.457  1.00  0.00     0.198 A 
ATOM     81  F   UNL A   1      42.436  33.578  35.327  1.00  0.00    -0.203 F 
ATOM     82  F   UNL A   1      44.019  38.181  32.865  1.00  0.00    -0.200 F 
ATOM     83  C   UNL A   1      43.453  37.017  34.839  1.00  0.00     0.200 A 
ATOM     84  F   UNL A   1      42.882  35.809  36.785  1.00  0.00    -0.200 F 
ATOM     85  F   UNL A   1      43.691  38.113  35.573  1.00  0.00    -0.200 F 
ENDBRANCH  52  75
ENDBRANCH  26  27
ENDBRANCH  19  21
ENDBRANCH  18  19
ENDBRANCH  17  18
ENDBRANCH   1  17
TORSDOF 15
ENDMDL
MODEL 3
REMARK VINA RESULT:     -10.6      4.133      9.263
REMARK SMILES Cc1ncc(C(=O)OCCOCCOC(=O)c2ccc(-c3c4nc(c(-c5c(F)c(F)c(F)c(F)c5F)c5ccc([nH]5)c(-c5c(F)c(F)c(F)c(F)c5F)c5nc(c(-c6c(F)c(F)c(F)c(F)c6F)c6ccc3[nH]6)C=C5)C=C4)cc2)cc1C#N
REMARK SMILES IDX 12 1 11 2 10 3 9 4 8 5 6 6 7 7 5 8 1 9 2 10 3 11 81 12 4 13
REMARK SMILES IDX 80 14 82 15 83 16 13 17 14 18 15 19 16 20 17 21 18 22 79 23
REMARK SMILES IDX 19 24 78 25 20 26 21 27 22 28 72 29 23 30 77 31 71 32 73 33
REMARK SMILES IDX 24 34 76 35 70 36 69 37 25 39 57 40 37 41 56 42 38 43 41 44
REMARK SMILES IDX 55 45 74 46 39 47 40 48 54 50 75 51 42 52 26 53 27 54 35 55
REMARK SMILES IDX 28 56 29 57 33 58 36 59 30 60 31 61 34 62 32 63 58 64 59 65
REMARK SMILES IDX 67 66 60 67 61 68 65 69 68 70 62 71 63 72 66 73 64 74 43 75
REMARK SMILES IDX 44 76 52 77 45 78 46 79 50 80 53 81 47 82 48 83 51 84 49 85
REMARK H PARENT 73 38 41 49
REMARK Flexibility Score: inf
ROOT
ATOM      1  C   UNL A   1      31.071  31.949  26.544  1.00  0.00     0.202 C 
ENDROOT
BRANCH   1   2
ATOM      2  O   UNL A   1      31.590  30.813  25.855  1.00  0.00    -0.374 OA
BRANCH   2   3
ATOM      3  C   UNL A   1      32.223  29.785  26.606  1.00  0.00     0.202 C 
BRANCH   3   4
ATOM      4  C   UNL A   1      33.220  28.857  25.903  1.00  0.00     0.261 C 
BRANCH   4   5
ATOM      5  O   UNL A   1      33.003  28.777  24.488  1.00  0.00    -0.460 OA
BRANCH   5   6
ATOM      6  C   UNL A   1      32.153  27.786  24.124  1.00  0.00     0.339 C 
ATOM      7  O   UNL A   1      32.217  26.611  24.446  1.00  0.00    -0.246 OA
BRANCH   6   8
ATOM      8  C   UNL A   1      31.005  28.332  23.386  1.00  0.00     0.079 A 
ATOM      9  C   UNL A   1      28.036  30.506  21.273  1.00  0.00     0.068 C 
ATOM     10  C   UNL A   1      29.035  29.623  21.966  1.00  0.00     0.055 A 
ATOM     11  N   UNL A   1      30.331  29.847  21.632  1.00  0.00    -0.259 NA
ATOM     12  C   UNL A   1      28.665  28.712  22.963  1.00  0.00     0.074 A 
ATOM     13  C   UNL A   1      31.283  29.209  22.348  1.00  0.00     0.127 A 
ATOM     14  C   UNL A   1      29.672  28.043  23.674  1.00  0.00     0.038 A 
BRANCH  12  15
ATOM     15  C   UNL A   1      27.292  28.484  23.293  1.00  0.00     0.101 C 
ATOM     16  N   UNL A   1      26.176  28.299  23.563  1.00  0.00    -0.192 NA
ENDBRANCH  12  15
ENDBRANCH   6   8
ENDBRANCH   5   6
ENDBRANCH   4   5
ENDBRANCH   3   4
ENDBRANCH   2   3
ENDBRANCH   1   2
BRANCH   1  17
ATOM     17  C   UNL A   1      31.979  33.162  26.792  1.00  0.00     0.261 C 
BRANCH  17  18
ATOM     18  O   UNL A   1      32.795  33.036  27.969  1.00  0.00    -0.460 OA
BRANCH  18  19
ATOM     19  C   UNL A   1      33.906  33.813  27.970  1.00  0.00     0.338 C 
ATOM     20  O   UNL A   1      33.971  35.026  27.867  1.00  0.00    -0.246 OA
BRANCH  19  21
ATOM     21  C   UNL A   1      35.074  32.984  28.307  1.00  0.00     0.060 A 
ATOM     22  C   UNL A   1      34.862  31.660  28.717  1.00  0.00     0.016 A 
ATOM     23  C   UNL A   1      36.351  33.542  28.315  1.00  0.00     0.016 A 
ATOM     24  C   UNL A   1      35.933  30.892  29.166  1.00  0.00     0.010 A 
ATOM     25  C   UNL A   1      37.418  32.779  28.788  1.00  0.00     0.010 A 
ATOM     26  C   UNL A   1      37.206  31.467  29.247  1.00  0.00    -0.014 A 
BRANCH  26  27
ATOM     27  C   UNL A   1      38.279  30.768  29.988  1.00  0.00     0.031 A 
ATOM     28  C   UNL A   1      38.496  31.114  31.434  1.00  0.00     0.074 A 
ATOM     29  C   UNL A   1      39.039  29.837  29.387  1.00  0.00     0.049 A 
ATOM     30  N   UNL A   1      39.414  30.686  32.261  1.00  0.00    -0.248 NA
ATOM     31  C   UNL A   1      37.552  32.077  32.025  1.00  0.00     0.031 C 
ATOM     32  C   UNL A   1      38.886  29.388  28.006  1.00  0.00     0.029 A 
ATOM     33  N   UNL A   1      40.102  29.113  29.865  1.00  0.00    -0.354 N 
ATOM     34  C   UNL A   1      39.158  31.326  33.466  1.00  0.00     0.074 A 
ATOM     35  C   UNL A   1      38.029  32.203  33.254  1.00  0.00     0.031 C 
ATOM     36  C   UNL A   1      39.831  28.468  27.742  1.00  0.00     0.029 A 
ATOM     37  C   UNL A   1      40.674  28.294  28.925  1.00  0.00     0.049 A 
ATOM     38  H   UNL A   1      40.422  29.175  30.794  1.00  0.00     0.167 HD
ATOM     39  C   UNL A   1      39.802  31.179  34.646  1.00  0.00     0.037 A 
ATOM     40  C   UNL A   1      41.768  27.511  29.008  1.00  0.00     0.037 A 
ATOM     41  C   UNL A   1      40.929  30.306  34.847  1.00  0.00     0.049 A 
ATOM     42  C   UNL A   1      42.527  27.440  30.309  1.00  0.00     0.074 A 
ATOM     43  C   UNL A   1      41.644  30.079  36.010  1.00  0.00     0.029 A 
ATOM     44  N   UNL A   1      41.509  29.523  33.860  1.00  0.00    -0.354 N 
ATOM     45  N   UNL A   1      42.266  28.024  31.454  1.00  0.00    -0.248 NA
ATOM     46  C   UNL A   1      43.732  26.598  30.329  1.00  0.00     0.031 C 
ATOM     47  C   UNL A   1      42.697  29.212  35.711  1.00  0.00     0.029 A 
ATOM     48  C   UNL A   1      42.596  28.839  34.380  1.00  0.00     0.049 A 
ATOM     49  H   UNL A   1      41.196  29.462  32.929  1.00  0.00     0.167 HD
ATOM     50  C   UNL A   1      43.253  27.599  32.336  1.00  0.00     0.074 A 
ATOM     51  C   UNL A   1      44.107  26.692  31.597  1.00  0.00     0.031 C 
ATOM     52  C   UNL A   1      43.435  27.931  33.637  1.00  0.00     0.037 A 
BRANCH  39  53
ATOM     53  C   UNL A   1      39.315  31.982  35.817  1.00  0.00     0.064 A 
ATOM     54  C   UNL A   1      38.349  31.479  36.702  1.00  0.00     0.173 A 
ATOM     55  C   UNL A   1      39.875  33.237  36.102  1.00  0.00     0.173 A 
ATOM     56  F   UNL A   1      37.773  30.292  36.469  1.00  0.00    -0.203 F 
ATOM     57  C   UNL A   1      37.955  32.208  37.821  1.00  0.00     0.198 A 
ATOM     58  C   UNL A   1      39.504  33.948  37.240  1.00  0.00     0.198 A 
ATOM     59  F   UNL A   1      40.804  33.764  35.289  1.00  0.00    -0.203 F 
ATOM     60  F   UNL A   1      37.006  31.723  38.633  1.00  0.00    -0.200 F 
ATOM     61  C   UNL A   1      38.542  33.434  38.096  1.00  0.00     0.200 A 
ATOM     62  F   UNL A   1      40.085  35.123  37.514  1.00  0.00    -0.200 F 
ATOM     63  F   UNL A   1      38.179  34.123  39.188  1.00  0.00    -0.200 F 
ENDBRANCH  39  53
BRANCH  40  64
ATOM     64  C   UNL A   1      42.199  26.719  27.826  1.00  0.00     0.064 A 
ATOM     65  C   UNL A   1      43.148  27.228  26.930  1.00  0.00     0.173 A 
ATOM     66  C   UNL A   1      41.682  25.439  27.572  1.00  0.00     0.173 A 
ATOM     67  F   UNL A   1      43.654  28.456  27.115  1.00  0.00    -0.203 F 
ATOM     68  C   UNL A   1      43.559  26.491  25.821  1.00  0.00     0.198 A 
ATOM     69  C   UNL A   1      42.118  24.691  26.481  1.00  0.00     0.198 A 
ATOM     70  F   UNL A   1      40.769  24.907  28.397  1.00  0.00    -0.203 F 
ATOM     71  F   UNL A   1      44.439  27.018  24.958  1.00  0.00    -0.200 F 
ATOM     72  C   UNL A   1      43.052  25.219  25.603  1.00  0.00     0.200 A 
ATOM     73  F   UNL A   1      41.637  23.455  26.284  1.00  0.00    -0.200 F 
ATOM     74  F   UNL A   1      43.458  24.505  24.545  1.00  0.00    -0.200 F 
ENDBRANCH  40  64
BRANCH  52  75
ATOM     75  C   UNL A   1      44.587  27.302  34.371  1.00  0.00     0.064 A 
ATOM     76  C   UNL A   1      45.824  27.950  34.491  1.00  0.00     0.173 A 
ATOM     77  C   UNL A   1      44.423  26.076  35.036  1.00  0.00     0.173 A 
ATOM     78  F   UNL A   1      46.038  29.120  33.869  1.00  0.00    -0.203 F 
ATOM     79  C   UNL A   1      46.860  27.388  35.235  1.00  0.00     0.198 A 
ATOM     80  C   UNL A   1      45.446  25.536  35.810  1.00  0.00     0.198 A 
ATOM     81  F   UNL A   1      43.257  25.418  34.965  1.00  0.00    -0.203 F 
ATOM     82  F   UNL A   1      48.046  28.007  35.303  1.00  0.00    -0.200 F 
ATOM     83  C   UNL A   1      46.665  26.189  35.904  1.00  0.00     0.200 A 
ATOM     84  F   UNL A   1      45.248  24.388  36.473  1.00  0.00    -0.200 F 
ATOM     85  F   UNL A   1      47.654  25.661  36.639  1.00  0.00    -0.200 F 
ENDBRANCH  52  75
ENDBRANCH  26  27
ENDBRANCH  19  21
ENDBRANCH  18  19
ENDBRANCH  17  18
ENDBRANCH   1  17
TORSDOF 15
ENDMDL
