MODEL 1
REMARK VINA RESULT:     -12.3      0.000      0.000
REMARK SMILES O=C(OCCOCCOC(=O)c1[nH]ncc1C[NH+]1CCC([N@H+]2CCC[C@@H](C(=O)N3CCCC3)C2)CC1)c1ccc(-c2c3nc(c(-c4c(F)c(F)c(F)c(F)c4F)c4ccc([nH]4)c(-c4c(F)c(F)c(F)c(F)c4F)c4nc(c(-c5c(F)c(F)c(F)c(F)c5F)c5ccc2[nH]5)C=C4)C=C3)cc1
REMARK SMILES IDX 7 1 6 2 5 3 4 4 3 5 2 6 1 7 37 8 38 9 99 10 39 11 98 12
REMARK SMILES IDX 40 13 41 14 42 15 92 16 43 17 97 18 91 19 93 20 44 21 96 22
REMARK SMILES IDX 90 23 89 24 45 26 77 27 57 28 76 29 58 30 61 31 75 32 94 33
REMARK SMILES IDX 59 34 60 35 74 37 95 38 62 39 46 40 47 41 55 42 48 43 49 44
REMARK SMILES IDX 53 45 56 46 50 47 51 48 54 49 52 50 78 51 79 52 87 53 80 54
REMARK SMILES IDX 81 55 85 56 88 57 82 58 83 59 86 60 84 61 63 62 64 63 72 64
REMARK SMILES IDX 65 65 66 66 70 67 73 68 67 69 68 70 71 71 69 72 8 73 9 74
REMARK SMILES IDX 10 75 11 76 12 77 13 78 16 79 14 80 15 82 17 83 18 84 19 85
REMARK SMILES IDX 36 86 20 88 35 89 21 90 22 91 23 92 34 93 24 95 26 96 25 97
REMARK SMILES IDX 27 98 28 99 29 100 30 101 33 102 31 103 32 104
REMARK H PARENT 93 25 61 36 13 81 18 87 22 94
REMARK Flexibility Score: inf
ROOT
ATOM      1  C   UNL A   1      33.047  29.705  27.249  1.00  0.00     0.202 C 
ENDROOT
BRANCH   1   2
ATOM      2  O   UNL A   1      32.669  30.782  26.389  1.00  0.00    -0.374 OA
BRANCH   2   3
ATOM      3  C   UNL A   1      31.547  31.573  26.782  1.00  0.00     0.202 C 
BRANCH   3   4
ATOM      4  C   UNL A   1      31.783  33.079  26.685  1.00  0.00     0.261 C 
BRANCH   4   5
ATOM      5  O   UNL A   1      32.215  33.590  27.954  1.00  0.00    -0.460 OA
BRANCH   5   6
ATOM      6  C   UNL A   1      33.389  34.198  28.241  1.00  0.00     0.338 C 
ATOM      7  O   UNL A   1      33.510  35.398  28.001  1.00  0.00    -0.246 OA
BRANCH   6   8
ATOM      8  C   UNL A   1      34.552  33.494  28.859  1.00  0.00     0.060 A 
ATOM      9  C   UNL A   1      34.498  32.235  29.454  1.00  0.00     0.016 A 
ATOM     10  C   UNL A   1      35.809  34.108  28.740  1.00  0.00     0.016 A 
ATOM     11  C   UNL A   1      35.622  31.596  29.926  1.00  0.00     0.010 A 
ATOM     12  C   UNL A   1      36.962  33.468  29.201  1.00  0.00     0.010 A 
ATOM     13  C   UNL A   1      36.860  32.205  29.793  1.00  0.00    -0.014 A 
BRANCH  13  14
ATOM     14  C   UNL A   1      37.976  31.512  30.439  1.00  0.00     0.031 A 
ATOM     15  C   UNL A   1      38.168  31.729  31.903  1.00  0.00     0.074 A 
ATOM     16  C   UNL A   1      38.618  30.545  29.758  1.00  0.00     0.049 A 
ATOM     17  N   UNL A   1      39.067  31.228  32.700  1.00  0.00    -0.248 NA
ATOM     18  C   UNL A   1      37.193  32.614  32.565  1.00  0.00     0.031 C 
ATOM     19  C   UNL A   1      38.337  30.161  28.370  1.00  0.00     0.029 A 
ATOM     20  N   UNL A   1      39.597  29.678  30.150  1.00  0.00    -0.354 N 
ATOM     21  C   UNL A   1      38.782  31.753  33.953  1.00  0.00     0.074 A 
ATOM     22  C   UNL A   1      37.638  32.621  33.811  1.00  0.00     0.031 C 
ATOM     23  C   UNL A   1      39.120  29.126  28.034  1.00  0.00     0.029 A 
ATOM     24  C   UNL A   1      40.008  28.831  29.150  1.00  0.00     0.049 A 
ATOM     25  H   UNL A   1      39.972  29.660  31.060  1.00  0.00     0.167 HD
ATOM     26  C   UNL A   1      39.435  31.517  35.111  1.00  0.00     0.037 A 
ATOM     27  C   UNL A   1      41.030  27.957  29.141  1.00  0.00     0.037 A 
ATOM     28  C   UNL A   1      40.576  30.649  35.195  1.00  0.00     0.049 A 
ATOM     29  C   UNL A   1      41.834  27.830  30.408  1.00  0.00     0.074 A 
ATOM     30  C   UNL A   1      41.401  30.400  36.273  1.00  0.00     0.029 A 
ATOM     31  N   UNL A   1      41.049  29.881  34.135  1.00  0.00    -0.354 N 
ATOM     32  N   UNL A   1      41.638  28.405  31.574  1.00  0.00    -0.248 NA
ATOM     33  C   UNL A   1      43.005  26.951  30.361  1.00  0.00     0.031 C 
ATOM     34  C   UNL A   1      42.404  29.519  35.851  1.00  0.00     0.029 A 
ATOM     35  C   UNL A   1      42.165  29.167  34.529  1.00  0.00     0.049 A 
ATOM     36  H   UNL A   1      40.648  29.851  33.237  1.00  0.00     0.167 HD
ATOM     37  C   UNL A   1      42.643  27.938  32.406  1.00  0.00     0.074 A 
ATOM     38  C   UNL A   1      43.431  27.012  31.614  1.00  0.00     0.031 C 
ATOM     39  C   UNL A   1      42.904  28.245  33.701  1.00  0.00     0.037 A 
BRANCH  26  40
ATOM     40  C   UNL A   1      38.971  32.270  36.321  1.00  0.00     0.064 A 
ATOM     41  C   UNL A   1      39.416  33.570  36.606  1.00  0.00     0.173 A 
ATOM     42  C   UNL A   1      38.102  31.660  37.238  1.00  0.00     0.173 A 
ATOM     43  F   UNL A   1      40.278  34.185  35.782  1.00  0.00    -0.203 F 
ATOM     44  C   UNL A   1      39.032  34.218  37.778  1.00  0.00     0.198 A 
ATOM     45  C   UNL A   1      37.696  32.322  38.393  1.00  0.00     0.198 A 
ATOM     46  F   UNL A   1      37.660  30.412  37.022  1.00  0.00    -0.203 F 
ATOM     47  F   UNL A   1      39.523  35.432  38.063  1.00  0.00    -0.200 F 
ATOM     48  C   UNL A   1      38.167  33.596  38.667  1.00  0.00     0.200 A 
ATOM     49  F   UNL A   1      36.860  31.718  39.249  1.00  0.00    -0.200 F 
ATOM     50  F   UNL A   1      37.803  34.218  39.797  1.00  0.00    -0.200 F 
ENDBRANCH  26  40
BRANCH  27  51
ATOM     51  C   UNL A   1      41.397  27.223  27.900  1.00  0.00     0.064 A 
ATOM     52  C   UNL A   1      40.878  25.951  27.616  1.00  0.00     0.173 A 
ATOM     53  C   UNL A   1      42.325  27.756  26.990  1.00  0.00     0.173 A 
ATOM     54  F   UNL A   1      40.000  25.384  28.457  1.00  0.00    -0.203 F 
ATOM     55  C   UNL A   1      41.301  25.231  26.499  1.00  0.00     0.198 A 
ATOM     56  C   UNL A   1      42.718  27.052  25.853  1.00  0.00     0.198 A 
ATOM     57  F   UNL A   1      42.860  28.968  27.206  1.00  0.00    -0.203 F 
ATOM     58  F   UNL A   1      40.842  23.988  26.295  1.00  0.00    -0.200 F 
ATOM     59  C   UNL A   1      42.217  25.783  25.617  1.00  0.00     0.200 A 
ATOM     60  F   UNL A   1      43.592  27.599  24.998  1.00  0.00    -0.200 F 
ATOM     61  F   UNL A   1      42.632  25.084  24.552  1.00  0.00    -0.200 F 
ENDBRANCH  27  51
BRANCH  39  62
ATOM     62  C   UNL A   1      44.056  27.529  34.341  1.00  0.00     0.064 A 
ATOM     63  C   UNL A   1      45.344  28.080  34.368  1.00  0.00     0.173 A 
ATOM     64  C   UNL A   1      43.851  26.291  34.968  1.00  0.00     0.173 A 
ATOM     65  F   UNL A   1      45.591  29.255  33.768  1.00  0.00    -0.203 F 
ATOM     66  C   UNL A   1      46.396  27.398  34.971  1.00  0.00     0.198 A 
ATOM     67  C   UNL A   1      44.896  25.633  35.605  1.00  0.00     0.198 A 
ATOM     68  F   UNL A   1      42.633  25.729  34.975  1.00  0.00    -0.203 F 
ATOM     69  F   UNL A   1      47.633  27.913  34.932  1.00  0.00    -0.200 F 
ATOM     70  C   UNL A   1      46.169  26.182  35.597  1.00  0.00     0.200 A 
ATOM     71  F   UNL A   1      44.670  24.468  36.226  1.00  0.00    -0.200 F 
ATOM     72  F   UNL A   1      47.181  25.532  36.186  1.00  0.00    -0.200 F 
ENDBRANCH  39  62
ENDBRANCH  13  14
ENDBRANCH   6   8
ENDBRANCH   5   6
ENDBRANCH   4   5
ENDBRANCH   3   4
ENDBRANCH   2   3
ENDBRANCH   1   2
BRANCH   1  73
ATOM     73  C   UNL A   1      33.925  28.743  26.452  1.00  0.00     0.261 C 
BRANCH  73  74
ATOM     74  O   UNL A   1      33.662  28.983  25.068  1.00  0.00    -0.459 OA
BRANCH  74  75
ATOM     75  C   UNL A   1      33.288  27.903  24.332  1.00  0.00     0.356 C 
ATOM     76  O   UNL A   1      33.911  26.853  24.217  1.00  0.00    -0.244 OA
BRANCH  75  77
ATOM     77  C   UNL A   1      31.969  28.139  23.820  1.00  0.00     0.152 A 
ATOM     78  N   UNL A   1      31.060  28.939  24.447  1.00  0.00    -0.271 N 
ATOM     79  C   UNL A   1      31.323  27.658  22.688  1.00  0.00     0.059 A 
ATOM     80  N   UNL A   1      29.959  29.178  23.714  1.00  0.00    -0.183 NA
ATOM     81  H   UNL A   1      31.195  29.306  25.350  1.00  0.00     0.190 HD
ATOM     82  C   UNL A   1      30.106  28.373  22.659  1.00  0.00     0.145 A 
BRANCH  79  83
ATOM     83  C   UNL A   1      31.786  26.590  21.751  1.00  0.00     0.303 C 
BRANCH  83  84
ATOM     84  N   UNL A   1      32.048  25.319  22.454  1.00  0.00    -0.331 N 
ATOM     85  C   UNL A   1      30.839  24.657  22.953  1.00  0.00     0.268 C 
ATOM     86  C   UNL A   1      32.859  24.397  21.656  1.00  0.00     0.268 C 
ATOM     87  H   UNL A   1      32.589  25.585  23.276  1.00  0.00     0.348 HD
ATOM     88  C   UNL A   1      31.129  23.447  23.808  1.00  0.00     0.126 C 
ATOM     89  C   UNL A   1      33.284  23.204  22.509  1.00  0.00     0.126 C 
ATOM     90  C   UNL A   1      32.064  22.467  23.087  1.00  0.00     0.195 C 
BRANCH  90  91
ATOM     91  N   UNL A   1      32.463  21.302  23.913  1.00  0.00    -0.331 N 
ATOM     92  C   UNL A   1      32.158  20.011  23.273  1.00  0.00     0.262 C 
ATOM     93  C   UNL A   1      33.897  21.382  24.248  1.00  0.00     0.275 C 
ATOM     94  H   UNL A   1      31.908  21.343  24.767  1.00  0.00     0.348 HD
ATOM     95  C   UNL A   1      32.528  18.841  24.180  1.00  0.00     0.062 C 
ATOM     96  C   UNL A   1      34.362  20.225  25.146  1.00  0.00     0.134 C 
ATOM     97  C   UNL A   1      34.015  18.878  24.525  1.00  0.00     0.025 C 
BRANCH  96  98
ATOM     98  C   UNL A   1      35.862  20.432  25.302  1.00  0.00     0.231 C 
ATOM     99  O   UNL A   1      36.663  19.544  25.001  1.00  0.00    -0.274 OA
ATOM    100  N   UNL A   1      36.277  21.712  25.570  1.00  0.00    -0.342 N 
ATOM    101  C   UNL A   1      35.649  22.693  26.433  1.00  0.00     0.119 C 
ATOM    102  C   UNL A   1      37.521  22.219  25.024  1.00  0.00     0.119 C 
ATOM    103  C   UNL A   1      36.118  24.011  25.852  1.00  0.00     0.023 C 
ATOM    104  C   UNL A   1      37.538  23.702  25.382  1.00  0.00     0.023 C 
ENDBRANCH  96  98
ENDBRANCH  90  91
ENDBRANCH  83  84
ENDBRANCH  79  83
ENDBRANCH  75  77
ENDBRANCH  74  75
ENDBRANCH  73  74
ENDBRANCH   1  73
TORSDOF 18
ENDMDL
MODEL 2
REMARK VINA RESULT:     -12.0      0.988      7.040
REMARK SMILES O=C(OCCOCCOC(=O)c1[nH]ncc1C[NH+]1CCC([N@H+]2CCC[C@@H](C(=O)N3CCCC3)C2)CC1)c1ccc(-c2c3nc(c(-c4c(F)c(F)c(F)c(F)c4F)c4ccc([nH]4)c(-c4c(F)c(F)c(F)c(F)c4F)c4nc(c(-c5c(F)c(F)c(F)c(F)c5F)c5ccc2[nH]5)C=C4)C=C3)cc1
REMARK SMILES IDX 7 1 6 2 5 3 4 4 3 5 2 6 1 7 37 8 38 9 99 10 39 11 98 12
REMARK SMILES IDX 40 13 41 14 42 15 92 16 43 17 97 18 91 19 93 20 44 21 96 22
REMARK SMILES IDX 90 23 89 24 45 26 77 27 57 28 76 29 58 30 61 31 75 32 94 33
REMARK SMILES IDX 59 34 60 35 74 37 95 38 62 39 46 40 47 41 55 42 48 43 49 44
REMARK SMILES IDX 53 45 56 46 50 47 51 48 54 49 52 50 78 51 79 52 87 53 80 54
REMARK SMILES IDX 81 55 85 56 88 57 82 58 83 59 86 60 84 61 63 62 64 63 72 64
REMARK SMILES IDX 65 65 66 66 70 67 73 68 67 69 68 70 71 71 69 72 8 73 9 74
REMARK SMILES IDX 10 75 11 76 12 77 13 78 16 79 14 80 15 82 17 83 18 84 19 85
REMARK SMILES IDX 36 86 20 88 35 89 21 90 22 91 23 92 34 93 24 95 26 96 25 97
REMARK SMILES IDX 27 98 28 99 29 100 30 101 33 102 31 103 32 104
REMARK H PARENT 93 25 61 36 13 81 18 87 22 94
REMARK Flexibility Score: inf
ROOT
ATOM      1  C   UNL A   1      33.172  30.369  27.253  1.00  0.00     0.202 C 
ENDROOT
BRANCH   1   2
ATOM      2  O   UNL A   1      31.820  30.613  26.860  1.00  0.00    -0.374 OA
BRANCH   2   3
ATOM      3  C   UNL A   1      31.401  31.974  26.760  1.00  0.00     0.202 C 
BRANCH   3   4
ATOM      4  C   UNL A   1      32.539  32.986  26.876  1.00  0.00     0.261 C 
BRANCH   4   5
ATOM      5  O   UNL A   1      32.236  33.951  27.893  1.00  0.00    -0.460 OA
BRANCH   5   6
ATOM      6  C   UNL A   1      33.109  34.617  28.684  1.00  0.00     0.338 C 
ATOM      7  O   UNL A   1      32.957  35.826  28.849  1.00  0.00    -0.246 OA
BRANCH   6   8
ATOM      8  C   UNL A   1      34.246  33.958  29.393  1.00  0.00     0.060 A 
ATOM      9  C   UNL A   1      34.119  32.911  30.305  1.00  0.00     0.016 A 
ATOM     10  C   UNL A   1      35.543  34.361  29.035  1.00  0.00     0.016 A 
ATOM     11  C   UNL A   1      35.211  32.283  30.858  1.00  0.00     0.010 A 
ATOM     12  C   UNL A   1      36.663  33.724  29.577  1.00  0.00     0.010 A 
ATOM     13  C   UNL A   1      36.487  32.679  30.490  1.00  0.00    -0.014 A 
BRANCH  13  14
ATOM     14  C   UNL A   1      37.582  32.044  31.226  1.00  0.00     0.031 A 
ATOM     15  C   UNL A   1      38.393  31.019  30.506  1.00  0.00     0.074 A 
ATOM     16  C   UNL A   1      37.957  32.568  32.407  1.00  0.00     0.049 A 
ATOM     17  N   UNL A   1      39.411  30.325  30.930  1.00  0.00    -0.248 NA
ATOM     18  C   UNL A   1      38.020  30.757  29.104  1.00  0.00     0.031 C 
ATOM     19  C   UNL A   1      37.307  33.704  33.070  1.00  0.00     0.029 A 
ATOM     20  N   UNL A   1      38.998  32.254  33.232  1.00  0.00    -0.354 N 
ATOM     21  C   UNL A   1      39.787  29.531  29.857  1.00  0.00     0.074 A 
ATOM     22  C   UNL A   1      38.884  29.813  28.767  1.00  0.00     0.031 C 
ATOM     23  C   UNL A   1      37.976  33.997  34.196  1.00  0.00     0.029 A 
ATOM     24  C   UNL A   1      39.044  33.021  34.370  1.00  0.00     0.049 A 
ATOM     25  H   UNL A   1      39.653  31.546  33.032  1.00  0.00     0.167 HD
ATOM     26  C   UNL A   1      40.805  28.644  29.807  1.00  0.00     0.037 A 
ATOM     27  C   UNL A   1      39.837  32.898  35.449  1.00  0.00     0.037 A 
ATOM     28  C   UNL A   1      41.671  28.394  30.925  1.00  0.00     0.049 A 
ATOM     29  C   UNL A   1      40.865  31.798  35.421  1.00  0.00     0.074 A 
ATOM     30  C   UNL A   1      42.671  27.453  31.057  1.00  0.00     0.029 A 
ATOM     31  N   UNL A   1      41.627  29.111  32.118  1.00  0.00    -0.354 N 
ATOM     32  N   UNL A   1      41.160  30.966  34.448  1.00  0.00    -0.248 NA
ATOM     33  C   UNL A   1      41.659  31.606  36.638  1.00  0.00     0.031 C 
ATOM     34  C   UNL A   1      43.199  27.566  32.348  1.00  0.00     0.029 A 
ATOM     35  C   UNL A   1      42.575  28.622  32.998  1.00  0.00     0.049 A 
ATOM     36  H   UNL A   1      41.013  29.856  32.307  1.00  0.00     0.167 HD
ATOM     37  C   UNL A   1      42.190  30.169  34.923  1.00  0.00     0.074 A 
ATOM     38  C   UNL A   1      42.483  30.639  36.265  1.00  0.00     0.031 C 
ATOM     39  C   UNL A   1      42.834  29.139  34.320  1.00  0.00     0.037 A 
BRANCH  26  40
ATOM     40  C   UNL A   1      40.958  27.852  28.545  1.00  0.00     0.064 A 
ATOM     41  C   UNL A   1      41.701  28.325  27.453  1.00  0.00     0.173 A 
ATOM     42  C   UNL A   1      40.308  26.616  28.407  1.00  0.00     0.173 A 
ATOM     43  F   UNL A   1      42.311  29.519  27.517  1.00  0.00    -0.203 F 
ATOM     44  C   UNL A   1      41.763  27.606  26.261  1.00  0.00     0.198 A 
ATOM     45  C   UNL A   1      40.396  25.885  27.226  1.00  0.00     0.198 A 
ATOM     46  F   UNL A   1      39.570  26.125  29.414  1.00  0.00    -0.203 F 
ATOM     47  F   UNL A   1      42.422  28.110  25.209  1.00  0.00    -0.200 F 
ATOM     48  C   UNL A   1      41.115  26.384  26.151  1.00  0.00     0.200 A 
ATOM     49  F   UNL A   1      39.770  24.705  27.123  1.00  0.00    -0.200 F 
ATOM     50  F   UNL A   1      41.170  25.696  25.002  1.00  0.00    -0.200 F 
ENDBRANCH  26  40
BRANCH  27  51
ATOM     51  C   UNL A   1      39.637  33.758  36.647  1.00  0.00     0.064 A 
ATOM     52  C   UNL A   1      38.813  33.359  37.710  1.00  0.00     0.173 A 
ATOM     53  C   UNL A   1      40.226  35.030  36.732  1.00  0.00     0.173 A 
ATOM     54  F   UNL A   1      38.211  32.161  37.676  1.00  0.00    -0.203 F 
ATOM     55  C   UNL A   1      38.557  34.211  38.784  1.00  0.00     0.198 A 
ATOM     56  C   UNL A   1      40.001  35.865  37.824  1.00  0.00     0.198 A 
ATOM     57  F   UNL A   1      41.023  35.471  35.747  1.00  0.00    -0.203 F 
ATOM     58  F   UNL A   1      37.707  33.831  39.748  1.00  0.00    -0.200 F 
ATOM     59  C   UNL A   1      39.153  35.462  38.842  1.00  0.00     0.200 A 
ATOM     60  F   UNL A   1      40.593  37.066  37.880  1.00  0.00    -0.200 F 
ATOM     61  F   UNL A   1      38.895  36.284  39.868  1.00  0.00    -0.200 F 
ENDBRANCH  27  51
BRANCH  39  62
ATOM     62  C   UNL A   1      43.947  28.498  35.094  1.00  0.00     0.064 A 
ATOM     63  C   UNL A   1      43.723  27.399  35.935  1.00  0.00     0.173 A 
ATOM     64  C   UNL A   1      45.260  28.973  34.958  1.00  0.00     0.173 A 
ATOM     65  F   UNL A   1      42.482  26.921  36.108  1.00  0.00    -0.203 F 
ATOM     66  C   UNL A   1      44.773  26.820  36.640  1.00  0.00     0.198 A 
ATOM     67  C   UNL A   1      46.312  28.364  35.632  1.00  0.00     0.198 A 
ATOM     68  F   UNL A   1      45.523  30.016  34.157  1.00  0.00    -0.203 F 
ATOM     69  F   UNL A   1      44.529  25.809  37.487  1.00  0.00    -0.200 F 
ATOM     70  C   UNL A   1      46.066  27.295  36.481  1.00  0.00     0.200 A 
ATOM     71  F   UNL A   1      47.562  28.812  35.462  1.00  0.00    -0.200 F 
ATOM     72  F   UNL A   1      47.077  26.728  37.153  1.00  0.00    -0.200 F 
ENDBRANCH  39  62
ENDBRANCH  13  14
ENDBRANCH   6   8
ENDBRANCH   5   6
ENDBRANCH   4   5
ENDBRANCH   3   4
ENDBRANCH   2   3
ENDBRANCH   1   2
BRANCH   1  73
ATOM     73  C   UNL A   1      33.685  29.159  26.475  1.00  0.00     0.261 C 
BRANCH  73  74
ATOM     74  O   UNL A   1      33.344  29.368  25.102  1.00  0.00    -0.459 OA
BRANCH  74  75
ATOM     75  C   UNL A   1      33.136  28.249  24.359  1.00  0.00     0.356 C 
ATOM     76  O   UNL A   1      33.902  27.298  24.249  1.00  0.00    -0.244 OA
BRANCH  75  77
ATOM     77  C   UNL A   1      31.803  28.299  23.831  1.00  0.00     0.152 A 
ATOM     78  N   UNL A   1      30.785  28.972  24.441  1.00  0.00    -0.271 N 
ATOM     79  C   UNL A   1      31.242  27.725  22.697  1.00  0.00     0.059 A 
ATOM     80  N   UNL A   1      29.671  29.052  23.694  1.00  0.00    -0.183 NA
ATOM     81  H   UNL A   1      30.859  29.361  25.341  1.00  0.00     0.190 HD
ATOM     82  C   UNL A   1      29.939  28.266  22.648  1.00  0.00     0.145 A 
BRANCH  79  83
ATOM     83  C   UNL A   1      31.857  26.722  21.776  1.00  0.00     0.303 C 
BRANCH  83  84
ATOM     84  N   UNL A   1      32.095  25.431  22.449  1.00  0.00    -0.331 N 
ATOM     85  C   UNL A   1      30.873  24.771  22.917  1.00  0.00     0.268 C 
ATOM     86  C   UNL A   1      32.905  24.520  21.639  1.00  0.00     0.268 C 
ATOM     87  H   UNL A   1      32.629  25.670  23.285  1.00  0.00     0.348 HD
ATOM     88  C   UNL A   1      31.138  23.537  23.745  1.00  0.00     0.126 C 
ATOM     89  C   UNL A   1      33.305  23.300  22.466  1.00  0.00     0.126 C 
ATOM     90  C   UNL A   1      32.070  22.564  23.010  1.00  0.00     0.195 C 
BRANCH  90  91
ATOM     91  N   UNL A   1      32.444  21.374  23.812  1.00  0.00    -0.331 N 
ATOM     92  C   UNL A   1      32.153  20.103  23.127  1.00  0.00     0.262 C 
ATOM     93  C   UNL A   1      33.870  21.440  24.185  1.00  0.00     0.275 C 
ATOM     94  H   UNL A   1      31.868  21.392  24.653  1.00  0.00     0.348 HD
ATOM     95  C   UNL A   1      32.497  18.906  24.007  1.00  0.00     0.062 C 
ATOM     96  C   UNL A   1      34.309  20.255  25.061  1.00  0.00     0.134 C 
ATOM     97  C   UNL A   1      33.974  18.928  24.391  1.00  0.00     0.025 C 
BRANCH  96  98
ATOM     98  C   UNL A   1      35.805  20.452  25.260  1.00  0.00     0.231 C 
ATOM     99  O   UNL A   1      36.608  19.553  25.001  1.00  0.00    -0.274 OA
ATOM    100  N   UNL A   1      36.222  21.734  25.519  1.00  0.00    -0.342 N 
ATOM    101  C   UNL A   1      35.575  22.735  26.345  1.00  0.00     0.119 C 
ATOM    102  C   UNL A   1      37.487  22.222  25.005  1.00  0.00     0.119 C 
ATOM    103  C   UNL A   1      36.074  24.039  25.756  1.00  0.00     0.023 C 
ATOM    104  C   UNL A   1      37.506  23.710  25.338  1.00  0.00     0.023 C 
ENDBRANCH  96  98
ENDBRANCH  90  91
ENDBRANCH  83  84
ENDBRANCH  79  83
ENDBRANCH  75  77
ENDBRANCH  74  75
ENDBRANCH  73  74
ENDBRANCH   1  73
TORSDOF 18
ENDMDL
MODEL 3
REMARK VINA RESULT:     -11.9      1.168      2.277
REMARK SMILES O=C(OCCOCCOC(=O)c1[nH]ncc1C[NH+]1CCC([N@H+]2CCC[C@@H](C(=O)N3CCCC3)C2)CC1)c1ccc(-c2c3nc(c(-c4c(F)c(F)c(F)c(F)c4F)c4ccc([nH]4)c(-c4c(F)c(F)c(F)c(F)c4F)c4nc(c(-c5c(F)c(F)c(F)c(F)c5F)c5ccc2[nH]5)C=C4)C=C3)cc1
REMARK SMILES IDX 7 1 6 2 5 3 4 4 3 5 2 6 1 7 37 8 38 9 99 10 39 11 98 12
REMARK SMILES IDX 40 13 41 14 42 15 92 16 43 17 97 18 91 19 93 20 44 21 96 22
REMARK SMILES IDX 90 23 89 24 45 26 77 27 57 28 76 29 58 30 61 31 75 32 94 33
REMARK SMILES IDX 59 34 60 35 74 37 95 38 62 39 46 40 47 41 55 42 48 43 49 44
REMARK SMILES IDX 53 45 56 46 50 47 51 48 54 49 52 50 78 51 79 52 87 53 80 54
REMARK SMILES IDX 81 55 85 56 88 57 82 58 83 59 86 60 84 61 63 62 64 63 72 64
REMARK SMILES IDX 65 65 66 66 70 67 73 68 67 69 68 70 71 71 69 72 8 73 9 74
REMARK SMILES IDX 10 75 11 76 12 77 13 78 16 79 14 80 15 82 17 83 18 84 19 85
REMARK SMILES IDX 36 86 20 88 35 89 21 90 22 91 23 92 34 93 24 95 26 96 25 97
REMARK SMILES IDX 27 98 28 99 29 100 30 101 33 102 31 103 32 104
REMARK H PARENT 93 25 61 36 13 81 18 87 22 94
REMARK Flexibility Score: inf
ROOT
ATOM      1  C   UNL A   1      34.079  29.636  27.453  1.00  0.00     0.202 C 
ENDROOT
BRANCH   1   2
ATOM      2  O   UNL A   1      32.944  30.480  27.249  1.00  0.00    -0.374 OA
BRANCH   2   3
ATOM      3  C   UNL A   1      33.191  31.862  26.990  1.00  0.00     0.202 C 
BRANCH   3   4
ATOM      4  C   UNL A   1      32.038  32.784  27.378  1.00  0.00     0.261 C 
BRANCH   4   5
ATOM      5  O   UNL A   1      32.538  34.093  27.687  1.00  0.00    -0.460 OA
BRANCH   5   6
ATOM      6  C   UNL A   1      33.180  34.485  28.812  1.00  0.00     0.338 C 
ATOM      7  O   UNL A   1      32.732  35.437  29.449  1.00  0.00    -0.246 OA
BRANCH   6   8
ATOM      8  C   UNL A   1      34.401  33.809  29.342  1.00  0.00     0.060 A 
ATOM      9  C   UNL A   1      34.395  32.728  30.222  1.00  0.00     0.016 A 
ATOM     10  C   UNL A   1      35.639  34.234  28.836  1.00  0.00     0.016 A 
ATOM     11  C   UNL A   1      35.551  32.087  30.606  1.00  0.00     0.010 A 
ATOM     12  C   UNL A   1      36.821  33.586  29.204  1.00  0.00     0.010 A 
ATOM     13  C   UNL A   1      36.767  32.507  30.092  1.00  0.00    -0.014 A 
BRANCH  13  14
ATOM     14  C   UNL A   1      37.950  31.853  30.656  1.00  0.00     0.031 A 
ATOM     15  C   UNL A   1      38.294  32.155  32.076  1.00  0.00     0.074 A 
ATOM     16  C   UNL A   1      38.523  30.847  29.969  1.00  0.00     0.049 A 
ATOM     17  N   UNL A   1      39.275  31.702  32.802  1.00  0.00    -0.248 NA
ATOM     18  C   UNL A   1      37.389  33.079  32.785  1.00  0.00     0.031 C 
ATOM     19  C   UNL A   1      38.099  30.382  28.643  1.00  0.00     0.029 A 
ATOM     20  N   UNL A   1      39.542  30.004  30.305  1.00  0.00    -0.354 N 
ATOM     21  C   UNL A   1      39.120  32.300  34.045  1.00  0.00     0.074 A 
ATOM     22  C   UNL A   1      37.962  33.159  33.974  1.00  0.00     0.031 C 
ATOM     23  C   UNL A   1      38.848  29.329  28.287  1.00  0.00     0.029 A 
ATOM     24  C   UNL A   1      39.851  29.100  29.319  1.00  0.00     0.049 A 
ATOM     25  H   UNL A   1      40.011  30.040  31.171  1.00  0.00     0.167 HD
ATOM     26  C   UNL A   1      39.893  32.133  35.139  1.00  0.00     0.037 A 
ATOM     27  C   UNL A   1      40.871  28.227  29.253  1.00  0.00     0.037 A 
ATOM     28  C   UNL A   1      41.042  31.271  35.153  1.00  0.00     0.049 A 
ATOM     29  C   UNL A   1      41.805  28.175  30.434  1.00  0.00     0.074 A 
ATOM     30  C   UNL A   1      41.978  31.085  36.151  1.00  0.00     0.029 A 
ATOM     31  N   UNL A   1      41.405  30.442  34.096  1.00  0.00    -0.354 N 
ATOM     32  N   UNL A   1      41.729  28.817  31.578  1.00  0.00    -0.248 NA
ATOM     33  C   UNL A   1      42.970  27.294  30.315  1.00  0.00     0.031 C 
ATOM     34  C   UNL A   1      42.936  30.181  35.678  1.00  0.00     0.029 A 
ATOM     35  C   UNL A   1      42.561  29.752  34.411  1.00  0.00     0.049 A 
ATOM     36  H   UNL A   1      40.912  30.359  33.249  1.00  0.00     0.167 HD
ATOM     37  C   UNL A   1      42.819  28.400  32.325  1.00  0.00     0.074 A 
ATOM     38  C   UNL A   1      43.525  27.428  31.510  1.00  0.00     0.031 C 
ATOM     39  C   UNL A   1      43.214  28.783  33.565  1.00  0.00     0.037 A 
BRANCH  26  40
ATOM     40  C   UNL A   1      39.555  32.955  36.345  1.00  0.00     0.064 A 
ATOM     41  C   UNL A   1      38.645  32.513  37.318  1.00  0.00     0.173 A 
ATOM     42  C   UNL A   1      40.115  34.232  36.506  1.00  0.00     0.173 A 
ATOM     43  F   UNL A   1      38.050  31.316  37.193  1.00  0.00    -0.203 F 
ATOM     44  C   UNL A   1      38.286  33.329  38.388  1.00  0.00     0.198 A 
ATOM     45  C   UNL A   1      39.777  35.033  37.593  1.00  0.00     0.198 A 
ATOM     46  F   UNL A   1      40.977  34.710  35.597  1.00  0.00    -0.203 F 
ATOM     47  F   UNL A   1      37.364  32.913  39.267  1.00  0.00    -0.200 F 
ATOM     48  C   UNL A   1      38.857  34.586  38.528  1.00  0.00     0.200 A 
ATOM     49  F   UNL A   1      40.331  36.246  37.726  1.00  0.00    -0.200 F 
ATOM     50  F   UNL A   1      38.507  35.372  39.555  1.00  0.00    -0.200 F 
ENDBRANCH  26  40
BRANCH  27  51
ATOM     51  C   UNL A   1      41.110  27.420  28.025  1.00  0.00     0.064 A 
ATOM     52  C   UNL A   1      40.642  26.104  27.907  1.00  0.00     0.173 A 
ATOM     53  C   UNL A   1      41.864  27.933  26.957  1.00  0.00     0.173 A 
ATOM     54  F   UNL A   1      39.931  25.555  28.903  1.00  0.00    -0.203 F 
ATOM     55  C   UNL A   1      40.952  25.325  26.793  1.00  0.00     0.198 A 
ATOM     56  C   UNL A   1      42.140  27.167  25.827  1.00  0.00     0.198 A 
ATOM     57  F   UNL A   1      42.341  29.187  27.010  1.00  0.00    -0.203 F 
ATOM     58  F   UNL A   1      40.554  24.045  26.742  1.00  0.00    -0.200 F 
ATOM     59  C   UNL A   1      41.698  25.857  25.753  1.00  0.00     0.200 A 
ATOM     60  F   UNL A   1      42.849  27.695  24.819  1.00  0.00    -0.200 F 
ATOM     61  F   UNL A   1      42.006  25.103  24.689  1.00  0.00    -0.200 F 
ENDBRANCH  27  51
BRANCH  39  62
ATOM     62  C   UNL A   1      44.431  28.106  34.121  1.00  0.00     0.064 A 
ATOM     63  C   UNL A   1      45.714  28.647  33.962  1.00  0.00     0.173 A 
ATOM     64  C   UNL A   1      44.298  26.917  34.855  1.00  0.00     0.173 A 
ATOM     65  F   UNL A   1      45.890  29.773  33.255  1.00  0.00    -0.203 F 
ATOM     66  C   UNL A   1      46.827  28.001  34.490  1.00  0.00     0.198 A 
ATOM     67  C   UNL A   1      45.409  26.298  35.416  1.00  0.00     0.198 A 
ATOM     68  F   UNL A   1      43.089  26.367  35.040  1.00  0.00    -0.203 F 
ATOM     69  F   UNL A   1      48.052  28.502  34.275  1.00  0.00    -0.200 F 
ATOM     70  C   UNL A   1      46.673  26.835  35.224  1.00  0.00     0.200 A 
ATOM     71  F   UNL A   1      45.256  25.182  36.141  1.00  0.00    -0.200 F 
ATOM     72  F   UNL A   1      47.746  26.221  35.740  1.00  0.00    -0.200 F 
ENDBRANCH  39  62
ENDBRANCH  13  14
ENDBRANCH   6   8
ENDBRANCH   5   6
ENDBRANCH   4   5
ENDBRANCH   3   4
ENDBRANCH   2   3
ENDBRANCH   1   2
BRANCH   1  73
ATOM     73  C   UNL A   1      33.758  28.257  26.880  1.00  0.00     0.261 C 
BRANCH  73  74
ATOM     74  O   UNL A   1      33.098  28.465  25.629  1.00  0.00    -0.459 OA
BRANCH  74  75
ATOM     75  C   UNL A   1      31.905  27.834  25.468  1.00  0.00     0.356 C 
ATOM     76  O   UNL A   1      31.571  26.773  25.983  1.00  0.00    -0.244 OA
BRANCH  75  77
ATOM     77  C   UNL A   1      31.043  28.686  24.701  1.00  0.00     0.152 A 
ATOM     78  N   UNL A   1      30.956  30.032  24.902  1.00  0.00    -0.271 N 
ATOM     79  C   UNL A   1      30.147  28.405  23.677  1.00  0.00     0.059 A 
ATOM     80  N   UNL A   1      30.238  30.670  23.962  1.00  0.00    -0.183 NA
ATOM     81  H   UNL A   1      31.379  30.493  25.662  1.00  0.00     0.190 HD
ATOM     82  C   UNL A   1      29.720  29.676  23.237  1.00  0.00     0.145 A 
BRANCH  79  83
ATOM     83  C   UNL A   1      29.697  27.064  23.193  1.00  0.00     0.303 C 
BRANCH  83  84
ATOM     84  N   UNL A   1      30.762  26.050  23.316  1.00  0.00    -0.331 N 
ATOM     85  C   UNL A   1      30.263  24.691  23.543  1.00  0.00     0.268 C 
ATOM     86  C   UNL A   1      31.697  26.084  22.189  1.00  0.00     0.268 C 
ATOM     87  H   UNL A   1      31.273  26.312  24.158  1.00  0.00     0.348 HD
ATOM     88  C   UNL A   1      31.359  23.691  23.828  1.00  0.00     0.126 C 
ATOM     89  C   UNL A   1      32.892  25.177  22.475  1.00  0.00     0.126 C 
ATOM     90  C   UNL A   1      32.444  23.731  22.745  1.00  0.00     0.195 C 
BRANCH  90  91
ATOM     91  N   UNL A   1      33.596  22.838  23.019  1.00  0.00    -0.331 N 
ATOM     92  C   UNL A   1      34.772  23.558  23.537  1.00  0.00     0.262 C 
ATOM     93  C   UNL A   1      33.199  21.766  23.951  1.00  0.00     0.275 C 
ATOM     94  H   UNL A   1      33.873  22.432  22.125  1.00  0.00     0.348 HD
ATOM     95  C   UNL A   1      35.951  22.615  23.749  1.00  0.00     0.062 C 
ATOM     96  C   UNL A   1      34.340  20.777  24.237  1.00  0.00     0.134 C 
ATOM     97  C   UNL A   1      35.584  21.506  24.731  1.00  0.00     0.025 C 
BRANCH  96  98
ATOM     98  C   UNL A   1      33.772  19.816  25.272  1.00  0.00     0.231 C 
ATOM     99  O   UNL A   1      33.155  20.229  26.256  1.00  0.00    -0.274 OA
ATOM    100  N   UNL A   1      33.784  18.485  24.938  1.00  0.00    -0.342 N 
ATOM    101  C   UNL A   1      34.815  17.748  24.236  1.00  0.00     0.119 C 
ATOM    102  C   UNL A   1      32.708  17.606  25.355  1.00  0.00     0.119 C 
ATOM    103  C   UNL A   1      34.049  16.602  23.607  1.00  0.00     0.023 C 
ATOM    104  C   UNL A   1      32.979  16.281  24.649  1.00  0.00     0.023 C 
ENDBRANCH  96  98
ENDBRANCH  90  91
ENDBRANCH  83  84
ENDBRANCH  79  83
ENDBRANCH  75  77
ENDBRANCH  74  75
ENDBRANCH  73  74
ENDBRANCH   1  73
TORSDOF 18
ENDMDL
