MODEL 1
REMARK VINA RESULT:     -10.8      0.000      0.000
REMARK SMILES CCOc1ncccc1C(=O)N1CCC[C@](CC)(C(=O)OCCOCCOC(=O)c2ccc(-c3c4nc(c(-c5c(F)c(F)c(F)c(F)c5F)c5ccc([nH]5)c(-c5c(F)c(F)c(F)c(F)c5F)c5nc(c(-c6c(F)c(F)c(F)c(F)c6F)c6ccc3[nH]6)C=C5)C=C4)cc2)C1
REMARK SMILES IDX 23 1 22 2 21 3 19 4 20 5 16 6 12 7 13 8 93 9 14 10 15 11
REMARK SMILES IDX 10 12 11 13 9 14 4 15 5 16 6 17 8 18 7 19 3 20 2 21 1 22
REMARK SMILES IDX 17 23 18 24 24 25 25 26 26 27 27 28 28 29 29 30 30 31 31 32
REMARK SMILES IDX 92 33 32 34 91 35 33 36 34 37 35 38 85 39 36 40 90 41 84 42
REMARK SMILES IDX 86 43 37 44 89 45 83 46 82 47 38 49 70 50 50 51 69 52 51 53
REMARK SMILES IDX 54 54 68 55 87 56 52 57 53 58 67 60 88 61 55 62 39 63 40 64
REMARK SMILES IDX 48 65 41 66 42 67 46 68 49 69 43 70 44 71 47 72 45 73 71 74
REMARK SMILES IDX 72 75 80 76 73 77 74 78 78 79 81 80 75 81 76 82 79 83 77 84
REMARK SMILES IDX 56 85 57 86 65 87 58 88 59 89 63 90 66 91 60 92 61 93 64 94
REMARK SMILES IDX 62 95
REMARK H PARENT 86 48 54 59
REMARK Flexibility Score: inf
ROOT
ATOM      1  C   UNL A   1      32.660  29.338  27.008  1.00  0.00     0.202 C 
ENDROOT
BRANCH   1   2
ATOM      2  C   UNL A   1      33.710  28.324  26.552  1.00  0.00     0.261 C 
BRANCH   2   3
ATOM      3  O   UNL A   1      33.522  27.945  25.174  1.00  0.00    -0.463 OA
BRANCH   3   4
ATOM      4  C   UNL A   1      33.013  26.700  24.998  1.00  0.00     0.313 C 
ATOM      5  O   UNL A   1      33.377  25.730  25.660  1.00  0.00    -0.252 OA
BRANCH   4   6
ATOM      6  C   UNL A   1      31.950  26.588  23.887  1.00  0.00     0.085 C 
ATOM      7  N   UNL A   1      32.581  24.382  22.780  1.00  0.00    -0.337 N 
ATOM      8  C   UNL A   1      32.807  25.047  21.500  1.00  0.00     0.120 C 
ATOM      9  C   UNL A   1      31.685  25.069  23.729  1.00  0.00     0.138 C 
ATOM     10  C   UNL A   1      33.312  26.461  21.701  1.00  0.00     0.023 C 
ATOM     11  C   UNL A   1      32.312  27.248  22.534  1.00  0.00     0.022 C 
BRANCH   7  12
ATOM     12  C   UNL A   1      33.092  23.082  22.909  1.00  0.00     0.259 C 
ATOM     13  O   UNL A   1      32.574  22.118  22.347  1.00  0.00    -0.269 OA
BRANCH  12  14
ATOM     14  C   UNL A   1      34.256  22.819  23.776  1.00  0.00     0.102 A 
ATOM     15  C   UNL A   1      34.132  22.058  24.935  1.00  0.00     0.226 A 
ATOM     16  N   UNL A   1      35.149  21.837  25.804  1.00  0.00    -0.221 NA
ATOM     17  C   UNL A   1      36.330  22.427  25.519  1.00  0.00     0.115 A 
ATOM     18  C   UNL A   1      35.490  23.426  23.523  1.00  0.00     0.021 A 
ATOM     19  C   UNL A   1      36.547  23.223  24.404  1.00  0.00     0.021 A 
BRANCH  15  20
ATOM     20  O   UNL A   1      32.908  21.591  25.338  1.00  0.00    -0.477 OA
BRANCH  20  21
ATOM     21  C   UNL A   1      32.345  22.404  26.363  1.00  0.00     0.228 C 
ATOM     22  C   UNL A   1      30.853  22.532  26.104  1.00  0.00     0.049 C 
ENDBRANCH  20  21
ENDBRANCH  15  20
ENDBRANCH  12  14
ENDBRANCH   7  12
BRANCH   6  23
ATOM     23  C   UNL A   1      30.707  27.355  24.466  1.00  0.00     0.017 C 
ATOM     24  C   UNL A   1      29.723  27.957  23.469  1.00  0.00     0.005 C 
ENDBRANCH   6  23
ENDBRANCH   4   6
ENDBRANCH   3   4
ENDBRANCH   2   3
ENDBRANCH   1   2
BRANCH   1  25
ATOM     25  O   UNL A   1      32.824  30.672  26.528  1.00  0.00    -0.374 OA
BRANCH  25  26
ATOM     26  C   UNL A   1      31.694  31.536  26.609  1.00  0.00     0.202 C 
BRANCH  26  27
ATOM     27  C   UNL A   1      31.977  33.023  26.861  1.00  0.00     0.261 C 
BRANCH  27  28
ATOM     28  O   UNL A   1      32.483  33.304  28.181  1.00  0.00    -0.460 OA
BRANCH  28  29
ATOM     29  C   UNL A   1      33.594  34.083  28.203  1.00  0.00     0.338 C 
ATOM     30  O   UNL A   1      33.640  35.300  28.147  1.00  0.00    -0.246 OA
BRANCH  29  31
ATOM     31  C   UNL A   1      34.807  33.278  28.454  1.00  0.00     0.060 A 
ATOM     32  C   UNL A   1      34.632  32.028  29.061  1.00  0.00     0.016 A 
ATOM     33  C   UNL A   1      36.090  33.790  28.247  1.00  0.00     0.016 A 
ATOM     34  C   UNL A   1      35.737  31.314  29.521  1.00  0.00     0.010 A 
ATOM     35  C   UNL A   1      37.199  33.072  28.716  1.00  0.00     0.010 A 
ATOM     36  C   UNL A   1      37.025  31.851  29.393  1.00  0.00    -0.014 A 
BRANCH  36  37
ATOM     37  C   UNL A   1      38.155  31.191  30.099  1.00  0.00     0.031 A 
ATOM     38  C   UNL A   1      38.420  31.520  31.543  1.00  0.00     0.074 A 
ATOM     39  C   UNL A   1      38.898  30.258  29.480  1.00  0.00     0.049 A 
ATOM     40  N   UNL A   1      39.317  31.023  32.358  1.00  0.00    -0.248 NA
ATOM     41  C   UNL A   1      37.558  32.543  32.153  1.00  0.00     0.031 C 
ATOM     42  C   UNL A   1      38.730  29.833  28.094  1.00  0.00     0.029 A 
ATOM     43  N   UNL A   1      39.945  29.497  29.941  1.00  0.00    -0.354 N 
ATOM     44  C   UNL A   1      39.128  31.670  33.573  1.00  0.00     0.074 A 
ATOM     45  C   UNL A   1      38.052  32.620  33.381  1.00  0.00     0.031 C 
ATOM     46  C   UNL A   1      39.644  28.890  27.811  1.00  0.00     0.029 A 
ATOM     47  C   UNL A   1      40.472  28.657  28.992  1.00  0.00     0.049 A 
ATOM     48  H   UNL A   1      40.285  29.550  30.863  1.00  0.00     0.167 HD
ATOM     49  C   UNL A   1      39.782  31.482  34.744  1.00  0.00     0.037 A 
ATOM     50  C   UNL A   1      41.511  27.803  29.066  1.00  0.00     0.037 A 
ATOM     51  C   UNL A   1      40.850  30.537  34.938  1.00  0.00     0.049 A 
ATOM     52  C   UNL A   1      42.255  27.650  30.367  1.00  0.00     0.074 A 
ATOM     53  C   UNL A   1      41.553  30.255  36.097  1.00  0.00     0.029 A 
ATOM     54  N   UNL A   1      41.377  29.725  33.945  1.00  0.00    -0.354 N 
ATOM     55  N   UNL A   1      42.039  28.232  31.520  1.00  0.00    -0.248 NA
ATOM     56  C   UNL A   1      43.386  26.710  30.375  1.00  0.00     0.031 C 
ATOM     57  C   UNL A   1      42.538  29.308  35.794  1.00  0.00     0.029 A 
ATOM     58  C   UNL A   1      42.414  28.961  34.459  1.00  0.00     0.049 A 
ATOM     59  H   UNL A   1      41.061  29.695  33.014  1.00  0.00     0.167 HD
ATOM     60  C   UNL A   1      42.985  27.716  32.394  1.00  0.00     0.074 A 
ATOM     61  C   UNL A   1      43.770  26.758  31.643  1.00  0.00     0.031 C 
ATOM     62  C   UNL A   1      43.186  28.008  33.703  1.00  0.00     0.037 A 
BRANCH  49  63
ATOM     63  C   UNL A   1      39.369  32.329  35.912  1.00  0.00     0.064 A 
ATOM     64  C   UNL A   1      38.406  31.892  36.834  1.00  0.00     0.173 A 
ATOM     65  C   UNL A   1      39.977  33.574  36.137  1.00  0.00     0.173 A 
ATOM     66  F   UNL A   1      37.788  30.715  36.658  1.00  0.00    -0.203 F 
ATOM     67  C   UNL A   1      38.050  32.682  37.925  1.00  0.00     0.198 A 
ATOM     68  C   UNL A   1      39.638  34.347  37.243  1.00  0.00     0.198 A 
ATOM     69  F   UNL A   1      40.908  34.034  35.289  1.00  0.00    -0.203 F 
ATOM     70  F   UNL A   1      37.099  32.262  38.772  1.00  0.00    -0.200 F 
ATOM     71  C   UNL A   1      38.672  33.904  38.133  1.00  0.00     0.200 A 
ATOM     72  F   UNL A   1      40.247  35.523  37.449  1.00  0.00    -0.200 F 
ATOM     73  F   UNL A   1      38.333  34.658  39.188  1.00  0.00    -0.200 F 
ENDBRANCH  49  63
BRANCH  50  74
ATOM     74  C   UNL A   1      41.908  27.018  27.869  1.00  0.00     0.064 A 
ATOM     75  C   UNL A   1      42.825  27.528  26.941  1.00  0.00     0.173 A 
ATOM     76  C   UNL A   1      41.364  25.749  27.621  1.00  0.00     0.173 A 
ATOM     77  F   UNL A   1      43.350  28.751  27.119  1.00  0.00    -0.203 F 
ATOM     78  C   UNL A   1      43.174  26.805  25.803  1.00  0.00     0.198 A 
ATOM     79  C   UNL A   1      41.733  25.015  26.497  1.00  0.00     0.198 A 
ATOM     80  F   UNL A   1      40.474  25.223  28.474  1.00  0.00    -0.203 F 
ATOM     81  F   UNL A   1      44.018  27.335  24.907  1.00  0.00    -0.200 F 
ATOM     82  C   UNL A   1      42.633  25.546  25.585  1.00  0.00     0.200 A 
ATOM     83  F   UNL A   1      41.210  23.800  26.289  1.00  0.00    -0.200 F 
ATOM     84  F   UNL A   1      42.968  24.852  24.488  1.00  0.00    -0.200 F 
ENDBRANCH  50  74
BRANCH  62  85
ATOM     85  C   UNL A   1      44.277  27.265  34.417  1.00  0.00     0.064 A 
ATOM     86  C   UNL A   1      45.577  27.782  34.518  1.00  0.00     0.173 A 
ATOM     87  C   UNL A   1      44.009  26.037  35.042  1.00  0.00     0.173 A 
ATOM     88  F   UNL A   1      45.888  28.945  33.927  1.00  0.00    -0.203 F 
ATOM     89  C   UNL A   1      46.574  27.085  35.196  1.00  0.00     0.198 A 
ATOM     90  C   UNL A   1      45.001  25.356  35.742  1.00  0.00     0.198 A 
ATOM     91  F   UNL A   1      42.781  25.501  34.982  1.00  0.00    -0.203 F 
ATOM     92  F   UNL A   1      47.820  27.576  35.240  1.00  0.00    -0.200 F 
ATOM     93  C   UNL A   1      46.284  25.877  35.812  1.00  0.00     0.200 A 
ATOM     94  F   UNL A   1      44.716  24.195  36.349  1.00  0.00    -0.200 F 
ATOM     95  F   UNL A   1      47.244  25.211  36.469  1.00  0.00    -0.200 F 
ENDBRANCH  62  85
ENDBRANCH  36  37
ENDBRANCH  29  31
ENDBRANCH  28  29
ENDBRANCH  27  28
ENDBRANCH  26  27
ENDBRANCH  25  26
ENDBRANCH   1  25
TORSDOF 19
ENDMDL
MODEL 2
REMARK VINA RESULT:     -10.7      0.637      1.692
REMARK SMILES CCOc1ncccc1C(=O)N1CCC[C@](CC)(C(=O)OCCOCCOC(=O)c2ccc(-c3c4nc(c(-c5c(F)c(F)c(F)c(F)c5F)c5ccc([nH]5)c(-c5c(F)c(F)c(F)c(F)c5F)c5nc(c(-c6c(F)c(F)c(F)c(F)c6F)c6ccc3[nH]6)C=C5)C=C4)cc2)C1
REMARK SMILES IDX 23 1 22 2 21 3 19 4 20 5 16 6 12 7 13 8 93 9 14 10 15 11
REMARK SMILES IDX 10 12 11 13 9 14 4 15 5 16 6 17 8 18 7 19 3 20 2 21 1 22
REMARK SMILES IDX 17 23 18 24 24 25 25 26 26 27 27 28 28 29 29 30 30 31 31 32
REMARK SMILES IDX 92 33 32 34 91 35 33 36 34 37 35 38 85 39 36 40 90 41 84 42
REMARK SMILES IDX 86 43 37 44 89 45 83 46 82 47 38 49 70 50 50 51 69 52 51 53
REMARK SMILES IDX 54 54 68 55 87 56 52 57 53 58 67 60 88 61 55 62 39 63 40 64
REMARK SMILES IDX 48 65 41 66 42 67 46 68 49 69 43 70 44 71 47 72 45 73 71 74
REMARK SMILES IDX 72 75 80 76 73 77 74 78 78 79 81 80 75 81 76 82 79 83 77 84
REMARK SMILES IDX 56 85 57 86 65 87 58 88 59 89 63 90 66 91 60 92 61 93 64 94
REMARK SMILES IDX 62 95
REMARK H PARENT 86 48 54 59
REMARK Flexibility Score: inf
ROOT
ATOM      1  C   UNL A   1      32.544  29.750  27.350  1.00  0.00     0.202 C 
ENDROOT
BRANCH   1   2
ATOM      2  C   UNL A   1      32.340  28.255  27.099  1.00  0.00     0.261 C 
BRANCH   2   3
ATOM      3  O   UNL A   1      31.484  28.017  25.964  1.00  0.00    -0.463 OA
BRANCH   3   4
ATOM      4  C   UNL A   1      31.897  27.016  25.149  1.00  0.00     0.313 C 
ATOM      5  O   UNL A   1      32.614  26.094  25.533  1.00  0.00    -0.252 OA
BRANCH   4   6
ATOM      6  C   UNL A   1      31.412  27.129  23.689  1.00  0.00     0.085 C 
ATOM      7  N   UNL A   1      32.823  25.353  22.530  1.00  0.00    -0.337 N 
ATOM      8  C   UNL A   1      33.423  26.351  21.649  1.00  0.00     0.120 C 
ATOM      9  C   UNL A   1      31.512  25.694  23.114  1.00  0.00     0.138 C 
ATOM     10  C   UNL A   1      33.540  27.692  22.344  1.00  0.00     0.023 C 
ATOM     11  C   UNL A   1      32.165  28.152  22.803  1.00  0.00     0.022 C 
BRANCH   7  12
ATOM     12  C   UNL A   1      33.463  24.106  22.591  1.00  0.00     0.259 C 
ATOM     13  O   UNL A   1      33.485  23.335  21.632  1.00  0.00    -0.269 OA
BRANCH  12  14
ATOM     14  C   UNL A   1      34.099  23.653  23.842  1.00  0.00     0.102 A 
ATOM     15  C   UNL A   1      33.455  22.756  24.691  1.00  0.00     0.226 A 
ATOM     16  N   UNL A   1      33.959  22.354  25.883  1.00  0.00    -0.221 NA
ATOM     17  C   UNL A   1      35.139  22.894  26.257  1.00  0.00     0.115 A 
ATOM     18  C   UNL A   1      35.310  24.202  24.270  1.00  0.00     0.021 A 
ATOM     19  C   UNL A   1      35.845  23.813  25.495  1.00  0.00     0.021 A 
BRANCH  15  20
ATOM     20  O   UNL A   1      32.184  22.325  24.420  1.00  0.00    -0.477 OA
BRANCH  20  21
ATOM     21  C   UNL A   1      31.450  22.060  25.612  1.00  0.00     0.228 C 
ATOM     22  C   UNL A   1      30.721  23.330  26.015  1.00  0.00     0.049 C 
ENDBRANCH  20  21
ENDBRANCH  15  20
ENDBRANCH  12  14
ENDBRANCH   7  12
BRANCH   6  23
ATOM     23  C   UNL A   1      29.926  27.621  23.815  1.00  0.00     0.017 C 
ATOM     24  C   UNL A   1      29.406  28.577  22.746  1.00  0.00     0.005 C 
ENDBRANCH   6  23
ENDBRANCH   4   6
ENDBRANCH   3   4
ENDBRANCH   2   3
ENDBRANCH   1   2
BRANCH   1  25
ATOM     25  O   UNL A   1      32.264  30.616  26.251  1.00  0.00    -0.374 OA
BRANCH  25  26
ATOM     26  C   UNL A   1      31.354  31.687  26.482  1.00  0.00     0.202 C 
BRANCH  26  27
ATOM     27  C   UNL A   1      31.966  33.062  26.784  1.00  0.00     0.261 C 
BRANCH  27  28
ATOM     28  O   UNL A   1      32.680  33.119  28.035  1.00  0.00    -0.460 OA
BRANCH  28  29
ATOM     29  C   UNL A   1      33.780  33.915  28.018  1.00  0.00     0.338 C 
ATOM     30  O   UNL A   1      33.807  35.130  27.918  1.00  0.00    -0.246 OA
BRANCH  29  31
ATOM     31  C   UNL A   1      35.006  33.139  28.286  1.00  0.00     0.060 A 
ATOM     32  C   UNL A   1      34.847  31.840  28.786  1.00  0.00     0.016 A 
ATOM     33  C   UNL A   1      36.278  33.711  28.200  1.00  0.00     0.016 A 
ATOM     34  C   UNL A   1      35.950  31.134  29.262  1.00  0.00     0.010 A 
ATOM     35  C   UNL A   1      37.385  33.000  28.684  1.00  0.00     0.010 A 
ATOM     36  C   UNL A   1      37.220  31.726  29.258  1.00  0.00    -0.014 A 
BRANCH  36  37
ATOM     37  C   UNL A   1      38.331  31.055  29.983  1.00  0.00     0.031 A 
ATOM     38  C   UNL A   1      38.566  31.374  31.435  1.00  0.00     0.074 A 
ATOM     39  C   UNL A   1      39.083  30.121  29.375  1.00  0.00     0.049 A 
ATOM     40  N   UNL A   1      39.443  30.867  32.266  1.00  0.00    -0.248 NA
ATOM     41  C   UNL A   1      37.697  32.398  32.033  1.00  0.00     0.031 C 
ATOM     42  C   UNL A   1      38.942  29.706  27.983  1.00  0.00     0.029 A 
ATOM     43  N   UNL A   1      40.115  29.352  29.854  1.00  0.00    -0.354 N 
ATOM     44  C   UNL A   1      39.231  31.508  33.480  1.00  0.00     0.074 A 
ATOM     45  C   UNL A   1      38.165  32.464  33.271  1.00  0.00     0.031 C 
ATOM     46  C   UNL A   1      39.857  28.760  27.714  1.00  0.00     0.029 A 
ATOM     47  C   UNL A   1      40.658  28.515  28.911  1.00  0.00     0.049 A 
ATOM     48  H   UNL A   1      40.435  29.398  30.783  1.00  0.00     0.167 HD
ATOM     49  C   UNL A   1      39.858  31.309  34.664  1.00  0.00     0.037 A 
ATOM     50  C   UNL A   1      41.691  27.655  29.002  1.00  0.00     0.037 A 
ATOM     51  C   UNL A   1      40.917  30.357  34.876  1.00  0.00     0.049 A 
ATOM     52  C   UNL A   1      42.406  27.490  30.318  1.00  0.00     0.074 A 
ATOM     53  C   UNL A   1      41.594  30.065  36.048  1.00  0.00     0.029 A 
ATOM     54  N   UNL A   1      41.461  29.548  33.889  1.00  0.00    -0.354 N 
ATOM     55  N   UNL A   1      42.167  28.067  31.470  1.00  0.00    -0.248 NA
ATOM     56  C   UNL A   1      43.531  26.544  30.345  1.00  0.00     0.031 C 
ATOM     57  C   UNL A   1      42.580  29.114  35.760  1.00  0.00     0.029 A 
ATOM     58  C   UNL A   1      42.483  28.776  34.421  1.00  0.00     0.049 A 
ATOM     59  H   UNL A   1      41.166  29.526  32.951  1.00  0.00     0.167 HD
ATOM     60  C   UNL A   1      43.092  27.540  32.361  1.00  0.00     0.074 A 
ATOM     61  C   UNL A   1      43.888  26.583  31.621  1.00  0.00     0.031 C 
ATOM     62  C   UNL A   1      43.265  27.823  33.675  1.00  0.00     0.037 A 
BRANCH  49  63
ATOM     63  C   UNL A   1      39.425  32.151  35.829  1.00  0.00     0.064 A 
ATOM     64  C   UNL A   1      38.477  31.693  36.755  1.00  0.00     0.173 A 
ATOM     65  C   UNL A   1      39.998  33.414  36.044  1.00  0.00     0.173 A 
ATOM     66  F   UNL A   1      37.891  30.498  36.588  1.00  0.00    -0.203 F 
ATOM     67  C   UNL A   1      38.101  32.479  37.843  1.00  0.00     0.198 A 
ATOM     68  C   UNL A   1      39.640  34.184  37.146  1.00  0.00     0.198 A 
ATOM     69  F   UNL A   1      40.914  33.894  35.191  1.00  0.00    -0.203 F 
ATOM     70  F   UNL A   1      37.164  32.038  38.694  1.00  0.00    -0.200 F 
ATOM     71  C   UNL A   1      38.689  33.720  38.042  1.00  0.00     0.200 A 
ATOM     72  F   UNL A   1      40.217  35.378  37.344  1.00  0.00    -0.200 F 
ATOM     73  F   UNL A   1      38.332  34.470  39.093  1.00  0.00    -0.200 F 
ENDBRANCH  49  63
BRANCH  50  74
ATOM     74  C   UNL A   1      42.110  26.875  27.810  1.00  0.00     0.064 A 
ATOM     75  C   UNL A   1      41.539  25.628  27.523  1.00  0.00     0.173 A 
ATOM     76  C   UNL A   1      43.102  27.355  26.942  1.00  0.00     0.173 A 
ATOM     77  F   UNL A   1      40.607  25.114  28.341  1.00  0.00    -0.203 F 
ATOM     78  C   UNL A   1      41.955  24.883  26.422  1.00  0.00     0.198 A 
ATOM     79  C   UNL A   1      43.498  26.622  25.827  1.00  0.00     0.198 A 
ATOM     80  F   UNL A   1      43.686  28.538  27.180  1.00  0.00    -0.203 F 
ATOM     81  F   UNL A   1      41.426  23.672  26.197  1.00  0.00    -0.200 F 
ATOM     82  C   UNL A   1      42.930  25.383  25.571  1.00  0.00     0.200 A 
ATOM     83  F   UNL A   1      44.439  27.107  25.006  1.00  0.00    -0.200 F 
ATOM     84  F   UNL A   1      43.330  24.664  24.513  1.00  0.00    -0.200 F 
ENDBRANCH  50  74
BRANCH  62  85
ATOM     85  C   UNL A   1      44.337  27.069  34.409  1.00  0.00     0.064 A 
ATOM     86  C   UNL A   1      44.084  25.826  35.007  1.00  0.00     0.173 A 
ATOM     87  C   UNL A   1      45.643  27.579  34.480  1.00  0.00     0.173 A 
ATOM     88  F   UNL A   1      42.850  25.302  34.978  1.00  0.00    -0.203 F 
ATOM     89  C   UNL A   1      45.093  25.134  35.672  1.00  0.00     0.198 A 
ATOM     90  C   UNL A   1      46.656  26.871  35.122  1.00  0.00     0.198 A 
ATOM     91  F   UNL A   1      45.940  28.761  33.919  1.00  0.00    -0.203 F 
ATOM     92  F   UNL A   1      44.818  23.970  36.276  1.00  0.00    -0.200 F 
ATOM     93  C   UNL A   1      46.378  25.653  35.724  1.00  0.00     0.200 A 
ATOM     94  F   UNL A   1      47.900  27.368  35.159  1.00  0.00    -0.200 F 
ATOM     95  F   UNL A   1      47.349  24.982  36.359  1.00  0.00    -0.200 F 
ENDBRANCH  62  85
ENDBRANCH  36  37
ENDBRANCH  29  31
ENDBRANCH  28  29
ENDBRANCH  27  28
ENDBRANCH  26  27
ENDBRANCH  25  26
ENDBRANCH   1  25
TORSDOF 19
ENDMDL
MODEL 3
REMARK VINA RESULT:     -10.5      1.382      2.291
REMARK SMILES CCOc1ncccc1C(=O)N1CCC[C@](CC)(C(=O)OCCOCCOC(=O)c2ccc(-c3c4nc(c(-c5c(F)c(F)c(F)c(F)c5F)c5ccc([nH]5)c(-c5c(F)c(F)c(F)c(F)c5F)c5nc(c(-c6c(F)c(F)c(F)c(F)c6F)c6ccc3[nH]6)C=C5)C=C4)cc2)C1
REMARK SMILES IDX 23 1 22 2 21 3 19 4 20 5 16 6 12 7 13 8 93 9 14 10 15 11
REMARK SMILES IDX 10 12 11 13 9 14 4 15 5 16 6 17 8 18 7 19 3 20 2 21 1 22
REMARK SMILES IDX 17 23 18 24 24 25 25 26 26 27 27 28 28 29 29 30 30 31 31 32
REMARK SMILES IDX 92 33 32 34 91 35 33 36 34 37 35 38 85 39 36 40 90 41 84 42
REMARK SMILES IDX 86 43 37 44 89 45 83 46 82 47 38 49 70 50 50 51 69 52 51 53
REMARK SMILES IDX 54 54 68 55 87 56 52 57 53 58 67 60 88 61 55 62 39 63 40 64
REMARK SMILES IDX 48 65 41 66 42 67 46 68 49 69 43 70 44 71 47 72 45 73 71 74
REMARK SMILES IDX 72 75 80 76 73 77 74 78 78 79 81 80 75 81 76 82 79 83 77 84
REMARK SMILES IDX 56 85 57 86 65 87 58 88 59 89 63 90 66 91 60 92 61 93 64 94
REMARK SMILES IDX 62 95
REMARK H PARENT 86 48 54 59
REMARK Flexibility Score: inf
ROOT
ATOM      1  C   UNL A   1      32.535  30.008  27.255  1.00  0.00     0.202 C 
ENDROOT
BRANCH   1   2
ATOM      2  C   UNL A   1      32.289  28.501  27.347  1.00  0.00     0.261 C 
BRANCH   2   3
ATOM      3  O   UNL A   1      31.551  28.012  26.209  1.00  0.00    -0.463 OA
BRANCH   3   4
ATOM      4  C   UNL A   1      32.325  27.556  25.192  1.00  0.00     0.313 C 
ATOM      5  O   UNL A   1      33.452  27.096  25.363  1.00  0.00    -0.252 OA
BRANCH   4   6
ATOM      6  C   UNL A   1      31.687  27.675  23.793  1.00  0.00     0.085 C 
ATOM      7  N   UNL A   1      32.650  25.637  22.605  1.00  0.00    -0.337 N 
ATOM      8  C   UNL A   1      33.285  26.480  21.596  1.00  0.00     0.120 C 
ATOM      9  C   UNL A   1      31.491  26.215  23.310  1.00  0.00     0.138 C 
ATOM     10  C   UNL A   1      33.694  27.817  22.180  1.00  0.00     0.023 C 
ATOM     11  C   UNL A   1      32.474  28.517  22.759  1.00  0.00     0.022 C 
BRANCH   7  12
ATOM     12  C   UNL A   1      33.092  24.308  22.678  1.00  0.00     0.259 C 
ATOM     13  O   UNL A   1      33.555  23.718  21.702  1.00  0.00    -0.269 OA
BRANCH  12  14
ATOM     14  C   UNL A   1      32.968  23.547  23.936  1.00  0.00     0.102 A 
ATOM     15  C   UNL A   1      33.967  23.595  24.905  1.00  0.00     0.226 A 
ATOM     16  N   UNL A   1      33.940  22.869  26.050  1.00  0.00    -0.221 NA
ATOM     17  C   UNL A   1      32.888  22.038  26.218  1.00  0.00     0.115 A 
ATOM     18  C   UNL A   1      31.904  22.665  24.138  1.00  0.00     0.021 A 
ATOM     19  C   UNL A   1      31.857  21.901  25.301  1.00  0.00     0.021 A 
BRANCH  15  20
ATOM     20  O   UNL A   1      35.124  24.294  24.685  1.00  0.00    -0.477 OA
BRANCH  20  21
ATOM     21  C   UNL A   1      36.274  23.461  24.796  1.00  0.00     0.228 C 
ATOM     22  C   UNL A   1      36.629  22.950  23.410  1.00  0.00     0.049 C 
ENDBRANCH  20  21
ENDBRANCH  15  20
ENDBRANCH  12  14
ENDBRANCH   7  12
BRANCH   6  23
ATOM     23  C   UNL A   1      30.322  28.407  24.054  1.00  0.00     0.017 C 
ATOM     24  C   UNL A   1      29.381  28.589  22.866  1.00  0.00     0.005 C 
ENDBRANCH   6  23
ENDBRANCH   4   6
ENDBRANCH   3   4
ENDBRANCH   2   3
ENDBRANCH   1   2
BRANCH   1  25
ATOM     25  O   UNL A   1      31.625  30.746  26.441  1.00  0.00    -0.374 OA
BRANCH  25  26
ATOM     26  C   UNL A   1      31.622  32.163  26.588  1.00  0.00     0.202 C 
BRANCH  26  27
ATOM     27  C   UNL A   1      32.518  32.746  27.689  1.00  0.00     0.261 C 
BRANCH  27  28
ATOM     28  O   UNL A   1      32.986  34.081  27.412  1.00  0.00    -0.460 OA
BRANCH  28  29
ATOM     29  C   UNL A   1      33.071  34.884  28.504  1.00  0.00     0.338 C 
ATOM     30  O   UNL A   1      32.271  35.733  28.856  1.00  0.00    -0.246 OA
BRANCH  29  31
ATOM     31  C   UNL A   1      34.224  34.515  29.350  1.00  0.00     0.060 A 
ATOM     32  C   UNL A   1      35.500  34.638  28.785  1.00  0.00     0.016 A 
ATOM     33  C   UNL A   1      34.061  33.920  30.603  1.00  0.00     0.016 A 
ATOM     34  C   UNL A   1      36.609  34.109  29.441  1.00  0.00     0.010 A 
ATOM     35  C   UNL A   1      35.179  33.384  31.259  1.00  0.00     0.010 A 
ATOM     36  C   UNL A   1      36.451  33.437  30.661  1.00  0.00    -0.014 A 
BRANCH  36  37
ATOM     37  C   UNL A   1      37.600  32.679  31.221  1.00  0.00     0.031 A 
ATOM     38  C   UNL A   1      38.104  33.009  32.600  1.00  0.00     0.074 A 
ATOM     39  C   UNL A   1      38.150  31.661  30.536  1.00  0.00     0.049 A 
ATOM     40  N   UNL A   1      39.057  32.439  33.296  1.00  0.00    -0.248 NA
ATOM     41  C   UNL A   1      37.446  34.127  33.290  1.00  0.00     0.031 C 
ATOM     42  C   UNL A   1      37.740  31.227  29.204  1.00  0.00     0.029 A 
ATOM     43  N   UNL A   1      39.172  30.806  30.869  1.00  0.00    -0.354 N 
ATOM     44  C   UNL A   1      39.112  33.127  34.501  1.00  0.00     0.074 A 
ATOM     45  C   UNL A   1      38.119  34.178  34.431  1.00  0.00     0.031 C 
ATOM     46  C   UNL A   1      38.504  30.189  28.827  1.00  0.00     0.029 A 
ATOM     47  C   UNL A   1      39.469  29.896  29.885  1.00  0.00     0.049 A 
ATOM     48  H   UNL A   1      39.646  30.843  31.731  1.00  0.00     0.167 HD
ATOM     49  C   UNL A   1      39.907  32.896  35.572  1.00  0.00     0.037 A 
ATOM     50  C   UNL A   1      40.418  28.942  29.839  1.00  0.00     0.037 A 
ATOM     51  C   UNL A   1      40.894  31.850  35.646  1.00  0.00     0.049 A 
ATOM     52  C   UNL A   1      41.325  28.740  31.026  1.00  0.00     0.074 A 
ATOM     53  C   UNL A   1      41.727  31.522  36.702  1.00  0.00     0.029 A 
ATOM     54  N   UNL A   1      41.187  30.968  34.617  1.00  0.00    -0.354 N 
ATOM     55  N   UNL A   1      41.337  29.365  32.176  1.00  0.00    -0.248 NA
ATOM     56  C   UNL A   1      42.346  27.689  30.906  1.00  0.00     0.031 C 
ATOM     57  C   UNL A   1      42.558  30.472  36.295  1.00  0.00     0.029 A 
ATOM     58  C   UNL A   1      42.207  30.112  35.004  1.00  0.00     0.049 A 
ATOM     59  H   UNL A   1      40.738  30.952  33.742  1.00  0.00     0.167 HD
ATOM     60  C   UNL A   1      42.345  28.772  32.924  1.00  0.00     0.074 A 
ATOM     61  C   UNL A   1      42.914  27.723  32.103  1.00  0.00     0.031 C 
ATOM     62  C   UNL A   1      42.762  29.070  34.179  1.00  0.00     0.037 A 
BRANCH  49  63
ATOM     63  C   UNL A   1      39.755  33.806  36.757  1.00  0.00     0.064 A 
ATOM     64  C   UNL A   1      40.379  35.062  36.805  1.00  0.00     0.173 A 
ATOM     65  C   UNL A   1      38.940  33.435  37.837  1.00  0.00     0.173 A 
ATOM     66  F   UNL A   1      41.176  35.459  35.802  1.00  0.00    -0.203 F 
ATOM     67  C   UNL A   1      40.210  35.903  37.903  1.00  0.00     0.198 A 
ATOM     68  C   UNL A   1      38.753  34.289  38.920  1.00  0.00     0.198 A 
ATOM     69  F   UNL A   1      38.317  32.247  37.837  1.00  0.00    -0.203 F 
ATOM     70  F   UNL A   1      40.847  37.082  37.946  1.00  0.00    -0.200 F 
ATOM     71  C   UNL A   1      39.391  35.519  38.955  1.00  0.00     0.200 A 
ATOM     72  F   UNL A   1      37.952  33.923  39.931  1.00  0.00    -0.200 F 
ATOM     73  F   UNL A   1      39.224  36.334  40.006  1.00  0.00    -0.200 F 
ENDBRANCH  49  63
BRANCH  50  74
ATOM     74  C   UNL A   1      40.557  28.095  28.627  1.00  0.00     0.064 A 
ATOM     75  C   UNL A   1      41.324  28.518  27.534  1.00  0.00     0.173 A 
ATOM     76  C   UNL A   1      39.910  26.854  28.531  1.00  0.00     0.173 A 
ATOM     77  F   UNL A   1      41.937  29.712  27.567  1.00  0.00    -0.203 F 
ATOM     78  C   UNL A   1      41.428  27.738  26.385  1.00  0.00     0.198 A 
ATOM     79  C   UNL A   1      40.036  26.063  27.393  1.00  0.00     0.198 A 
ATOM     80  F   UNL A   1      39.155  26.412  29.547  1.00  0.00    -0.203 F 
ATOM     81  F   UNL A   1      42.131  28.187  25.335  1.00  0.00    -0.200 F 
ATOM     82  C   UNL A   1      40.790  26.508  26.317  1.00  0.00     0.200 A 
ATOM     83  F   UNL A   1      39.419  24.876  27.331  1.00  0.00    -0.200 F 
ATOM     84  F   UNL A   1      40.890  25.760  25.209  1.00  0.00    -0.200 F 
ENDBRANCH  50  74
BRANCH  62  85
ATOM     85  C   UNL A   1      43.867  28.232  34.757  1.00  0.00     0.064 A 
ATOM     86  C   UNL A   1      45.211  28.624  34.669  1.00  0.00     0.173 A 
ATOM     87  C   UNL A   1      43.574  27.042  35.440  1.00  0.00     0.173 A 
ATOM     88  F   UNL A   1      45.545  29.746  34.014  1.00  0.00    -0.203 F 
ATOM     89  C   UNL A   1      46.222  27.842  35.221  1.00  0.00     0.198 A 
ATOM     90  C   UNL A   1      44.585  26.276  36.015  1.00  0.00     0.198 A 
ATOM     91  F   UNL A   1      42.304  26.625  35.560  1.00  0.00    -0.203 F 
ATOM     92  F   UNL A   1      47.503  28.212  35.084  1.00  0.00    -0.200 F 
ATOM     93  C   UNL A   1      45.908  26.673  35.898  1.00  0.00     0.200 A 
ATOM     94  F   UNL A   1      44.279  25.155  36.682  1.00  0.00    -0.200 F 
ATOM     95  F   UNL A   1      46.882  25.925  36.435  1.00  0.00    -0.200 F 
ENDBRANCH  62  85
ENDBRANCH  36  37
ENDBRANCH  29  31
ENDBRANCH  28  29
ENDBRANCH  27  28
ENDBRANCH  26  27
ENDBRANCH  25  26
ENDBRANCH   1  25
TORSDOF 19
ENDMDL
