MODEL 1
REMARK VINA RESULT:     -13.5      0.000      0.000
REMARK SMILES O=C(Cn1c2ccccc2c(=O)c2ccccc21)N[C@@H](Cc1ccccc1)C(=O)OCCOCCOC(=O)c1ccc(-c2c3nc(c(-c4c(F)c(F)c(F)c(F)c4F)c4ccc([nH]4)c(-c4c(F)c(F)c(F)c(F)c4F)c4nc(c(-c5c(F)c(F)c(F)c(F)c5F)c5ccc2[nH]5)C=C4)C=C3)cc1
REMARK SMILES IDX 32 1 31 2 30 3 28 4 29 5 20 6 19 7 1 8 2 9 3 11 4 12 5 13
REMARK SMILES IDX 18 14 6 15 10 16 13 17 17 18 7 19 9 20 11 21 14 22 16 23
REMARK SMILES IDX 8 24 12 25 15 26 21 27 22 28 23 29 27 30 24 31 26 32 25 33
REMARK SMILES IDX 33 34 34 35 35 36 36 37 37 38 38 39 39 40 40 41 101 42 41 43
REMARK SMILES IDX 100 44 42 45 43 46 44 47 94 48 45 49 99 50 93 51 95 52 46 53
REMARK SMILES IDX 98 54 92 55 91 56 47 58 79 59 59 60 78 61 60 62 63 63 77 64
REMARK SMILES IDX 96 65 61 66 62 67 76 69 97 70 64 71 48 72 49 73 57 74 50 75
REMARK SMILES IDX 51 76 55 77 58 78 52 79 53 80 56 81 54 82 80 83 81 84 89 85
REMARK SMILES IDX 82 86 83 87 87 88 90 89 84 90 85 91 88 92 86 93 65 94 66 95
REMARK SMILES IDX 74 96 67 97 68 98 72 99 75 100 69 101 70 102 73 103 71 104
REMARK H PARENT 19 10 95 57 63 68
REMARK Flexibility Score: inf
ROOT
ATOM      1  C   UNL A   1      33.259  28.630  27.123  1.00  0.00     0.202 C 
ENDROOT
BRANCH   1   2
ATOM      2  C   UNL A   1      33.958  27.876  25.968  1.00  0.00     0.261 C 
BRANCH   2   3
ATOM      3  O   UNL A   1      33.122  27.356  24.927  1.00  0.00    -0.462 OA
BRANCH   3   4
ATOM      4  C   UNL A   1      33.614  27.441  23.660  1.00  0.00     0.329 C 
ATOM      5  O   UNL A   1      33.971  28.487  23.129  1.00  0.00    -0.250 OA
BRANCH   4   6
ATOM      6  C   UNL A   1      33.507  26.117  22.877  1.00  0.00     0.196 C 
BRANCH   6   7
ATOM      7  N   UNL A   1      33.421  24.846  23.618  1.00  0.00    -0.341 N 
ATOM      8  O   UNL A   1      34.158  23.446  21.969  1.00  0.00    -0.273 OA
ATOM      9  C   UNL A   1      33.671  23.600  23.085  1.00  0.00     0.240 C 
ATOM     10  H   UNL A   1      33.163  24.891  24.568  1.00  0.00     0.164 HD
BRANCH   9  11
ATOM     11  C   UNL A   1      33.201  22.441  23.981  1.00  0.00     0.222 C 
BRANCH  11  12
ATOM     12  N   UNL A   1      34.236  21.566  24.568  1.00  0.00    -0.331 N 
ATOM     13  C   UNL A   1      35.419  22.094  25.104  1.00  0.00     0.053 A 
ATOM     14  C   UNL A   1      34.011  20.160  24.543  1.00  0.00     0.053 A 
ATOM     15  C   UNL A   1      35.587  23.727  25.833  1.00  0.00     0.027 A 
ATOM     16  C   UNL A   1      36.834  20.978  25.066  1.00  0.00     0.046 A 
ATOM     17  C   UNL A   1      35.057  19.213  24.724  1.00  0.00     0.046 A 
ATOM     18  C   UNL A   1      32.703  19.635  24.408  1.00  0.00     0.027 A 
ATOM     19  C   UNL A   1      37.194  24.267  26.483  1.00  0.00     0.002 A 
ATOM     20  C   UNL A   1      38.441  21.503  25.693  1.00  0.00     0.014 A 
ATOM     21  C   UNL A   1      36.502  19.590  24.783  1.00  0.00     0.197 A 
ATOM     22  C   UNL A   1      34.773  17.839  24.842  1.00  0.00     0.014 A 
ATOM     23  C   UNL A   1      32.437  18.263  24.493  1.00  0.00     0.002 A 
ATOM     24  C   UNL A   1      38.624  23.163  26.408  1.00  0.00     0.001 A 
ATOM     25  O   UNL A   1      37.402  18.772  24.645  1.00  0.00    -0.288 OA
ATOM     26  C   UNL A   1      33.468  17.366  24.736  1.00  0.00     0.001 A 
ENDBRANCH  11  12
ENDBRANCH   9  11
ENDBRANCH   6   7
BRANCH   6  27
ATOM     27  C   UNL A   1      32.296  26.245  21.913  1.00  0.00     0.072 C 
BRANCH  27  28
ATOM     28  C   UNL A   1      31.031  26.732  22.603  1.00  0.00    -0.045 A 
ATOM     29  C   UNL A   1      30.274  25.874  23.410  1.00  0.00     0.004 A 
ATOM     30  C   UNL A   1      30.550  28.028  22.355  1.00  0.00     0.004 A 
ATOM     31  C   UNL A   1      29.042  26.288  23.922  1.00  0.00     0.000 A 
ATOM     32  C   UNL A   1      29.315  28.436  22.860  1.00  0.00     0.000 A 
ATOM     33  C   UNL A   1      28.558  27.563  23.638  1.00  0.00     0.000 A 
ENDBRANCH  27  28
ENDBRANCH   6  27
ENDBRANCH   4   6
ENDBRANCH   3   4
ENDBRANCH   2   3
ENDBRANCH   1   2
BRANCH   1  34
ATOM     34  O   UNL A   1      31.982  29.241  27.013  1.00  0.00    -0.374 OA
BRANCH  34  35
ATOM     35  C   UNL A   1      31.705  30.254  26.050  1.00  0.00     0.202 C 
BRANCH  35  36
ATOM     36  C   UNL A   1      31.442  31.796  26.539  1.00  0.00     0.261 C 
BRANCH  36  37
ATOM     37  O   UNL A   1      32.652  33.031  27.572  1.00  0.00    -0.460 OA
BRANCH  37  38
ATOM     38  C   UNL A   1      33.756  33.712  28.126  1.00  0.00     0.338 C 
ATOM     39  O   UNL A   1      33.819  34.876  28.503  1.00  0.00    -0.246 OA
BRANCH  38  40
ATOM     40  C   UNL A   1      34.962  32.877  28.265  1.00  0.00     0.060 A 
ATOM     41  C   UNL A   1      36.208  33.497  28.152  1.00  0.00     0.016 A 
ATOM     42  C   UNL A   1      34.848  31.572  28.760  1.00  0.00     0.016 A 
ATOM     43  C   UNL A   1      37.347  32.820  28.587  1.00  0.00     0.010 A 
ATOM     44  C   UNL A   1      35.986  30.895  29.192  1.00  0.00     0.010 A 
ATOM     45  C   UNL A   1      37.231  31.539  29.156  1.00  0.00    -0.014 A 
BRANCH  45  46
ATOM     46  C   UNL A   1      38.356  30.998  29.948  1.00  0.00     0.031 A 
ATOM     47  C   UNL A   1      38.568  31.380  31.374  1.00  0.00     0.074 A 
ATOM     48  C   UNL A   1      39.201  30.153  29.327  1.00  0.00     0.049 A 
ATOM     49  N   UNL A   1      39.404  30.868  32.240  1.00  0.00    -0.248 NA
ATOM     50  C   UNL A   1      37.748  32.481  31.898  1.00  0.00     0.031 C 
ATOM     51  C   UNL A   1      39.123  29.783  27.910  1.00  0.00     0.029 A 
ATOM     52  N   UNL A   1      40.277  29.448  29.797  1.00  0.00    -0.354 N 
ATOM     53  C   UNL A   1      39.191  31.558  33.422  1.00  0.00     0.074 A 
ATOM     54  C   UNL A   1      38.183  32.564  33.150  1.00  0.00     0.031 C 
ATOM     55  C   UNL A   1      40.094  28.899  27.633  1.00  0.00     0.029 A 
ATOM     56  C   UNL A   1      40.855  28.638  28.849  1.00  0.00     0.049 A 
ATOM     57  H   UNL A   1      40.605  29.515  30.722  1.00  0.00     0.167 HD
ATOM     58  C   UNL A   1      39.774  31.346  34.625  1.00  0.00     0.037 A 
ATOM     59  C   UNL A   1      41.868  27.760  28.960  1.00  0.00     0.037 A 
ATOM     60  C   UNL A   1      40.794  30.357  34.865  1.00  0.00     0.049 A 
ATOM     61  C   UNL A   1      42.491  27.541  30.309  1.00  0.00     0.074 A 
ATOM     62  C   UNL A   1      41.412  30.025  36.058  1.00  0.00     0.029 A 
ATOM     63  N   UNL A   1      41.360  29.552  33.886  1.00  0.00    -0.354 N 
ATOM     64  N   UNL A   1      42.192  28.105  31.454  1.00  0.00    -0.248 NA
ATOM     65  C   UNL A   1      43.574  26.553  30.387  1.00  0.00     0.031 C 
ATOM     66  C   UNL A   1      42.377  29.048  35.795  1.00  0.00     0.029 A 
ATOM     67  C   UNL A   1      42.336  28.743  34.444  1.00  0.00     0.049 A 
ATOM     68  H   UNL A   1      41.104  29.557  32.935  1.00  0.00     0.167 HD
ATOM     69  C   UNL A   1      43.035  27.530  32.392  1.00  0.00     0.074 A 
ATOM     70  C   UNL A   1      43.847  26.559  31.684  1.00  0.00     0.031 C 
ATOM     71  C   UNL A   1      43.132  27.786  33.719  1.00  0.00     0.037 A 
BRANCH  58  72
ATOM     72  C   UNL A   1      39.305  32.170  35.784  1.00  0.00     0.064 A 
ATOM     73  C   UNL A   1      38.371  31.662  36.700  1.00  0.00     0.173 A 
ATOM     74  C   UNL A   1      39.851  33.436  36.037  1.00  0.00     0.173 A 
ATOM     75  F   UNL A   1      37.814  30.458  36.495  1.00  0.00    -0.203 F 
ATOM     76  C   UNL A   1      37.997  32.393  37.822  1.00  0.00     0.198 A 
ATOM     77  C   UNL A   1      39.487  34.160  37.171  1.00  0.00     0.198 A 
ATOM     78  F   UNL A   1      40.750  33.966  35.193  1.00  0.00    -0.203 F 
ATOM     79  F   UNL A   1      37.089  31.895  38.673  1.00  0.00    -0.200 F 
ATOM     80  C   UNL A   1      38.562  33.637  38.062  1.00  0.00     0.200 A 
ATOM     81  F   UNL A   1      40.039  35.358  37.406  1.00  0.00    -0.200 F 
ATOM     82  F   UNL A   1      38.211  34.334  39.152  1.00  0.00    -0.200 F 
ENDBRANCH  58  72
BRANCH  59  83
ATOM     83  C   UNL A   1      42.295  26.977  27.774  1.00  0.00     0.064 A 
ATOM     84  C   UNL A   1      43.255  27.485  26.888  1.00  0.00     0.173 A 
ATOM     85  C   UNL A   1      41.775  25.702  27.516  1.00  0.00     0.173 A 
ATOM     86  F   UNL A   1      43.770  28.707  27.088  1.00  0.00    -0.203 F 
ATOM     87  C   UNL A   1      43.669  26.750  25.780  1.00  0.00     0.198 A 
ATOM     88  C   UNL A   1      42.205  24.959  26.419  1.00  0.00     0.198 A 
ATOM     89  F   UNL A   1      40.859  25.171  28.340  1.00  0.00    -0.203 F 
ATOM     90  F   UNL A   1      44.565  27.272  24.931  1.00  0.00    -0.200 F 
ATOM     91  C   UNL A   1      43.148  25.485  25.549  1.00  0.00     0.200 A 
ATOM     92  F   UNL A   1      41.708  23.733  26.204  1.00  0.00    -0.200 F 
ATOM     93  F   UNL A   1      43.549  24.778  24.484  1.00  0.00    -0.200 F 
ENDBRANCH  59  83
BRANCH  71  94
ATOM     94  C   UNL A   1      44.149  27.005  34.492  1.00  0.00     0.064 A 
ATOM     95  C   UNL A   1      45.440  27.508  34.708  1.00  0.00     0.173 A 
ATOM     96  C   UNL A   1      43.812  25.773  35.074  1.00  0.00     0.173 A 
ATOM     97  F   UNL A   1      45.810  28.674  34.159  1.00  0.00    -0.203 F 
ATOM     98  C   UNL A   1      46.362  26.799  35.472  1.00  0.00     0.198 A 
ATOM     99  C   UNL A   1      44.730  25.079  35.855  1.00  0.00     0.198 A 
ATOM    100  F   UNL A   1      42.587  25.255  34.898  1.00  0.00    -0.203 F 
ATOM    101  F   UNL A   1      47.600  27.283  35.642  1.00  0.00    -0.200 F 
ATOM    102  C   UNL A   1      46.004  25.590  36.051  1.00  0.00     0.200 A 
ATOM    103  F   UNL A   1      44.379  23.917  36.424  1.00  0.00    -0.200 F 
ATOM    104  F   UNL A   1      46.889  24.916  36.798  1.00  0.00    -0.200 F 
ENDBRANCH  71  94
ENDBRANCH  45  46
ENDBRANCH  38  40
ENDBRANCH  37  38
ENDBRANCH  36  37
ENDBRANCH  35  36
ENDBRANCH  34  35
ENDBRANCH   1  34
TORSDOF 19
ENDMDL
MODEL 2
REMARK VINA RESULT:     -13.4      0.925      7.130
REMARK SMILES O=C(Cn1c2ccccc2c(=O)c2ccccc21)N[C@@H](Cc1ccccc1)C(=O)OCCOCCOC(=O)c1ccc(-c2c3nc(c(-c4c(F)c(F)c(F)c(F)c4F)c4ccc([nH]4)c(-c4c(F)c(F)c(F)c(F)c4F)c4nc(c(-c5c(F)c(F)c(F)c(F)c5F)c5ccc2[nH]5)C=C4)C=C3)cc1
REMARK SMILES IDX 32 1 31 2 30 3 28 4 29 5 20 6 19 7 1 8 2 9 3 11 4 12 5 13
REMARK SMILES IDX 18 14 6 15 10 16 13 17 17 18 7 19 9 20 11 21 14 22 16 23
REMARK SMILES IDX 8 24 12 25 15 26 21 27 22 28 23 29 27 30 24 31 26 32 25 33
REMARK SMILES IDX 33 34 34 35 35 36 36 37 37 38 38 39 39 40 40 41 101 42 41 43
REMARK SMILES IDX 100 44 42 45 43 46 44 47 94 48 45 49 99 50 93 51 95 52 46 53
REMARK SMILES IDX 98 54 92 55 91 56 47 58 79 59 59 60 78 61 60 62 63 63 77 64
REMARK SMILES IDX 96 65 61 66 62 67 76 69 97 70 64 71 48 72 49 73 57 74 50 75
REMARK SMILES IDX 51 76 55 77 58 78 52 79 53 80 56 81 54 82 80 83 81 84 89 85
REMARK SMILES IDX 82 86 83 87 87 88 90 89 84 90 85 91 88 92 86 93 65 94 66 95
REMARK SMILES IDX 74 96 67 97 68 98 72 99 75 100 69 101 70 102 73 103 71 104
REMARK H PARENT 19 10 95 57 63 68
REMARK Flexibility Score: inf
ROOT
ATOM      1  C   UNL A   1      33.566  28.795  25.077  1.00  0.00     0.202 C 
ENDROOT
BRANCH   1   2
ATOM      2  C   UNL A   1      33.601  27.252  25.173  1.00  0.00     0.261 C 
BRANCH   2   3
ATOM      3  O   UNL A   1      32.896  26.650  26.265  1.00  0.00    -0.462 OA
BRANCH   3   4
ATOM      4  C   UNL A   1      31.730  26.018  25.953  1.00  0.00     0.329 C 
ATOM      5  O   UNL A   1      30.991  25.491  26.778  1.00  0.00    -0.250 OA
BRANCH   4   6
ATOM      6  C   UNL A   1      31.513  25.858  24.435  1.00  0.00     0.196 C 
BRANCH   6   7
ATOM      7  N   UNL A   1      32.154  24.735  23.729  1.00  0.00    -0.341 N 
ATOM      8  O   UNL A   1      31.662  23.077  25.222  1.00  0.00    -0.273 OA
ATOM      9  C   UNL A   1      32.255  23.449  24.214  1.00  0.00     0.240 C 
ATOM     10  H   UNL A   1      32.543  24.918  22.843  1.00  0.00     0.164 HD
BRANCH   9  11
ATOM     11  C   UNL A   1      33.240  22.569  23.426  1.00  0.00     0.222 C 
BRANCH  11  12
ATOM     12  N   UNL A   1      34.183  21.734  24.199  1.00  0.00    -0.331 N 
ATOM     13  C   UNL A   1      35.317  22.289  24.808  1.00  0.00     0.053 A 
ATOM     14  C   UNL A   1      33.923  20.336  24.278  1.00  0.00     0.053 A 
ATOM     15  C   UNL A   1      35.452  23.980  25.399  1.00  0.00     0.027 A 
ATOM     16  C   UNL A   1      36.697  21.149  25.024  1.00  0.00     0.046 A 
ATOM     17  C   UNL A   1      34.917  19.392  24.656  1.00  0.00     0.046 A 
ATOM     18  C   UNL A   1      32.623  19.824  24.052  1.00  0.00     0.027 A 
ATOM     19  C   UNL A   1      36.996  24.550  26.165  1.00  0.00     0.002 A 
ATOM     20  C   UNL A   1      38.243  21.702  25.770  1.00  0.00     0.014 A 
ATOM     21  C   UNL A   1      36.358  19.747  24.835  1.00  0.00     0.197 A 
ATOM     22  C   UNL A   1      34.584  18.040  24.868  1.00  0.00     0.014 A 
ATOM     23  C   UNL A   1      32.311  18.471  24.233  1.00  0.00     0.002 A 
ATOM     24  C   UNL A   1      38.395  23.418  26.345  1.00  0.00     0.001 A 
ATOM     25  O   UNL A   1      37.245  18.904  24.870  1.00  0.00    -0.288 OA
ATOM     26  C   UNL A   1      33.285  17.583  24.666  1.00  0.00     0.001 A 
ENDBRANCH  11  12
ENDBRANCH   9  11
ENDBRANCH   6   7
BRANCH   6  27
ATOM     27  C   UNL A   1      29.980  25.827  24.187  1.00  0.00     0.072 C 
BRANCH  27  28
ATOM     28  C   UNL A   1      29.437  27.135  23.633  1.00  0.00    -0.045 A 
ATOM     29  C   UNL A   1      28.067  27.425  23.678  1.00  0.00     0.004 A 
ATOM     30  C   UNL A   1      30.296  28.030  22.974  1.00  0.00     0.004 A 
ATOM     31  C   UNL A   1      27.562  28.561  23.041  1.00  0.00     0.000 A 
ATOM     32  C   UNL A   1      29.788  29.159  22.331  1.00  0.00     0.000 A 
ATOM     33  C   UNL A   1      28.420  29.420  22.359  1.00  0.00     0.000 A 
ENDBRANCH  27  28
ENDBRANCH   6  27
ENDBRANCH   4   6
ENDBRANCH   3   4
ENDBRANCH   2   3
ENDBRANCH   1   2
BRANCH   1  34
ATOM     34  O   UNL A   1      32.371  29.562  25.047  1.00  0.00    -0.374 OA
BRANCH  34  35
ATOM     35  C   UNL A   1      31.713  29.988  26.236  1.00  0.00     0.202 C 
BRANCH  35  36
ATOM     36  C   UNL A   1      31.542  31.589  26.546  1.00  0.00     0.261 C 
BRANCH  36  37
ATOM     37  O   UNL A   1      32.805  32.850  27.479  1.00  0.00    -0.460 OA
BRANCH  37  38
ATOM     38  C   UNL A   1      33.928  33.587  27.908  1.00  0.00     0.338 C 
ATOM     39  O   UNL A   1      33.998  34.782  28.168  1.00  0.00    -0.246 OA
BRANCH  38  40
ATOM     40  C   UNL A   1      35.148  32.775  28.065  1.00  0.00     0.060 A 
ATOM     41  C   UNL A   1      36.346  33.436  28.346  1.00  0.00     0.016 A 
ATOM     42  C   UNL A   1      35.043  31.385  28.196  1.00  0.00     0.016 A 
ATOM     43  C   UNL A   1      37.435  32.701  28.810  1.00  0.00     0.010 A 
ATOM     44  C   UNL A   1      36.133  30.651  28.658  1.00  0.00     0.010 A 
ATOM     45  C   UNL A   1      37.314  31.315  29.016  1.00  0.00    -0.014 A 
BRANCH  45  46
ATOM     46  C   UNL A   1      38.318  30.622  29.851  1.00  0.00     0.031 A 
ATOM     47  C   UNL A   1      39.215  29.570  29.291  1.00  0.00     0.074 A 
ATOM     48  C   UNL A   1      38.386  30.965  31.152  1.00  0.00     0.049 A 
ATOM     49  N   UNL A   1      40.247  28.994  29.851  1.00  0.00    -0.248 NA
ATOM     50  C   UNL A   1      38.914  29.092  27.934  1.00  0.00     0.031 C 
ATOM     51  C   UNL A   1      37.495  31.925  31.812  1.00  0.00     0.029 A 
ATOM     52  N   UNL A   1      39.235  30.560  32.147  1.00  0.00    -0.354 N 
ATOM     53  C   UNL A   1      40.743  28.110  28.907  1.00  0.00     0.074 A 
ATOM     54  C   UNL A   1      39.867  28.185  27.755  1.00  0.00     0.031 C 
ATOM     55  C   UNL A   1      37.863  32.055  33.095  1.00  0.00     0.029 A 
ATOM     56  C   UNL A   1      39.012  31.194  33.346  1.00  0.00     0.049 A 
ATOM     57  H   UNL A   1      39.936  29.883  32.017  1.00  0.00     0.167 HD
ATOM     58  C   UNL A   1      41.846  27.330  28.998  1.00  0.00     0.037 A 
ATOM     59  C   UNL A   1      39.683  31.111  34.509  1.00  0.00     0.037 A 
ATOM     60  C   UNL A   1      42.686  27.252  30.166  1.00  0.00     0.049 A 
ATOM     61  C   UNL A   1      40.906  30.242  34.577  1.00  0.00     0.074 A 
ATOM     62  C   UNL A   1      43.856  26.533  30.342  1.00  0.00     0.029 A 
ATOM     63  N   UNL A   1      42.435  27.905  31.365  1.00  0.00    -0.354 N 
ATOM     64  N   UNL A   1      41.448  29.508  33.636  1.00  0.00    -0.248 NA
ATOM     65  C   UNL A   1      41.622  30.203  35.859  1.00  0.00     0.031 C 
ATOM     66  C   UNL A   1      44.291  26.720  31.658  1.00  0.00     0.029 A 
ATOM     67  C   UNL A   1      43.414  27.587  32.292  1.00  0.00     0.049 A 
ATOM     68  H   UNL A   1      41.673  28.506  31.531  1.00  0.00     0.167 HD
ATOM     69  C   UNL A   1      42.575  28.935  34.202  1.00  0.00     0.074 A 
ATOM     70  C   UNL A   1      42.651  29.421  35.566  1.00  0.00     0.031 C 
ATOM     71  C   UNL A   1      43.467  28.080  33.644  1.00  0.00     0.037 A 
BRANCH  58  72
ATOM     72  C   UNL A   1      42.231  26.521  27.799  1.00  0.00     0.064 A 
ATOM     73  C   UNL A   1      43.171  27.003  26.875  1.00  0.00     0.173 A 
ATOM     74  C   UNL A   1      41.730  25.225  27.611  1.00  0.00     0.173 A 
ATOM     75  F   UNL A   1      43.671  28.241  27.008  1.00  0.00    -0.203 F 
ATOM     76  C   UNL A   1      43.591  26.220  25.805  1.00  0.00     0.198 A 
ATOM     77  C   UNL A   1      42.166  24.436  26.548  1.00  0.00     0.198 A 
ATOM     78  F   UNL A   1      40.831  24.717  28.467  1.00  0.00    -0.203 F 
ATOM     79  F   UNL A   1      44.476  26.709  24.926  1.00  0.00    -0.200 F 
ATOM     80  C   UNL A   1      43.095  24.934  25.647  1.00  0.00     0.200 A 
ATOM     81  F   UNL A   1      41.691  23.192  26.400  1.00  0.00    -0.200 F 
ATOM     82  F   UNL A   1      43.513  24.176  24.624  1.00  0.00    -0.200 F 
ENDBRANCH  58  72
BRANCH  59  83
ATOM     83  C   UNL A   1      39.250  31.930  35.667  1.00  0.00     0.064 A 
ATOM     84  C   UNL A   1      38.365  31.410  36.622  1.00  0.00     0.173 A 
ATOM     85  C   UNL A   1      39.728  33.234  35.859  1.00  0.00     0.173 A 
ATOM     86  F   UNL A   1      37.871  30.173  36.472  1.00  0.00    -0.203 F 
ATOM     87  C   UNL A   1      37.964  32.169  37.718  1.00  0.00     0.198 A 
ATOM     88  C   UNL A   1      39.343  33.984  36.967  1.00  0.00     0.198 A 
ATOM     89  F   UNL A   1      40.583  33.771  34.977  1.00  0.00    -0.203 F 
ATOM     90  F   UNL A   1      37.092  31.660  38.599  1.00  0.00    -0.200 F 
ATOM     91  C   UNL A   1      38.457  33.454  37.893  1.00  0.00     0.200 A 
ATOM     92  F   UNL A   1      39.829  35.221  37.139  1.00  0.00    -0.200 F 
ATOM     93  F   UNL A   1      38.073  34.183  38.950  1.00  0.00    -0.200 F 
ENDBRANCH  59  83
BRANCH  71  94
ATOM     94  C   UNL A   1      44.599  27.616  34.507  1.00  0.00     0.064 A 
ATOM     95  C   UNL A   1      44.505  26.434  35.254  1.00  0.00     0.173 A 
ATOM     96  C   UNL A   1      45.809  28.325  34.538  1.00  0.00     0.173 A 
ATOM     97  F   UNL A   1      43.362  25.732  35.266  1.00  0.00    -0.203 F 
ATOM     98  C   UNL A   1      45.581  25.982  36.012  1.00  0.00     0.198 A 
ATOM     99  C   UNL A   1      46.890  27.858  35.279  1.00  0.00     0.198 A 
ATOM    100  F   UNL A   1      45.947  29.459  33.835  1.00  0.00    -0.203 F 
ATOM    101  F   UNL A   1      45.461  24.865  36.743  1.00  0.00    -0.200 F 
ATOM    102  C   UNL A   1      46.774  26.690  36.018  1.00  0.00     0.200 A 
ATOM    103  F   UNL A   1      48.046  28.537  35.275  1.00  0.00    -0.200 F 
ATOM    104  F   UNL A   1      47.813  26.246  36.738  1.00  0.00    -0.200 F 
ENDBRANCH  71  94
ENDBRANCH  45  46
ENDBRANCH  38  40
ENDBRANCH  37  38
ENDBRANCH  36  37
ENDBRANCH  35  36
ENDBRANCH  34  35
ENDBRANCH   1  34
TORSDOF 19
ENDMDL
MODEL 3
REMARK VINA RESULT:     -12.8      0.790      2.487
REMARK SMILES O=C(Cn1c2ccccc2c(=O)c2ccccc21)N[C@@H](Cc1ccccc1)C(=O)OCCOCCOC(=O)c1ccc(-c2c3nc(c(-c4c(F)c(F)c(F)c(F)c4F)c4ccc([nH]4)c(-c4c(F)c(F)c(F)c(F)c4F)c4nc(c(-c5c(F)c(F)c(F)c(F)c5F)c5ccc2[nH]5)C=C4)C=C3)cc1
REMARK SMILES IDX 32 1 31 2 30 3 28 4 29 5 20 6 19 7 1 8 2 9 3 11 4 12 5 13
REMARK SMILES IDX 18 14 6 15 10 16 13 17 17 18 7 19 9 20 11 21 14 22 16 23
REMARK SMILES IDX 8 24 12 25 15 26 21 27 22 28 23 29 27 30 24 31 26 32 25 33
REMARK SMILES IDX 33 34 34 35 35 36 36 37 37 38 38 39 39 40 40 41 101 42 41 43
REMARK SMILES IDX 100 44 42 45 43 46 44 47 94 48 45 49 99 50 93 51 95 52 46 53
REMARK SMILES IDX 98 54 92 55 91 56 47 58 79 59 59 60 78 61 60 62 63 63 77 64
REMARK SMILES IDX 96 65 61 66 62 67 76 69 97 70 64 71 48 72 49 73 57 74 50 75
REMARK SMILES IDX 51 76 55 77 58 78 52 79 53 80 56 81 54 82 80 83 81 84 89 85
REMARK SMILES IDX 82 86 83 87 87 88 90 89 84 90 85 91 88 92 86 93 65 94 66 95
REMARK SMILES IDX 74 96 67 97 68 98 72 99 75 100 69 101 70 102 73 103 71 104
REMARK H PARENT 19 10 95 57 63 68
REMARK Flexibility Score: inf
ROOT
ATOM      1  C   UNL A   1      34.031  28.205  25.457  1.00  0.00     0.202 C 
ENDROOT
BRANCH   1   2
ATOM      2  C   UNL A   1      34.004  28.096  23.915  1.00  0.00     0.261 C 
BRANCH   2   3
ATOM      3  O   UNL A   1      32.980  27.279  23.336  1.00  0.00    -0.462 OA
BRANCH   3   4
ATOM      4  C   UNL A   1      33.142  25.932  23.461  1.00  0.00     0.329 C 
ATOM      5  O   UNL A   1      34.092  25.307  23.002  1.00  0.00    -0.250 OA
BRANCH   4   6
ATOM      6  C   UNL A   1      31.916  25.228  24.077  1.00  0.00     0.196 C 
BRANCH   6   7
ATOM      7  N   UNL A   1      32.113  24.005  24.875  1.00  0.00    -0.341 N 
ATOM      8  O   UNL A   1      33.396  24.896  26.543  1.00  0.00    -0.273 OA
ATOM      9  C   UNL A   1      32.906  23.911  25.999  1.00  0.00     0.240 C 
ATOM     10  H   UNL A   1      31.643  23.191  24.581  1.00  0.00     0.164 HD
BRANCH   9  11
ATOM     11  C   UNL A   1      33.181  22.464  26.439  1.00  0.00     0.222 C 
BRANCH  11  12
ATOM     12  N   UNL A   1      34.191  21.697  25.682  1.00  0.00    -0.331 N 
ATOM     13  C   UNL A   1      33.843  20.549  24.957  1.00  0.00     0.053 A 
ATOM     14  C   UNL A   1      35.543  22.142  25.739  1.00  0.00     0.053 A 
ATOM     15  C   UNL A   1      32.236  20.239  24.218  1.00  0.00     0.027 A 
ATOM     16  C   UNL A   1      35.173  19.349  24.751  1.00  0.00     0.046 A 
ATOM     17  C   UNL A   1      36.639  21.309  25.380  1.00  0.00     0.046 A 
ATOM     18  C   UNL A   1      35.856  23.477  26.090  1.00  0.00     0.027 A 
ATOM     19  C   UNL A   1      31.940  18.696  23.309  1.00  0.00     0.002 A 
ATOM     20  C   UNL A   1      34.892  17.803  23.865  1.00  0.00     0.014 A 
ATOM     21  C   UNL A   1      36.497  19.852  25.080  1.00  0.00     0.197 A 
ATOM     22  C   UNL A   1      37.946  21.829  25.305  1.00  0.00     0.014 A 
ATOM     23  C   UNL A   1      37.165  23.974  26.045  1.00  0.00     0.002 A 
ATOM     24  C   UNL A   1      33.261  17.473  23.138  1.00  0.00     0.001 A 
ATOM     25  O   UNL A   1      37.453  19.087  25.061  1.00  0.00    -0.288 OA
ATOM     26  C   UNL A   1      38.206  23.158  25.628  1.00  0.00     0.001 A 
ENDBRANCH  11  12
ENDBRANCH   9  11
ENDBRANCH   6   7
BRANCH   6  27
ATOM     27  C   UNL A   1      31.149  26.285  24.918  1.00  0.00     0.072 C 
BRANCH  27  28
ATOM     28  C   UNL A   1      29.934  26.854  24.200  1.00  0.00    -0.045 A 
ATOM     29  C   UNL A   1      30.023  28.040  23.460  1.00  0.00     0.004 A 
ATOM     30  C   UNL A   1      28.678  26.245  24.354  1.00  0.00     0.004 A 
ATOM     31  C   UNL A   1      28.875  28.628  22.925  1.00  0.00     0.000 A 
ATOM     32  C   UNL A   1      27.532  26.839  23.827  1.00  0.00     0.000 A 
ATOM     33  C   UNL A   1      27.630  28.034  23.118  1.00  0.00     0.000 A 
ENDBRANCH  27  28
ENDBRANCH   6  27
ENDBRANCH   4   6
ENDBRANCH   3   4
ENDBRANCH   2   3
ENDBRANCH   1   2
BRANCH   1  34
ATOM     34  O   UNL A   1      33.053  28.895  26.221  1.00  0.00    -0.374 OA
BRANCH  34  35
ATOM     35  C   UNL A   1      32.131  29.804  25.629  1.00  0.00     0.202 C 
BRANCH  35  36
ATOM     36  C   UNL A   1      31.607  31.106  26.478  1.00  0.00     0.261 C 
BRANCH  36  37
ATOM     37  O   UNL A   1      32.677  32.545  27.396  1.00  0.00    -0.460 OA
BRANCH  37  38
ATOM     38  C   UNL A   1      33.693  33.318  27.993  1.00  0.00     0.338 C 
ATOM     39  O   UNL A   1      33.624  34.466  28.416  1.00  0.00    -0.246 OA
BRANCH  38  40
ATOM     40  C   UNL A   1      34.981  32.614  28.118  1.00  0.00     0.060 A 
ATOM     41  C   UNL A   1      36.143  33.382  28.224  1.00  0.00     0.016 A 
ATOM     42  C   UNL A   1      34.997  31.242  28.394  1.00  0.00     0.016 A 
ATOM     43  C   UNL A   1      37.321  32.777  28.658  1.00  0.00     0.010 A 
ATOM     44  C   UNL A   1      36.175  30.637  28.825  1.00  0.00     0.010 A 
ATOM     45  C   UNL A   1      37.326  31.415  29.009  1.00  0.00    -0.014 A 
BRANCH  45  46
ATOM     46  C   UNL A   1      38.447  30.884  29.815  1.00  0.00     0.031 A 
ATOM     47  C   UNL A   1      38.660  31.295  31.232  1.00  0.00     0.074 A 
ATOM     48  C   UNL A   1      39.285  30.018  29.213  1.00  0.00     0.049 A 
ATOM     49  N   UNL A   1      39.491  30.796  32.110  1.00  0.00    -0.248 NA
ATOM     50  C   UNL A   1      37.849  32.414  31.730  1.00  0.00     0.031 C 
ATOM     51  C   UNL A   1      39.206  29.616  27.805  1.00  0.00     0.029 A 
ATOM     52  N   UNL A   1      40.355  29.315  29.700  1.00  0.00    -0.354 N 
ATOM     53  C   UNL A   1      39.282  31.514  33.276  1.00  0.00     0.074 A 
ATOM     54  C   UNL A   1      38.283  32.521  32.980  1.00  0.00     0.031 C 
ATOM     55  C   UNL A   1      40.170  28.719  27.549  1.00  0.00     0.029 A 
ATOM     56  C   UNL A   1      40.927  28.480  28.771  1.00  0.00     0.049 A 
ATOM     57  H   UNL A   1      40.682  29.400  30.624  1.00  0.00     0.167 HD
ATOM     58  C   UNL A   1      39.862  31.324  34.484  1.00  0.00     0.037 A 
ATOM     59  C   UNL A   1      41.933  27.595  28.903  1.00  0.00     0.037 A 
ATOM     60  C   UNL A   1      40.875  30.333  34.747  1.00  0.00     0.049 A 
ATOM     61  C   UNL A   1      42.553  27.402  30.257  1.00  0.00     0.074 A 
ATOM     62  C   UNL A   1      41.489  30.023  35.948  1.00  0.00     0.029 A 
ATOM     63  N   UNL A   1      41.435  29.502  33.787  1.00  0.00    -0.354 N 
ATOM     64  N   UNL A   1      42.258  27.994  31.389  1.00  0.00    -0.248 NA
ATOM     65  C   UNL A   1      43.628  26.408  30.358  1.00  0.00     0.031 C 
ATOM     66  C   UNL A   1      42.446  29.032  35.708  1.00  0.00     0.029 A 
ATOM     67  C   UNL A   1      42.404  28.697  34.364  1.00  0.00     0.049 A 
ATOM     68  H   UNL A   1      41.180  29.487  32.835  1.00  0.00     0.167 HD
ATOM     69  C   UNL A   1      43.095  27.433  32.340  1.00  0.00     0.074 A 
ATOM     70  C   UNL A   1      43.900  26.440  31.655  1.00  0.00     0.031 C 
ATOM     71  C   UNL A   1      43.193  27.718  33.661  1.00  0.00     0.037 A 
BRANCH  58  72
ATOM     72  C   UNL A   1      39.400  32.177  35.624  1.00  0.00     0.064 A 
ATOM     73  C   UNL A   1      38.449  31.703  36.541  1.00  0.00     0.173 A 
ATOM     74  C   UNL A   1      39.967  33.438  35.859  1.00  0.00     0.173 A 
ATOM     75  F   UNL A   1      37.872  30.506  36.354  1.00  0.00    -0.203 F 
ATOM     76  C   UNL A   1      38.079  32.461  37.647  1.00  0.00     0.198 A 
ATOM     77  C   UNL A   1      39.607  34.189  36.976  1.00  0.00     0.198 A 
ATOM     78  F   UNL A   1      40.881  33.936  35.013  1.00  0.00    -0.203 F 
ATOM     79  F   UNL A   1      37.155  31.995  38.498  1.00  0.00    -0.200 F 
ATOM     80  C   UNL A   1      38.664  33.699  37.868  1.00  0.00     0.200 A 
ATOM     81  F   UNL A   1      40.178  35.381  37.193  1.00  0.00    -0.200 F 
ATOM     82  F   UNL A   1      38.317  34.422  38.942  1.00  0.00    -0.200 F 
ENDBRANCH  58  72
BRANCH  59  83
ATOM     83  C   UNL A   1      42.355  26.784  27.735  1.00  0.00     0.064 A 
ATOM     84  C   UNL A   1      41.733  25.560  27.451  1.00  0.00     0.173 A 
ATOM     85  C   UNL A   1      43.364  27.222  26.867  1.00  0.00     0.173 A 
ATOM     86  F   UNL A   1      40.772  25.094  28.262  1.00  0.00    -0.203 F 
ATOM     87  C   UNL A   1      42.114  24.799  26.349  1.00  0.00     0.198 A 
ATOM     88  C   UNL A   1      43.730  26.470  25.754  1.00  0.00     0.198 A 
ATOM     89  F   UNL A   1      43.982  28.391  27.094  1.00  0.00    -0.203 F 
ATOM     90  F   UNL A   1      41.526  23.617  26.119  1.00  0.00    -0.200 F 
ATOM     91  C   UNL A   1      43.110  25.257  25.498  1.00  0.00     0.200 A 
ATOM     92  F   UNL A   1      44.685  26.920  24.928  1.00  0.00    -0.200 F 
ATOM     93  F   UNL A   1      43.475  24.525  24.437  1.00  0.00    -0.200 F 
ENDBRANCH  59  83
BRANCH  71  94
ATOM     94  C   UNL A   1      44.203  26.946  34.453  1.00  0.00     0.064 A 
ATOM     95  C   UNL A   1      45.501  27.438  34.649  1.00  0.00     0.173 A 
ATOM     96  C   UNL A   1      43.852  25.737  35.072  1.00  0.00     0.173 A 
ATOM     97  F   UNL A   1      45.885  28.582  34.065  1.00  0.00    -0.203 F 
ATOM     98  C   UNL A   1      46.417  26.739  35.430  1.00  0.00     0.198 A 
ATOM     99  C   UNL A   1      44.764  25.053  35.869  1.00  0.00     0.198 A 
ATOM    100  F   UNL A   1      42.620  25.230  34.916  1.00  0.00    -0.203 F 
ATOM    101  F   UNL A   1      47.662  27.212  35.581  1.00  0.00    -0.200 F 
ATOM    102  C   UNL A   1      46.045  25.553  36.045  1.00  0.00     0.200 A 
ATOM    103  F   UNL A   1      44.400  23.912  36.473  1.00  0.00    -0.200 F 
ATOM    104  F   UNL A   1      46.925  24.889  36.807  1.00  0.00    -0.200 F 
ENDBRANCH  71  94
ENDBRANCH  45  46
ENDBRANCH  38  40
ENDBRANCH  37  38
ENDBRANCH  36  37
ENDBRANCH  35  36
ENDBRANCH  34  35
ENDBRANCH   1  34
TORSDOF 19
ENDMDL
