MODEL 1
REMARK VINA RESULT:     -12.3      0.000      0.000
REMARK SMILES CC(C)(C)c1cc2c(cc1Cl)C=C(C(=O)OCCOCCOC(=O)c1ccc(-c3c4nc(c(-c5c(F)c(F)c(F)c(F)c5F)c5ccc([nH]5)c(-c5c(F)c(F)c(F)c(F)c5F)c5nc(c(-c6c(F)c(F)c(F)c(F)c6F)c6ccc3[nH]6)C=C5)C=C4)cc1)[C@H](C(F)(F)F)O2
REMARK SMILES IDX 20 1 19 2 18 3 17 4 16 5 14 6 15 7 13 8 5 9 6 10 10 11 7 12
REMARK SMILES IDX 9 13 11 14 8 15 93 16 12 17 88 18 2 19 1 20 3 21 4 22 89 23
REMARK SMILES IDX 90 24 91 25 92 26 21 27 22 28 23 29 24 30 25 31 26 32 87 33
REMARK SMILES IDX 27 34 86 35 28 36 29 37 30 38 80 39 31 40 85 41 79 42 81 43
REMARK SMILES IDX 32 44 84 45 78 46 77 47 33 49 65 50 45 51 64 52 46 53 49 54
REMARK SMILES IDX 63 55 82 56 47 57 48 58 62 60 83 61 50 62 34 63 35 64 43 65
REMARK SMILES IDX 36 66 37 67 41 68 44 69 38 70 39 71 42 72 40 73 66 74 67 75
REMARK SMILES IDX 75 76 68 77 69 78 73 79 76 80 70 81 71 82 74 83 72 84 51 85
REMARK SMILES IDX 52 86 60 87 53 88 54 89 58 90 61 91 55 92 56 93 59 94 57 95
REMARK H PARENT 81 48 49 59
REMARK Flexibility Score: inf
ROOT
ATOM      1  C   UNL A   1      35.150  20.831  25.097  1.00  0.00     0.202 C 
ENDROOT
BRANCH   1   2
ATOM      2  O   UNL A   1      34.718  21.970  25.846  1.00  0.00    -0.374 OA
BRANCH   2   3
ATOM      3  C   UNL A   1      33.478  22.567  25.467  1.00  0.00     0.202 C 
BRANCH   3   4
ATOM      4  C   UNL A   1      32.929  22.161  24.098  1.00  0.00     0.261 C 
BRANCH   4   5
ATOM      5  O   UNL A   1      32.255  23.272  23.484  1.00  0.00    -0.460 OA
BRANCH   5   6
ATOM      6  C   UNL A   1      33.063  24.291  23.129  1.00  0.00     0.338 C 
ATOM      7  O   UNL A   1      34.086  24.199  22.469  1.00  0.00    -0.246 OA
BRANCH   6   8
ATOM      8  C   UNL A   1      32.481  25.581  23.544  1.00  0.00     0.087 C 
ATOM      9  C   UNL A   1      29.391  29.584  23.483  1.00  0.00    -0.020 A 
ATOM     10  C   UNL A   1      30.774  29.369  23.733  1.00  0.00     0.053 A 
ATOM     11  C   UNL A   1      28.597  28.423  23.358  1.00  0.00     0.045 A 
ATOM     12  C   UNL A   1      31.350  28.096  23.735  1.00  0.00     0.128 A 
ATOM     13  C   UNL A   1      29.180  27.146  23.354  1.00  0.00     0.032 A 
ATOM     14  Cl  UNL A   1      26.874  28.403  23.227  1.00  0.00    -0.084 Cl
ATOM     15  C   UNL A   1      30.553  26.986  23.507  1.00  0.00     0.019 A 
ATOM     16  O   UNL A   1      32.711  28.026  23.877  1.00  0.00    -0.475 OA
ATOM     17  C   UNL A   1      31.167  25.690  23.311  1.00  0.00     0.027 C 
ATOM     18  C   UNL A   1      33.307  26.710  24.107  1.00  0.00     0.316 C 
BRANCH   9  19
ATOM     19  C   UNL A   1      28.879  31.046  23.390  1.00  0.00    -0.012 C 
ATOM     20  C   UNL A   1      27.390  31.259  23.750  1.00  0.00     0.016 C 
ATOM     21  C   UNL A   1      29.004  31.604  21.943  1.00  0.00     0.016 C 
ATOM     22  C   UNL A   1      29.741  31.916  24.323  1.00  0.00     0.016 C 
ENDBRANCH   9  19
BRANCH  18  23
ATOM     23  C   UNL A   1      33.646  26.580  25.607  1.00  0.00     0.430 C 
ATOM     24  F   UNL A   1      32.584  26.172  26.341  1.00  0.00    -0.167 F 
ATOM     25  F   UNL A   1      34.652  25.707  25.842  1.00  0.00    -0.167 F 
ATOM     26  F   UNL A   1      34.055  27.768  26.119  1.00  0.00    -0.167 F 
ENDBRANCH  18  23
ENDBRANCH   6   8
ENDBRANCH   5   6
ENDBRANCH   4   5
ENDBRANCH   3   4
ENDBRANCH   2   3
ENDBRANCH   1   2
BRANCH   1  27
ATOM     27  C   UNL A   1      36.663  20.595  25.009  1.00  0.00     0.261 C 
BRANCH  27  28
ATOM     28  O   UNL A   1      37.400  21.661  25.633  1.00  0.00    -0.460 OA
BRANCH  28  29
ATOM     29  C   UNL A   1      38.668  21.357  25.997  1.00  0.00     0.338 C 
ATOM     30  O   UNL A   1      39.277  20.326  25.764  1.00  0.00    -0.246 OA
BRANCH  29  31
ATOM     31  C   UNL A   1      39.320  22.570  26.538  1.00  0.00     0.060 A 
ATOM     32  C   UNL A   1      40.424  22.500  27.389  1.00  0.00     0.016 A 
ATOM     33  C   UNL A   1      38.788  23.814  26.171  1.00  0.00     0.016 A 
ATOM     34  C   UNL A   1      41.017  23.683  27.842  1.00  0.00     0.010 A 
ATOM     35  C   UNL A   1      39.380  24.993  26.625  1.00  0.00     0.010 A 
ATOM     36  C   UNL A   1      40.513  24.937  27.447  1.00  0.00    -0.014 A 
BRANCH  36  37
ATOM     37  C   UNL A   1      41.248  26.182  27.785  1.00  0.00     0.031 A 
ATOM     38  C   UNL A   1      42.673  26.394  27.372  1.00  0.00     0.074 A 
ATOM     39  C   UNL A   1      40.611  27.123  28.507  1.00  0.00     0.049 A 
ATOM     40  N   UNL A   1      43.432  27.447  27.549  1.00  0.00    -0.248 NA
ATOM     41  C   UNL A   1      43.338  25.283  26.678  1.00  0.00     0.031 C 
ATOM     42  C   UNL A   1      39.239  27.010  29.004  1.00  0.00     0.029 A 
ATOM     43  N   UNL A   1      41.024  28.357  28.943  1.00  0.00    -0.354 N 
ATOM     44  C   UNL A   1      44.655  27.137  26.971  1.00  0.00     0.074 A 
ATOM     45  C   UNL A   1      44.556  25.776  26.485  1.00  0.00     0.031 C 
ATOM     46  C   UNL A   1      38.912  28.141  29.646  1.00  0.00     0.029 A 
ATOM     47  C   UNL A   1      40.057  29.045  29.636  1.00  0.00     0.049 A 
ATOM     48  H   UNL A   1      41.926  28.714  28.776  1.00  0.00     0.167 HD
ATOM     49  C   UNL A   1      45.749  27.927  26.838  1.00  0.00     0.037 A 
ATOM     50  C   UNL A   1      40.089  30.269  30.198  1.00  0.00     0.037 A 
ATOM     51  C   UNL A   1      45.846  29.277  27.338  1.00  0.00     0.049 A 
ATOM     52  C   UNL A   1      41.334  31.103  30.080  1.00  0.00     0.074 A 
ATOM     53  C   UNL A   1      46.901  30.166  27.216  1.00  0.00     0.029 A 
ATOM     54  N   UNL A   1      44.861  29.929  28.066  1.00  0.00    -0.354 N 
ATOM     55  N   UNL A   1      42.455  30.832  29.458  1.00  0.00    -0.248 NA
ATOM     56  C   UNL A   1      41.317  32.417  30.739  1.00  0.00     0.031 C 
ATOM     57  C   UNL A   1      46.579  31.330  27.919  1.00  0.00     0.029 A 
ATOM     58  C   UNL A   1      45.299  31.195  28.427  1.00  0.00     0.049 A 
ATOM     59  H   UNL A   1      43.981  29.549  28.293  1.00  0.00     0.167 HD
ATOM     60  C   UNL A   1      43.266  31.946  29.630  1.00  0.00     0.074 A 
ATOM     61  C   UNL A   1      42.501  32.906  30.398  1.00  0.00     0.031 C 
ATOM     62  C   UNL A   1      44.533  32.148  29.191  1.00  0.00     0.037 A 
BRANCH  49  63
ATOM     63  C   UNL A   1      46.936  27.369  26.107  1.00  0.00     0.064 A 
ATOM     64  C   UNL A   1      47.091  27.551  24.725  1.00  0.00     0.173 A 
ATOM     65  C   UNL A   1      47.974  26.732  26.805  1.00  0.00     0.173 A 
ATOM     66  F   UNL A   1      46.128  28.150  24.010  1.00  0.00    -0.203 F 
ATOM     67  C   UNL A   1      48.235  27.105  24.066  1.00  0.00     0.198 A 
ATOM     68  C   UNL A   1      49.129  26.314  26.148  1.00  0.00     0.198 A 
ATOM     69  F   UNL A   1      47.883  26.542  28.130  1.00  0.00    -0.203 F 
ATOM     70  F   UNL A   1      48.346  27.264  22.740  1.00  0.00    -0.200 F 
ATOM     71  C   UNL A   1      49.257  26.497  24.779  1.00  0.00     0.200 A 
ATOM     72  F   UNL A   1      50.124  25.742  26.840  1.00  0.00    -0.200 F 
ATOM     73  F   UNL A   1      50.365  26.086  24.146  1.00  0.00    -0.200 F 
ENDBRANCH  49  63
BRANCH  50  74
ATOM     74  C   UNL A   1      38.880  30.789  30.887  1.00  0.00     0.064 A 
ATOM     75  C   UNL A   1      37.857  31.420  30.165  1.00  0.00     0.173 A 
ATOM     76  C   UNL A   1      38.709  30.647  32.272  1.00  0.00     0.173 A 
ATOM     77  F   UNL A   1      37.983  31.596  28.842  1.00  0.00    -0.203 F 
ATOM     78  C   UNL A   1      36.715  31.897  30.803  1.00  0.00     0.198 A 
ATOM     79  C   UNL A   1      37.552  31.097  32.905  1.00  0.00     0.198 A 
ATOM     80  F   UNL A   1      39.657  30.046  33.008  1.00  0.00    -0.203 F 
ATOM     81  F   UNL A   1      35.770  32.530  30.095  1.00  0.00    -0.200 F 
ATOM     82  C   UNL A   1      36.559  31.728  32.170  1.00  0.00     0.200 A 
ATOM     83  F   UNL A   1      37.398  30.915  34.223  1.00  0.00    -0.200 F 
ATOM     84  F   UNL A   1      35.454  32.175  32.782  1.00  0.00    -0.200 F 
ENDBRANCH  50  74
BRANCH  62  85
ATOM     85  C   UNL A   1      45.181  33.465  29.514  1.00  0.00     0.064 A 
ATOM     86  C   UNL A   1      45.975  33.631  30.659  1.00  0.00     0.173 A 
ATOM     87  C   UNL A   1      45.068  34.551  28.632  1.00  0.00     0.173 A 
ATOM     88  F   UNL A   1      46.105  32.630  31.542  1.00  0.00    -0.203 F 
ATOM     89  C   UNL A   1      46.620  34.839  30.915  1.00  0.00     0.198 A 
ATOM     90  C   UNL A   1      45.740  35.747  28.875  1.00  0.00     0.198 A 
ATOM     91  F   UNL A   1      44.327  34.445  27.519  1.00  0.00    -0.203 F 
ATOM     92  F   UNL A   1      47.343  34.986  32.034  1.00  0.00    -0.200 F 
ATOM     93  C   UNL A   1      46.511  35.891  30.018  1.00  0.00     0.200 A 
ATOM     94  F   UNL A   1      45.649  36.755  27.997  1.00  0.00    -0.200 F 
ATOM     95  F   UNL A   1      47.149  37.045  30.257  1.00  0.00    -0.200 F 
ENDBRANCH  62  85
ENDBRANCH  36  37
ENDBRANCH  29  31
ENDBRANCH  28  29
ENDBRANCH  27  28
ENDBRANCH   1  27
TORSDOF 16
ENDMDL
MODEL 2
REMARK VINA RESULT:     -12.3      4.525      8.653
REMARK SMILES CC(C)(C)c1cc2c(cc1Cl)C=C(C(=O)OCCOCCOC(=O)c1ccc(-c3c4nc(c(-c5c(F)c(F)c(F)c(F)c5F)c5ccc([nH]5)c(-c5c(F)c(F)c(F)c(F)c5F)c5nc(c(-c6c(F)c(F)c(F)c(F)c6F)c6ccc3[nH]6)C=C5)C=C4)cc1)[C@H](C(F)(F)F)O2
REMARK SMILES IDX 20 1 19 2 18 3 17 4 16 5 14 6 15 7 13 8 5 9 6 10 10 11 7 12
REMARK SMILES IDX 9 13 11 14 8 15 93 16 12 17 88 18 2 19 1 20 3 21 4 22 89 23
REMARK SMILES IDX 90 24 91 25 92 26 21 27 22 28 23 29 24 30 25 31 26 32 87 33
REMARK SMILES IDX 27 34 86 35 28 36 29 37 30 38 80 39 31 40 85 41 79 42 81 43
REMARK SMILES IDX 32 44 84 45 78 46 77 47 33 49 65 50 45 51 64 52 46 53 49 54
REMARK SMILES IDX 63 55 82 56 47 57 48 58 62 60 83 61 50 62 34 63 35 64 43 65
REMARK SMILES IDX 36 66 37 67 41 68 44 69 38 70 39 71 42 72 40 73 66 74 67 75
REMARK SMILES IDX 75 76 68 77 69 78 73 79 76 80 70 81 71 82 74 83 72 84 51 85
REMARK SMILES IDX 52 86 60 87 53 88 54 89 58 90 61 91 55 92 56 93 59 94 57 95
REMARK H PARENT 81 48 49 59
REMARK Flexibility Score: inf
ROOT
ATOM      1  C   UNL A   1      41.885  20.785  26.126  1.00  0.00     0.202 C 
ENDROOT
BRANCH   1   2
ATOM      2  O   UNL A   1      40.937  21.264  27.085  1.00  0.00    -0.374 OA
BRANCH   2   3
ATOM      3  C   UNL A   1      39.718  21.806  26.580  1.00  0.00     0.202 C 
BRANCH   3   4
ATOM      4  C   UNL A   1      38.950  20.926  25.592  1.00  0.00     0.261 C 
BRANCH   4   5
ATOM      5  O   UNL A   1      37.735  21.576  25.186  1.00  0.00    -0.460 OA
BRANCH   5   6
ATOM      6  C   UNL A   1      36.689  20.745  25.003  1.00  0.00     0.338 C 
ATOM      7  O   UNL A   1      36.734  19.525  24.999  1.00  0.00    -0.246 OA
BRANCH   6   8
ATOM      8  C   UNL A   1      35.429  21.508  24.927  1.00  0.00     0.087 C 
ATOM      9  C   UNL A   1      32.374  25.531  24.688  1.00  0.00    -0.020 A 
ATOM     10  C   UNL A   1      32.347  24.269  25.342  1.00  0.00     0.053 A 
ATOM     11  C   UNL A   1      33.405  25.715  23.743  1.00  0.00     0.045 A 
ATOM     12  C   UNL A   1      33.343  23.305  25.164  1.00  0.00     0.128 A 
ATOM     13  C   UNL A   1      34.409  24.748  23.570  1.00  0.00     0.032 A 
ATOM     14  Cl  UNL A   1      33.562  27.076  22.690  1.00  0.00    -0.084 Cl
ATOM     15  C   UNL A   1      34.396  23.565  24.302  1.00  0.00     0.019 A 
ATOM     16  O   UNL A   1      33.265  22.175  25.934  1.00  0.00    -0.475 OA
ATOM     17  C   UNL A   1      35.528  22.665  24.261  1.00  0.00     0.027 C 
ATOM     18  C   UNL A   1      34.159  21.064  25.608  1.00  0.00     0.316 C 
BRANCH   9  19
ATOM     19  C   UNL A   1      31.278  26.569  25.048  1.00  0.00    -0.012 C 
ATOM     20  C   UNL A   1      30.446  27.104  23.858  1.00  0.00     0.016 C 
ATOM     21  C   UNL A   1      31.891  27.848  25.689  1.00  0.00     0.016 C 
ATOM     22  C   UNL A   1      30.322  25.924  26.067  1.00  0.00     0.016 C 
ENDBRANCH   9  19
BRANCH  18  23
ATOM     23  C   UNL A   1      33.353  19.993  24.843  1.00  0.00     0.430 C 
ATOM     24  F   UNL A   1      34.010  18.813  24.764  1.00  0.00    -0.167 F 
ATOM     25  F   UNL A   1      32.149  19.743  25.407  1.00  0.00    -0.167 F 
ATOM     26  F   UNL A   1      33.094  20.394  23.572  1.00  0.00    -0.167 F 
ENDBRANCH  18  23
ENDBRANCH   6   8
ENDBRANCH   5   6
ENDBRANCH   4   5
ENDBRANCH   3   4
ENDBRANCH   2   3
ENDBRANCH   1   2
BRANCH   1  27
ATOM     27  C   UNL A   1      43.067  21.708  25.802  1.00  0.00     0.261 C 
BRANCH  27  28
ATOM     28  O   UNL A   1      42.635  22.893  25.110  1.00  0.00    -0.460 OA
BRANCH  28  29
ATOM     29  C   UNL A   1      43.440  23.974  25.248  1.00  0.00     0.338 C 
ATOM     30  O   UNL A   1      44.401  24.272  24.557  1.00  0.00    -0.246 OA
BRANCH  29  31
ATOM     31  C   UNL A   1      42.845  24.897  26.239  1.00  0.00     0.060 A 
ATOM     32  C   UNL A   1      41.754  24.531  27.029  1.00  0.00     0.016 A 
ATOM     33  C   UNL A   1      43.414  26.172  26.365  1.00  0.00     0.016 A 
ATOM     34  C   UNL A   1      41.255  25.437  27.972  1.00  0.00     0.010 A 
ATOM     35  C   UNL A   1      42.915  27.074  27.306  1.00  0.00     0.010 A 
ATOM     36  C   UNL A   1      41.845  26.705  28.132  1.00  0.00    -0.014 A 
BRANCH  36  37
ATOM     37  C   UNL A   1      41.429  27.590  29.249  1.00  0.00     0.031 A 
ATOM     38  C   UNL A   1      40.250  28.508  29.132  1.00  0.00     0.074 A 
ATOM     39  C   UNL A   1      42.161  27.577  30.379  1.00  0.00     0.049 A 
ATOM     40  N   UNL A   1      39.734  29.303  30.037  1.00  0.00    -0.248 NA
ATOM     41  C   UNL A   1      39.562  28.547  27.835  1.00  0.00     0.031 C 
ATOM     42  C   UNL A   1      43.355  26.760  30.593  1.00  0.00     0.029 A 
ATOM     43  N   UNL A   1      42.007  28.260  31.560  1.00  0.00    -0.354 N 
ATOM     44  C   UNL A   1      38.650  29.920  29.429  1.00  0.00     0.074 A 
ATOM     45  C   UNL A   1      38.614  29.449  28.059  1.00  0.00     0.031 C 
ATOM     46  C   UNL A   1      43.806  26.962  31.839  1.00  0.00     0.029 A 
ATOM     47  C   UNL A   1      42.956  27.946  32.502  1.00  0.00     0.049 A 
ATOM     48  H   UNL A   1      41.288  28.913  31.715  1.00  0.00     0.167 HD
ATOM     49  C   UNL A   1      37.756  30.781  29.975  1.00  0.00     0.037 A 
ATOM     50  C   UNL A   1      43.121  28.396  33.761  1.00  0.00     0.037 A 
ATOM     51  C   UNL A   1      37.807  31.257  31.336  1.00  0.00     0.049 A 
ATOM     52  C   UNL A   1      42.144  29.391  34.322  1.00  0.00     0.074 A 
ATOM     53  C   UNL A   1      36.922  32.101  31.985  1.00  0.00     0.029 A 
ATOM     54  N   UNL A   1      38.802  30.945  32.251  1.00  0.00    -0.354 N 
ATOM     55  N   UNL A   1      41.074  29.904  33.766  1.00  0.00    -0.248 NA
ATOM     56  C   UNL A   1      42.394  29.866  35.690  1.00  0.00     0.031 C 
ATOM     57  C   UNL A   1      37.411  32.347  33.271  1.00  0.00     0.029 A 
ATOM     58  C   UNL A   1      38.569  31.607  33.448  1.00  0.00     0.049 A 
ATOM     59  H   UNL A   1      39.562  30.344  32.076  1.00  0.00     0.167 HD
ATOM     60  C   UNL A   1      40.512  30.742  34.719  1.00  0.00     0.074 A 
ATOM     61  C   UNL A   1      41.348  30.654  35.898  1.00  0.00     0.031 C 
ATOM     62  C   UNL A   1      39.403  31.516  34.620  1.00  0.00     0.037 A 
BRANCH  49  63
ATOM     63  C   UNL A   1      36.624  31.260  29.112  1.00  0.00     0.064 A 
ATOM     64  C   UNL A   1      35.560  30.413  28.769  1.00  0.00     0.173 A 
ATOM     65  C   UNL A   1      36.551  32.602  28.704  1.00  0.00     0.173 A 
ATOM     66  F   UNL A   1      35.582  29.121  29.130  1.00  0.00    -0.203 F 
ATOM     67  C   UNL A   1      34.471  30.886  28.040  1.00  0.00     0.198 A 
ATOM     68  C   UNL A   1      35.447  33.078  28.000  1.00  0.00     0.198 A 
ATOM     69  F   UNL A   1      37.535  33.459  29.014  1.00  0.00    -0.203 F 
ATOM     70  F   UNL A   1      33.482  30.049  27.699  1.00  0.00    -0.200 F 
ATOM     71  C   UNL A   1      34.411  32.220  27.666  1.00  0.00     0.200 A 
ATOM     72  F   UNL A   1      35.380  34.371  27.655  1.00  0.00    -0.200 F 
ATOM     73  F   UNL A   1      33.353  32.677  26.981  1.00  0.00    -0.200 F 
ENDBRANCH  49  63
BRANCH  50  74
ATOM     74  C   UNL A   1      44.240  27.871  34.585  1.00  0.00     0.064 A 
ATOM     75  C   UNL A   1      45.472  28.539  34.633  1.00  0.00     0.173 A 
ATOM     76  C   UNL A   1      44.096  26.710  35.360  1.00  0.00     0.173 A 
ATOM     77  F   UNL A   1      45.664  29.642  33.895  1.00  0.00    -0.203 F 
ATOM     78  C   UNL A   1      46.519  28.059  35.415  1.00  0.00     0.198 A 
ATOM     79  C   UNL A   1      45.134  26.250  36.166  1.00  0.00     0.198 A 
ATOM     80  F   UNL A   1      42.935  26.038  35.353  1.00  0.00    -0.203 F 
ATOM     81  F   UNL A   1      47.699  28.695  35.413  1.00  0.00    -0.200 F 
ATOM     82  C   UNL A   1      46.348  26.921  36.188  1.00  0.00     0.200 A 
ATOM     83  F   UNL A   1      44.957  25.160  36.925  1.00  0.00    -0.200 F 
ATOM     84  F   UNL A   1      47.352  26.468  36.951  1.00  0.00    -0.200 F 
ENDBRANCH  50  74
BRANCH  62  85
ATOM     85  C   UNL A   1      39.010  32.328  35.822  1.00  0.00     0.064 A 
ATOM     86  C   UNL A   1      38.247  31.778  36.862  1.00  0.00     0.173 A 
ATOM     87  C   UNL A   1      39.462  33.649  35.969  1.00  0.00     0.173 A 
ATOM     88  F   UNL A   1      37.778  30.524  36.766  1.00  0.00    -0.203 F 
ATOM     89  C   UNL A   1      37.940  32.523  37.998  1.00  0.00     0.198 A 
ATOM     90  C   UNL A   1      39.181  34.381  37.120  1.00  0.00     0.198 A 
ATOM     91  F   UNL A   1      40.200  34.223  35.007  1.00  0.00    -0.203 F 
ATOM     92  F   UNL A   1      37.179  31.988  38.963  1.00  0.00    -0.200 F 
ATOM     93  C   UNL A   1      38.417  33.819  38.131  1.00  0.00     0.200 A 
ATOM     94  F   UNL A   1      39.658  35.626  37.254  1.00  0.00    -0.200 F 
ATOM     95  F   UNL A   1      38.137  34.527  39.234  1.00  0.00    -0.200 F 
ENDBRANCH  62  85
ENDBRANCH  36  37
ENDBRANCH  29  31
ENDBRANCH  28  29
ENDBRANCH  27  28
ENDBRANCH   1  27
TORSDOF 16
ENDMDL
MODEL 3
REMARK VINA RESULT:     -12.3      4.284      9.837
REMARK SMILES CC(C)(C)c1cc2c(cc1Cl)C=C(C(=O)OCCOCCOC(=O)c1ccc(-c3c4nc(c(-c5c(F)c(F)c(F)c(F)c5F)c5ccc([nH]5)c(-c5c(F)c(F)c(F)c(F)c5F)c5nc(c(-c6c(F)c(F)c(F)c(F)c6F)c6ccc3[nH]6)C=C5)C=C4)cc1)[C@H](C(F)(F)F)O2
REMARK SMILES IDX 20 1 19 2 18 3 17 4 16 5 14 6 15 7 13 8 5 9 6 10 10 11 7 12
REMARK SMILES IDX 9 13 11 14 8 15 93 16 12 17 88 18 2 19 1 20 3 21 4 22 89 23
REMARK SMILES IDX 90 24 91 25 92 26 21 27 22 28 23 29 24 30 25 31 26 32 87 33
REMARK SMILES IDX 27 34 86 35 28 36 29 37 30 38 80 39 31 40 85 41 79 42 81 43
REMARK SMILES IDX 32 44 84 45 78 46 77 47 33 49 65 50 45 51 64 52 46 53 49 54
REMARK SMILES IDX 63 55 82 56 47 57 48 58 62 60 83 61 50 62 34 63 35 64 43 65
REMARK SMILES IDX 36 66 37 67 41 68 44 69 38 70 39 71 42 72 40 73 66 74 67 75
REMARK SMILES IDX 75 76 68 77 69 78 73 79 76 80 70 81 71 82 74 83 72 84 51 85
REMARK SMILES IDX 52 86 60 87 53 88 54 89 58 90 61 91 55 92 56 93 59 94 57 95
REMARK H PARENT 81 48 49 59
REMARK Flexibility Score: inf
ROOT
ATOM      1  C   UNL A   1      31.434  28.861  25.774  1.00  0.00     0.202 C 
ENDROOT
BRANCH   1   2
ATOM      2  O   UNL A   1      31.046  28.492  24.448  1.00  0.00    -0.374 OA
BRANCH   2   3
ATOM      3  C   UNL A   1      31.753  29.103  23.369  1.00  0.00     0.202 C 
BRANCH   3   4
ATOM      4  C   UNL A   1      33.150  28.549  23.084  1.00  0.00     0.261 C 
BRANCH   4   5
ATOM      5  O   UNL A   1      33.270  27.213  23.600  1.00  0.00    -0.460 OA
BRANCH   5   6
ATOM      6  C   UNL A   1      33.363  26.255  22.656  1.00  0.00     0.338 C 
ATOM      7  O   UNL A   1      33.739  26.415  21.505  1.00  0.00    -0.246 OA
BRANCH   6   8
ATOM      8  C   UNL A   1      33.064  24.931  23.231  1.00  0.00     0.087 C 
ATOM      9  C   UNL A   1      33.659  20.025  24.307  1.00  0.00    -0.020 A 
ATOM     10  C   UNL A   1      32.564  20.871  23.981  1.00  0.00     0.053 A 
ATOM     11  C   UNL A   1      34.889  20.673  24.550  1.00  0.00     0.045 A 
ATOM     12  C   UNL A   1      32.705  22.247  23.788  1.00  0.00     0.128 A 
ATOM     13  C   UNL A   1      35.030  22.056  24.349  1.00  0.00     0.032 A 
ATOM     14  Cl  UNL A   1      36.324  19.904  25.130  1.00  0.00    -0.084 Cl
ATOM     15  C   UNL A   1      33.952  22.832  23.937  1.00  0.00     0.019 A 
ATOM     16  O   UNL A   1      31.598  22.937  23.368  1.00  0.00    -0.475 OA
ATOM     17  C   UNL A   1      34.148  24.212  23.548  1.00  0.00     0.027 C 
ATOM     18  C   UNL A   1      31.660  24.399  23.377  1.00  0.00     0.316 C 
BRANCH   9  19
ATOM     19  C   UNL A   1      33.410  18.495  24.385  1.00  0.00    -0.012 C 
ATOM     20  C   UNL A   1      34.656  17.602  24.178  1.00  0.00     0.016 C 
ATOM     21  C   UNL A   1      32.415  18.022  23.286  1.00  0.00     0.016 C 
ATOM     22  C   UNL A   1      32.800  18.178  25.762  1.00  0.00     0.016 C 
ENDBRANCH   9  19
BRANCH  18  23
ATOM     23  C   UNL A   1      30.896  24.915  24.614  1.00  0.00     0.430 C 
ATOM     24  F   UNL A   1      31.706  25.554  25.490  1.00  0.00    -0.167 F 
ATOM     25  F   UNL A   1      29.900  25.773  24.292  1.00  0.00    -0.167 F 
ATOM     26  F   UNL A   1      30.307  23.893  25.284  1.00  0.00    -0.167 F 
ENDBRANCH  18  23
ENDBRANCH   6   8
ENDBRANCH   5   6
ENDBRANCH   4   5
ENDBRANCH   3   4
ENDBRANCH   2   3
ENDBRANCH   1   2
BRANCH   1  27
ATOM     27  C   UNL A   1      31.765  30.340  26.012  1.00  0.00     0.261 C 
BRANCH  27  28
ATOM     28  O   UNL A   1      33.176  30.539  26.208  1.00  0.00    -0.460 OA
BRANCH  28  29
ATOM     29  C   UNL A   1      33.510  31.508  27.094  1.00  0.00     0.338 C 
ATOM     30  O   UNL A   1      32.806  32.423  27.488  1.00  0.00    -0.246 OA
BRANCH  29  31
ATOM     31  C   UNL A   1      34.809  31.168  27.715  1.00  0.00     0.060 A 
ATOM     32  C   UNL A   1      35.779  32.137  27.978  1.00  0.00     0.016 A 
ATOM     33  C   UNL A   1      35.046  29.824  28.036  1.00  0.00     0.016 A 
ATOM     34  C   UNL A   1      36.976  31.759  28.597  1.00  0.00     0.010 A 
ATOM     35  C   UNL A   1      36.240  29.449  28.653  1.00  0.00     0.010 A 
ATOM     36  C   UNL A   1      37.206  30.418  28.958  1.00  0.00    -0.014 A 
BRANCH  36  37
ATOM     37  C   UNL A   1      38.394  30.052  29.769  1.00  0.00     0.031 A 
ATOM     38  C   UNL A   1      38.602  30.592  31.152  1.00  0.00     0.074 A 
ATOM     39  C   UNL A   1      39.314  29.236  29.222  1.00  0.00     0.049 A 
ATOM     40  N   UNL A   1      39.562  30.326  32.003  1.00  0.00    -0.248 NA
ATOM     41  C   UNL A   1      37.612  31.559  31.646  1.00  0.00     0.031 C 
ATOM     42  C   UNL A   1      39.243  28.684  27.868  1.00  0.00     0.029 A 
ATOM     43  N   UNL A   1      40.481  28.723  29.732  1.00  0.00    -0.354 N 
ATOM     44  C   UNL A   1      39.283  31.073  33.139  1.00  0.00     0.074 A 
ATOM     45  C   UNL A   1      38.092  31.846  32.850  1.00  0.00     0.031 C 
ATOM     46  C   UNL A   1      40.299  27.883  27.667  1.00  0.00     0.029 A 
ATOM     47  C   UNL A   1      41.139  27.889  28.861  1.00  0.00     0.049 A 
ATOM     48  H   UNL A   1      40.814  28.933  30.634  1.00  0.00     0.167 HD
ATOM     49  C   UNL A   1      39.948  31.090  34.320  1.00  0.00     0.037 A 
ATOM     50  C   UNL A   1      42.289  27.203  29.008  1.00  0.00     0.037 A 
ATOM     51  C   UNL A   1      41.142  30.329  34.596  1.00  0.00     0.049 A 
ATOM     52  C   UNL A   1      43.033  27.281  30.312  1.00  0.00     0.074 A 
ATOM     53  C   UNL A   1      41.862  30.255  35.777  1.00  0.00     0.029 A 
ATOM     54  N   UNL A   1      41.801  29.522  33.679  1.00  0.00    -0.354 N 
ATOM     55  N   UNL A   1      42.715  27.925  31.408  1.00  0.00    -0.248 NA
ATOM     56  C   UNL A   1      44.296  26.534  30.401  1.00  0.00     0.031 C 
ATOM     57  C   UNL A   1      42.986  29.453  35.558  1.00  0.00     0.029 A 
ATOM     58  C   UNL A   1      42.936  28.975  34.260  1.00  0.00     0.049 A 
ATOM     59  H   UNL A   1      41.506  29.362  32.753  1.00  0.00     0.167 HD
ATOM     60  C   UNL A   1      43.721  27.644  32.322  1.00  0.00     0.074 A 
ATOM     61  C   UNL A   1      44.651  26.754  31.659  1.00  0.00     0.031 C 
ATOM     62  C   UNL A   1      43.859  28.088  33.595  1.00  0.00     0.037 A 
BRANCH  49  63
ATOM     63  C   UNL A   1      39.398  31.945  35.425  1.00  0.00     0.064 A 
ATOM     64  C   UNL A   1      38.504  31.425  36.372  1.00  0.00     0.173 A 
ATOM     65  C   UNL A   1      39.840  33.267  35.598  1.00  0.00     0.173 A 
ATOM     66  F   UNL A   1      38.046  30.170  36.251  1.00  0.00    -0.203 F 
ATOM     67  C   UNL A   1      38.062  32.199  37.444  1.00  0.00     0.198 A 
ATOM     68  C   UNL A   1      39.420  34.027  36.687  1.00  0.00     0.198 A 
ATOM     69  F   UNL A   1      40.705  33.811  34.729  1.00  0.00    -0.203 F 
ATOM     70  F   UNL A   1      37.184  31.688  38.318  1.00  0.00    -0.200 F 
ATOM     71  C   UNL A   1      38.529  33.494  37.606  1.00  0.00     0.200 A 
ATOM     72  F   UNL A   1      39.886  35.272  36.854  1.00  0.00    -0.200 F 
ATOM     73  F   UNL A   1      38.118  34.229  38.649  1.00  0.00    -0.200 F 
ENDBRANCH  49  63
BRANCH  50  74
ATOM     74  C   UNL A   1      42.778  26.347  27.896  1.00  0.00     0.064 A 
ATOM     75  C   UNL A   1      42.359  25.016  27.776  1.00  0.00     0.173 A 
ATOM     76  C   UNL A   1      43.654  26.847  26.920  1.00  0.00     0.173 A 
ATOM     77  F   UNL A   1      41.538  24.487  28.695  1.00  0.00    -0.203 F 
ATOM     78  C   UNL A   1      42.804  24.213  26.728  1.00  0.00     0.198 A 
ATOM     79  C   UNL A   1      44.073  26.053  25.855  1.00  0.00     0.198 A 
ATOM     80  F   UNL A   1      44.081  28.117  26.987  1.00  0.00    -0.203 F 
ATOM     81  F   UNL A   1      42.416  22.933  26.658  1.00  0.00    -0.200 F 
ATOM     82  C   UNL A   1      43.652  24.734  25.764  1.00  0.00     0.200 A 
ATOM     83  F   UNL A   1      44.879  26.566  24.916  1.00  0.00    -0.200 F 
ATOM     84  F   UNL A   1      44.069  23.966  24.748  1.00  0.00    -0.200 F 
ENDBRANCH  50  74
BRANCH  62  85
ATOM     85  C   UNL A   1      45.054  27.614  34.375  1.00  0.00     0.064 A 
ATOM     86  C   UNL A   1      45.032  26.407  35.089  1.00  0.00     0.173 A 
ATOM     87  C   UNL A   1      46.257  28.337  34.347  1.00  0.00     0.173 A 
ATOM     88  F   UNL A   1      43.904  25.684  35.160  1.00  0.00    -0.203 F 
ATOM     89  C   UNL A   1      46.166  25.949  35.757  1.00  0.00     0.198 A 
ATOM     90  C   UNL A   1      47.397  27.860  34.989  1.00  0.00     0.198 A 
ATOM     91  F   UNL A   1      46.334  29.494  33.673  1.00  0.00    -0.203 F 
ATOM     92  F   UNL A   1      46.110  24.812  36.465  1.00  0.00    -0.200 F 
ATOM     93  C   UNL A   1      47.349  26.670  35.697  1.00  0.00     0.200 A 
ATOM     94  F   UNL A   1      48.544  28.549  34.913  1.00  0.00    -0.200 F 
ATOM     95  F   UNL A   1      48.443  26.217  36.324  1.00  0.00    -0.200 F 
ENDBRANCH  62  85
ENDBRANCH  36  37
ENDBRANCH  29  31
ENDBRANCH  28  29
ENDBRANCH  27  28
ENDBRANCH   1  27
TORSDOF 16
ENDMDL
