MODEL 1
REMARK VINA RESULT:     -12.8      0.000      0.000
REMARK SMILES Cc1ccc([C@H]2CC(c3cccs3)=NN2C(=O)CCC(=O)OCCOCCOC(=O)c2ccc(-c3c4nc(c(-c5c(F)c(F)c(F)c(F)c5F)c5ccc([nH]5)c(-c5c(F)c(F)c(F)c(F)c5F)c5nc(c(-c6c(F)c(F)c(F)c(F)c6F)c6ccc3[nH]6)C=C5)C=C4)cc2)o1
REMARK SMILES IDX 24 1 23 2 22 3 20 4 21 5 19 6 18 7 16 8 17 9 15 10 6 11 7 12
REMARK SMILES IDX 8 13 14 14 5 15 1 16 2 17 3 18 94 19 4 20 9 21 10 22 13 23
REMARK SMILES IDX 11 24 12 25 25 26 26 27 27 28 28 29 29 30 30 31 31 32 32 33
REMARK SMILES IDX 93 34 33 35 92 36 34 37 35 38 36 39 86 40 37 41 91 42 85 43
REMARK SMILES IDX 87 44 38 45 90 46 84 47 83 48 39 50 71 51 51 52 70 53 52 54
REMARK SMILES IDX 55 55 69 56 88 57 53 58 54 59 68 61 89 62 56 63 40 64 41 65
REMARK SMILES IDX 49 66 42 67 43 68 47 69 50 70 44 71 45 72 48 73 46 74 72 75
REMARK SMILES IDX 73 76 81 77 74 78 75 79 79 80 82 81 76 82 77 83 80 84 78 85
REMARK SMILES IDX 57 86 58 87 66 88 59 89 60 90 64 91 67 92 61 93 62 94 65 95
REMARK SMILES IDX 63 96
REMARK H PARENT 87 49 55 60
REMARK Flexibility Score: inf
ROOT
ATOM      1  C   UNL A   1      34.955  22.129  24.543  1.00  0.00     0.202 C 
ENDROOT
BRANCH   1   2
ATOM      2  C   UNL A   1      33.459  23.008  24.584  1.00  0.00     0.261 C 
BRANCH   2   3
ATOM      3  O   UNL A   1      32.834  23.531  25.925  1.00  0.00    -0.463 OA
BRANCH   3   4
ATOM      4  C   UNL A   1      31.706  23.330  26.747  1.00  0.00     0.306 C 
ATOM      5  O   UNL A   1      31.817  22.879  27.883  1.00  0.00    -0.252 OA
BRANCH   4   6
ATOM      6  C   UNL A   1      30.231  24.054  26.261  1.00  0.00     0.132 C 
BRANCH   6   7
ATOM      7  C   UNL A   1      29.895  25.478  25.684  1.00  0.00     0.114 C 
BRANCH   7   8
ATOM      8  C   UNL A   1      30.404  25.557  24.302  1.00  0.00     0.243 C 
ATOM      9  O   UNL A   1      30.296  24.692  23.456  1.00  0.00    -0.273 OA
BRANCH   8  10
ATOM     10  N   UNL A   1      31.150  26.689  24.230  1.00  0.00    -0.222 N 
ATOM     11  C   UNL A   1      31.016  27.750  23.177  1.00  0.00     0.183 C 
ATOM     12  C   UNL A   1      32.416  28.342  23.511  1.00  0.00     0.095 C 
ATOM     13  C   UNL A   1      32.632  28.056  24.986  1.00  0.00     0.081 C 
ATOM     14  N   UNL A   1      32.025  26.961  25.310  1.00  0.00    -0.173 NA
BRANCH  11  15
ATOM     15  C   UNL A   1      29.479  28.657  22.970  1.00  0.00     0.129 A 
ATOM     16  C   UNL A   1      28.165  32.073  22.914  1.00  0.00     0.087 C 
ATOM     17  C   UNL A   1      28.324  30.613  22.869  1.00  0.00     0.101 A 
ATOM     18  C   UNL A   1      27.368  29.678  23.089  1.00  0.00     0.045 A 
ATOM     19  O   UNL A   1      29.554  30.033  22.641  1.00  0.00    -0.464 OA
ATOM     20  C   UNL A   1      28.066  28.476  23.039  1.00  0.00     0.048 A 
ENDBRANCH  11  15
BRANCH  13  21
ATOM     21  C   UNL A   1      33.372  28.930  25.893  1.00  0.00     0.050 A 
ATOM     22  C   UNL A   1      34.604  28.821  26.534  1.00  0.00     0.022 A 
ATOM     23  S   UNL A   1      32.587  30.287  26.481  1.00  0.00    -0.142 S 
ATOM     24  C   UNL A   1      34.848  29.881  27.487  1.00  0.00     0.012 A 
ATOM     25  C   UNL A   1      33.858  30.828  27.449  1.00  0.00     0.065 A 
ENDBRANCH  13  21
ENDBRANCH   8  10
ENDBRANCH   7   8
ENDBRANCH   6   7
ENDBRANCH   4   6
ENDBRANCH   3   4
ENDBRANCH   2   3
ENDBRANCH   1   2
BRANCH   1  26
ATOM     26  O   UNL A   1      35.291  20.719  24.512  1.00  0.00    -0.374 OA
BRANCH  26  27
ATOM     27  C   UNL A   1      36.369  19.848  24.906  1.00  0.00     0.202 C 
BRANCH  27  28
ATOM     28  C   UNL A   1      37.916  19.934  25.022  1.00  0.00     0.261 C 
BRANCH  28  29
ATOM     29  O   UNL A   1      38.492  21.194  25.333  1.00  0.00    -0.460 OA
BRANCH  29  30
ATOM     30  C   UNL A   1      39.433  21.133  26.304  1.00  0.00     0.338 C 
ATOM     31  O   UNL A   1      40.000  20.139  26.685  1.00  0.00    -0.246 OA
BRANCH  30  32
ATOM     32  C   UNL A   1      39.823  22.502  26.724  1.00  0.00     0.060 A 
ATOM     33  C   UNL A   1      40.886  22.549  27.624  1.00  0.00     0.016 A 
ATOM     34  C   UNL A   1      39.239  23.695  26.261  1.00  0.00     0.016 A 
ATOM     35  C   UNL A   1      41.392  23.779  28.031  1.00  0.00     0.010 A 
ATOM     36  C   UNL A   1      39.752  24.944  26.674  1.00  0.00     0.010 A 
ATOM     37  C   UNL A   1      40.855  24.994  27.540  1.00  0.00    -0.014 A 
BRANCH  37  38
ATOM     38  C   UNL A   1      41.407  26.231  28.162  1.00  0.00     0.031 A 
ATOM     39  C   UNL A   1      42.758  26.617  27.661  1.00  0.00     0.074 A 
ATOM     40  C   UNL A   1      40.711  27.076  28.954  1.00  0.00     0.049 A 
ATOM     41  N   UNL A   1      43.401  27.744  27.780  1.00  0.00    -0.248 NA
ATOM     42  C   UNL A   1      43.490  25.563  26.935  1.00  0.00     0.031 C 
ATOM     43  C   UNL A   1      39.450  26.784  29.617  1.00  0.00     0.029 A 
ATOM     44  N   UNL A   1      40.931  28.404  29.269  1.00  0.00    -0.354 N 
ATOM     45  C   UNL A   1      44.635  27.512  27.198  1.00  0.00     0.074 A 
ATOM     46  C   UNL A   1      44.627  26.172  26.661  1.00  0.00     0.031 C 
ATOM     47  C   UNL A   1      38.906  27.927  30.073  1.00  0.00     0.029 A 
ATOM     48  C   UNL A   1      39.839  29.026  29.852  1.00  0.00     0.049 A 
ATOM     49  H   UNL A   1      41.783  28.864  29.095  1.00  0.00     0.167 HD
ATOM     50  C   UNL A   1      45.710  28.327  27.189  1.00  0.00     0.037 A 
ATOM     51  C   UNL A   1      39.636  30.327  30.171  1.00  0.00     0.037 A 
ATOM     52  C   UNL A   1      45.730  29.618  27.808  1.00  0.00     0.049 A 
ATOM     53  C   UNL A   1      40.833  31.247  30.078  1.00  0.00     0.074 A 
ATOM     54  C   UNL A   1      46.792  30.487  27.952  1.00  0.00     0.029 A 
ATOM     55  N   UNL A   1      44.631  30.213  28.415  1.00  0.00    -0.354 N 
ATOM     56  N   UNL A   1      42.013  31.021  29.550  1.00  0.00    -0.248 NA
ATOM     57  C   UNL A   1      40.710  32.568  30.717  1.00  0.00     0.031 C 
ATOM     58  C   UNL A   1      46.349  31.589  28.690  1.00  0.00     0.029 A 
ATOM     59  C   UNL A   1      44.993  31.441  28.940  1.00  0.00     0.049 A 
ATOM     60  H   UNL A   1      43.729  29.820  28.465  1.00  0.00     0.167 HD
ATOM     61  C   UNL A   1      42.780  32.143  29.831  1.00  0.00     0.074 A 
ATOM     62  C   UNL A   1      41.912  33.085  30.506  1.00  0.00     0.031 C 
ATOM     63  C   UNL A   1      44.098  32.357  29.598  1.00  0.00     0.037 A 
BRANCH  50  64
ATOM     64  C   UNL A   1      46.967  27.736  26.637  1.00  0.00     0.064 A 
ATOM     65  C   UNL A   1      47.969  27.209  27.466  1.00  0.00     0.173 A 
ATOM     66  C   UNL A   1      47.218  27.814  25.260  1.00  0.00     0.173 A 
ATOM     67  F   UNL A   1      47.797  27.177  28.796  1.00  0.00    -0.203 F 
ATOM     68  C   UNL A   1      49.193  26.814  26.936  1.00  0.00     0.198 A 
ATOM     69  C   UNL A   1      48.430  27.384  24.730  1.00  0.00     0.198 A 
ATOM     70  F   UNL A   1      46.305  28.343  24.433  1.00  0.00    -0.203 F 
ATOM     71  F   UNL A   1      50.172  26.400  27.753  1.00  0.00    -0.200 F 
ATOM     72  C   UNL A   1      49.420  26.897  25.570  1.00  0.00     0.200 A 
ATOM     73  F   UNL A   1      48.649  27.473  23.412  1.00  0.00    -0.200 F 
ATOM     74  F   UNL A   1      50.605  26.531  25.063  1.00  0.00    -0.200 F 
ENDBRANCH  50  64
BRANCH  51  75
ATOM     75  C   UNL A   1      38.329  30.863  30.686  1.00  0.00     0.064 A 
ATOM     76  C   UNL A   1      37.397  31.460  29.812  1.00  0.00     0.173 A 
ATOM     77  C   UNL A   1      38.010  30.891  32.051  1.00  0.00     0.173 A 
ATOM     78  F   UNL A   1      37.653  31.520  28.496  1.00  0.00    -0.203 F 
ATOM     79  C   UNL A   1      36.230  32.070  30.284  1.00  0.00     0.198 A 
ATOM     80  C   UNL A   1      36.817  31.453  32.517  1.00  0.00     0.198 A 
ATOM     81  F   UNL A   1      38.870  30.399  32.954  1.00  0.00    -0.203 F 
ATOM     82  F   UNL A   1      35.412  32.705  29.431  1.00  0.00    -0.200 F 
ATOM     83  C   UNL A   1      35.935  32.054  31.636  1.00  0.00     0.200 A 
ATOM     84  F   UNL A   1      36.538  31.431  33.828  1.00  0.00    -0.200 F 
ATOM     85  F   UNL A   1      34.818  32.639  32.092  1.00  0.00    -0.200 F 
ENDBRANCH  51  75
BRANCH  63  86
ATOM     86  C   UNL A   1      44.670  33.666  30.053  1.00  0.00     0.064 A 
ATOM     87  C   UNL A   1      45.264  33.815  31.315  1.00  0.00     0.173 A 
ATOM     88  C   UNL A   1      44.678  34.766  29.184  1.00  0.00     0.173 A 
ATOM     89  F   UNL A   1      45.270  32.793  32.186  1.00  0.00    -0.203 F 
ATOM     90  C   UNL A   1      45.823  35.029  31.700  1.00  0.00     0.198 A 
ATOM     91  C   UNL A   1      45.268  35.968  29.559  1.00  0.00     0.198 A 
ATOM     92  F   UNL A   1      44.130  34.668  27.964  1.00  0.00    -0.203 F 
ATOM     93  F   UNL A   1      46.344  35.167  32.927  1.00  0.00    -0.200 F 
ATOM     94  C   UNL A   1      45.833  36.101  30.819  1.00  0.00     0.200 A 
ATOM     95  F   UNL A   1      45.293  36.995  28.701  1.00  0.00    -0.200 F 
ATOM     96  F   UNL A   1      46.384  37.266  31.186  1.00  0.00    -0.200 F 
ENDBRANCH  63  86
ENDBRANCH  37  38
ENDBRANCH  30  32
ENDBRANCH  29  30
ENDBRANCH  28  29
ENDBRANCH  27  28
ENDBRANCH  26  27
ENDBRANCH   1  26
TORSDOF 19
ENDMDL
MODEL 2
REMARK VINA RESULT:     -12.4      1.349      1.942
REMARK SMILES Cc1ccc([C@H]2CC(c3cccs3)=NN2C(=O)CCC(=O)OCCOCCOC(=O)c2ccc(-c3c4nc(c(-c5c(F)c(F)c(F)c(F)c5F)c5ccc([nH]5)c(-c5c(F)c(F)c(F)c(F)c5F)c5nc(c(-c6c(F)c(F)c(F)c(F)c6F)c6ccc3[nH]6)C=C5)C=C4)cc2)o1
REMARK SMILES IDX 24 1 23 2 22 3 20 4 21 5 19 6 18 7 16 8 17 9 15 10 6 11 7 12
REMARK SMILES IDX 8 13 14 14 5 15 1 16 2 17 3 18 94 19 4 20 9 21 10 22 13 23
REMARK SMILES IDX 11 24 12 25 25 26 26 27 27 28 28 29 29 30 30 31 31 32 32 33
REMARK SMILES IDX 93 34 33 35 92 36 34 37 35 38 36 39 86 40 37 41 91 42 85 43
REMARK SMILES IDX 87 44 38 45 90 46 84 47 83 48 39 50 71 51 51 52 70 53 52 54
REMARK SMILES IDX 55 55 69 56 88 57 53 58 54 59 68 61 89 62 56 63 40 64 41 65
REMARK SMILES IDX 49 66 42 67 43 68 47 69 50 70 44 71 45 72 48 73 46 74 72 75
REMARK SMILES IDX 73 76 81 77 74 78 75 79 79 80 82 81 76 82 77 83 80 84 78 85
REMARK SMILES IDX 57 86 58 87 66 88 59 89 60 90 64 91 67 92 61 93 62 94 65 95
REMARK SMILES IDX 63 96
REMARK H PARENT 87 49 55 60
REMARK Flexibility Score: inf
ROOT
ATOM      1  C   UNL A   1      35.244  22.872  24.730  1.00  0.00     0.202 C 
ENDROOT
BRANCH   1   2
ATOM      2  C   UNL A   1      33.558  23.265  24.610  1.00  0.00     0.261 C 
BRANCH   2   3
ATOM      3  O   UNL A   1      32.770  23.933  25.791  1.00  0.00    -0.463 OA
BRANCH   3   4
ATOM      4  C   UNL A   1      31.525  23.851  26.448  1.00  0.00     0.306 C 
ATOM      5  O   UNL A   1      31.451  23.602  27.647  1.00  0.00    -0.252 OA
BRANCH   4   6
ATOM      6  C   UNL A   1      30.151  24.453  25.619  1.00  0.00     0.132 C 
BRANCH   6   7
ATOM      7  C   UNL A   1      29.869  25.823  24.900  1.00  0.00     0.114 C 
BRANCH   7   8
ATOM      8  C   UNL A   1      30.717  25.905  23.696  1.00  0.00     0.243 C 
ATOM      9  O   UNL A   1      30.886  25.014  22.887  1.00  0.00    -0.273 OA
BRANCH   8  10
ATOM     10  N   UNL A   1      31.387  27.082  23.775  1.00  0.00    -0.222 N 
ATOM     11  C   UNL A   1      31.272  28.213  22.794  1.00  0.00     0.183 C 
ATOM     12  C   UNL A   1      32.594  28.862  23.296  1.00  0.00     0.095 C 
ATOM     13  C   UNL A   1      32.702  28.475  24.761  1.00  0.00     0.081 C 
ATOM     14  N   UNL A   1      32.145  27.322  24.947  1.00  0.00    -0.173 NA
BRANCH  11  15
ATOM     15  C   UNL A   1      29.700  29.037  22.516  1.00  0.00     0.129 A 
ATOM     16  C   UNL A   1      28.230  31.831  20.663  1.00  0.00     0.087 C 
ATOM     17  C   UNL A   1      28.456  30.661  21.525  1.00  0.00     0.101 A 
ATOM     18  C   UNL A   1      27.689  30.249  22.562  1.00  0.00     0.045 A 
ATOM     19  O   UNL A   1      29.574  29.868  21.376  1.00  0.00    -0.464 OA
ATOM     20  C   UNL A   1      28.405  29.182  23.096  1.00  0.00     0.048 A 
ENDBRANCH  11  15
BRANCH  13  21
ATOM     21  C   UNL A   1      33.300  29.319  25.792  1.00  0.00     0.050 A 
ATOM     22  C   UNL A   1      34.515  29.284  26.471  1.00  0.00     0.022 A 
ATOM     23  S   UNL A   1      32.333  30.492  26.496  1.00  0.00    -0.142 S 
ATOM     24  C   UNL A   1      34.597  30.246  27.547  1.00  0.00     0.012 A 
ATOM     25  C   UNL A   1      33.497  31.065  27.573  1.00  0.00     0.065 A 
ENDBRANCH  13  21
ENDBRANCH   8  10
ENDBRANCH   7   8
ENDBRANCH   6   7
ENDBRANCH   4   6
ENDBRANCH   3   4
ENDBRANCH   2   3
ENDBRANCH   1   2
BRANCH   1  26
ATOM     26  O   UNL A   1      36.076  21.834  24.155  1.00  0.00    -0.374 OA
BRANCH  26  27
ATOM     27  C   UNL A   1      37.136  20.942  24.552  1.00  0.00     0.202 C 
BRANCH  27  28
ATOM     28  C   UNL A   1      38.413  21.017  25.434  1.00  0.00     0.261 C 
BRANCH  28  29
ATOM     29  O   UNL A   1      38.669  22.224  26.137  1.00  0.00    -0.460 OA
BRANCH  29  30
ATOM     30  C   UNL A   1      39.940  22.329  26.588  1.00  0.00     0.338 C 
ATOM     31  O   UNL A   1      40.798  21.485  26.500  1.00  0.00    -0.246 OA
BRANCH  30  32
ATOM     32  C   UNL A   1      40.206  23.714  27.051  1.00  0.00     0.060 A 
ATOM     33  C   UNL A   1      41.001  23.798  28.192  1.00  0.00     0.016 A 
ATOM     34  C   UNL A   1      39.758  24.886  26.416  1.00  0.00     0.016 A 
ATOM     35  C   UNL A   1      41.383  25.045  28.677  1.00  0.00     0.010 A 
ATOM     36  C   UNL A   1      40.146  26.152  26.908  1.00  0.00     0.010 A 
ATOM     37  C   UNL A   1      40.988  26.238  28.027  1.00  0.00    -0.014 A 
BRANCH  37  38
ATOM     38  C   UNL A   1      41.358  27.499  28.730  1.00  0.00     0.031 A 
ATOM     39  C   UNL A   1      42.771  27.928  28.514  1.00  0.00     0.074 A 
ATOM     40  C   UNL A   1      40.486  28.326  29.348  1.00  0.00     0.049 A 
ATOM     41  N   UNL A   1      43.338  29.078  28.746  1.00  0.00    -0.248 NA
ATOM     42  C   UNL A   1      43.671  26.894  27.971  1.00  0.00     0.031 C 
ATOM     43  C   UNL A   1      39.125  27.995  29.740  1.00  0.00     0.029 A 
ATOM     44  N   UNL A   1      40.592  29.664  29.682  1.00  0.00    -0.354 N 
ATOM     45  C   UNL A   1      44.672  28.885  28.436  1.00  0.00     0.074 A 
ATOM     46  C   UNL A   1      44.820  27.540  27.929  1.00  0.00     0.031 C 
ATOM     47  C   UNL A   1      38.461  29.123  30.056  1.00  0.00     0.029 A 
ATOM     48  C   UNL A   1      39.383  30.252  30.016  1.00  0.00     0.049 A 
ATOM     49  H   UNL A   1      41.447  30.152  29.681  1.00  0.00     0.167 HD
ATOM     50  C   UNL A   1      45.699  29.736  28.638  1.00  0.00     0.037 A 
ATOM     51  C   UNL A   1      39.077  31.548  30.266  1.00  0.00     0.037 A 
ATOM     52  C   UNL A   1      45.548  31.033  29.228  1.00  0.00     0.049 A 
ATOM     53  C   UNL A   1      40.237  32.508  30.410  1.00  0.00     0.074 A 
ATOM     54  C   UNL A   1      46.528  31.939  29.575  1.00  0.00     0.029 A 
ATOM     55  N   UNL A   1      44.328  31.593  29.585  1.00  0.00    -0.354 N 
ATOM     56  N   UNL A   1      41.507  32.319  30.140  1.00  0.00    -0.248 NA
ATOM     57  C   UNL A   1      39.941  33.829  30.989  1.00  0.00     0.031 C 
ATOM     58  C   UNL A   1      45.906  33.031  30.188  1.00  0.00     0.029 A 
ATOM     59  C   UNL A   1      44.534  32.837  30.154  1.00  0.00     0.049 A 
ATOM     60  H   UNL A   1      43.450  31.170  29.452  1.00  0.00     0.167 HD
ATOM     61  C   UNL A   1      42.162  33.469  30.557  1.00  0.00     0.074 A 
ATOM     62  C   UNL A   1      41.143  34.386  31.023  1.00  0.00     0.031 C 
ATOM     63  C   UNL A   1      43.492  33.728  30.599  1.00  0.00     0.037 A 
BRANCH  50  64
ATOM     64  C   UNL A   1      47.062  29.185  28.367  1.00  0.00     0.064 A 
ATOM     65  C   UNL A   1      47.618  29.175  27.079  1.00  0.00     0.173 A 
ATOM     66  C   UNL A   1      47.764  28.545  29.399  1.00  0.00     0.173 A 
ATOM     67  F   UNL A   1      46.950  29.718  26.051  1.00  0.00    -0.203 F 
ATOM     68  C   UNL A   1      48.816  28.512  26.829  1.00  0.00     0.198 A 
ATOM     69  C   UNL A   1      48.978  27.915  29.151  1.00  0.00     0.198 A 
ATOM     70  F   UNL A   1      47.254  28.497  30.637  1.00  0.00    -0.203 F 
ATOM     71  F   UNL A   1      49.287  28.434  25.577  1.00  0.00    -0.200 F 
ATOM     72  C   UNL A   1      49.496  27.888  27.865  1.00  0.00     0.200 A 
ATOM     73  F   UNL A   1      49.629  27.306  30.151  1.00  0.00    -0.200 F 
ATOM     74  F   UNL A   1      50.641  27.237  27.619  1.00  0.00    -0.200 F 
ENDBRANCH  50  64
BRANCH  51  75
ATOM     75  C   UNL A   1      37.674  32.042  30.491  1.00  0.00     0.064 A 
ATOM     76  C   UNL A   1      36.990  32.758  29.488  1.00  0.00     0.173 A 
ATOM     77  C   UNL A   1      37.016  31.910  31.722  1.00  0.00     0.173 A 
ATOM     78  F   UNL A   1      37.574  32.971  28.298  1.00  0.00    -0.203 F 
ATOM     79  C   UNL A   1      35.734  33.328  29.716  1.00  0.00     0.198 A 
ATOM     80  C   UNL A   1      35.737  32.434  31.932  1.00  0.00     0.198 A 
ATOM     81  F   UNL A   1      37.623  31.296  32.748  1.00  0.00    -0.203 F 
ATOM     82  F   UNL A   1      35.153  34.077  28.766  1.00  0.00    -0.200 F 
ATOM     83  C   UNL A   1      35.102  33.154  30.935  1.00  0.00     0.200 A 
ATOM     84  F   UNL A   1      35.132  32.258  33.115  1.00  0.00    -0.200 F 
ATOM     85  F   UNL A   1      33.898  33.700  31.158  1.00  0.00    -0.200 F 
ENDBRANCH  51  75
BRANCH  63  86
ATOM     86  C   UNL A   1      43.915  35.059  31.142  1.00  0.00     0.064 A 
ATOM     87  C   UNL A   1      44.259  35.232  32.491  1.00  0.00     0.173 A 
ATOM     88  C   UNL A   1      44.036  36.159  30.282  1.00  0.00     0.173 A 
ATOM     89  F   UNL A   1      44.148  34.211  33.355  1.00  0.00    -0.203 F 
ATOM     90  C   UNL A   1      44.686  36.469  32.964  1.00  0.00     0.198 A 
ATOM     91  C   UNL A   1      44.495  37.385  30.751  1.00  0.00     0.198 A 
ATOM     92  F   UNL A   1      43.728  36.039  28.983  1.00  0.00    -0.203 F 
ATOM     93  F   UNL A   1      44.965  36.627  34.266  1.00  0.00    -0.200 F 
ATOM     94  C   UNL A   1      44.813  37.541  32.093  1.00  0.00     0.200 A 
ATOM     95  F   UNL A   1      44.635  38.414  29.906  1.00  0.00    -0.200 F 
ATOM     96  F   UNL A   1      45.236  38.728  32.547  1.00  0.00    -0.200 F 
ENDBRANCH  63  86
ENDBRANCH  37  38
ENDBRANCH  30  32
ENDBRANCH  29  30
ENDBRANCH  28  29
ENDBRANCH  27  28
ENDBRANCH  26  27
ENDBRANCH   1  26
TORSDOF 19
ENDMDL
MODEL 3
REMARK VINA RESULT:     -12.3      3.150      5.811
REMARK SMILES Cc1ccc([C@H]2CC(c3cccs3)=NN2C(=O)CCC(=O)OCCOCCOC(=O)c2ccc(-c3c4nc(c(-c5c(F)c(F)c(F)c(F)c5F)c5ccc([nH]5)c(-c5c(F)c(F)c(F)c(F)c5F)c5nc(c(-c6c(F)c(F)c(F)c(F)c6F)c6ccc3[nH]6)C=C5)C=C4)cc2)o1
REMARK SMILES IDX 24 1 23 2 22 3 20 4 21 5 19 6 18 7 16 8 17 9 15 10 6 11 7 12
REMARK SMILES IDX 8 13 14 14 5 15 1 16 2 17 3 18 94 19 4 20 9 21 10 22 13 23
REMARK SMILES IDX 11 24 12 25 25 26 26 27 27 28 28 29 29 30 30 31 31 32 32 33
REMARK SMILES IDX 93 34 33 35 92 36 34 37 35 38 36 39 86 40 37 41 91 42 85 43
REMARK SMILES IDX 87 44 38 45 90 46 84 47 83 48 39 50 71 51 51 52 70 53 52 54
REMARK SMILES IDX 55 55 69 56 88 57 53 58 54 59 68 61 89 62 56 63 40 64 41 65
REMARK SMILES IDX 49 66 42 67 43 68 47 69 50 70 44 71 45 72 48 73 46 74 72 75
REMARK SMILES IDX 73 76 81 77 74 78 75 79 79 80 82 81 76 82 77 83 80 84 78 85
REMARK SMILES IDX 57 86 58 87 66 88 59 89 60 90 64 91 67 92 61 93 62 94 65 95
REMARK SMILES IDX 63 96
REMARK H PARENT 87 49 55 60
REMARK Flexibility Score: inf
ROOT
ATOM      1  C   UNL A   1      40.989  20.629  27.629  1.00  0.00     0.202 C 
ENDROOT
BRANCH   1   2
ATOM      2  C   UNL A   1      41.302  22.335  27.639  1.00  0.00     0.261 C 
BRANCH   2   3
ATOM      3  O   UNL A   1      40.147  23.397  27.623  1.00  0.00    -0.463 OA
BRANCH   3   4
ATOM      4  C   UNL A   1      39.352  24.121  26.711  1.00  0.00     0.306 C 
ATOM      5  O   UNL A   1      39.769  25.142  26.172  1.00  0.00    -0.252 OA
BRANCH   4   6
ATOM      6  C   UNL A   1      37.941  23.358  26.109  1.00  0.00     0.132 C 
BRANCH   6   7
ATOM      7  C   UNL A   1      36.567  23.931  25.601  1.00  0.00     0.114 C 
BRANCH   7   8
ATOM      8  C   UNL A   1      36.163  23.184  24.395  1.00  0.00     0.243 C 
ATOM      9  O   UNL A   1      36.454  23.475  23.251  1.00  0.00    -0.273 OA
BRANCH   8  10
ATOM     10  N   UNL A   1      35.280  22.239  24.805  1.00  0.00    -0.222 N 
ATOM     11  C   UNL A   1      33.961  22.513  25.466  1.00  0.00     0.183 C 
ATOM     12  C   UNL A   1      33.856  21.055  25.997  1.00  0.00     0.095 C 
ATOM     13  C   UNL A   1      34.601  20.203  24.985  1.00  0.00     0.081 C 
ATOM     14  N   UNL A   1      35.557  20.894  24.455  1.00  0.00    -0.173 NA
BRANCH  11  15
ATOM     15  C   UNL A   1      32.683  23.452  24.622  1.00  0.00     0.129 A 
ATOM     16  C   UNL A   1      29.920  25.758  25.291  1.00  0.00     0.087 C 
ATOM     17  C   UNL A   1      30.919  24.886  24.656  1.00  0.00     0.101 A 
ATOM     18  C   UNL A   1      30.832  24.290  23.443  1.00  0.00     0.045 A 
ATOM     19  O   UNL A   1      32.079  24.530  25.313  1.00  0.00    -0.464 OA
ATOM     20  C   UNL A   1      31.975  23.498  23.384  1.00  0.00     0.048 A 
ENDBRANCH  11  15
BRANCH  13  21
ATOM     21  C   UNL A   1      34.238  18.831  24.639  1.00  0.00     0.050 A 
ATOM     22  C   UNL A   1      34.979  17.700  24.306  1.00  0.00     0.022 A 
ATOM     23  S   UNL A   1      32.615  18.492  24.396  1.00  0.00    -0.142 S 
ATOM     24  C   UNL A   1      34.163  16.590  23.868  1.00  0.00     0.012 A 
ATOM     25  C   UNL A   1      32.826  16.866  24.003  1.00  0.00     0.065 A 
ENDBRANCH  13  21
ENDBRANCH   8  10
ENDBRANCH   7   8
ENDBRANCH   6   7
ENDBRANCH   4   6
ENDBRANCH   3   4
ENDBRANCH   2   3
ENDBRANCH   1   2
BRANCH   1  26
ATOM     26  O   UNL A   1      41.643  19.491  27.012  1.00  0.00    -0.374 OA
BRANCH  26  27
ATOM     27  C   UNL A   1      42.393  19.179  25.822  1.00  0.00     0.202 C 
BRANCH  27  28
ATOM     28  C   UNL A   1      43.679  18.384  25.466  1.00  0.00     0.261 C 
BRANCH  28  29
ATOM     29  O   UNL A   1      44.876  19.115  25.243  1.00  0.00    -0.460 OA
BRANCH  29  30
ATOM     30  C   UNL A   1      44.802  19.968  24.196  1.00  0.00     0.338 C 
ATOM     31  O   UNL A   1      44.541  19.674  23.056  1.00  0.00    -0.246 OA
BRANCH  30  32
ATOM     32  C   UNL A   1      44.903  21.371  24.671  1.00  0.00     0.060 A 
ATOM     33  C   UNL A   1      45.492  21.513  25.926  1.00  0.00     0.016 A 
ATOM     34  C   UNL A   1      44.495  22.508  23.951  1.00  0.00     0.016 A 
ATOM     35  C   UNL A   1      45.711  22.785  26.445  1.00  0.00     0.010 A 
ATOM     36  C   UNL A   1      44.717  23.799  24.477  1.00  0.00     0.010 A 
ATOM     37  C   UNL A   1      45.356  23.947  25.717  1.00  0.00    -0.014 A 
BRANCH  37  38
ATOM     38  C   UNL A   1      45.528  25.234  26.450  1.00  0.00     0.031 A 
ATOM     39  C   UNL A   1      46.816  25.932  26.166  1.00  0.00     0.074 A 
ATOM     40  C   UNL A   1      44.559  25.858  27.155  1.00  0.00     0.049 A 
ATOM     41  N   UNL A   1      47.169  27.162  26.412  1.00  0.00    -0.248 NA
ATOM     42  C   UNL A   1      47.857  25.107  25.526  1.00  0.00     0.031 C 
ATOM     43  C   UNL A   1      43.315  25.261  27.614  1.00  0.00     0.029 A 
ATOM     44  N   UNL A   1      44.432  27.181  27.537  1.00  0.00    -0.354 N 
ATOM     45  C   UNL A   1      48.492  27.238  26.013  1.00  0.00     0.074 A 
ATOM     46  C   UNL A   1      48.857  25.963  25.442  1.00  0.00     0.031 C 
ATOM     47  C   UNL A   1      42.473  26.230  28.018  1.00  0.00     0.029 A 
ATOM     48  C   UNL A   1      43.159  27.516  27.969  1.00  0.00     0.049 A 
ATOM     49  H   UNL A   1      45.177  27.824  27.505  1.00  0.00     0.167 HD
ATOM     50  C   UNL A   1      49.350  28.264  26.188  1.00  0.00     0.037 A 
ATOM     51  C   UNL A   1      42.630  28.721  28.293  1.00  0.00     0.037 A 
ATOM     52  C   UNL A   1      48.996  29.489  26.840  1.00  0.00     0.049 A 
ATOM     53  C   UNL A   1      43.594  29.881  28.406  1.00  0.00     0.074 A 
ATOM     54  C   UNL A   1      49.807  30.557  27.165  1.00  0.00     0.029 A 
ATOM     55  N   UNL A   1      47.719  29.795  27.295  1.00  0.00    -0.354 N 
ATOM     56  N   UNL A   1      44.856  29.947  28.051  1.00  0.00    -0.248 NA
ATOM     57  C   UNL A   1      43.093  31.102  29.057  1.00  0.00     0.031 C 
ATOM     58  C   UNL A   1      49.033  31.489  27.861  1.00  0.00     0.029 A 
ATOM     59  C   UNL A   1      47.723  31.037  27.902  1.00  0.00     0.049 A 
ATOM     60  H   UNL A   1      46.929  29.214  27.198  1.00  0.00     0.167 HD
ATOM     61  C   UNL A   1      45.308  31.189  28.475  1.00  0.00     0.074 A 
ATOM     62  C   UNL A   1      44.167  31.879  29.042  1.00  0.00     0.031 C 
ATOM     63  C   UNL A   1      46.564  31.697  28.448  1.00  0.00     0.037 A 
BRANCH  50  64
ATOM     64  C   UNL A   1      50.770  27.993  25.811  1.00  0.00     0.064 A 
ATOM     65  C   UNL A   1      51.212  28.050  24.480  1.00  0.00     0.173 A 
ATOM     66  C   UNL A   1      51.670  27.549  26.790  1.00  0.00     0.173 A 
ATOM     67  F   UNL A   1      50.365  28.407  23.503  1.00  0.00    -0.203 F 
ATOM     68  C   UNL A   1      52.496  27.637  24.141  1.00  0.00     0.198 A 
ATOM     69  C   UNL A   1      52.964  27.171  26.451  1.00  0.00     0.198 A 
ATOM     70  F   UNL A   1      51.282  27.443  28.069  1.00  0.00    -0.203 F 
ATOM     71  F   UNL A   1      52.870  27.611  22.854  1.00  0.00    -0.200 F 
ATOM     72  C   UNL A   1      53.371  27.204  25.126  1.00  0.00     0.200 A 
ATOM     73  F   UNL A   1      53.805  26.745  27.402  1.00  0.00    -0.200 F 
ATOM     74  F   UNL A   1      54.603  26.791  24.795  1.00  0.00    -0.200 F 
ENDBRANCH  50  64
BRANCH  51  75
ATOM     75  C   UNL A   1      41.178  28.929  28.623  1.00  0.00     0.064 A 
ATOM     76  C   UNL A   1      40.706  28.774  29.942  1.00  0.00     0.173 A 
ATOM     77  C   UNL A   1      40.210  29.187  27.641  1.00  0.00     0.173 A 
ATOM     78  F   UNL A   1      41.564  28.474  30.931  1.00  0.00    -0.203 F 
ATOM     79  C   UNL A   1      39.344  28.846  30.252  1.00  0.00     0.198 A 
ATOM     80  C   UNL A   1      38.855  29.314  27.960  1.00  0.00     0.198 A 
ATOM     81  F   UNL A   1      40.568  29.289  26.353  1.00  0.00    -0.203 F 
ATOM     82  F   UNL A   1      38.926  28.605  31.503  1.00  0.00    -0.200 F 
ATOM     83  C   UNL A   1      38.420  29.130  29.261  1.00  0.00     0.200 A 
ATOM     84  F   UNL A   1      37.967  29.591  26.994  1.00  0.00    -0.200 F 
ATOM     85  F   UNL A   1      37.114  29.199  29.554  1.00  0.00    -0.200 F 
ENDBRANCH  51  75
BRANCH  63  86
ATOM     86  C   UNL A   1      46.763  33.068  29.020  1.00  0.00     0.064 A 
ATOM     87  C   UNL A   1      47.124  33.264  30.361  1.00  0.00     0.173 A 
ATOM     88  C   UNL A   1      46.650  34.194  28.193  1.00  0.00     0.173 A 
ATOM     89  F   UNL A   1      47.232  32.217  31.194  1.00  0.00    -0.203 F 
ATOM     90  C   UNL A   1      47.340  34.545  30.860  1.00  0.00     0.198 A 
ATOM     91  C   UNL A   1      46.900  35.470  28.687  1.00  0.00     0.198 A 
ATOM     92  F   UNL A   1      46.316  34.055  26.902  1.00  0.00    -0.203 F 
ATOM     93  F   UNL A   1      47.639  34.716  32.156  1.00  0.00    -0.200 F 
ATOM     94  C   UNL A   1      47.238  35.645  30.021  1.00  0.00     0.200 A 
ATOM     95  F   UNL A   1      46.819  36.529  27.872  1.00  0.00    -0.200 F 
ATOM     96  F   UNL A   1      47.459  36.877  30.500  1.00  0.00    -0.200 F 
ENDBRANCH  63  86
ENDBRANCH  37  38
ENDBRANCH  30  32
ENDBRANCH  29  30
ENDBRANCH  28  29
ENDBRANCH  27  28
ENDBRANCH  26  27
ENDBRANCH   1  26
TORSDOF 19
ENDMDL
