MODEL 1
REMARK VINA RESULT:     -10.9      0.000      0.000
REMARK SMILES C[C@H](Nc1cccc(F)c1C(=O)OCCOCCOC(=O)c1ccc(-c2c3nc(c(-c4c(F)c(F)c(F)c(F)c4F)c4ccc([nH]4)c(-c4c(F)c(F)c(F)c(F)c4F)c4nc(c(-c5c(F)c(F)c(F)c(F)c5F)c5ccc2[nH]5)C=C4)C=C3)cc1)c1nccs1
REMARK SMILES IDX 15 1 14 2 13 3 11 4 12 5 10 6 4 7 5 8 6 9 8 10 7 11 9 12
REMARK SMILES IDX 3 13 2 15 1 16 85 17 86 18 89 19 87 20 88 21 16 22 17 23
REMARK SMILES IDX 18 24 19 25 20 26 21 27 22 28 23 29 84 30 24 31 83 32 25 33
REMARK SMILES IDX 26 34 27 35 77 36 28 37 82 38 76 39 78 40 29 41 81 42 75 43
REMARK SMILES IDX 74 44 30 46 62 47 42 48 61 49 43 50 46 51 60 52 79 53 44 54
REMARK SMILES IDX 45 55 59 57 80 58 47 59 31 60 32 61 40 62 33 63 34 64 38 65
REMARK SMILES IDX 41 66 35 67 36 68 39 69 37 70 63 71 64 72 72 73 65 74 66 75
REMARK SMILES IDX 70 76 73 77 67 78 68 79 71 80 69 81 48 82 49 83 57 84 50 85
REMARK SMILES IDX 51 86 55 87 58 88 52 89 53 90 56 91 54 92
REMARK H PARENT 3 14 78 45 46 56
REMARK Flexibility Score: inf
ROOT
ATOM      1  C   UNL A   1      33.264  27.659  25.328  1.00  0.00     0.202 C 
ENDROOT
BRANCH   1   2
ATOM      2  C   UNL A   1      33.633  26.794  24.120  1.00  0.00     0.261 C 
BRANCH   2   3
ATOM      3  O   UNL A   1      34.357  25.629  24.545  1.00  0.00    -0.460 OA
BRANCH   3   4
ATOM      4  C   UNL A   1      34.354  24.598  23.668  1.00  0.00     0.343 C 
ATOM      5  O   UNL A   1      34.165  24.667  22.463  1.00  0.00    -0.246 OA
BRANCH   4   6
ATOM      6  C   UNL A   1      34.808  23.378  24.352  1.00  0.00     0.118 A 
ATOM      7  C   UNL A   1      34.115  22.890  25.482  1.00  0.00     0.052 A 
ATOM      8  C   UNL A   1      34.641  21.765  26.132  1.00  0.00     0.027 A 
ATOM      9  C   UNL A   1      35.782  21.114  25.652  1.00  0.00     0.005 A 
ATOM     10  C   UNL A   1      35.936  22.718  23.866  1.00  0.00     0.139 A 
ATOM     11  C   UNL A   1      36.422  21.584  24.508  1.00  0.00     0.040 A 
ATOM     12  F   UNL A   1      36.575  23.161  22.774  1.00  0.00    -0.206 F 
BRANCH   7  13
ATOM     13  N   UNL A   1      32.933  23.457  25.939  1.00  0.00    -0.375 N 
ATOM     14  H   UNL A   1      33.006  24.119  26.665  1.00  0.00     0.161 HD
BRANCH  13  15
ATOM     15  C   UNL A   1      31.569  23.156  25.435  1.00  0.00     0.135 C 
ATOM     16  C   UNL A   1      30.628  22.548  26.476  1.00  0.00     0.039 C 
BRANCH  15  17
ATOM     17  C   UNL A   1      30.919  24.375  24.775  1.00  0.00     0.115 A 
ATOM     18  N   UNL A   1      30.813  24.592  23.479  1.00  0.00    -0.247 NA
ATOM     19  S   UNL A   1      30.179  25.578  25.778  1.00  0.00    -0.125 S 
ATOM     20  C   UNL A   1      30.016  25.697  23.254  1.00  0.00     0.123 A 
ATOM     21  C   UNL A   1      29.580  26.359  24.379  1.00  0.00     0.087 A 
ENDBRANCH  15  17
ENDBRANCH  13  15
ENDBRANCH   7  13
ENDBRANCH   4   6
ENDBRANCH   3   4
ENDBRANCH   2   3
ENDBRANCH   1   2
BRANCH   1  22
ATOM     22  O   UNL A   1      33.163  29.062  25.079  1.00  0.00    -0.374 OA
BRANCH  22  23
ATOM     23  C   UNL A   1      31.852  29.631  25.071  1.00  0.00     0.202 C 
BRANCH  23  24
ATOM     24  C   UNL A   1      31.626  30.852  25.968  1.00  0.00     0.261 C 
BRANCH  24  25
ATOM     25  O   UNL A   1      32.434  30.808  27.157  1.00  0.00    -0.460 OA
BRANCH  25  26
ATOM     26  C   UNL A   1      33.229  31.888  27.341  1.00  0.00     0.338 C 
ATOM     27  O   UNL A   1      32.905  33.064  27.301  1.00  0.00    -0.246 OA
BRANCH  26  28
ATOM     28  C   UNL A   1      34.569  31.457  27.782  1.00  0.00     0.060 A 
ATOM     29  C   UNL A   1      34.755  30.092  28.034  1.00  0.00     0.016 A 
ATOM     30  C   UNL A   1      35.601  32.369  28.015  1.00  0.00     0.016 A 
ATOM     31  C   UNL A   1      35.958  29.640  28.569  1.00  0.00     0.010 A 
ATOM     32  C   UNL A   1      36.806  31.914  28.561  1.00  0.00     0.010 A 
ATOM     33  C   UNL A   1      36.976  30.553  28.872  1.00  0.00    -0.014 A 
BRANCH  33  34
ATOM     34  C   UNL A   1      38.157  30.096  29.644  1.00  0.00     0.031 A 
ATOM     35  C   UNL A   1      38.353  30.603  31.046  1.00  0.00     0.074 A 
ATOM     36  C   UNL A   1      39.012  29.199  29.123  1.00  0.00     0.049 A 
ATOM     37  N   UNL A   1      39.315  30.346  31.895  1.00  0.00    -0.248 NA
ATOM     38  C   UNL A   1      37.325  31.520  31.564  1.00  0.00     0.031 C 
ATOM     39  C   UNL A   1      38.894  28.595  27.798  1.00  0.00     0.029 A 
ATOM     40  N   UNL A   1      40.146  28.635  29.653  1.00  0.00    -0.354 N 
ATOM     41  C   UNL A   1      39.005  31.060  33.044  1.00  0.00     0.074 A 
ATOM     42  C   UNL A   1      37.786  31.791  32.776  1.00  0.00     0.031 C 
ATOM     43  C   UNL A   1      39.915  27.738  27.618  1.00  0.00     0.029 A 
ATOM     44  C   UNL A   1      40.774  27.759  28.801  1.00  0.00     0.049 A 
ATOM     45  H   UNL A   1      40.477  28.838  30.557  1.00  0.00     0.167 HD
ATOM     46  C   UNL A   1      39.671  31.091  34.222  1.00  0.00     0.037 A 
ATOM     47  C   UNL A   1      41.918  27.065  28.957  1.00  0.00     0.037 A 
ATOM     48  C   UNL A   1      40.882  30.362  34.488  1.00  0.00     0.049 A 
ATOM     49  C   UNL A   1      42.689  27.190  30.246  1.00  0.00     0.074 A 
ATOM     50  C   UNL A   1      41.634  30.336  35.649  1.00  0.00     0.029 A 
ATOM     51  N   UNL A   1      41.519  29.531  33.579  1.00  0.00    -0.354 N 
ATOM     52  N   UNL A   1      42.391  27.868  31.326  1.00  0.00    -0.248 NA
ATOM     53  C   UNL A   1      43.959  26.453  30.335  1.00  0.00     0.031 C 
ATOM     54  C   UNL A   1      42.749  29.523  35.430  1.00  0.00     0.029 A 
ATOM     55  C   UNL A   1      42.666  29.002  34.148  1.00  0.00     0.049 A 
ATOM     56  H   UNL A   1      41.204  29.345  32.665  1.00  0.00     0.167 HD
ATOM     57  C   UNL A   1      43.413  27.620  32.231  1.00  0.00     0.074 A 
ATOM     58  C   UNL A   1      44.341  26.720  31.577  1.00  0.00     0.031 C 
ATOM     59  C   UNL A   1      43.570  28.095  33.491  1.00  0.00     0.037 A 
BRANCH  46  60
ATOM     60  C   UNL A   1      39.113  31.942  35.322  1.00  0.00     0.064 A 
ATOM     61  C   UNL A   1      39.399  33.314  35.376  1.00  0.00     0.173 A 
ATOM     62  C   UNL A   1      38.363  31.384  36.368  1.00  0.00     0.173 A 
ATOM     63  F   UNL A   1      40.116  33.894  34.401  1.00  0.00    -0.203 F 
ATOM     64  C   UNL A   1      38.972  34.094  36.447  1.00  0.00     0.198 A 
ATOM     65  C   UNL A   1      37.917  32.171  37.426  1.00  0.00     0.198 A 
ATOM     66  F   UNL A   1      38.053  30.079  36.355  1.00  0.00    -0.203 F 
ATOM     67  F   UNL A   1      39.287  35.395  36.496  1.00  0.00    -0.200 F 
ATOM     68  C   UNL A   1      38.230  33.522  37.470  1.00  0.00     0.200 A 
ATOM     69  F   UNL A   1      37.183  31.623  38.404  1.00  0.00    -0.200 F 
ATOM     70  F   UNL A   1      37.818  34.273  38.501  1.00  0.00    -0.200 F 
ENDBRANCH  46  60
BRANCH  47  71
ATOM     71  C   UNL A   1      42.405  26.185  27.863  1.00  0.00     0.064 A 
ATOM     72  C   UNL A   1      41.954  24.863  27.735  1.00  0.00     0.173 A 
ATOM     73  C   UNL A   1      43.328  26.653  26.919  1.00  0.00     0.173 A 
ATOM     74  F   UNL A   1      41.065  24.369  28.609  1.00  0.00    -0.203 F 
ATOM     75  C   UNL A   1      42.422  24.037  26.716  1.00  0.00     0.198 A 
ATOM     76  C   UNL A   1      43.776  25.834  25.883  1.00  0.00     0.198 A 
ATOM     77  F   UNL A   1      43.768  27.919  26.982  1.00  0.00    -0.203 F 
ATOM     78  F   UNL A   1      41.994  22.770  26.632  1.00  0.00    -0.200 F 
ATOM     79  C   UNL A   1      43.329  24.525  25.787  1.00  0.00     0.200 A 
ATOM     80  F   UNL A   1      44.630  26.318  24.971  1.00  0.00    -0.200 F 
ATOM     81  F   UNL A   1      43.765  23.737  24.795  1.00  0.00    -0.200 F 
ENDBRANCH  47  71
BRANCH  59  82
ATOM     82  C   UNL A   1      44.767  27.633  34.270  1.00  0.00     0.064 A 
ATOM     83  C   UNL A   1      44.688  26.491  35.081  1.00  0.00     0.173 A 
ATOM     84  C   UNL A   1      45.960  28.370  34.285  1.00  0.00     0.173 A 
ATOM     85  F   UNL A   1      43.564  25.758  35.108  1.00  0.00    -0.203 F 
ATOM     86  C   UNL A   1      45.753  26.112  35.892  1.00  0.00     0.198 A 
ATOM     87  C   UNL A   1      47.034  27.973  35.078  1.00  0.00     0.198 A 
ATOM     88  F   UNL A   1      46.088  29.463  33.520  1.00  0.00    -0.203 F 
ATOM     89  F   UNL A   1      45.641  25.039  36.687  1.00  0.00    -0.200 F 
ATOM     90  C   UNL A   1      46.926  26.852  35.888  1.00  0.00     0.200 A 
ATOM     91  F   UNL A   1      48.175  28.676  35.058  1.00  0.00    -0.200 F 
ATOM     92  F   UNL A   1      47.954  26.484  36.665  1.00  0.00    -0.200 F 
ENDBRANCH  59  82
ENDBRANCH  33  34
ENDBRANCH  26  28
ENDBRANCH  25  26
ENDBRANCH  24  25
ENDBRANCH  23  24
ENDBRANCH  22  23
ENDBRANCH   1  22
TORSDOF 17
ENDMDL
MODEL 2
REMARK VINA RESULT:     -10.8      4.643      9.976
REMARK SMILES C[C@H](Nc1cccc(F)c1C(=O)OCCOCCOC(=O)c1ccc(-c2c3nc(c(-c4c(F)c(F)c(F)c(F)c4F)c4ccc([nH]4)c(-c4c(F)c(F)c(F)c(F)c4F)c4nc(c(-c5c(F)c(F)c(F)c(F)c5F)c5ccc2[nH]5)C=C4)C=C3)cc1)c1nccs1
REMARK SMILES IDX 15 1 14 2 13 3 11 4 12 5 10 6 4 7 5 8 6 9 8 10 7 11 9 12
REMARK SMILES IDX 3 13 2 15 1 16 85 17 86 18 89 19 87 20 88 21 16 22 17 23
REMARK SMILES IDX 18 24 19 25 20 26 21 27 22 28 23 29 84 30 24 31 83 32 25 33
REMARK SMILES IDX 26 34 27 35 77 36 28 37 82 38 76 39 78 40 29 41 81 42 75 43
REMARK SMILES IDX 74 44 30 46 62 47 42 48 61 49 43 50 46 51 60 52 79 53 44 54
REMARK SMILES IDX 45 55 59 57 80 58 47 59 31 60 32 61 40 62 33 63 34 64 38 65
REMARK SMILES IDX 41 66 35 67 36 68 39 69 37 70 63 71 64 72 72 73 65 74 66 75
REMARK SMILES IDX 70 76 73 77 67 78 68 79 71 80 69 81 48 82 49 83 57 84 50 85
REMARK SMILES IDX 51 86 55 87 58 88 52 89 53 90 56 91 54 92
REMARK H PARENT 3 14 78 45 46 56
REMARK Flexibility Score: inf
ROOT
ATOM      1  C   UNL A   1      36.974  22.241  25.216  1.00  0.00     0.202 C 
ENDROOT
BRANCH   1   2
ATOM      2  C   UNL A   1      35.935  23.137  25.896  1.00  0.00     0.261 C 
BRANCH   2   3
ATOM      3  O   UNL A   1      35.439  24.115  24.968  1.00  0.00    -0.460 OA
BRANCH   3   4
ATOM      4  C   UNL A   1      34.401  23.707  24.201  1.00  0.00     0.343 C 
ATOM      5  O   UNL A   1      34.457  23.339  23.037  1.00  0.00    -0.246 OA
BRANCH   4   6
ATOM      6  C   UNL A   1      33.199  23.584  25.037  1.00  0.00     0.118 A 
ATOM      7  C   UNL A   1      32.575  22.329  25.216  1.00  0.00     0.052 A 
ATOM      8  C   UNL A   1      31.391  22.292  25.965  1.00  0.00     0.027 A 
ATOM      9  C   UNL A   1      30.869  23.447  26.559  1.00  0.00     0.005 A 
ATOM     10  C   UNL A   1      32.685  24.730  25.643  1.00  0.00     0.139 A 
ATOM     11  C   UNL A   1      31.526  24.665  26.409  1.00  0.00     0.040 A 
ATOM     12  F   UNL A   1      33.295  25.915  25.501  1.00  0.00    -0.206 F 
BRANCH   7  13
ATOM     13  N   UNL A   1      33.107  21.149  24.715  1.00  0.00    -0.375 N 
ATOM     14  H   UNL A   1      34.088  21.063  24.720  1.00  0.00     0.161 HD
BRANCH  13  15
ATOM     15  C   UNL A   1      32.333  20.006  24.170  1.00  0.00     0.135 C 
ATOM     16  C   UNL A   1      32.273  19.951  22.642  1.00  0.00     0.039 C 
BRANCH  15  17
ATOM     17  C   UNL A   1      32.813  18.666  24.734  1.00  0.00     0.115 A 
ATOM     18  N   UNL A   1      32.113  17.850  25.497  1.00  0.00    -0.247 NA
ATOM     19  S   UNL A   1      34.389  18.091  24.307  1.00  0.00    -0.125 S 
ATOM     20  C   UNL A   1      32.800  16.663  25.665  1.00  0.00     0.123 A 
ATOM     21  C   UNL A   1      34.050  16.610  25.091  1.00  0.00     0.087 A 
ENDBRANCH  15  17
ENDBRANCH  13  15
ENDBRANCH   7  13
ENDBRANCH   4   6
ENDBRANCH   3   4
ENDBRANCH   2   3
ENDBRANCH   1   2
BRANCH   1  22
ATOM     22  O   UNL A   1      36.969  20.870  25.620  1.00  0.00    -0.374 OA
BRANCH  22  23
ATOM     23  C   UNL A   1      37.789  19.968  24.874  1.00  0.00     0.202 C 
BRANCH  23  24
ATOM     24  C   UNL A   1      39.045  19.440  25.573  1.00  0.00     0.261 C 
BRANCH  24  25
ATOM     25  O   UNL A   1      40.042  20.463  25.743  1.00  0.00    -0.460 OA
BRANCH  25  26
ATOM     26  C   UNL A   1      40.665  20.452  26.944  1.00  0.00     0.338 C 
ATOM     27  O   UNL A   1      41.096  19.483  27.548  1.00  0.00    -0.246 OA
BRANCH  26  28
ATOM     28  C   UNL A   1      40.927  21.834  27.388  1.00  0.00     0.060 A 
ATOM     29  C   UNL A   1      40.305  22.867  26.676  1.00  0.00     0.016 A 
ATOM     30  C   UNL A   1      41.814  22.122  28.428  1.00  0.00     0.016 A 
ATOM     31  C   UNL A   1      40.606  24.194  26.967  1.00  0.00     0.010 A 
ATOM     32  C   UNL A   1      42.123  23.457  28.712  1.00  0.00     0.010 A 
ATOM     33  C   UNL A   1      41.547  24.497  27.961  1.00  0.00    -0.014 A 
BRANCH  33  34
ATOM     34  C   UNL A   1      42.026  25.892  28.109  1.00  0.00     0.031 A 
ATOM     35  C   UNL A   1      43.356  26.272  27.519  1.00  0.00     0.074 A 
ATOM     36  C   UNL A   1      41.262  26.820  28.711  1.00  0.00     0.049 A 
ATOM     37  N   UNL A   1      43.973  27.426  27.538  1.00  0.00    -0.248 NA
ATOM     38  C   UNL A   1      44.088  25.212  26.808  1.00  0.00     0.031 C 
ATOM     39  C   UNL A   1      39.934  26.582  29.270  1.00  0.00     0.029 A 
ATOM     40  N   UNL A   1      41.495  28.152  28.944  1.00  0.00    -0.354 N 
ATOM     41  C   UNL A   1      45.156  27.233  26.839  1.00  0.00     0.074 A 
ATOM     42  C   UNL A   1      45.193  25.844  26.438  1.00  0.00     0.031 C 
ATOM     43  C   UNL A   1      39.464  27.734  29.780  1.00  0.00     0.029 A 
ATOM     44  C   UNL A   1      40.472  28.780  29.612  1.00  0.00     0.049 A 
ATOM     45  H   UNL A   1      42.316  28.614  28.660  1.00  0.00     0.167 HD
ATOM     46  C   UNL A   1      46.120  28.138  26.547  1.00  0.00     0.037 A 
ATOM     47  C   UNL A   1      40.369  30.051  30.048  1.00  0.00     0.037 A 
ATOM     48  C   UNL A   1      46.081  29.520  26.945  1.00  0.00     0.049 A 
ATOM     49  C   UNL A   1      41.498  31.015  29.788  1.00  0.00     0.074 A 
ATOM     50  C   UNL A   1      47.014  30.512  26.701  1.00  0.00     0.029 A 
ATOM     51  N   UNL A   1      45.054  30.104  27.671  1.00  0.00    -0.354 N 
ATOM     52  N   UNL A   1      42.614  30.824  29.129  1.00  0.00    -0.248 NA
ATOM     53  C   UNL A   1      41.353  32.372  30.337  1.00  0.00     0.031 C 
ATOM     54  C   UNL A   1      46.573  31.688  27.316  1.00  0.00     0.029 A 
ATOM     55  C   UNL A   1      45.341  31.440  27.901  1.00  0.00     0.049 A 
ATOM     56  H   UNL A   1      44.243  29.639  27.979  1.00  0.00     0.167 HD
ATOM     57  C   UNL A   1      43.289  32.037  29.156  1.00  0.00     0.074 A 
ATOM     58  C   UNL A   1      42.454  32.964  29.892  1.00  0.00     0.031 C 
ATOM     59  C   UNL A   1      44.493  32.354  28.620  1.00  0.00     0.037 A 
BRANCH  46  60
ATOM     60  C   UNL A   1      47.305  27.672  25.759  1.00  0.00     0.064 A 
ATOM     61  C   UNL A   1      48.473  27.250  26.411  1.00  0.00     0.173 A 
ATOM     62  C   UNL A   1      47.315  27.720  24.357  1.00  0.00     0.173 A 
ATOM     63  F   UNL A   1      48.515  27.190  27.751  1.00  0.00    -0.203 F 
ATOM     64  C   UNL A   1      49.615  26.913  25.690  1.00  0.00     0.198 A 
ATOM     65  C   UNL A   1      48.451  27.359  23.637  1.00  0.00     0.198 A 
ATOM     66  F   UNL A   1      46.219  28.105  23.687  1.00  0.00    -0.203 F 
ATOM     67  F   UNL A   1      50.731  26.547  26.336  1.00  0.00    -0.200 F 
ATOM     68  C   UNL A   1      49.603  26.966  24.304  1.00  0.00     0.200 A 
ATOM     69  F   UNL A   1      48.433  27.392  22.298  1.00  0.00    -0.200 F 
ATOM     70  F   UNL A   1      50.702  26.640  23.610  1.00  0.00    -0.200 F 
ENDBRANCH  46  60
BRANCH  47  71
ATOM     71  C   UNL A   1      39.148  30.488  30.773  1.00  0.00     0.064 A 
ATOM     72  C   UNL A   1      38.063  31.062  30.095  1.00  0.00     0.173 A 
ATOM     73  C   UNL A   1      39.042  30.337  32.162  1.00  0.00     0.173 A 
ATOM     74  F   UNL A   1      38.112  31.222  28.764  1.00  0.00    -0.203 F 
ATOM     75  C   UNL A   1      36.925  31.482  30.780  1.00  0.00     0.198 A 
ATOM     76  C   UNL A   1      37.893  30.733  32.844  1.00  0.00     0.198 A 
ATOM     77  F   UNL A   1      40.043  29.769  32.851  1.00  0.00    -0.203 F 
ATOM     78  F   UNL A   1      35.912  32.049  30.110  1.00  0.00    -0.200 F 
ATOM     79  C   UNL A   1      36.838  31.312  32.153  1.00  0.00     0.200 A 
ATOM     80  F   UNL A   1      37.801  30.541  34.166  1.00  0.00    -0.200 F 
ATOM     81  F   UNL A   1      35.737  31.699  32.810  1.00  0.00    -0.200 F 
ENDBRANCH  47  71
BRANCH  59  82
ATOM     82  C   UNL A   1      44.978  33.766  28.772  1.00  0.00     0.064 A 
ATOM     83  C   UNL A   1      44.710  34.719  27.778  1.00  0.00     0.173 A 
ATOM     84  C   UNL A   1      45.782  34.152  29.854  1.00  0.00     0.173 A 
ATOM     85  F   UNL A   1      43.953  34.396  26.718  1.00  0.00    -0.203 F 
ATOM     86  C   UNL A   1      45.243  36.002  27.852  1.00  0.00     0.198 A 
ATOM     87  C   UNL A   1      46.293  35.445  29.939  1.00  0.00     0.198 A 
ATOM     88  F   UNL A   1      46.058  33.280  30.835  1.00  0.00    -0.203 F 
ATOM     89  F   UNL A   1      45.006  36.884  26.871  1.00  0.00    -0.200 F 
ATOM     90  C   UNL A   1      46.032  36.364  28.933  1.00  0.00     0.200 A 
ATOM     91  F   UNL A   1      47.037  35.802  30.995  1.00  0.00    -0.200 F 
ATOM     92  F   UNL A   1      46.541  37.602  29.007  1.00  0.00    -0.200 F 
ENDBRANCH  59  82
ENDBRANCH  33  34
ENDBRANCH  26  28
ENDBRANCH  25  26
ENDBRANCH  24  25
ENDBRANCH  23  24
ENDBRANCH  22  23
ENDBRANCH   1  22
TORSDOF 17
ENDMDL
MODEL 3
REMARK VINA RESULT:     -10.7      0.495      2.006
REMARK SMILES C[C@H](Nc1cccc(F)c1C(=O)OCCOCCOC(=O)c1ccc(-c2c3nc(c(-c4c(F)c(F)c(F)c(F)c4F)c4ccc([nH]4)c(-c4c(F)c(F)c(F)c(F)c4F)c4nc(c(-c5c(F)c(F)c(F)c(F)c5F)c5ccc2[nH]5)C=C4)C=C3)cc1)c1nccs1
REMARK SMILES IDX 15 1 14 2 13 3 11 4 12 5 10 6 4 7 5 8 6 9 8 10 7 11 9 12
REMARK SMILES IDX 3 13 2 15 1 16 85 17 86 18 89 19 87 20 88 21 16 22 17 23
REMARK SMILES IDX 18 24 19 25 20 26 21 27 22 28 23 29 84 30 24 31 83 32 25 33
REMARK SMILES IDX 26 34 27 35 77 36 28 37 82 38 76 39 78 40 29 41 81 42 75 43
REMARK SMILES IDX 74 44 30 46 62 47 42 48 61 49 43 50 46 51 60 52 79 53 44 54
REMARK SMILES IDX 45 55 59 57 80 58 47 59 31 60 32 61 40 62 33 63 34 64 38 65
REMARK SMILES IDX 41 66 35 67 36 68 39 69 37 70 63 71 64 72 72 73 65 74 66 75
REMARK SMILES IDX 70 76 73 77 67 78 68 79 71 80 69 81 48 82 49 83 57 84 50 85
REMARK SMILES IDX 51 86 55 87 58 88 52 89 53 90 56 91 54 92
REMARK H PARENT 3 14 78 45 46 56
REMARK Flexibility Score: inf
ROOT
ATOM      1  C   UNL A   1      33.265  27.599  25.298  1.00  0.00     0.202 C 
ENDROOT
BRANCH   1   2
ATOM      2  C   UNL A   1      33.749  26.829  24.067  1.00  0.00     0.261 C 
BRANCH   2   3
ATOM      3  O   UNL A   1      34.480  25.659  24.466  1.00  0.00    -0.460 OA
BRANCH   3   4
ATOM      4  C   UNL A   1      34.327  24.581  23.662  1.00  0.00     0.343 C 
ATOM      5  O   UNL A   1      34.047  24.594  22.473  1.00  0.00    -0.246 OA
BRANCH   4   6
ATOM      6  C   UNL A   1      34.738  23.371  24.389  1.00  0.00     0.118 A 
ATOM      7  C   UNL A   1      34.059  22.974  25.562  1.00  0.00     0.052 A 
ATOM      8  C   UNL A   1      34.547  21.853  26.247  1.00  0.00     0.027 A 
ATOM      9  C   UNL A   1      35.635  21.119  25.762  1.00  0.00     0.005 A 
ATOM     10  C   UNL A   1      35.812  22.629  23.899  1.00  0.00     0.139 A 
ATOM     11  C   UNL A   1      36.259  21.501  24.578  1.00  0.00     0.040 A 
ATOM     12  F   UNL A   1      36.436  22.986  22.767  1.00  0.00    -0.206 F 
BRANCH   7  13
ATOM     13  N   UNL A   1      32.925  23.625  26.029  1.00  0.00    -0.375 N 
ATOM     14  H   UNL A   1      33.061  24.335  26.698  1.00  0.00     0.161 HD
BRANCH  13  15
ATOM     15  C   UNL A   1      31.528  23.349  25.613  1.00  0.00     0.135 C 
ATOM     16  C   UNL A   1      30.608  22.889  26.745  1.00  0.00     0.039 C 
BRANCH  15  17
ATOM     17  C   UNL A   1      30.906  24.532  24.866  1.00  0.00     0.115 A 
ATOM     18  N   UNL A   1      30.806  24.659  23.558  1.00  0.00    -0.247 NA
ATOM     19  S   UNL A   1      30.192  25.819  25.779  1.00  0.00    -0.125 S 
ATOM     20  C   UNL A   1      30.035  25.763  23.253  1.00  0.00     0.123 A 
ATOM     21  C   UNL A   1      29.612  26.512  24.327  1.00  0.00     0.087 A 
ENDBRANCH  15  17
ENDBRANCH  13  15
ENDBRANCH   7  13
ENDBRANCH   4   6
ENDBRANCH   3   4
ENDBRANCH   2   3
ENDBRANCH   1   2
BRANCH   1  22
ATOM     22  O   UNL A   1      33.254  29.022  25.174  1.00  0.00    -0.374 OA
BRANCH  22  23
ATOM     23  C   UNL A   1      31.980  29.670  25.203  1.00  0.00     0.202 C 
BRANCH  23  24
ATOM     24  C   UNL A   1      31.825  30.841  26.178  1.00  0.00     0.261 C 
BRANCH  24  25
ATOM     25  O   UNL A   1      32.700  30.720  27.314  1.00  0.00    -0.460 OA
BRANCH  25  26
ATOM     26  C   UNL A   1      33.487  31.799  27.539  1.00  0.00     0.338 C 
ATOM     27  O   UNL A   1      33.148  32.971  27.571  1.00  0.00    -0.246 OA
BRANCH  26  28
ATOM     28  C   UNL A   1      34.841  31.362  27.926  1.00  0.00     0.060 A 
ATOM     29  C   UNL A   1      35.030  29.997  28.176  1.00  0.00     0.016 A 
ATOM     30  C   UNL A   1      35.887  32.270  28.113  1.00  0.00     0.016 A 
ATOM     31  C   UNL A   1      36.251  29.540  28.662  1.00  0.00     0.010 A 
ATOM     32  C   UNL A   1      37.111  31.809  28.611  1.00  0.00     0.010 A 
ATOM     33  C   UNL A   1      37.287  30.449  28.920  1.00  0.00    -0.014 A 
BRANCH  33  34
ATOM     34  C   UNL A   1      38.496  29.987  29.644  1.00  0.00     0.031 A 
ATOM     35  C   UNL A   1      38.769  30.524  31.022  1.00  0.00     0.074 A 
ATOM     36  C   UNL A   1      39.308  29.063  29.104  1.00  0.00     0.049 A 
ATOM     37  N   UNL A   1      39.766  30.268  31.829  1.00  0.00    -0.248 NA
ATOM     38  C   UNL A   1      37.783  31.471  31.567  1.00  0.00     0.031 C 
ATOM     39  C   UNL A   1      39.115  28.430  27.801  1.00  0.00     0.029 A 
ATOM     40  N   UNL A   1      40.456  28.490  29.592  1.00  0.00    -0.354 N 
ATOM     41  C   UNL A   1      39.525  31.015  32.975  1.00  0.00     0.074 A 
ATOM     42  C   UNL A   1      38.308  31.761  32.749  1.00  0.00     0.031 C 
ATOM     43  C   UNL A   1      40.111  27.551  27.593  1.00  0.00     0.029 A 
ATOM     44  C   UNL A   1      41.026  27.584  28.732  1.00  0.00     0.049 A 
ATOM     45  H   UNL A   1      40.835  28.708  30.474  1.00  0.00     0.167 HD
ATOM     46  C   UNL A   1      40.249  31.060  34.118  1.00  0.00     0.037 A 
ATOM     47  C   UNL A   1      42.165  26.872  28.848  1.00  0.00     0.037 A 
ATOM     48  C   UNL A   1      41.459  30.315  34.342  1.00  0.00     0.049 A 
ATOM     49  C   UNL A   1      42.999  27.012  30.095  1.00  0.00     0.074 A 
ATOM     50  C   UNL A   1      42.266  30.302  35.466  1.00  0.00     0.029 A 
ATOM     51  N   UNL A   1      42.036  29.451  33.424  1.00  0.00    -0.354 N 
ATOM     52  N   UNL A   1      42.767  27.721  31.172  1.00  0.00    -0.248 NA
ATOM     53  C   UNL A   1      44.260  26.254  30.140  1.00  0.00     0.031 C 
ATOM     54  C   UNL A   1      43.355  29.463  35.213  1.00  0.00     0.029 A 
ATOM     55  C   UNL A   1      43.200  28.915  33.949  1.00  0.00     0.049 A 
ATOM     56  H   UNL A   1      41.673  29.250  32.531  1.00  0.00     0.167 HD
ATOM     57  C   UNL A   1      43.828  27.475  32.032  1.00  0.00     0.074 A 
ATOM     58  C   UNL A   1      44.707  26.543  31.356  1.00  0.00     0.031 C 
ATOM     59  C   UNL A   1      44.055  27.976  33.271  1.00  0.00     0.037 A 
BRANCH  46  60
ATOM     60  C   UNL A   1      39.760  31.947  35.223  1.00  0.00     0.064 A 
ATOM     61  C   UNL A   1      38.792  31.488  36.128  1.00  0.00     0.173 A 
ATOM     62  C   UNL A   1      40.189  33.278  35.335  1.00  0.00     0.173 A 
ATOM     63  F   UNL A   1      38.347  30.224  36.060  1.00  0.00    -0.203 F 
ATOM     64  C   UNL A   1      38.256  32.335  37.094  1.00  0.00     0.198 A 
ATOM     65  C   UNL A   1      39.668  34.116  36.317  1.00  0.00     0.198 A 
ATOM     66  F   UNL A   1      41.122  33.759  34.500  1.00  0.00    -0.203 F 
ATOM     67  F   UNL A   1      37.306  31.886  37.926  1.00  0.00    -0.200 F 
ATOM     68  C   UNL A   1      38.695  33.647  37.189  1.00  0.00     0.200 A 
ATOM     69  F   UNL A   1      40.107  35.378  36.422  1.00  0.00    -0.200 F 
ATOM     70  F   UNL A   1      38.179  34.463  38.120  1.00  0.00    -0.200 F 
ENDBRANCH  46  60
BRANCH  47  71
ATOM     71  C   UNL A   1      42.582  25.958  27.754  1.00  0.00     0.064 A 
ATOM     72  C   UNL A   1      43.458  26.382  26.743  1.00  0.00     0.173 A 
ATOM     73  C   UNL A   1      42.114  24.638  27.700  1.00  0.00     0.173 A 
ATOM     74  F   UNL A   1      43.939  27.633  26.753  1.00  0.00    -0.203 F 
ATOM     75  C   UNL A   1      43.836  25.525  25.712  1.00  0.00     0.198 A 
ATOM     76  C   UNL A   1      42.514  23.774  26.682  1.00  0.00     0.198 A 
ATOM     77  F   UNL A   1      41.296  24.178  28.658  1.00  0.00    -0.203 F 
ATOM     78  F   UNL A   1      44.655  25.964  24.746  1.00  0.00    -0.200 F 
ATOM     79  C   UNL A   1      43.369  24.220  25.685  1.00  0.00     0.200 A 
ATOM     80  F   UNL A   1      42.083  22.506  26.675  1.00  0.00    -0.200 F 
ATOM     81  F   UNL A   1      43.747  23.391  24.703  1.00  0.00    -0.200 F 
ENDBRANCH  47  71
BRANCH  59  82
ATOM     82  C   UNL A   1      45.280  27.510  34.002  1.00  0.00     0.064 A 
ATOM     83  C   UNL A   1      46.503  28.177  33.833  1.00  0.00     0.173 A 
ATOM     84  C   UNL A   1      45.264  26.356  34.797  1.00  0.00     0.173 A 
ATOM     85  F   UNL A   1      46.572  29.281  33.074  1.00  0.00    -0.203 F 
ATOM     86  C   UNL A   1      47.669  27.694  34.418  1.00  0.00     0.198 A 
ATOM     87  C   UNL A   1      46.428  25.890  35.403  1.00  0.00     0.198 A 
ATOM     88  F   UNL A   1      44.117  25.690  34.998  1.00  0.00    -0.203 F 
ATOM     89  F   UNL A   1      48.834  28.325  34.211  1.00  0.00    -0.200 F 
ATOM     90  C   UNL A   1      47.631  26.553  35.204  1.00  0.00     0.200 A 
ATOM     91  F   UNL A   1      46.386  24.799  36.181  1.00  0.00    -0.200 F 
ATOM     92  F   UNL A   1      48.753  26.091  35.772  1.00  0.00    -0.200 F 
ENDBRANCH  59  82
ENDBRANCH  33  34
ENDBRANCH  26  28
ENDBRANCH  25  26
ENDBRANCH  24  25
ENDBRANCH  23  24
ENDBRANCH  22  23
ENDBRANCH   1  22
TORSDOF 17
ENDMDL
