MODEL 1
REMARK VINA RESULT:     -10.9      0.000      0.000
REMARK SMILES CSCC[C@H](NC(=O)N[C@@H]1CCCCC1(C)C)C(=O)OCCOCCOC(=O)c1ccc(-c2c3nc(c(-c4c(F)c(F)c(F)c(F)c4F)c4ccc([nH]4)c(-c4c(F)c(F)c(F)c(F)c4F)c4nc(c(-c5c(F)c(F)c(F)c(F)c5F)c5ccc2[nH]5)C=C4)C=C3)cc1
REMARK SMILES IDX 22 1 21 2 20 3 18 4 19 5 5 6 4 7 3 8 2 9 1 10 6 11 7 12 8 14
REMARK SMILES IDX 9 15 10 17 11 18 15 19 12 20 14 21 16 22 17 23 13 24 23 25
REMARK SMILES IDX 24 26 25 27 26 28 27 29 28 30 29 31 30 32 91 33 31 34 90 35
REMARK SMILES IDX 32 36 33 37 34 38 84 39 35 40 89 41 83 42 85 43 36 44 88 45
REMARK SMILES IDX 82 46 81 47 37 49 69 50 49 51 68 52 50 53 53 54 67 55 86 56
REMARK SMILES IDX 51 57 52 58 66 60 87 61 54 62 38 63 39 64 47 65 40 66 41 67
REMARK SMILES IDX 45 68 48 69 42 70 43 71 46 72 44 73 70 74 71 75 79 76 72 77
REMARK SMILES IDX 73 78 77 79 80 80 74 81 75 82 78 83 76 84 55 85 56 86 64 87
REMARK SMILES IDX 57 88 58 89 62 90 65 91 59 92 60 93 63 94 61 95
REMARK H PARENT 6 13 9 16 85 48 53 59
REMARK Flexibility Score: inf
ROOT
ATOM      1  C   UNL A   1      33.052  29.968  26.604  1.00  0.00     0.202 C 
ENDROOT
BRANCH   1   2
ATOM      2  C   UNL A   1      33.248  29.637  25.116  1.00  0.00     0.261 C 
BRANCH   2   3
ATOM      3  O   UNL A   1      33.207  28.250  24.747  1.00  0.00    -0.462 OA
BRANCH   3   4
ATOM      4  C   UNL A   1      31.961  27.880  24.354  1.00  0.00     0.328 C 
ATOM      5  O   UNL A   1      31.189  27.251  25.071  1.00  0.00    -0.250 OA
BRANCH   4   6
ATOM      6  C   UNL A   1      31.663  28.140  22.881  1.00  0.00     0.194 C 
BRANCH   6   7
ATOM      7  C   UNL A   1      30.144  28.101  22.649  1.00  0.00     0.048 C 
BRANCH   7   8
ATOM      8  C   UNL A   1      29.360  29.355  23.092  1.00  0.00     0.072 C 
BRANCH   8   9
ATOM      9  S   UNL A   1      28.336  30.182  21.820  1.00  0.00    -0.165 SA
ATOM     10  C   UNL A   1      27.818  31.702  22.677  1.00  0.00     0.085 C 
ENDBRANCH   8   9
ENDBRANCH   7   8
ENDBRANCH   6   7
BRANCH   6  11
ATOM     11  N   UNL A   1      32.413  27.288  21.928  1.00  0.00    -0.325 N 
ATOM     12  C   UNL A   1      32.880  26.043  21.806  1.00  0.00     0.315 C 
ATOM     13  H   UNL A   1      32.641  27.809  21.124  1.00  0.00     0.166 HD
ATOM     14  O   UNL A   1      33.209  25.735  20.650  1.00  0.00    -0.249 OA
ATOM     15  N   UNL A   1      33.042  25.066  22.699  1.00  0.00    -0.335 N 
ATOM     16  H   UNL A   1      33.148  24.232  22.189  1.00  0.00     0.165 HD
BRANCH  15  17
ATOM     17  C   UNL A   1      33.131  24.695  24.164  1.00  0.00     0.089 C 
ATOM     18  C   UNL A   1      34.607  24.724  24.610  1.00  0.00     0.025 C 
ATOM     19  C   UNL A   1      32.508  23.351  24.555  1.00  0.00    -0.015 C 
ATOM     20  C   UNL A   1      35.438  23.639  23.927  1.00  0.00     0.002 C 
ATOM     21  C   UNL A   1      33.249  22.307  23.664  1.00  0.00     0.008 C 
ATOM     22  C   UNL A   1      32.688  22.853  26.012  1.00  0.00     0.013 C 
ATOM     23  C   UNL A   1      30.981  23.610  24.500  1.00  0.00     0.013 C 
ATOM     24  C   UNL A   1      34.772  22.261  23.898  1.00  0.00     0.001 C 
ENDBRANCH  15  17
ENDBRANCH   6  11
ENDBRANCH   4   6
ENDBRANCH   3   4
ENDBRANCH   2   3
ENDBRANCH   1   2
BRANCH   1  25
ATOM     25  O   UNL A   1      31.828  30.507  27.073  1.00  0.00    -0.374 OA
BRANCH  25  26
ATOM     26  C   UNL A   1      31.356  31.760  26.588  1.00  0.00     0.202 C 
BRANCH  26  27
ATOM     27  C   UNL A   1      32.088  33.061  26.935  1.00  0.00     0.261 C 
BRANCH  27  28
ATOM     28  O   UNL A   1      32.579  33.107  28.285  1.00  0.00    -0.460 OA
BRANCH  28  29
ATOM     29  C   UNL A   1      33.643  33.927  28.460  1.00  0.00     0.338 C 
ATOM     30  O   UNL A   1      33.635  35.125  28.674  1.00  0.00    -0.246 OA
BRANCH  29  31
ATOM     31  C   UNL A   1      34.876  33.132  28.580  1.00  0.00     0.060 A 
ATOM     32  C   UNL A   1      34.772  31.883  29.202  1.00  0.00     0.016 A 
ATOM     33  C   UNL A   1      36.119  33.664  28.235  1.00  0.00     0.016 A 
ATOM     34  C   UNL A   1      35.920  31.177  29.533  1.00  0.00     0.010 A 
ATOM     35  C   UNL A   1      37.276  32.965  28.594  1.00  0.00     0.010 A 
ATOM     36  C   UNL A   1      37.174  31.748  29.288  1.00  0.00    -0.014 A 
BRANCH  36  37
ATOM     37  C   UNL A   1      38.337  31.147  29.978  1.00  0.00     0.031 A 
ATOM     38  C   UNL A   1      38.561  31.486  31.426  1.00  0.00     0.074 A 
ATOM     39  C   UNL A   1      39.085  30.219  29.362  1.00  0.00     0.049 A 
ATOM     40  N   UNL A   1      39.427  30.991  32.272  1.00  0.00    -0.248 NA
ATOM     41  C   UNL A   1      37.676  32.512  32.003  1.00  0.00     0.031 C 
ATOM     42  C   UNL A   1      38.910  29.780  27.979  1.00  0.00     0.029 A 
ATOM     43  N   UNL A   1      40.125  29.460  29.831  1.00  0.00    -0.354 N 
ATOM     44  C   UNL A   1      39.187  31.638  33.477  1.00  0.00     0.074 A 
ATOM     45  C   UNL A   1      38.118  32.584  33.248  1.00  0.00     0.031 C 
ATOM     46  C   UNL A   1      39.812  28.819  27.712  1.00  0.00     0.029 A 
ATOM     47  C   UNL A   1      40.634  28.591  28.899  1.00  0.00     0.049 A 
ATOM     48  H   UNL A   1      40.474  29.532  30.748  1.00  0.00     0.167 HD
ATOM     49  C   UNL A   1      39.797  31.448  34.670  1.00  0.00     0.037 A 
ATOM     50  C   UNL A   1      41.651  27.715  29.001  1.00  0.00     0.037 A 
ATOM     51  C   UNL A   1      40.866  30.509  34.884  1.00  0.00     0.049 A 
ATOM     52  C   UNL A   1      42.352  27.566  30.325  1.00  0.00     0.074 A 
ATOM     53  C   UNL A   1      41.568  30.244  36.046  1.00  0.00     0.029 A 
ATOM     54  N   UNL A   1      41.393  29.683  33.900  1.00  0.00    -0.354 N 
ATOM     55  N   UNL A   1      42.112  28.171  31.464  1.00  0.00    -0.248 NA
ATOM     56  C   UNL A   1      43.458  26.601  30.380  1.00  0.00     0.031 C 
ATOM     57  C   UNL A   1      42.551  29.291  35.754  1.00  0.00     0.029 A 
ATOM     58  C   UNL A   1      42.424  28.921  34.424  1.00  0.00     0.049 A 
ATOM     59  H   UNL A   1      41.080  29.645  32.967  1.00  0.00     0.167 HD
ATOM     60  C   UNL A   1      43.014  27.640  32.377  1.00  0.00     0.074 A 
ATOM     61  C   UNL A   1      43.794  26.651  31.660  1.00  0.00     0.031 C 
ATOM     62  C   UNL A   1      43.183  27.941  33.689  1.00  0.00     0.037 A 
BRANCH  49  63
ATOM     63  C   UNL A   1      39.344  32.297  35.822  1.00  0.00     0.064 A 
ATOM     64  C   UNL A   1      38.372  31.853  36.732  1.00  0.00     0.173 A 
ATOM     65  C   UNL A   1      39.899  33.570  36.027  1.00  0.00     0.173 A 
ATOM     66  F   UNL A   1      37.795  30.653  36.572  1.00  0.00    -0.203 F 
ATOM     67  C   UNL A   1      37.957  32.660  37.789  1.00  0.00     0.198 A 
ATOM     68  C   UNL A   1      39.502  34.363  37.100  1.00  0.00     0.198 A 
ATOM     69  F   UNL A   1      40.830  34.044  35.185  1.00  0.00    -0.203 F 
ATOM     70  F   UNL A   1      36.994  32.235  38.618  1.00  0.00    -0.200 F 
ATOM     71  C   UNL A   1      38.526  33.911  37.975  1.00  0.00     0.200 A 
ATOM     72  F   UNL A   1      40.059  35.568  37.283  1.00  0.00    -0.200 F 
ATOM     73  F   UNL A   1      38.129  34.685  38.995  1.00  0.00    -0.200 F 
ENDBRANCH  49  63
BRANCH  50  74
ATOM     74  C   UNL A   1      42.056  26.909  27.819  1.00  0.00     0.064 A 
ATOM     75  C   UNL A   1      43.033  27.366  26.925  1.00  0.00     0.173 A 
ATOM     76  C   UNL A   1      41.465  25.664  27.559  1.00  0.00     0.173 A 
ATOM     77  F   UNL A   1      43.614  28.559  27.120  1.00  0.00    -0.203 F 
ATOM     78  C   UNL A   1      43.390  26.618  25.804  1.00  0.00     0.198 A 
ATOM     79  C   UNL A   1      41.843  24.903  26.455  1.00  0.00     0.198 A 
ATOM     80  F   UNL A   1      40.526  25.180  28.385  1.00  0.00    -0.203 F 
ATOM     81  F   UNL A   1      44.295  27.098  24.942  1.00  0.00    -0.200 F 
ATOM     82  C   UNL A   1      42.799  25.384  25.573  1.00  0.00     0.200 A 
ATOM     83  F   UNL A   1      41.281  23.706  26.245  1.00  0.00    -0.200 F 
ATOM     84  F   UNL A   1      43.147  24.663  24.500  1.00  0.00    -0.200 F 
ENDBRANCH  50  74
BRANCH  62  85
ATOM     85  C   UNL A   1      44.228  27.164  34.436  1.00  0.00     0.064 A 
ATOM     86  C   UNL A   1      43.959  25.899  34.981  1.00  0.00     0.173 A 
ATOM     87  C   UNL A   1      45.521  27.686  34.595  1.00  0.00     0.173 A 
ATOM     88  F   UNL A   1      42.736  25.362  34.867  1.00  0.00    -0.203 F 
ATOM     89  C   UNL A   1      44.934  25.205  35.692  1.00  0.00     0.198 A 
ATOM     90  C   UNL A   1      46.503  26.974  35.278  1.00  0.00     0.198 A 
ATOM     91  F   UNL A   1      45.833  28.886  34.085  1.00  0.00    -0.203 F 
ATOM     92  F   UNL A   1      44.636  24.027  36.258  1.00  0.00    -0.200 F 
ATOM     93  C   UNL A   1      46.205  25.740  35.835  1.00  0.00     0.200 A 
ATOM     94  F   UNL A   1      47.735  27.486  35.402  1.00  0.00    -0.200 F 
ATOM     95  F   UNL A   1      47.142  25.071  36.522  1.00  0.00    -0.200 F 
ENDBRANCH  62  85
ENDBRANCH  36  37
ENDBRANCH  29  31
ENDBRANCH  28  29
ENDBRANCH  27  28
ENDBRANCH  26  27
ENDBRANCH  25  26
ENDBRANCH   1  25
TORSDOF 19
ENDMDL
MODEL 2
REMARK VINA RESULT:     -10.9      2.087      7.771
REMARK SMILES CSCC[C@H](NC(=O)N[C@@H]1CCCCC1(C)C)C(=O)OCCOCCOC(=O)c1ccc(-c2c3nc(c(-c4c(F)c(F)c(F)c(F)c4F)c4ccc([nH]4)c(-c4c(F)c(F)c(F)c(F)c4F)c4nc(c(-c5c(F)c(F)c(F)c(F)c5F)c5ccc2[nH]5)C=C4)C=C3)cc1
REMARK SMILES IDX 22 1 21 2 20 3 18 4 19 5 5 6 4 7 3 8 2 9 1 10 6 11 7 12 8 14
REMARK SMILES IDX 9 15 10 17 11 18 15 19 12 20 14 21 16 22 17 23 13 24 23 25
REMARK SMILES IDX 24 26 25 27 26 28 27 29 28 30 29 31 30 32 91 33 31 34 90 35
REMARK SMILES IDX 32 36 33 37 34 38 84 39 35 40 89 41 83 42 85 43 36 44 88 45
REMARK SMILES IDX 82 46 81 47 37 49 69 50 49 51 68 52 50 53 53 54 67 55 86 56
REMARK SMILES IDX 51 57 52 58 66 60 87 61 54 62 38 63 39 64 47 65 40 66 41 67
REMARK SMILES IDX 45 68 48 69 42 70 43 71 46 72 44 73 70 74 71 75 79 76 72 77
REMARK SMILES IDX 73 78 77 79 80 80 74 81 75 82 78 83 76 84 55 85 56 86 64 87
REMARK SMILES IDX 57 88 58 89 62 90 65 91 59 92 60 93 63 94 61 95
REMARK H PARENT 6 13 9 16 85 48 53 59
REMARK Flexibility Score: inf
ROOT
ATOM      1  C   UNL A   1      34.598  28.950  26.863  1.00  0.00     0.202 C 
ENDROOT
BRANCH   1   2
ATOM      2  C   UNL A   1      33.578  28.425  25.840  1.00  0.00     0.261 C 
BRANCH   2   3
ATOM      3  O   UNL A   1      32.198  28.747  26.072  1.00  0.00    -0.462 OA
BRANCH   3   4
ATOM      4  C   UNL A   1      31.524  27.688  26.591  1.00  0.00     0.328 C 
ATOM      5  O   UNL A   1      31.033  27.689  27.714  1.00  0.00    -0.250 OA
BRANCH   4   6
ATOM      6  C   UNL A   1      31.589  26.424  25.740  1.00  0.00     0.194 C 
BRANCH   6   7
ATOM      7  C   UNL A   1      30.687  26.586  24.507  1.00  0.00     0.048 C 
BRANCH   7   8
ATOM      8  C   UNL A   1      30.863  25.530  23.395  1.00  0.00     0.072 C 
BRANCH   8   9
ATOM      9  S   UNL A   1      31.783  26.048  21.901  1.00  0.00    -0.165 SA
ATOM     10  C   UNL A   1      33.494  26.134  22.515  1.00  0.00     0.085 C 
ENDBRANCH   8   9
ENDBRANCH   7   8
ENDBRANCH   6   7
BRANCH   6  11
ATOM     11  N   UNL A   1      31.341  25.159  26.472  1.00  0.00    -0.325 N 
ATOM     12  C   UNL A   1      31.888  23.957  26.666  1.00  0.00     0.315 C 
ATOM     13  H   UNL A   1      30.500  25.228  26.979  1.00  0.00     0.166 HD
ATOM     14  O   UNL A   1      31.414  23.333  27.628  1.00  0.00    -0.249 OA
ATOM     15  N   UNL A   1      32.863  23.312  26.024  1.00  0.00    -0.335 N 
ATOM     16  H   UNL A   1      33.163  22.588  26.618  1.00  0.00     0.165 HD
BRANCH  15  17
ATOM     17  C   UNL A   1      33.705  23.222  24.768  1.00  0.00     0.089 C 
ATOM     18  C   UNL A   1      33.022  22.274  23.762  1.00  0.00     0.025 C 
ATOM     19  C   UNL A   1      35.161  22.790  24.966  1.00  0.00    -0.015 C 
ATOM     20  C   UNL A   1      32.987  20.830  24.260  1.00  0.00     0.002 C 
ATOM     21  C   UNL A   1      35.061  21.405  25.677  1.00  0.00     0.008 C 
ATOM     22  C   UNL A   1      36.033  22.546  23.708  1.00  0.00     0.013 C 
ATOM     23  C   UNL A   1      35.845  24.035  25.585  1.00  0.00     0.013 C 
ATOM     24  C   UNL A   1      34.310  20.339  24.855  1.00  0.00     0.001 C 
ENDBRANCH  15  17
ENDBRANCH   6  11
ENDBRANCH   4   6
ENDBRANCH   3   4
ENDBRANCH   2   3
ENDBRANCH   1   2
BRANCH   1  25
ATOM     25  O   UNL A   1      34.218  29.897  27.847  1.00  0.00    -0.374 OA
BRANCH  25  26
ATOM     26  C   UNL A   1      34.441  31.288  27.638  1.00  0.00     0.202 C 
BRANCH  26  27
ATOM     27  C   UNL A   1      33.275  32.282  27.670  1.00  0.00     0.261 C 
BRANCH  27  28
ATOM     28  O   UNL A   1      33.666  33.641  27.418  1.00  0.00    -0.460 OA
BRANCH  28  29
ATOM     29  C   UNL A   1      33.472  34.477  28.466  1.00  0.00     0.338 C 
ATOM     30  O   UNL A   1      32.530  35.224  28.662  1.00  0.00    -0.246 OA
BRANCH  29  31
ATOM     31  C   UNL A   1      34.477  34.218  29.509  1.00  0.00     0.060 A 
ATOM     32  C   UNL A   1      35.823  34.294  29.132  1.00  0.00     0.016 A 
ATOM     33  C   UNL A   1      34.110  33.762  30.776  1.00  0.00     0.016 A 
ATOM     34  C   UNL A   1      36.812  33.861  30.002  1.00  0.00     0.010 A 
ATOM     35  C   UNL A   1      35.105  33.301  31.643  1.00  0.00     0.010 A 
ATOM     36  C   UNL A   1      36.449  33.303  31.234  1.00  0.00    -0.014 A 
BRANCH  36  37
ATOM     37  C   UNL A   1      37.483  32.530  31.958  1.00  0.00     0.031 A 
ATOM     38  C   UNL A   1      38.149  31.387  31.243  1.00  0.00     0.074 A 
ATOM     39  C   UNL A   1      37.908  32.932  33.165  1.00  0.00     0.049 A 
ATOM     40  N   UNL A   1      39.162  30.649  31.617  1.00  0.00    -0.248 NA
ATOM     41  C   UNL A   1      37.607  31.038  29.918  1.00  0.00     0.031 C 
ATOM     42  C   UNL A   1      37.366  34.064  33.914  1.00  0.00     0.029 A 
ATOM     43  N   UNL A   1      38.911  32.446  33.962  1.00  0.00    -0.354 N 
ATOM     44  C   UNL A   1      39.383  29.758  30.576  1.00  0.00     0.074 A 
ATOM     45  C   UNL A   1      38.380  30.022  29.568  1.00  0.00     0.031 C 
ATOM     46  C   UNL A   1      38.051  34.192  35.064  1.00  0.00     0.029 A 
ATOM     47  C   UNL A   1      39.064  33.141  35.135  1.00  0.00     0.049 A 
ATOM     48  H   UNL A   1      39.469  31.674  33.716  1.00  0.00     0.167 HD
ATOM     49  C   UNL A   1      40.345  28.813  30.466  1.00  0.00     0.037 A 
ATOM     50  C   UNL A   1      39.928  32.942  36.149  1.00  0.00     0.037 A 
ATOM     51  C   UNL A   1      41.334  28.554  31.480  1.00  0.00     0.049 A 
ATOM     52  C   UNL A   1      40.951  31.845  36.027  1.00  0.00     0.074 A 
ATOM     53  C   UNL A   1      42.346  27.612  31.482  1.00  0.00     0.029 A 
ATOM     54  N   UNL A   1      41.423  29.242  32.682  1.00  0.00    -0.354 N 
ATOM     55  N   UNL A   1      41.164  31.014  35.034  1.00  0.00    -0.248 NA
ATOM     56  C   UNL A   1      41.865  31.667  37.163  1.00  0.00     0.031 C 
ATOM     57  C   UNL A   1      43.020  27.699  32.706  1.00  0.00     0.029 A 
ATOM     58  C   UNL A   1      42.464  28.733  33.443  1.00  0.00     0.049 A 
ATOM     59  H   UNL A   1      40.835  29.984  32.954  1.00  0.00     0.167 HD
ATOM     60  C   UNL A   1      42.251  30.236  35.411  1.00  0.00     0.074 A 
ATOM     61  C   UNL A   1      42.664  30.708  36.718  1.00  0.00     0.031 C 
ATOM     62  C   UNL A   1      42.855  29.224  34.740  1.00  0.00     0.037 A 
BRANCH  49  63
ATOM     63  C   UNL A   1      40.351  27.972  29.224  1.00  0.00     0.064 A 
ATOM     64  C   UNL A   1      39.609  26.784  29.130  1.00  0.00     0.173 A 
ATOM     65  C   UNL A   1      41.099  28.365  28.103  1.00  0.00     0.173 A 
ATOM     66  F   UNL A   1      38.892  26.352  30.178  1.00  0.00    -0.203 F 
ATOM     67  C   UNL A   1      39.635  26.010  27.972  1.00  0.00     0.198 A 
ATOM     68  C   UNL A   1      41.101  27.604  26.937  1.00  0.00     0.198 A 
ATOM     69  F   UNL A   1      41.828  29.491  28.139  1.00  0.00    -0.203 F 
ATOM     70  F   UNL A   1      38.957  24.856  27.922  1.00  0.00    -0.200 F 
ATOM     71  C   UNL A   1      40.376  26.424  26.875  1.00  0.00     0.200 A 
ATOM     72  F   UNL A   1      41.811  28.011  25.875  1.00  0.00    -0.200 F 
ATOM     73  F   UNL A   1      40.398  25.681  25.759  1.00  0.00    -0.200 F 
ENDBRANCH  49  63
BRANCH  50  74
ATOM     74  C   UNL A   1      39.865  33.806  37.357  1.00  0.00     0.064 A 
ATOM     75  C   UNL A   1      39.007  33.508  38.423  1.00  0.00     0.173 A 
ATOM     76  C   UNL A   1      40.661  34.957  37.463  1.00  0.00     0.173 A 
ATOM     77  F   UNL A   1      38.212  32.429  38.362  1.00  0.00    -0.203 F 
ATOM     78  C   UNL A   1      38.933  34.336  39.542  1.00  0.00     0.198 A 
ATOM     79  C   UNL A   1      40.608  35.769  38.593  1.00  0.00     0.198 A 
ATOM     80  F   UNL A   1      41.500  35.287  36.470  1.00  0.00    -0.203 F 
ATOM     81  F   UNL A   1      38.073  34.051  40.528  1.00  0.00    -0.200 F 
ATOM     82  C   UNL A   1      39.738  35.463  39.629  1.00  0.00     0.200 A 
ATOM     83  F   UNL A   1      41.398  36.847  38.679  1.00  0.00    -0.200 F 
ATOM     84  F   UNL A   1      39.671  36.255  40.706  1.00  0.00    -0.200 F 
ENDBRANCH  50  74
BRANCH  62  85
ATOM     85  C   UNL A   1      44.047  28.588  35.395  1.00  0.00     0.064 A 
ATOM     86  C   UNL A   1      45.350  29.057  35.171  1.00  0.00     0.173 A 
ATOM     87  C   UNL A   1      43.880  27.505  36.271  1.00  0.00     0.173 A 
ATOM     88  F   UNL A   1      45.564  30.081  34.332  1.00  0.00    -0.203 F 
ATOM     89  C   UNL A   1      46.445  28.438  35.769  1.00  0.00     0.198 A 
ATOM     90  C   UNL A   1      44.974  26.910  36.894  1.00  0.00     0.198 A 
ATOM     91  F   UNL A   1      42.654  27.025  36.527  1.00  0.00    -0.203 F 
ATOM     92  F   UNL A   1      47.686  28.863  35.491  1.00  0.00    -0.200 F 
ATOM     93  C   UNL A   1      46.256  27.370  36.632  1.00  0.00     0.200 A 
ATOM     94  F   UNL A   1      44.787  25.888  37.739  1.00  0.00    -0.200 F 
ATOM     95  F   UNL A   1      47.311  26.774  37.205  1.00  0.00    -0.200 F 
ENDBRANCH  62  85
ENDBRANCH  36  37
ENDBRANCH  29  31
ENDBRANCH  28  29
ENDBRANCH  27  28
ENDBRANCH  26  27
ENDBRANCH  25  26
ENDBRANCH   1  25
TORSDOF 19
ENDMDL
MODEL 3
REMARK VINA RESULT:     -10.7      1.638      2.636
REMARK SMILES CSCC[C@H](NC(=O)N[C@@H]1CCCCC1(C)C)C(=O)OCCOCCOC(=O)c1ccc(-c2c3nc(c(-c4c(F)c(F)c(F)c(F)c4F)c4ccc([nH]4)c(-c4c(F)c(F)c(F)c(F)c4F)c4nc(c(-c5c(F)c(F)c(F)c(F)c5F)c5ccc2[nH]5)C=C4)C=C3)cc1
REMARK SMILES IDX 22 1 21 2 20 3 18 4 19 5 5 6 4 7 3 8 2 9 1 10 6 11 7 12 8 14
REMARK SMILES IDX 9 15 10 17 11 18 15 19 12 20 14 21 16 22 17 23 13 24 23 25
REMARK SMILES IDX 24 26 25 27 26 28 27 29 28 30 29 31 30 32 91 33 31 34 90 35
REMARK SMILES IDX 32 36 33 37 34 38 84 39 35 40 89 41 83 42 85 43 36 44 88 45
REMARK SMILES IDX 82 46 81 47 37 49 69 50 49 51 68 52 50 53 53 54 67 55 86 56
REMARK SMILES IDX 51 57 52 58 66 60 87 61 54 62 38 63 39 64 47 65 40 66 41 67
REMARK SMILES IDX 45 68 48 69 42 70 43 71 46 72 44 73 70 74 71 75 79 76 72 77
REMARK SMILES IDX 73 78 77 79 80 80 74 81 75 82 78 83 76 84 55 85 56 86 64 87
REMARK SMILES IDX 57 88 58 89 62 90 65 91 59 92 60 93 63 94 61 95
REMARK H PARENT 6 13 9 16 85 48 53 59
REMARK Flexibility Score: inf
ROOT
ATOM      1  C   UNL A   1      33.265  30.470  27.088  1.00  0.00     0.202 C 
ENDROOT
BRANCH   1   2
ATOM      2  C   UNL A   1      31.823  30.042  26.773  1.00  0.00     0.261 C 
BRANCH   2   3
ATOM      3  O   UNL A   1      31.652  28.831  26.021  1.00  0.00    -0.462 OA
BRANCH   3   4
ATOM      4  C   UNL A   1      31.537  27.753  26.839  1.00  0.00     0.328 C 
ATOM      5  O   UNL A   1      31.138  27.828  27.996  1.00  0.00    -0.250 OA
BRANCH   4   6
ATOM      6  C   UNL A   1      32.126  26.466  26.270  1.00  0.00     0.194 C 
BRANCH   6   7
ATOM      7  C   UNL A   1      32.334  26.622  24.756  1.00  0.00     0.048 C 
BRANCH   7   8
ATOM      8  C   UNL A   1      31.128  26.252  23.866  1.00  0.00     0.072 C 
BRANCH   8   9
ATOM      9  S   UNL A   1      30.316  27.620  22.962  1.00  0.00    -0.165 SA
ATOM     10  C   UNL A   1      28.585  27.459  23.500  1.00  0.00     0.085 C 
ENDBRANCH   8   9
ENDBRANCH   7   8
ENDBRANCH   6   7
BRANCH   6  11
ATOM     11  N   UNL A   1      31.392  25.228  26.626  1.00  0.00    -0.325 N 
ATOM     12  C   UNL A   1      31.497  23.902  26.518  1.00  0.00     0.315 C 
ATOM     13  H   UNL A   1      30.557  25.459  27.094  1.00  0.00     0.166 HD
ATOM     14  O   UNL A   1      30.725  23.270  27.256  1.00  0.00    -0.249 OA
ATOM     15  N   UNL A   1      32.292  23.133  25.773  1.00  0.00    -0.335 N 
ATOM     16  H   UNL A   1      32.263  22.232  26.165  1.00  0.00     0.165 HD
BRANCH  15  17
ATOM     17  C   UNL A   1      33.220  23.059  24.579  1.00  0.00     0.089 C 
ATOM     18  C   UNL A   1      32.761  21.922  23.644  1.00  0.00     0.025 C 
ATOM     19  C   UNL A   1      34.709  22.886  24.896  1.00  0.00    -0.015 C 
ATOM     20  C   UNL A   1      32.915  20.546  24.288  1.00  0.00     0.002 C 
ATOM     21  C   UNL A   1      34.775  21.577  25.743  1.00  0.00     0.008 C 
ATOM     22  C   UNL A   1      35.691  22.666  23.718  1.00  0.00     0.013 C 
ATOM     23  C   UNL A   1      35.151  24.277  25.415  1.00  0.00     0.013 C 
ATOM     24  C   UNL A   1      34.255  20.331  25.000  1.00  0.00     0.001 C 
ENDBRANCH  15  17
ENDBRANCH   6  11
ENDBRANCH   4   6
ENDBRANCH   3   4
ENDBRANCH   2   3
ENDBRANCH   1   2
BRANCH   1  25
ATOM     25  O   UNL A   1      33.545  31.761  27.602  1.00  0.00    -0.374 OA
BRANCH  25  26
ATOM     26  C   UNL A   1      32.620  32.828  27.420  1.00  0.00     0.202 C 
BRANCH  26  27
ATOM     27  C   UNL A   1      32.995  34.264  27.802  1.00  0.00     0.261 C 
BRANCH  27  28
ATOM     28  O   UNL A   1      32.527  34.659  29.102  1.00  0.00    -0.460 OA
BRANCH  28  29
ATOM     29  C   UNL A   1      33.498  35.125  29.923  1.00  0.00     0.338 C 
ATOM     30  O   UNL A   1      33.435  36.064  30.696  1.00  0.00    -0.246 OA
BRANCH  29  31
ATOM     31  C   UNL A   1      34.637  34.194  29.935  1.00  0.00     0.060 A 
ATOM     32  C   UNL A   1      34.517  33.048  30.729  1.00  0.00     0.016 A 
ATOM     33  C   UNL A   1      35.844  34.514  29.311  1.00  0.00     0.016 A 
ATOM     34  C   UNL A   1      35.622  32.240  30.950  1.00  0.00     0.010 A 
ATOM     35  C   UNL A   1      36.965  33.714  29.556  1.00  0.00     0.010 A 
ATOM     36  C   UNL A   1      36.862  32.608  30.417  1.00  0.00    -0.014 A 
BRANCH  36  37
ATOM     37  C   UNL A   1      38.062  31.941  30.970  1.00  0.00     0.031 A 
ATOM     38  C   UNL A   1      38.470  32.264  32.381  1.00  0.00     0.074 A 
ATOM     39  C   UNL A   1      38.681  30.974  30.276  1.00  0.00     0.049 A 
ATOM     40  N   UNL A   1      39.399  31.720  33.123  1.00  0.00    -0.248 NA
ATOM     41  C   UNL A   1      37.716  33.337  33.051  1.00  0.00     0.031 C 
ATOM     42  C   UNL A   1      38.323  30.548  28.924  1.00  0.00     0.029 A 
ATOM     43  N   UNL A   1      39.724  30.157  30.625  1.00  0.00    -0.354 N 
ATOM     44  C   UNL A   1      39.336  32.376  34.345  1.00  0.00     0.074 A 
ATOM     45  C   UNL A   1      38.303  33.382  34.237  1.00  0.00     0.031 C 
ATOM     46  C   UNL A   1      39.132  29.539  28.559  1.00  0.00     0.029 A 
ATOM     47  C   UNL A   1      40.072  29.263  29.644  1.00  0.00     0.049 A 
ATOM     48  H   UNL A   1      40.179  30.207  31.496  1.00  0.00     0.167 HD
ATOM     49  C   UNL A   1      40.068  32.150  35.461  1.00  0.00     0.037 A 
ATOM     50  C   UNL A   1      41.043  28.330  29.632  1.00  0.00     0.037 A 
ATOM     51  C   UNL A   1      41.101  31.151  35.554  1.00  0.00     0.049 A 
ATOM     52  C   UNL A   1      41.883  28.140  30.866  1.00  0.00     0.074 A 
ATOM     53  C   UNL A   1      41.916  30.845  36.629  1.00  0.00     0.029 A 
ATOM     54  N   UNL A   1      41.464  30.300  34.519  1.00  0.00    -0.354 N 
ATOM     55  N   UNL A   1      41.810  28.754  32.023  1.00  0.00    -0.248 NA
ATOM     56  C   UNL A   1      42.932  27.114  30.798  1.00  0.00     0.031 C 
ATOM     57  C   UNL A   1      42.803  29.839  36.229  1.00  0.00     0.029 A 
ATOM     58  C   UNL A   1      42.504  29.479  34.925  1.00  0.00     0.049 A 
ATOM     59  H   UNL A   1      41.043  30.281  33.629  1.00  0.00     0.167 HD
ATOM     60  C   UNL A   1      42.780  28.172  32.828  1.00  0.00     0.074 A 
ATOM     61  C   UNL A   1      43.416  27.142  32.031  1.00  0.00     0.031 C 
ATOM     62  C   UNL A   1      43.117  28.460  34.111  1.00  0.00     0.037 A 
BRANCH  49  63
ATOM     63  C   UNL A   1      39.799  33.020  36.653  1.00  0.00     0.064 A 
ATOM     64  C   UNL A   1      40.540  34.187  36.901  1.00  0.00     0.173 A 
ATOM     65  C   UNL A   1      38.776  32.691  37.556  1.00  0.00     0.173 A 
ATOM     66  F   UNL A   1      41.542  34.537  36.081  1.00  0.00    -0.203 F 
ATOM     67  C   UNL A   1      40.283  34.976  38.019  1.00  0.00     0.198 A 
ATOM     68  C   UNL A   1      38.503  33.497  38.658  1.00  0.00     0.198 A 
ATOM     69  F   UNL A   1      38.039  31.586  37.368  1.00  0.00    -0.203 F 
ATOM     70  F   UNL A   1      41.034  36.060  38.261  1.00  0.00    -0.200 F 
ATOM     71  C   UNL A   1      39.261  34.635  38.893  1.00  0.00     0.200 A 
ATOM     72  F   UNL A   1      37.510  33.170  39.496  1.00  0.00    -0.200 F 
ATOM     73  F   UNL A   1      39.011  35.397  39.967  1.00  0.00    -0.200 F 
ENDBRANCH  49  63
BRANCH  50  74
ATOM     74  C   UNL A   1      41.264  27.506  28.415  1.00  0.00     0.064 A 
ATOM     75  C   UNL A   1      42.187  27.887  27.432  1.00  0.00     0.173 A 
ATOM     76  C   UNL A   1      40.545  26.318  28.209  1.00  0.00     0.173 A 
ATOM     77  F   UNL A   1      42.884  29.024  27.574  1.00  0.00    -0.203 F 
ATOM     78  C   UNL A   1      42.370  27.123  26.281  1.00  0.00     0.198 A 
ATOM     79  C   UNL A   1      40.749  25.540  27.072  1.00  0.00     0.198 A 
ATOM     80  F   UNL A   1      39.651  25.908  29.119  1.00  0.00    -0.203 F 
ATOM     81  F   UNL A   1      43.227  27.534  25.337  1.00  0.00    -0.200 F 
ATOM     82  C   UNL A   1      41.656  25.947  26.104  1.00  0.00     0.200 A 
ATOM     83  F   UNL A   1      40.069  24.398  26.913  1.00  0.00    -0.200 F 
ATOM     84  F   UNL A   1      41.836  25.210  25.001  1.00  0.00    -0.200 F 
ENDBRANCH  50  74
BRANCH  62  85
ATOM     85  C   UNL A   1      44.196  27.624  34.736  1.00  0.00     0.064 A 
ATOM     86  C   UNL A   1      45.544  28.012  34.702  1.00  0.00     0.173 A 
ATOM     87  C   UNL A   1      43.873  26.426  35.392  1.00  0.00     0.173 A 
ATOM     88  F   UNL A   1      45.905  29.142  34.077  1.00  0.00    -0.203 F 
ATOM     89  C   UNL A   1      46.532  27.210  35.266  1.00  0.00     0.198 A 
ATOM     90  C   UNL A   1      44.861  25.644  35.984  1.00  0.00     0.198 A 
ATOM     91  F   UNL A   1      42.598  26.016  35.462  1.00  0.00    -0.203 F 
ATOM     92  F   UNL A   1      47.820  27.569  35.167  1.00  0.00    -0.200 F 
ATOM     93  C   UNL A   1      46.190  26.031  35.910  1.00  0.00     0.200 A 
ATOM     94  F   UNL A   1      44.526  24.513  36.619  1.00  0.00    -0.200 F 
ATOM     95  F   UNL A   1      47.144  25.260  36.451  1.00  0.00    -0.200 F 
ENDBRANCH  62  85
ENDBRANCH  36  37
ENDBRANCH  29  31
ENDBRANCH  28  29
ENDBRANCH  27  28
ENDBRANCH  26  27
ENDBRANCH  25  26
ENDBRANCH   1  25
TORSDOF 19
ENDMDL
