MODEL 1
REMARK VINA RESULT:     -12.3      0.000      0.000
REMARK SMILES O=C(CC1CCN(C(=O)c2ccc3[nH]ccc3c2)CC1)OCCOCCOC(=O)c1ccc(-c2c3nc(c(-c4c(F)c(F)c(F)c(F)c4F)c4ccc([nH]4)c(-c4c(F)c(F)c(F)c(F)c4F)c4nc(c(-c5c(F)c(F)c(F)c(F)c5F)c5ccc2[nH]5)C=C4)C=C3)cc1
REMARK SMILES IDX 24 1 23 2 22 3 21 4 2 5 1 6 3 7 4 8 5 9 20 10 6 11 19 12
REMARK SMILES IDX 7 13 8 14 9 15 10 16 11 17 18 18 12 19 17 20 13 21 16 22
REMARK SMILES IDX 14 23 15 24 25 26 26 27 27 28 28 29 29 30 30 31 31 32 92 33
REMARK SMILES IDX 32 34 91 35 33 36 34 37 35 38 85 39 36 40 90 41 84 42 86 43
REMARK SMILES IDX 37 44 89 45 83 46 82 47 38 49 70 50 50 51 69 52 51 53 54 54
REMARK SMILES IDX 68 55 87 56 52 57 53 58 67 60 88 61 55 62 39 63 40 64 48 65
REMARK SMILES IDX 41 66 42 67 46 68 49 69 43 70 44 71 47 72 45 73 71 74 72 75
REMARK SMILES IDX 80 76 73 77 74 78 78 79 81 80 75 81 76 82 79 83 77 84 56 85
REMARK SMILES IDX 57 86 65 87 58 88 59 89 63 90 66 91 60 92 61 93 64 94 62 95
REMARK H PARENT 14 25 86 48 54 59
REMARK Flexibility Score: inf
ROOT
ATOM      1  O   UNL A   1      43.117  20.282  24.994  1.00  0.00    -0.374 OA
ENDROOT
BRANCH   1   2
ATOM      2  C   UNL A   1      42.485  19.491  26.002  1.00  0.00     0.202 C 
BRANCH   2   3
ATOM      3  C   UNL A   1      41.430  20.214  26.839  1.00  0.00     0.261 C 
BRANCH   3   4
ATOM      4  O   UNL A   1      40.183  20.363  26.157  1.00  0.00    -0.463 OA
BRANCH   4   5
ATOM      5  C   UNL A   1      39.445  21.492  26.129  1.00  0.00     0.306 C 
ATOM      6  O   UNL A   1      39.827  22.457  26.794  1.00  0.00    -0.252 OA
BRANCH   5   7
ATOM      7  C   UNL A   1      38.087  21.541  25.444  1.00  0.00     0.126 C 
BRANCH   7   8
ATOM      8  C   UNL A   1      36.930  22.337  26.078  1.00  0.00     0.003 C 
ATOM      9  C   UNL A   1      35.631  21.485  26.068  1.00  0.00     0.026 C 
ATOM     10  C   UNL A   1      36.589  23.668  25.361  1.00  0.00     0.026 C 
ATOM     11  C   UNL A   1      35.038  21.335  24.657  1.00  0.00     0.120 C 
ATOM     12  C   UNL A   1      36.038  23.464  23.956  1.00  0.00     0.120 C 
ATOM     13  N   UNL A   1      34.839  22.644  24.038  1.00  0.00    -0.339 N 
ATOM     14  C   UNL A   1      33.548  23.102  23.783  1.00  0.00     0.253 C 
ATOM     15  O   UNL A   1      32.534  22.460  24.046  1.00  0.00    -0.269 OA
BRANCH  14  16
ATOM     16  C   UNL A   1      33.376  24.455  23.204  1.00  0.00     0.040 A 
ATOM     17  C   UNL A   1      32.954  24.616  21.880  1.00  0.00     0.016 A 
ATOM     18  C   UNL A   1      33.642  25.561  24.023  1.00  0.00     0.024 A 
ATOM     19  C   UNL A   1      32.831  25.893  21.323  1.00  0.00     0.027 A 
ATOM     20  C   UNL A   1      33.513  26.853  23.479  1.00  0.00     0.000 A 
ATOM     21  C   UNL A   1      33.117  26.990  22.147  1.00  0.00     0.045 A 
ATOM     22  C   UNL A   1      33.700  28.165  23.997  1.00  0.00     0.028 A 
ATOM     23  N   UNL A   1      33.071  28.340  21.877  1.00  0.00    -0.361 N 
ATOM     24  C   UNL A   1      33.418  29.058  22.990  1.00  0.00     0.083 A 
ATOM     25  H   UNL A   1      32.825  28.731  21.008  1.00  0.00     0.166 HD
ENDBRANCH  14  16
ENDBRANCH   7   8
ENDBRANCH   5   7
ENDBRANCH   4   5
ENDBRANCH   3   4
ENDBRANCH   2   3
ENDBRANCH   1   2
BRANCH   1  26
ATOM     26  C   UNL A   1      44.035  21.265  25.501  1.00  0.00     0.202 C 
BRANCH  26  27
ATOM     27  C   UNL A   1      44.504  22.281  24.455  1.00  0.00     0.261 C 
BRANCH  27  28
ATOM     28  O   UNL A   1      43.733  23.487  24.541  1.00  0.00    -0.460 OA
BRANCH  28  29
ATOM     29  C   UNL A   1      44.435  24.568  24.955  1.00  0.00     0.338 C 
ATOM     30  O   UNL A   1      45.491  24.982  24.502  1.00  0.00    -0.246 OA
BRANCH  29  31
ATOM     31  C   UNL A   1      43.628  25.322  25.935  1.00  0.00     0.060 A 
ATOM     32  C   UNL A   1      43.954  26.670  26.130  1.00  0.00     0.016 A 
ATOM     33  C   UNL A   1      42.563  24.743  26.634  1.00  0.00     0.016 A 
ATOM     34  C   UNL A   1      43.261  27.425  27.067  1.00  0.00     0.010 A 
ATOM     35  C   UNL A   1      41.864  25.502  27.575  1.00  0.00     0.010 A 
ATOM     36  C   UNL A   1      42.243  26.832  27.825  1.00  0.00    -0.014 A 
BRANCH  36  37
ATOM     37  C   UNL A   1      41.716  27.562  29.000  1.00  0.00     0.031 A 
ATOM     38  C   UNL A   1      42.450  27.441  30.306  1.00  0.00     0.074 A 
ATOM     39  C   UNL A   1      40.653  28.375  28.880  1.00  0.00     0.049 A 
ATOM     40  N   UNL A   1      42.214  28.029  31.450  1.00  0.00    -0.248 NA
ATOM     41  C   UNL A   1      43.610  26.534  30.324  1.00  0.00     0.031 C 
ATOM     42  C   UNL A   1      39.880  28.580  27.656  1.00  0.00     0.029 A 
ATOM     43  N   UNL A   1      40.046  29.186  29.804  1.00  0.00    -0.354 N 
ATOM     44  C   UNL A   1      43.201  27.575  32.316  1.00  0.00     0.074 A 
ATOM     45  C   UNL A   1      44.006  26.622  31.585  1.00  0.00     0.031 C 
ATOM     46  C   UNL A   1      38.896  29.461  27.906  1.00  0.00     0.029 A 
ATOM     47  C   UNL A   1      38.960  29.864  29.309  1.00  0.00     0.049 A 
ATOM     48  H   UNL A   1      40.359  29.273  30.733  1.00  0.00     0.167 HD
ATOM     49  C   UNL A   1      43.428  27.938  33.599  1.00  0.00     0.037 A 
ATOM     50  C   UNL A   1      38.110  30.705  29.929  1.00  0.00     0.037 A 
ATOM     51  C   UNL A   1      42.613  28.877  34.325  1.00  0.00     0.049 A 
ATOM     52  C   UNL A   1      38.353  31.050  31.376  1.00  0.00     0.074 A 
ATOM     53  C   UNL A   1      42.748  29.311  35.631  1.00  0.00     0.029 A 
ATOM     54  N   UNL A   1      41.503  29.525  33.800  1.00  0.00    -0.354 N 
ATOM     55  N   UNL A   1      39.305  30.639  32.180  1.00  0.00    -0.248 NA
ATOM     56  C   UNL A   1      37.410  31.990  31.998  1.00  0.00     0.031 C 
ATOM     57  C   UNL A   1      41.691  30.183  35.912  1.00  0.00     0.029 A 
ATOM     58  C   UNL A   1      40.933  30.341  34.763  1.00  0.00     0.049 A 
ATOM     59  H   UNL A   1      41.171  29.420  32.880  1.00  0.00     0.167 HD
ATOM     60  C   UNL A   1      39.090  31.283  33.392  1.00  0.00     0.074 A 
ATOM     61  C   UNL A   1      37.935  32.137  33.206  1.00  0.00     0.031 C 
ATOM     62  C   UNL A   1      39.778  31.177  34.556  1.00  0.00     0.037 A 
BRANCH  49  63
ATOM     63  C   UNL A   1      44.595  27.307  34.301  1.00  0.00     0.064 A 
ATOM     64  C   UNL A   1      44.471  26.084  34.978  1.00  0.00     0.173 A 
ATOM     65  C   UNL A   1      45.858  27.916  34.275  1.00  0.00     0.173 A 
ATOM     66  F   UNL A   1      43.281  25.470  35.052  1.00  0.00    -0.203 F 
ATOM     67  C   UNL A   1      45.564  25.505  35.620  1.00  0.00     0.198 A 
ATOM     68  C   UNL A   1      46.955  27.320  34.892  1.00  0.00     0.198 A 
ATOM     69  F   UNL A   1      46.032  29.088  33.644  1.00  0.00    -0.203 F 
ATOM     70  F   UNL A   1      45.410  24.360  36.300  1.00  0.00    -0.200 F 
ATOM     71  C   UNL A   1      46.806  26.118  35.569  1.00  0.00     0.200 A 
ATOM     72  F   UNL A   1      48.158  27.909  34.833  1.00  0.00    -0.200 F 
ATOM     73  F   UNL A   1      47.858  25.556  36.178  1.00  0.00    -0.200 F 
ENDBRANCH  49  63
BRANCH  50  74
ATOM     74  C   UNL A   1      36.950  31.272  29.192  1.00  0.00     0.064 A 
ATOM     75  C   UNL A   1      36.915  32.620  28.807  1.00  0.00     0.173 A 
ATOM     76  C   UNL A   1      35.836  30.478  28.880  1.00  0.00     0.173 A 
ATOM     77  F   UNL A   1      37.945  33.426  29.100  1.00  0.00    -0.203 F 
ATOM     78  C   UNL A   1      35.800  33.158  28.166  1.00  0.00     0.198 A 
ATOM     79  C   UNL A   1      34.736  31.008  28.209  1.00  0.00     0.198 A 
ATOM     80  F   UNL A   1      35.818  29.181  29.222  1.00  0.00    -0.203 F 
ATOM     81  F   UNL A   1      35.771  34.463  27.861  1.00  0.00    -0.200 F 
ATOM     82  C   UNL A   1      34.714  32.350  27.862  1.00  0.00     0.200 A 
ATOM     83  F   UNL A   1      33.696  30.220  27.904  1.00  0.00    -0.200 F 
ATOM     84  F   UNL A   1      33.644  32.868  27.244  1.00  0.00    -0.200 F 
ENDBRANCH  50  74
BRANCH  62  85
ATOM     85  C   UNL A   1      39.306  32.023  35.705  1.00  0.00     0.064 A 
ATOM     86  C   UNL A   1      38.399  31.534  36.656  1.00  0.00     0.173 A 
ATOM     87  C   UNL A   1      39.772  33.338  35.858  1.00  0.00     0.173 A 
ATOM     88  F   UNL A   1      37.914  30.287  36.550  1.00  0.00    -0.203 F 
ATOM     89  C   UNL A   1      37.940  32.344  37.692  1.00  0.00     0.198 A 
ATOM     90  C   UNL A   1      39.340  34.133  36.916  1.00  0.00     0.198 A 
ATOM     91  F   UNL A   1      40.650  33.852  34.983  1.00  0.00    -0.203 F 
ATOM     92  F   UNL A   1      37.020  31.878  38.547  1.00  0.00    -0.200 F 
ATOM     93  C   UNL A   1      38.413  33.641  37.823  1.00  0.00     0.200 A 
ATOM     94  F   UNL A   1      39.811  35.380  37.050  1.00  0.00    -0.200 F 
ATOM     95  F   UNL A   1      37.968  34.421  38.816  1.00  0.00    -0.200 F 
ENDBRANCH  62  85
ENDBRANCH  36  37
ENDBRANCH  29  31
ENDBRANCH  28  29
ENDBRANCH  27  28
ENDBRANCH  26  27
ENDBRANCH   1  26
TORSDOF 16
ENDMDL
MODEL 2
REMARK VINA RESULT:     -12.3      4.436      6.931
REMARK SMILES O=C(CC1CCN(C(=O)c2ccc3[nH]ccc3c2)CC1)OCCOCCOC(=O)c1ccc(-c2c3nc(c(-c4c(F)c(F)c(F)c(F)c4F)c4ccc([nH]4)c(-c4c(F)c(F)c(F)c(F)c4F)c4nc(c(-c5c(F)c(F)c(F)c(F)c5F)c5ccc2[nH]5)C=C4)C=C3)cc1
REMARK SMILES IDX 24 1 23 2 22 3 21 4 2 5 1 6 3 7 4 8 5 9 20 10 6 11 19 12
REMARK SMILES IDX 7 13 8 14 9 15 10 16 11 17 18 18 12 19 17 20 13 21 16 22
REMARK SMILES IDX 14 23 15 24 25 26 26 27 27 28 28 29 29 30 30 31 31 32 92 33
REMARK SMILES IDX 32 34 91 35 33 36 34 37 35 38 85 39 36 40 90 41 84 42 86 43
REMARK SMILES IDX 37 44 89 45 83 46 82 47 38 49 70 50 50 51 69 52 51 53 54 54
REMARK SMILES IDX 68 55 87 56 52 57 53 58 67 60 88 61 55 62 39 63 40 64 48 65
REMARK SMILES IDX 41 66 42 67 46 68 49 69 43 70 44 71 47 72 45 73 71 74 72 75
REMARK SMILES IDX 80 76 73 77 74 78 78 79 81 80 75 81 76 82 79 83 77 84 56 85
REMARK SMILES IDX 57 86 65 87 58 88 59 89 63 90 66 91 60 92 61 93 64 94 62 95
REMARK H PARENT 14 25 86 48 54 59
REMARK Flexibility Score: inf
ROOT
ATOM      1  O   UNL A   1      37.597  21.161  24.958  1.00  0.00    -0.374 OA
ENDROOT
BRANCH   1   2
ATOM      2  C   UNL A   1      36.251  21.436  24.567  1.00  0.00     0.202 C 
BRANCH   2   3
ATOM      3  C   UNL A   1      35.176  20.979  25.552  1.00  0.00     0.261 C 
BRANCH   3   4
ATOM      4  O   UNL A   1      34.260  20.041  24.983  1.00  0.00    -0.463 OA
BRANCH   4   5
ATOM      5  C   UNL A   1      32.919  20.182  24.964  1.00  0.00     0.306 C 
ATOM      6  O   UNL A   1      32.233  19.206  24.657  1.00  0.00    -0.252 OA
BRANCH   5   7
ATOM      7  C   UNL A   1      32.256  21.540  25.143  1.00  0.00     0.126 C 
BRANCH   7   8
ATOM      8  C   UNL A   1      31.609  22.250  23.938  1.00  0.00     0.003 C 
ATOM      9  C   UNL A   1      32.666  22.469  22.820  1.00  0.00     0.026 C 
ATOM     10  C   UNL A   1      31.007  23.643  24.253  1.00  0.00     0.026 C 
ATOM     11  C   UNL A   1      33.690  23.556  23.184  1.00  0.00     0.120 C 
ATOM     12  C   UNL A   1      32.059  24.674  24.640  1.00  0.00     0.120 C 
ATOM     13  N   UNL A   1      33.015  24.800  23.549  1.00  0.00    -0.339 N 
ATOM     14  C   UNL A   1      33.142  25.924  22.735  1.00  0.00     0.253 C 
ATOM     15  O   UNL A   1      33.806  25.944  21.702  1.00  0.00    -0.269 OA
BRANCH  14  16
ATOM     16  C   UNL A   1      32.402  27.154  23.102  1.00  0.00     0.040 A 
ATOM     17  C   UNL A   1      32.931  28.053  24.035  1.00  0.00     0.016 A 
ATOM     18  C   UNL A   1      31.166  27.390  22.485  1.00  0.00     0.024 A 
ATOM     19  C   UNL A   1      32.213  29.193  24.410  1.00  0.00     0.027 A 
ATOM     20  C   UNL A   1      30.437  28.538  22.845  1.00  0.00     0.000 A 
ATOM     21  C   UNL A   1      30.971  29.408  23.798  1.00  0.00     0.045 A 
ATOM     22  C   UNL A   1      29.184  29.079  22.441  1.00  0.00     0.028 A 
ATOM     23  N   UNL A   1      30.066  30.433  23.961  1.00  0.00    -0.361 N 
ATOM     24  C   UNL A   1      28.984  30.245  23.142  1.00  0.00     0.083 A 
ATOM     25  H   UNL A   1      30.180  31.192  24.577  1.00  0.00     0.166 HD
ENDBRANCH  14  16
ENDBRANCH   7   8
ENDBRANCH   5   7
ENDBRANCH   4   5
ENDBRANCH   3   4
ENDBRANCH   2   3
ENDBRANCH   1   2
BRANCH   1  26
ATOM     26  C   UNL A   1      37.941  19.765  24.957  1.00  0.00     0.202 C 
BRANCH  26  27
ATOM     27  C   UNL A   1      39.260  19.446  25.668  1.00  0.00     0.261 C 
BRANCH  27  28
ATOM     28  O   UNL A   1      40.041  20.636  25.841  1.00  0.00    -0.460 OA
BRANCH  28  29
ATOM     29  C   UNL A   1      40.898  20.591  26.888  1.00  0.00     0.338 C 
ATOM     30  O   UNL A   1      41.509  19.619  27.303  1.00  0.00    -0.246 OA
BRANCH  29  31
ATOM     31  C   UNL A   1      41.156  21.967  27.361  1.00  0.00     0.060 A 
ATOM     32  C   UNL A   1      40.564  23.012  26.642  1.00  0.00     0.016 A 
ATOM     33  C   UNL A   1      41.936  22.237  28.491  1.00  0.00     0.016 A 
ATOM     34  C   UNL A   1      40.800  24.330  27.009  1.00  0.00     0.010 A 
ATOM     35  C   UNL A   1      42.171  23.563  28.863  1.00  0.00     0.010 A 
ATOM     36  C   UNL A   1      41.641  24.613  28.094  1.00  0.00    -0.014 A 
BRANCH  36  37
ATOM     37  C   UNL A   1      42.100  26.005  28.291  1.00  0.00     0.031 A 
ATOM     38  C   UNL A   1      43.436  26.405  27.727  1.00  0.00     0.074 A 
ATOM     39  C   UNL A   1      41.307  26.909  28.891  1.00  0.00     0.049 A 
ATOM     40  N   UNL A   1      44.020  27.575  27.724  1.00  0.00    -0.248 NA
ATOM     41  C   UNL A   1      44.217  25.340  27.077  1.00  0.00     0.031 C 
ATOM     42  C   UNL A   1      39.988  26.633  29.456  1.00  0.00     0.029 A 
ATOM     43  N   UNL A   1      41.499  28.248  29.117  1.00  0.00    -0.354 N 
ATOM     44  C   UNL A   1      45.227  27.389  27.062  1.00  0.00     0.074 A 
ATOM     45  C   UNL A   1      45.319  25.986  26.726  1.00  0.00     0.031 C 
ATOM     46  C   UNL A   1      39.488  27.770  29.968  1.00  0.00     0.029 A 
ATOM     47  C   UNL A   1      40.459  28.846  29.784  1.00  0.00     0.049 A 
ATOM     48  H   UNL A   1      42.306  28.733  28.830  1.00  0.00     0.167 HD
ATOM     49  C   UNL A   1      46.164  28.311  26.744  1.00  0.00     0.037 A 
ATOM     50  C   UNL A   1      40.319  30.117  30.205  1.00  0.00     0.037 A 
ATOM     51  C   UNL A   1      46.072  29.704  27.095  1.00  0.00     0.049 A 
ATOM     52  C   UNL A   1      41.404  31.114  29.886  1.00  0.00     0.074 A 
ATOM     53  C   UNL A   1      46.968  30.724  26.830  1.00  0.00     0.029 A 
ATOM     54  N   UNL A   1      45.016  30.270  27.795  1.00  0.00    -0.354 N 
ATOM     55  N   UNL A   1      42.530  30.936  29.235  1.00  0.00    -0.248 NA
ATOM     56  C   UNL A   1      41.191  32.492  30.348  1.00  0.00     0.031 C 
ATOM     57  C   UNL A   1      46.478  31.898  27.412  1.00  0.00     0.029 A 
ATOM     58  C   UNL A   1      45.247  31.623  27.987  1.00  0.00     0.049 A 
ATOM     59  H   UNL A   1      44.221  29.783  28.108  1.00  0.00     0.167 HD
ATOM     60  C   UNL A   1      43.148  32.180  29.191  1.00  0.00     0.074 A 
ATOM     61  C   UNL A   1      42.255  33.108  29.853  1.00  0.00     0.031 C 
ATOM     62  C   UNL A   1      44.346  32.526  28.657  1.00  0.00     0.037 A 
BRANCH  49  63
ATOM     63  C   UNL A   1      47.373  27.839  25.991  1.00  0.00     0.064 A 
ATOM     64  C   UNL A   1      48.556  27.476  26.654  1.00  0.00     0.173 A 
ATOM     65  C   UNL A   1      47.343  27.719  24.594  1.00  0.00     0.173 A 
ATOM     66  F   UNL A   1      48.646  27.592  27.988  1.00  0.00    -0.203 F 
ATOM     67  C   UNL A   1      49.670  27.033  25.945  1.00  0.00     0.198 A 
ATOM     68  C   UNL A   1      48.448  27.246  23.890  1.00  0.00     0.198 A 
ATOM     69  F   UNL A   1      46.239  28.054  23.909  1.00  0.00    -0.203 F 
ATOM     70  F   UNL A   1      50.804  26.738  26.596  1.00  0.00    -0.200 F 
ATOM     71  C   UNL A   1      49.612  26.909  24.565  1.00  0.00     0.200 A 
ATOM     72  F   UNL A   1      48.387  27.118  22.557  1.00  0.00    -0.200 F 
ATOM     73  F   UNL A   1      50.681  26.473  23.884  1.00  0.00    -0.200 F 
ENDBRANCH  49  63
BRANCH  50  74
ATOM     74  C   UNL A   1      39.115  30.520  30.978  1.00  0.00     0.064 A 
ATOM     75  C   UNL A   1      37.983  31.055  30.345  1.00  0.00     0.173 A 
ATOM     76  C   UNL A   1      39.082  30.401  32.376  1.00  0.00     0.173 A 
ATOM     77  F   UNL A   1      37.972  31.209  29.013  1.00  0.00    -0.203 F 
ATOM     78  C   UNL A   1      36.880  31.482  31.081  1.00  0.00     0.198 A 
ATOM     79  C   UNL A   1      37.965  30.797  33.109  1.00  0.00     0.198 A 
ATOM     80  F   UNL A   1      40.136  29.893  33.032  1.00  0.00    -0.203 F 
ATOM     81  F   UNL A   1      35.836  32.042  30.455  1.00  0.00    -0.200 F 
ATOM     82  C   UNL A   1      36.869  31.347  32.462  1.00  0.00     0.200 A 
ATOM     83  F   UNL A   1      37.954  30.650  34.440  1.00  0.00    -0.200 F 
ATOM     84  F   UNL A   1      35.807  31.756  33.169  1.00  0.00    -0.200 F 
ENDBRANCH  50  74
BRANCH  62  85
ATOM     85  C   UNL A   1      44.742  33.972  28.754  1.00  0.00     0.064 A 
ATOM     86  C   UNL A   1      45.518  34.454  29.818  1.00  0.00     0.173 A 
ATOM     87  C   UNL A   1      44.343  34.886  27.766  1.00  0.00     0.173 A 
ATOM     88  F   UNL A   1      45.916  33.624  30.795  1.00  0.00    -0.203 F 
ATOM     89  C   UNL A   1      45.842  35.805  29.915  1.00  0.00     0.198 A 
ATOM     90  C   UNL A   1      44.700  36.230  27.846  1.00  0.00     0.198 A 
ATOM     91  F   UNL A   1      43.610  34.477  26.720  1.00  0.00    -0.203 F 
ATOM     92  F   UNL A   1      46.524  36.254  30.977  1.00  0.00    -0.200 F 
ATOM     93  C   UNL A   1      45.436  36.691  28.927  1.00  0.00     0.200 A 
ATOM     94  F   UNL A   1      44.322  37.080  26.882  1.00  0.00    -0.200 F 
ATOM     95  F   UNL A   1      45.745  37.990  29.024  1.00  0.00    -0.200 F 
ENDBRANCH  62  85
ENDBRANCH  36  37
ENDBRANCH  29  31
ENDBRANCH  28  29
ENDBRANCH  27  28
ENDBRANCH  26  27
ENDBRANCH   1  26
TORSDOF 16
ENDMDL
MODEL 3
REMARK VINA RESULT:     -12.2      1.439      2.123
REMARK SMILES O=C(CC1CCN(C(=O)c2ccc3[nH]ccc3c2)CC1)OCCOCCOC(=O)c1ccc(-c2c3nc(c(-c4c(F)c(F)c(F)c(F)c4F)c4ccc([nH]4)c(-c4c(F)c(F)c(F)c(F)c4F)c4nc(c(-c5c(F)c(F)c(F)c(F)c5F)c5ccc2[nH]5)C=C4)C=C3)cc1
REMARK SMILES IDX 24 1 23 2 22 3 21 4 2 5 1 6 3 7 4 8 5 9 20 10 6 11 19 12
REMARK SMILES IDX 7 13 8 14 9 15 10 16 11 17 18 18 12 19 17 20 13 21 16 22
REMARK SMILES IDX 14 23 15 24 25 26 26 27 27 28 28 29 29 30 30 31 31 32 92 33
REMARK SMILES IDX 32 34 91 35 33 36 34 37 35 38 85 39 36 40 90 41 84 42 86 43
REMARK SMILES IDX 37 44 89 45 83 46 82 47 38 49 70 50 50 51 69 52 51 53 54 54
REMARK SMILES IDX 68 55 87 56 52 57 53 58 67 60 88 61 55 62 39 63 40 64 48 65
REMARK SMILES IDX 41 66 42 67 46 68 49 69 43 70 44 71 47 72 45 73 71 74 72 75
REMARK SMILES IDX 80 76 73 77 74 78 78 79 81 80 75 81 76 82 79 83 77 84 56 85
REMARK SMILES IDX 57 86 65 87 58 88 59 89 63 90 66 91 60 92 61 93 64 94 62 95
REMARK H PARENT 14 25 86 48 54 59
REMARK Flexibility Score: inf
ROOT
ATOM      1  O   UNL A   1      41.279  21.723  25.398  1.00  0.00    -0.374 OA
ENDROOT
BRANCH   1   2
ATOM      2  C   UNL A   1      40.125  21.281  26.115  1.00  0.00     0.202 C 
BRANCH   2   3
ATOM      3  C   UNL A   1      38.817  21.983  25.749  1.00  0.00     0.261 C 
BRANCH   3   4
ATOM      4  O   UNL A   1      37.659  21.237  26.128  1.00  0.00    -0.463 OA
BRANCH   4   5
ATOM      5  C   UNL A   1      36.512  21.173  25.420  1.00  0.00     0.306 C 
ATOM      6  O   UNL A   1      36.159  20.079  24.978  1.00  0.00    -0.252 OA
BRANCH   5   7
ATOM      7  C   UNL A   1      35.750  22.428  25.020  1.00  0.00     0.126 C 
BRANCH   7   8
ATOM      8  C   UNL A   1      35.361  23.469  26.088  1.00  0.00     0.003 C 
ATOM      9  C   UNL A   1      34.151  22.954  26.914  1.00  0.00     0.026 C 
ATOM     10  C   UNL A   1      34.952  24.853  25.524  1.00  0.00     0.026 C 
ATOM     11  C   UNL A   1      32.839  22.972  26.111  1.00  0.00     0.120 C 
ATOM     12  C   UNL A   1      33.666  24.810  24.709  1.00  0.00     0.120 C 
ATOM     13  N   UNL A   1      32.595  24.299  25.551  1.00  0.00    -0.339 N 
ATOM     14  C   UNL A   1      31.519  25.058  26.008  1.00  0.00     0.253 C 
ATOM     15  O   UNL A   1      30.735  24.675  26.874  1.00  0.00    -0.269 OA
BRANCH  14  16
ATOM     16  C   UNL A   1      31.327  26.421  25.461  1.00  0.00     0.040 A 
ATOM     17  C   UNL A   1      31.967  27.521  26.043  1.00  0.00     0.016 A 
ATOM     18  C   UNL A   1      30.491  26.573  24.346  1.00  0.00     0.024 A 
ATOM     19  C   UNL A   1      31.753  28.812  25.551  1.00  0.00     0.027 A 
ATOM     20  C   UNL A   1      30.273  27.866  23.834  1.00  0.00     0.000 A 
ATOM     21  C   UNL A   1      30.902  28.952  24.447  1.00  0.00     0.045 A 
ATOM     22  C   UNL A   1      29.508  28.382  22.751  1.00  0.00     0.028 A 
ATOM     23  N   UNL A   1      30.521  30.081  23.755  1.00  0.00    -0.361 N 
ATOM     24  C   UNL A   1      29.682  29.746  22.726  1.00  0.00     0.083 A 
ATOM     25  H   UNL A   1      30.812  30.996  23.970  1.00  0.00     0.166 HD
ENDBRANCH  14  16
ENDBRANCH   7   8
ENDBRANCH   5   7
ENDBRANCH   4   5
ENDBRANCH   3   4
ENDBRANCH   2   3
ENDBRANCH   1   2
BRANCH   1  26
ATOM     26  C   UNL A   1      42.529  21.400  26.029  1.00  0.00     0.202 C 
BRANCH  26  27
ATOM     27  C   UNL A   1      43.727  22.183  25.482  1.00  0.00     0.261 C 
BRANCH  27  28
ATOM     28  O   UNL A   1      43.288  23.369  24.806  1.00  0.00    -0.460 OA
BRANCH  28  29
ATOM     29  C   UNL A   1      44.014  24.474  25.096  1.00  0.00     0.338 C 
ATOM     30  O   UNL A   1      45.048  24.842  24.561  1.00  0.00    -0.246 OA
BRANCH  29  31
ATOM     31  C   UNL A   1      43.259  25.312  26.050  1.00  0.00     0.060 A 
ATOM     32  C   UNL A   1      43.820  26.547  26.399  1.00  0.00     0.016 A 
ATOM     33  C   UNL A   1      42.023  24.921  26.575  1.00  0.00     0.016 A 
ATOM     34  C   UNL A   1      43.180  27.365  27.322  1.00  0.00     0.010 A 
ATOM     35  C   UNL A   1      41.378  25.744  27.501  1.00  0.00     0.010 A 
ATOM     36  C   UNL A   1      41.979  26.946  27.911  1.00  0.00    -0.014 A 
BRANCH  36  37
ATOM     37  C   UNL A   1      41.468  27.689  29.084  1.00  0.00     0.031 A 
ATOM     38  C   UNL A   1      42.210  27.570  30.385  1.00  0.00     0.074 A 
ATOM     39  C   UNL A   1      40.412  28.512  28.966  1.00  0.00     0.049 A 
ATOM     40  N   UNL A   1      41.988  28.168  31.527  1.00  0.00    -0.248 NA
ATOM     41  C   UNL A   1      43.362  26.652  30.401  1.00  0.00     0.031 C 
ATOM     42  C   UNL A   1      39.632  28.716  27.746  1.00  0.00     0.029 A 
ATOM     43  N   UNL A   1      39.819  29.335  29.889  1.00  0.00    -0.354 N 
ATOM     44  C   UNL A   1      42.977  27.710  32.389  1.00  0.00     0.074 A 
ATOM     45  C   UNL A   1      43.767  26.745  31.659  1.00  0.00     0.031 C 
ATOM     46  C   UNL A   1      38.659  29.607  27.997  1.00  0.00     0.029 A 
ATOM     47  C   UNL A   1      38.736  30.019  29.397  1.00  0.00     0.049 A 
ATOM     48  H   UNL A   1      40.140  29.425  30.815  1.00  0.00     0.167 HD
ATOM     49  C   UNL A   1      43.216  28.080  33.668  1.00  0.00     0.037 A 
ATOM     50  C   UNL A   1      37.899  30.873  30.017  1.00  0.00     0.037 A 
ATOM     51  C   UNL A   1      42.416  29.031  34.394  1.00  0.00     0.049 A 
ATOM     52  C   UNL A   1      38.155  31.225  31.460  1.00  0.00     0.074 A 
ATOM     53  C   UNL A   1      42.563  29.472  35.696  1.00  0.00     0.029 A 
ATOM     54  N   UNL A   1      41.308  29.686  33.872  1.00  0.00    -0.354 N 
ATOM     55  N   UNL A   1      39.109  30.810  32.260  1.00  0.00    -0.248 NA
ATOM     56  C   UNL A   1      37.226  32.179  32.082  1.00  0.00     0.031 C 
ATOM     57  C   UNL A   1      41.518  30.357  35.978  1.00  0.00     0.029 A 
ATOM     58  C   UNL A   1      40.753  30.515  34.834  1.00  0.00     0.049 A 
ATOM     59  H   UNL A   1      40.969  29.578  32.955  1.00  0.00     0.167 HD
ATOM     60  C   UNL A   1      38.909  31.465  33.469  1.00  0.00     0.074 A 
ATOM     61  C   UNL A   1      37.761  32.328  33.285  1.00  0.00     0.031 C 
ATOM     62  C   UNL A   1      39.604  31.360  34.629  1.00  0.00     0.037 A 
BRANCH  49  63
ATOM     63  C   UNL A   1      44.382  27.443  34.366  1.00  0.00     0.064 A 
ATOM     64  C   UNL A   1      44.235  26.267  35.119  1.00  0.00     0.173 A 
ATOM     65  C   UNL A   1      45.667  27.995  34.260  1.00  0.00     0.173 A 
ATOM     66  F   UNL A   1      43.024  25.709  35.270  1.00  0.00    -0.203 F 
ATOM     67  C   UNL A   1      45.326  25.681  35.756  1.00  0.00     0.198 A 
ATOM     68  C   UNL A   1      46.761  27.390  34.873  1.00  0.00     0.198 A 
ATOM     69  F   UNL A   1      45.864  29.120  33.555  1.00  0.00    -0.203 F 
ATOM     70  F   UNL A   1      45.152  24.585  36.509  1.00  0.00    -0.200 F 
ATOM     71  C   UNL A   1      46.589  26.238  35.626  1.00  0.00     0.200 A 
ATOM     72  F   UNL A   1      47.983  27.924  34.738  1.00  0.00    -0.200 F 
ATOM     73  F   UNL A   1      47.640  25.668  36.232  1.00  0.00    -0.200 F 
ENDBRANCH  49  63
BRANCH  50  74
ATOM     74  C   UNL A   1      36.739  31.446  29.285  1.00  0.00     0.064 A 
ATOM     75  C   UNL A   1      36.696  32.802  28.928  1.00  0.00     0.173 A 
ATOM     76  C   UNL A   1      35.634  30.650  28.949  1.00  0.00     0.173 A 
ATOM     77  F   UNL A   1      37.718  33.610  29.244  1.00  0.00    -0.203 F 
ATOM     78  C   UNL A   1      35.581  33.344  28.291  1.00  0.00     0.198 A 
ATOM     79  C   UNL A   1      34.533  31.186  28.282  1.00  0.00     0.198 A 
ATOM     80  F   UNL A   1      35.623  29.346  29.265  1.00  0.00    -0.203 F 
ATOM     81  F   UNL A   1      35.543  34.654  28.012  1.00  0.00    -0.200 F 
ATOM     82  C   UNL A   1      34.503  32.534  27.963  1.00  0.00     0.200 A 
ATOM     83  F   UNL A   1      33.502  30.396  27.954  1.00  0.00    -0.200 F 
ATOM     84  F   UNL A   1      33.433  33.056  27.349  1.00  0.00    -0.200 F 
ENDBRANCH  50  74
BRANCH  62  85
ATOM     85  C   UNL A   1      39.149  32.218  35.775  1.00  0.00     0.064 A 
ATOM     86  C   UNL A   1      39.584  33.543  35.922  1.00  0.00     0.173 A 
ATOM     87  C   UNL A   1      38.263  31.708  36.736  1.00  0.00     0.173 A 
ATOM     88  F   UNL A   1      40.441  34.076  35.038  1.00  0.00    -0.203 F 
ATOM     89  C   UNL A   1      39.186  34.312  37.014  1.00  0.00     0.198 A 
ATOM     90  C   UNL A   1      37.836  32.491  37.806  1.00  0.00     0.198 A 
ATOM     91  F   UNL A   1      37.806  30.451  36.638  1.00  0.00    -0.203 F 
ATOM     92  F   UNL A   1      39.670  35.551  37.170  1.00  0.00    -0.200 F 
ATOM     93  C   UNL A   1      38.309  33.787  37.952  1.00  0.00     0.200 A 
ATOM     94  F   UNL A   1      36.976  31.988  38.702  1.00  0.00    -0.200 F 
ATOM     95  F   UNL A   1      37.930  34.525  39.002  1.00  0.00    -0.200 F 
ENDBRANCH  62  85
ENDBRANCH  36  37
ENDBRANCH  29  31
ENDBRANCH  28  29
ENDBRANCH  27  28
ENDBRANCH  26  27
ENDBRANCH   1  26
TORSDOF 16
ENDMDL
