MODEL 1
REMARK VINA RESULT:     -10.9      0.000      0.000
REMARK SMILES C[NH2+][C@H](CC(=O)OCCOCCOC(=O)c1ccc(-c2c3nc(c(-c4c(F)c(F)c(F)c(F)c4F)c4ccc([nH]4)c(-c4c(F)c(F)c(F)c(F)c4F)c4nc(c(-c5c(F)c(F)c(F)c(F)c5F)c5ccc2[nH]5)C=C4)C=C3)cc1)c1cccc(C2CC2)c1
REMARK SMILES IDX 9 1 8 2 7 3 5 4 6 5 4 6 3 7 2 8 1 9 79 12 80 13 87 14 81 15
REMARK SMILES IDX 83 16 82 17 84 18 85 19 86 20 10 21 11 22 12 23 13 24 14 25
REMARK SMILES IDX 15 26 16 27 17 28 78 29 18 30 77 31 19 32 20 33 21 34 71 35
REMARK SMILES IDX 22 36 76 37 70 38 72 39 23 40 75 41 69 42 68 43 24 45 56 46
REMARK SMILES IDX 36 47 55 48 37 49 40 50 54 51 73 52 38 53 39 54 53 56 74 57
REMARK SMILES IDX 41 58 25 59 26 60 34 61 27 62 28 63 32 64 35 65 29 66 30 67
REMARK SMILES IDX 33 68 31 69 57 70 58 71 66 72 59 73 60 74 64 75 67 76 61 77
REMARK SMILES IDX 62 78 65 79 63 80 42 81 43 82 51 83 44 84 45 85 49 86 52 87
REMARK SMILES IDX 46 88 47 89 50 90 48 91
REMARK H PARENT 2 10 2 11 72 44 40 55
REMARK Flexibility Score: inf
ROOT
ATOM      1  C   UNL A   1      32.107  27.551  26.491  1.00  0.00     0.202 C 
ENDROOT
BRANCH   1   2
ATOM      2  C   UNL A   1      33.593  27.344  26.147  1.00  0.00     0.261 C 
BRANCH   2   3
ATOM      3  O   UNL A   1      33.879  27.185  24.744  1.00  0.00    -0.463 OA
BRANCH   3   4
ATOM      4  C   UNL A   1      33.848  25.897  24.318  1.00  0.00     0.312 C 
ATOM      5  O   UNL A   1      33.923  24.923  25.063  1.00  0.00    -0.252 OA
BRANCH   4   6
ATOM      6  C   UNL A   1      33.652  25.703  22.831  1.00  0.00     0.192 C 
BRANCH   6   7
ATOM      7  C   UNL A   1      32.283  25.221  22.293  1.00  0.00     0.224 C 
BRANCH   7   8
ATOM      8  N   UNL A   1      31.917  23.842  22.701  1.00  0.00    -0.342 N 
ATOM      9  C   UNL A   1      32.883  22.780  22.522  1.00  0.00     0.331 C 
ATOM     10  H   UNL A   1      31.689  23.875  23.695  1.00  0.00     0.346 HD
ATOM     11  H   UNL A   1      31.158  23.592  22.067  1.00  0.00     0.346 HD
ENDBRANCH   7   8
BRANCH   7  12
ATOM     12  C   UNL A   1      31.107  26.083  22.794  1.00  0.00     0.010 A 
ATOM     13  C   UNL A   1      30.171  25.514  23.675  1.00  0.00     0.010 A 
ATOM     14  C   UNL A   1      30.845  27.379  22.294  1.00  0.00     0.014 A 
ATOM     15  C   UNL A   1      29.023  26.203  24.048  1.00  0.00     0.001 A 
ATOM     16  C   UNL A   1      29.700  28.119  22.681  1.00  0.00    -0.044 A 
ATOM     17  C   UNL A   1      28.797  27.483  23.552  1.00  0.00     0.004 A 
BRANCH  16  18
ATOM     18  C   UNL A   1      29.395  29.553  22.285  1.00  0.00     0.019 C 
ATOM     19  C   UNL A   1      28.040  30.198  22.378  1.00  0.00     0.009 C 
ATOM     20  C   UNL A   1      29.117  30.599  23.339  1.00  0.00     0.009 C 
ENDBRANCH  16  18
ENDBRANCH   7  12
ENDBRANCH   6   7
ENDBRANCH   4   6
ENDBRANCH   3   4
ENDBRANCH   2   3
ENDBRANCH   1   2
BRANCH   1  21
ATOM     21  O   UNL A   1      31.376  28.497  25.722  1.00  0.00    -0.374 OA
BRANCH  21  22
ATOM     22  C   UNL A   1      32.023  29.723  25.374  1.00  0.00     0.202 C 
BRANCH  22  23
ATOM     23  C   UNL A   1      31.819  30.912  26.315  1.00  0.00     0.261 C 
BRANCH  23  24
ATOM     24  O   UNL A   1      32.679  30.849  27.475  1.00  0.00    -0.460 OA
BRANCH  24  25
ATOM     25  C   UNL A   1      33.482  31.928  27.612  1.00  0.00     0.338 C 
ATOM     26  O   UNL A   1      33.124  33.102  27.563  1.00  0.00    -0.246 OA
BRANCH  25  27
ATOM     27  C   UNL A   1      34.888  31.576  27.920  1.00  0.00     0.060 A 
ATOM     28  C   UNL A   1      35.147  30.228  28.198  1.00  0.00     0.016 A 
ATOM     29  C   UNL A   1      35.908  32.518  28.074  1.00  0.00     0.016 A 
ATOM     30  C   UNL A   1      36.372  29.841  28.733  1.00  0.00     0.010 A 
ATOM     31  C   UNL A   1      37.125  32.139  28.660  1.00  0.00     0.010 A 
ATOM     32  C   UNL A   1      37.344  30.803  29.028  1.00  0.00    -0.014 A 
BRANCH  32  33
ATOM     33  C   UNL A   1      38.569  30.366  29.735  1.00  0.00     0.031 A 
ATOM     34  C   UNL A   1      38.839  30.829  31.140  1.00  0.00     0.074 A 
ATOM     35  C   UNL A   1      39.395  29.491  29.140  1.00  0.00     0.049 A 
ATOM     36  N   UNL A   1      39.732  30.397  31.996  1.00  0.00    -0.248 NA
ATOM     37  C   UNL A   1      37.992  31.916  31.652  1.00  0.00     0.031 C 
ATOM     38  C   UNL A   1      39.234  28.978  27.782  1.00  0.00     0.029 A 
ATOM     39  N   UNL A   1      40.524  28.872  29.608  1.00  0.00    -0.354 N 
ATOM     40  C   UNL A   1      39.526  31.124  33.160  1.00  0.00     0.074 A 
ATOM     41  C   UNL A   1      38.456  32.062  32.887  1.00  0.00     0.031 C 
ATOM     42  C   UNL A   1      40.239  28.130  27.516  1.00  0.00     0.029 A 
ATOM     43  C   UNL A   1      41.101  28.030  28.692  1.00  0.00     0.049 A 
ATOM     44  H   UNL A   1      40.885  29.017  30.512  1.00  0.00     0.167 HD
ATOM     45  C   UNL A   1      40.164  31.003  34.350  1.00  0.00     0.037 A 
ATOM     46  C   UNL A   1      42.193  27.251  28.797  1.00  0.00     0.037 A 
ATOM     47  C   UNL A   1      41.252  30.090  34.597  1.00  0.00     0.049 A 
ATOM     48  C   UNL A   1      42.908  27.161  30.114  1.00  0.00     0.074 A 
ATOM     49  C   UNL A   1      41.935  29.856  35.779  1.00  0.00     0.029 A 
ATOM     50  N   UNL A   1      41.833  29.277  33.634  1.00  0.00    -0.354 N 
ATOM     51  N   UNL A   1      42.639  27.771  31.243  1.00  0.00    -0.248 NA
ATOM     52  C   UNL A   1      44.059  26.250  30.182  1.00  0.00     0.031 C 
ATOM     53  C   UNL A   1      42.960  28.937  35.519  1.00  0.00     0.029 A 
ATOM     54  C   UNL A   1      42.887  28.565  34.187  1.00  0.00     0.049 A 
ATOM     55  H   UNL A   1      41.540  29.214  32.697  1.00  0.00     0.167 HD
ATOM     56  C   UNL A   1      43.569  27.303  32.161  1.00  0.00     0.074 A 
ATOM     57  C   UNL A   1      44.403  26.348  31.459  1.00  0.00     0.031 C 
ATOM     58  C   UNL A   1      43.716  27.631  33.468  1.00  0.00     0.037 A 
BRANCH  45  59
ATOM     59  C   UNL A   1      39.708  31.872  35.485  1.00  0.00     0.064 A 
ATOM     60  C   UNL A   1      40.227  33.163  35.668  1.00  0.00     0.173 A 
ATOM     61  C   UNL A   1      38.685  31.449  36.347  1.00  0.00     0.173 A 
ATOM     62  F   UNL A   1      41.208  33.615  34.873  1.00  0.00    -0.203 F 
ATOM     63  C   UNL A   1      39.744  33.994  36.678  1.00  0.00     0.198 A 
ATOM     64  C   UNL A   1      38.191  32.289  37.343  1.00  0.00     0.198 A 
ATOM     65  F   UNL A   1      38.149  30.227  36.210  1.00  0.00    -0.203 F 
ATOM     66  F   UNL A   1      40.268  35.216  36.846  1.00  0.00    -0.200 F 
ATOM     67  C   UNL A   1      38.722  33.560  37.509  1.00  0.00     0.200 A 
ATOM     68  F   UNL A   1      37.195  31.873  38.136  1.00  0.00    -0.200 F 
ATOM     69  F   UNL A   1      38.248  34.366  38.468  1.00  0.00    -0.200 F 
ENDBRANCH  45  59
BRANCH  46  70
ATOM     70  C   UNL A   1      42.638  26.473  27.616  1.00  0.00     0.064 A 
ATOM     71  C   UNL A   1      43.587  26.984  26.724  1.00  0.00     0.173 A 
ATOM     72  C   UNL A   1      42.151  25.177  27.390  1.00  0.00     0.173 A 
ATOM     73  F   UNL A   1      44.070  28.223  26.896  1.00  0.00    -0.203 F 
ATOM     74  C   UNL A   1      44.032  26.228  25.642  1.00  0.00     0.198 A 
ATOM     75  C   UNL A   1      42.612  24.414  26.320  1.00  0.00     0.198 A 
ATOM     76  F   UNL A   1      41.246  24.643  28.223  1.00  0.00    -0.203 F 
ATOM     77  F   UNL A   1      44.925  26.746  24.788  1.00  0.00    -0.200 F 
ATOM     78  C   UNL A   1      43.550  24.942  25.445  1.00  0.00     0.200 A 
ATOM     79  F   UNL A   1      42.157  23.167  26.143  1.00  0.00    -0.200 F 
ATOM     80  F   UNL A   1      43.990  24.211  24.413  1.00  0.00    -0.200 F 
ENDBRANCH  46  70
BRANCH  58  81
ATOM     81  C   UNL A   1      44.817  26.945  34.220  1.00  0.00     0.064 A 
ATOM     82  C   UNL A   1      44.610  25.710  34.853  1.00  0.00     0.173 A 
ATOM     83  C   UNL A   1      46.095  27.518  34.294  1.00  0.00     0.173 A 
ATOM     84  F   UNL A   1      43.401  25.131  34.823  1.00  0.00    -0.203 F 
ATOM     85  C   UNL A   1      45.638  25.087  35.556  1.00  0.00     0.198 A 
ATOM     86  C   UNL A   1      47.127  26.879  34.977  1.00  0.00     0.198 A 
ATOM     87  F   UNL A   1      46.345  28.695  33.701  1.00  0.00    -0.203 F 
ATOM     88  F   UNL A   1      45.405  23.931  36.192  1.00  0.00    -0.200 F 
ATOM     89  C   UNL A   1      46.895  25.669  35.613  1.00  0.00     0.200 A 
ATOM     90  F   UNL A   1      48.344  27.437  35.025  1.00  0.00    -0.200 F 
ATOM     91  F   UNL A   1      47.882  25.068  36.292  1.00  0.00    -0.200 F 
ENDBRANCH  58  81
ENDBRANCH  32  33
ENDBRANCH  25  27
ENDBRANCH  24  25
ENDBRANCH  23  24
ENDBRANCH  22  23
ENDBRANCH  21  22
ENDBRANCH   1  21
TORSDOF 18
ENDMDL
MODEL 2
REMARK VINA RESULT:     -10.6      4.240      9.648
REMARK SMILES C[NH2+][C@H](CC(=O)OCCOCCOC(=O)c1ccc(-c2c3nc(c(-c4c(F)c(F)c(F)c(F)c4F)c4ccc([nH]4)c(-c4c(F)c(F)c(F)c(F)c4F)c4nc(c(-c5c(F)c(F)c(F)c(F)c5F)c5ccc2[nH]5)C=C4)C=C3)cc1)c1cccc(C2CC2)c1
REMARK SMILES IDX 9 1 8 2 7 3 5 4 6 5 4 6 3 7 2 8 1 9 79 12 80 13 87 14 81 15
REMARK SMILES IDX 83 16 82 17 84 18 85 19 86 20 10 21 11 22 12 23 13 24 14 25
REMARK SMILES IDX 15 26 16 27 17 28 78 29 18 30 77 31 19 32 20 33 21 34 71 35
REMARK SMILES IDX 22 36 76 37 70 38 72 39 23 40 75 41 69 42 68 43 24 45 56 46
REMARK SMILES IDX 36 47 55 48 37 49 40 50 54 51 73 52 38 53 39 54 53 56 74 57
REMARK SMILES IDX 41 58 25 59 26 60 34 61 27 62 28 63 32 64 35 65 29 66 30 67
REMARK SMILES IDX 33 68 31 69 57 70 58 71 66 72 59 73 60 74 64 75 67 76 61 77
REMARK SMILES IDX 62 78 65 79 63 80 42 81 43 82 51 83 44 84 45 85 49 86 52 87
REMARK SMILES IDX 46 88 47 89 50 90 48 91
REMARK H PARENT 2 10 2 11 72 44 40 55
REMARK Flexibility Score: inf
ROOT
ATOM      1  C   UNL A   1      34.835  23.010  25.528  1.00  0.00     0.202 C 
ENDROOT
BRANCH   1   2
ATOM      2  C   UNL A   1      33.328  23.237  25.314  1.00  0.00     0.261 C 
BRANCH   2   3
ATOM      3  O   UNL A   1      32.785  24.397  25.971  1.00  0.00    -0.463 OA
BRANCH   3   4
ATOM      4  C   UNL A   1      31.518  24.231  26.427  1.00  0.00     0.312 C 
ATOM      5  O   UNL A   1      31.200  23.425  27.299  1.00  0.00    -0.252 OA
BRANCH   4   6
ATOM      6  C   UNL A   1      30.481  25.158  25.835  1.00  0.00     0.192 C 
BRANCH   6   7
ATOM      7  C   UNL A   1      30.637  26.690  25.997  1.00  0.00     0.224 C 
BRANCH   7   8
ATOM      8  N   UNL A   1      31.825  27.103  26.786  1.00  0.00    -0.342 N 
ATOM      9  C   UNL A   1      31.728  28.270  27.635  1.00  0.00     0.331 C 
ATOM     10  H   UNL A   1      32.074  26.317  27.386  1.00  0.00     0.346 HD
ATOM     11  H   UNL A   1      32.509  27.371  26.078  1.00  0.00     0.346 HD
ENDBRANCH   7   8
BRANCH   7  12
ATOM     12  C   UNL A   1      30.811  27.418  24.650  1.00  0.00     0.010 A 
ATOM     13  C   UNL A   1      32.094  27.499  24.078  1.00  0.00     0.010 A 
ATOM     14  C   UNL A   1      29.763  28.135  24.030  1.00  0.00     0.014 A 
ATOM     15  C   UNL A   1      32.326  28.258  22.938  1.00  0.00     0.001 A 
ATOM     16  C   UNL A   1      29.962  28.891  22.849  1.00  0.00    -0.044 A 
ATOM     17  C   UNL A   1      31.273  28.943  22.340  1.00  0.00     0.004 A 
BRANCH  16  18
ATOM     18  C   UNL A   1      28.877  29.599  22.055  1.00  0.00     0.019 C 
ATOM     19  C   UNL A   1      27.656  30.239  22.654  1.00  0.00     0.009 C 
ATOM     20  C   UNL A   1      28.747  31.103  22.103  1.00  0.00     0.009 C 
ENDBRANCH  16  18
ENDBRANCH   7  12
ENDBRANCH   6   7
ENDBRANCH   4   6
ENDBRANCH   3   4
ENDBRANCH   2   3
ENDBRANCH   1   2
BRANCH   1  21
ATOM     21  O   UNL A   1      35.515  22.169  24.607  1.00  0.00    -0.374 OA
BRANCH  21  22
ATOM     22  C   UNL A   1      35.767  20.816  24.992  1.00  0.00     0.202 C 
BRANCH  22  23
ATOM     23  C   UNL A   1      37.220  20.338  24.954  1.00  0.00     0.261 C 
BRANCH  23  24
ATOM     24  O   UNL A   1      38.161  21.426  25.097  1.00  0.00    -0.460 OA
BRANCH  24  25
ATOM     25  C   UNL A   1      39.183  21.150  25.938  1.00  0.00     0.338 C 
ATOM     26  O   UNL A   1      39.744  20.064  26.057  1.00  0.00    -0.246 OA
BRANCH  25  27
ATOM     27  C   UNL A   1      39.657  22.335  26.691  1.00  0.00     0.060 A 
ATOM     28  C   UNL A   1      39.112  23.570  26.318  1.00  0.00     0.016 A 
ATOM     29  C   UNL A   1      40.687  22.294  27.633  1.00  0.00     0.016 A 
ATOM     30  C   UNL A   1      39.666  24.756  26.790  1.00  0.00     0.010 A 
ATOM     31  C   UNL A   1      41.280  23.488  28.071  1.00  0.00     0.010 A 
ATOM     32  C   UNL A   1      40.793  24.724  27.618  1.00  0.00    -0.014 A 
BRANCH  32  33
ATOM     33  C   UNL A   1      41.440  26.008  27.972  1.00  0.00     0.031 A 
ATOM     34  C   UNL A   1      42.843  26.300  27.520  1.00  0.00     0.074 A 
ATOM     35  C   UNL A   1      40.732  26.940  28.631  1.00  0.00     0.049 A 
ATOM     36  N   UNL A   1      43.500  27.433  27.543  1.00  0.00    -0.248 NA
ATOM     37  C   UNL A   1      43.607  25.173  26.966  1.00  0.00     0.031 C 
ATOM     38  C   UNL A   1      39.367  26.765  29.119  1.00  0.00     0.029 A 
ATOM     39  N   UNL A   1      41.062  28.220  28.989  1.00  0.00    -0.354 N 
ATOM     40  C   UNL A   1      44.735  27.169  26.967  1.00  0.00     0.074 A 
ATOM     41  C   UNL A   1      44.756  25.756  26.648  1.00  0.00     0.031 C 
ATOM     42  C   UNL A   1      38.977  27.894  29.731  1.00  0.00     0.029 A 
ATOM     43  C   UNL A   1      40.059  28.872  29.659  1.00  0.00     0.049 A 
ATOM     44  H   UNL A   1      41.933  28.631  28.785  1.00  0.00     0.167 HD
ATOM     45  C   UNL A   1      45.747  28.034  26.714  1.00  0.00     0.037 A 
ATOM     46  C   UNL A   1      40.013  30.126  30.145  1.00  0.00     0.037 A 
ATOM     47  C   UNL A   1      45.726  29.432  27.069  1.00  0.00     0.049 A 
ATOM     48  C   UNL A   1      41.161  31.058  29.886  1.00  0.00     0.074 A 
ATOM     49  C   UNL A   1      46.678  30.404  26.815  1.00  0.00     0.029 A 
ATOM     50  N   UNL A   1      44.706  30.049  27.779  1.00  0.00    -0.354 N 
ATOM     51  N   UNL A   1      42.281  30.830  29.243  1.00  0.00    -0.248 NA
ATOM     52  C   UNL A   1      41.027  32.431  30.392  1.00  0.00     0.031 C 
ATOM     53  C   UNL A   1      46.257  31.598  27.414  1.00  0.00     0.029 A 
ATOM     54  C   UNL A   1      45.021  31.381  28.001  1.00  0.00     0.049 A 
ATOM     55  H   UNL A   1      43.880  29.608  28.080  1.00  0.00     0.167 HD
ATOM     56  C   UNL A   1      42.974  32.032  29.246  1.00  0.00     0.074 A 
ATOM     57  C   UNL A   1      42.143  32.991  29.945  1.00  0.00     0.031 C 
ATOM     58  C   UNL A   1      44.188  32.317  28.713  1.00  0.00     0.037 A 
BRANCH  45  59
ATOM     59  C   UNL A   1      46.967  27.508  26.016  1.00  0.00     0.064 A 
ATOM     60  C   UNL A   1      47.068  27.522  24.617  1.00  0.00     0.173 A 
ATOM     61  C   UNL A   1      48.079  27.067  26.749  1.00  0.00     0.173 A 
ATOM     62  F   UNL A   1      46.033  27.932  23.869  1.00  0.00    -0.203 F 
ATOM     63  C   UNL A   1      48.235  27.104  23.978  1.00  0.00     0.198 A 
ATOM     64  C   UNL A   1      49.250  26.668  26.108  1.00  0.00     0.198 A 
ATOM     65  F   UNL A   1      48.037  27.042  28.090  1.00  0.00    -0.203 F 
ATOM     66  F   UNL A   1      48.301  27.107  22.639  1.00  0.00    -0.200 F 
ATOM     67  C   UNL A   1      49.326  26.685  24.723  1.00  0.00     0.200 A 
ATOM     68  F   UNL A   1      50.308  26.277  26.830  1.00  0.00    -0.200 F 
ATOM     69  F   UNL A   1      50.451  26.299  24.108  1.00  0.00    -0.200 F 
ENDBRANCH  45  59
BRANCH  46  70
ATOM     70  C   UNL A   1      38.809  30.565  30.891  1.00  0.00     0.064 A 
ATOM     71  C   UNL A   1      38.780  30.562  32.290  1.00  0.00     0.173 A 
ATOM     72  C   UNL A   1      37.679  31.041  30.209  1.00  0.00     0.173 A 
ATOM     73  F   UNL A   1      39.833  30.102  32.982  1.00  0.00    -0.203 F 
ATOM     74  C   UNL A   1      37.661  31.017  32.984  1.00  0.00     0.198 A 
ATOM     75  C   UNL A   1      36.570  31.516  30.903  1.00  0.00     0.198 A 
ATOM     76  F   UNL A   1      37.666  31.070  28.869  1.00  0.00    -0.203 F 
ATOM     77  F   UNL A   1      37.646  30.985  34.323  1.00  0.00    -0.200 F 
ATOM     78  C   UNL A   1      36.560  31.500  32.290  1.00  0.00     0.200 A 
ATOM     79  F   UNL A   1      35.517  31.998  30.230  1.00  0.00    -0.200 F 
ATOM     80  F   UNL A   1      35.491  31.952  32.958  1.00  0.00    -0.200 F 
ENDBRANCH  46  70
BRANCH  58  81
ATOM     81  C   UNL A   1      44.682  33.724  28.864  1.00  0.00     0.064 A 
ATOM     82  C   UNL A   1      45.465  34.110  29.962  1.00  0.00     0.173 A 
ATOM     83  C   UNL A   1      44.387  34.692  27.893  1.00  0.00     0.173 A 
ATOM     84  F   UNL A   1      45.761  33.223  30.924  1.00  0.00    -0.203 F 
ATOM     85  C   UNL A   1      45.911  35.422  30.096  1.00  0.00     0.198 A 
ATOM     86  C   UNL A   1      44.855  35.997  28.018  1.00  0.00     0.198 A 
ATOM     87  F   UNL A   1      43.646  34.372  26.822  1.00  0.00    -0.203 F 
ATOM     88  F   UNL A   1      46.618  35.779  31.177  1.00  0.00    -0.200 F 
ATOM     89  C   UNL A   1      45.610  36.362  29.122  1.00  0.00     0.200 A 
ATOM     90  F   UNL A   1      44.572  36.904  27.072  1.00  0.00    -0.200 F 
ATOM     91  F   UNL A   1      46.039  37.625  29.255  1.00  0.00    -0.200 F 
ENDBRANCH  58  81
ENDBRANCH  32  33
ENDBRANCH  25  27
ENDBRANCH  24  25
ENDBRANCH  23  24
ENDBRANCH  22  23
ENDBRANCH  21  22
ENDBRANCH   1  21
TORSDOF 18
ENDMDL
MODEL 3
REMARK VINA RESULT:     -10.6      3.954      7.117
REMARK SMILES C[NH2+][C@H](CC(=O)OCCOCCOC(=O)c1ccc(-c2c3nc(c(-c4c(F)c(F)c(F)c(F)c4F)c4ccc([nH]4)c(-c4c(F)c(F)c(F)c(F)c4F)c4nc(c(-c5c(F)c(F)c(F)c(F)c5F)c5ccc2[nH]5)C=C4)C=C3)cc1)c1cccc(C2CC2)c1
REMARK SMILES IDX 9 1 8 2 7 3 5 4 6 5 4 6 3 7 2 8 1 9 79 12 80 13 87 14 81 15
REMARK SMILES IDX 83 16 82 17 84 18 85 19 86 20 10 21 11 22 12 23 13 24 14 25
REMARK SMILES IDX 15 26 16 27 17 28 78 29 18 30 77 31 19 32 20 33 21 34 71 35
REMARK SMILES IDX 22 36 76 37 70 38 72 39 23 40 75 41 69 42 68 43 24 45 56 46
REMARK SMILES IDX 36 47 55 48 37 49 40 50 54 51 73 52 38 53 39 54 53 56 74 57
REMARK SMILES IDX 41 58 25 59 26 60 34 61 27 62 28 63 32 64 35 65 29 66 30 67
REMARK SMILES IDX 33 68 31 69 57 70 58 71 66 72 59 73 60 74 64 75 67 76 61 77
REMARK SMILES IDX 62 78 65 79 63 80 42 81 43 82 51 83 44 84 45 85 49 86 52 87
REMARK SMILES IDX 46 88 47 89 50 90 48 91
REMARK H PARENT 2 10 2 11 72 44 40 55
REMARK Flexibility Score: inf
ROOT
ATOM      1  C   UNL A   1      32.647  36.014  30.303  1.00  0.00     0.202 C 
ENDROOT
BRANCH   1   2
ATOM      2  C   UNL A   1      33.699  35.917  31.422  1.00  0.00     0.261 C 
BRANCH   2   3
ATOM      3  O   UNL A   1      33.247  35.276  32.631  1.00  0.00    -0.463 OA
BRANCH   3   4
ATOM      4  C   UNL A   1      33.804  34.059  32.852  1.00  0.00     0.312 C 
ATOM      5  O   UNL A   1      33.178  33.077  33.245  1.00  0.00    -0.252 OA
BRANCH   4   6
ATOM      6  C   UNL A   1      35.275  33.942  32.525  1.00  0.00     0.192 C 
BRANCH   6   7
ATOM      7  C   UNL A   1      35.841  32.601  31.999  1.00  0.00     0.224 C 
BRANCH   7   8
ATOM      8  N   UNL A   1      36.607  32.715  30.732  1.00  0.00    -0.342 N 
ATOM      9  C   UNL A   1      37.251  33.971  30.415  1.00  0.00     0.331 C 
ATOM     10  H   UNL A   1      37.336  32.003  30.759  1.00  0.00     0.346 HD
ATOM     11  H   UNL A   1      35.897  32.614  30.007  1.00  0.00     0.346 HD
ENDBRANCH   7   8
BRANCH   7  12
ATOM     12  C   UNL A   1      36.836  31.947  32.979  1.00  0.00     0.010 A 
ATOM     13  C   UNL A   1      37.258  30.627  32.742  1.00  0.00     0.010 A 
ATOM     14  C   UNL A   1      37.235  32.565  34.186  1.00  0.00     0.014 A 
ATOM     15  C   UNL A   1      38.045  29.948  33.665  1.00  0.00     0.001 A 
ATOM     16  C   UNL A   1      38.063  31.910  35.130  1.00  0.00    -0.044 A 
ATOM     17  C   UNL A   1      38.435  30.585  34.839  1.00  0.00     0.004 A 
BRANCH  16  18
ATOM     18  C   UNL A   1      38.630  32.532  36.395  1.00  0.00     0.019 C 
ATOM     19  C   UNL A   1      38.156  33.822  37.003  1.00  0.00     0.009 C 
ATOM     20  C   UNL A   1      37.832  32.526  37.678  1.00  0.00     0.009 C 
ENDBRANCH  16  18
ENDBRANCH   7  12
ENDBRANCH   6   7
ENDBRANCH   4   6
ENDBRANCH   3   4
ENDBRANCH   2   3
ENDBRANCH   1   2
BRANCH   1  21
ATOM     21  O   UNL A   1      32.621  34.979  29.329  1.00  0.00    -0.374 OA
BRANCH  21  22
ATOM     22  C   UNL A   1      33.850  34.321  29.015  1.00  0.00     0.202 C 
BRANCH  22  23
ATOM     23  C   UNL A   1      33.765  33.048  28.170  1.00  0.00     0.261 C 
BRANCH  23  24
ATOM     24  O   UNL A   1      34.380  31.913  28.821  1.00  0.00    -0.460 OA
BRANCH  24  25
ATOM     25  C   UNL A   1      34.514  30.835  28.016  1.00  0.00     0.338 C 
ATOM     26  O   UNL A   1      33.698  30.456  27.180  1.00  0.00    -0.246 OA
BRANCH  25  27
ATOM     27  C   UNL A   1      35.819  30.152  28.167  1.00  0.00     0.060 A 
ATOM     28  C   UNL A   1      36.052  29.512  29.390  1.00  0.00     0.016 A 
ATOM     29  C   UNL A   1      36.849  30.228  27.225  1.00  0.00     0.016 A 
ATOM     30  C   UNL A   1      37.325  29.059  29.719  1.00  0.00     0.010 A 
ATOM     31  C   UNL A   1      38.144  29.818  27.573  1.00  0.00     0.010 A 
ATOM     32  C   UNL A   1      38.393  29.267  28.839  1.00  0.00    -0.014 A 
BRANCH  32  33
ATOM     33  C   UNL A   1      39.755  28.906  29.293  1.00  0.00     0.031 A 
ATOM     34  C   UNL A   1      40.479  29.775  30.284  1.00  0.00     0.074 A 
ATOM     35  C   UNL A   1      40.305  27.756  28.872  1.00  0.00     0.049 A 
ATOM     36  N   UNL A   1      41.574  29.523  30.958  1.00  0.00    -0.248 NA
ATOM     37  C   UNL A   1      39.894  31.095  30.556  1.00  0.00     0.031 C 
ATOM     38  C   UNL A   1      39.696  26.840  27.911  1.00  0.00     0.029 A 
ATOM     39  N   UNL A   1      41.491  27.159  29.209  1.00  0.00    -0.354 N 
ATOM     40  C   UNL A   1      41.785  30.631  31.767  1.00  0.00     0.074 A 
ATOM     41  C   UNL A   1      40.732  31.580  31.465  1.00  0.00     0.031 C 
ATOM     42  C   UNL A   1      40.521  25.799  27.721  1.00  0.00     0.029 A 
ATOM     43  C   UNL A   1      41.704  25.970  28.561  1.00  0.00     0.049 A 
ATOM     44  H   UNL A   1      42.126  27.546  29.853  1.00  0.00     0.167 HD
ATOM     45  C   UNL A   1      42.760  30.826  32.688  1.00  0.00     0.037 A 
ATOM     46  C   UNL A   1      42.733  25.107  28.648  1.00  0.00     0.037 A 
ATOM     47  C   UNL A   1      43.823  29.888  32.953  1.00  0.00     0.049 A 
ATOM     48  C   UNL A   1      43.823  25.360  29.649  1.00  0.00     0.074 A 
ATOM     49  C   UNL A   1      44.831  29.967  33.899  1.00  0.00     0.029 A 
ATOM     50  N   UNL A   1      44.027  28.708  32.252  1.00  0.00    -0.354 N 
ATOM     51  N   UNL A   1      43.956  26.359  30.490  1.00  0.00    -0.248 NA
ATOM     52  C   UNL A   1      44.888  24.353  29.738  1.00  0.00     0.031 C 
ATOM     53  C   UNL A   1      45.674  28.860  33.735  1.00  0.00     0.029 A 
ATOM     54  C   UNL A   1      45.164  28.068  32.720  1.00  0.00     0.049 A 
ATOM     55  H   UNL A   1      43.449  28.375  31.528  1.00  0.00     0.167 HD
ATOM     56  C   UNL A   1      45.104  26.090  31.221  1.00  0.00     0.074 A 
ATOM     57  C   UNL A   1      45.623  24.828  30.734  1.00  0.00     0.031 C 
ATOM     58  C   UNL A   1      45.674  26.820  32.211  1.00  0.00     0.037 A 
BRANCH  45  59
ATOM     59  C   UNL A   1      42.732  32.096  33.487  1.00  0.00     0.064 A 
ATOM     60  C   UNL A   1      42.206  32.126  34.788  1.00  0.00     0.173 A 
ATOM     61  C   UNL A   1      43.311  33.272  32.988  1.00  0.00     0.173 A 
ATOM     62  F   UNL A   1      41.638  31.030  35.312  1.00  0.00    -0.203 F 
ATOM     63  C   UNL A   1      42.253  33.290  35.554  1.00  0.00     0.198 A 
ATOM     64  C   UNL A   1      43.374  34.427  33.763  1.00  0.00     0.198 A 
ATOM     65  F   UNL A   1      43.836  33.294  31.753  1.00  0.00    -0.203 F 
ATOM     66  F   UNL A   1      41.726  33.301  36.787  1.00  0.00    -0.200 F 
ATOM     67  C   UNL A   1      42.844  34.437  35.045  1.00  0.00     0.200 A 
ATOM     68  F   UNL A   1      43.957  35.530  33.274  1.00  0.00    -0.200 F 
ATOM     69  F   UNL A   1      42.902  35.549  35.788  1.00  0.00    -0.200 F 
ENDBRANCH  45  59
BRANCH  46  70
ATOM     70  C   UNL A   1      42.741  23.907  27.778  1.00  0.00     0.064 A 
ATOM     71  C   UNL A   1      42.288  22.668  28.244  1.00  0.00     0.173 A 
ATOM     72  C   UNL A   1      43.161  23.995  26.442  1.00  0.00     0.173 A 
ATOM     73  F   UNL A   1      41.891  22.535  29.518  1.00  0.00    -0.203 F 
ATOM     74  C   UNL A   1      42.258  21.555  27.407  1.00  0.00     0.198 A 
ATOM     75  C   UNL A   1      43.110  22.888  25.599  1.00  0.00     0.198 A 
ATOM     76  F   UNL A   1      43.594  25.164  25.950  1.00  0.00    -0.203 F 
ATOM     77  F   UNL A   1      41.842  20.373  27.881  1.00  0.00    -0.200 F 
ATOM     78  C   UNL A   1      42.662  21.668  26.083  1.00  0.00     0.200 A 
ATOM     79  F   UNL A   1      43.484  23.006  24.319  1.00  0.00    -0.200 F 
ATOM     80  F   UNL A   1      42.617  20.601  25.275  1.00  0.00    -0.200 F 
ENDBRANCH  46  70
BRANCH  58  81
ATOM     81  C   UNL A   1      46.920  26.265  32.833  1.00  0.00     0.064 A 
ATOM     82  C   UNL A   1      48.193  26.670  32.404  1.00  0.00     0.173 A 
ATOM     83  C   UNL A   1      46.842  25.335  33.880  1.00  0.00     0.173 A 
ATOM     84  F   UNL A   1      48.319  27.545  31.396  1.00  0.00    -0.203 F 
ATOM     85  C   UNL A   1      49.343  26.141  32.984  1.00  0.00     0.198 A 
ATOM     86  C   UNL A   1      47.995  24.827  34.474  1.00  0.00     0.198 A 
ATOM     87  F   UNL A   1      45.649  24.920  34.330  1.00  0.00    -0.203 F 
ATOM     88  F   UNL A   1      50.549  26.506  32.526  1.00  0.00    -0.200 F 
ATOM     89  C   UNL A   1      49.243  25.225  34.020  1.00  0.00     0.200 A 
ATOM     90  F   UNL A   1      47.898  23.949  35.481  1.00  0.00    -0.200 F 
ATOM     91  F   UNL A   1      50.352  24.716  34.574  1.00  0.00    -0.200 F 
ENDBRANCH  58  81
ENDBRANCH  32  33
ENDBRANCH  25  27
ENDBRANCH  24  25
ENDBRANCH  23  24
ENDBRANCH  22  23
ENDBRANCH  21  22
ENDBRANCH   1  21
TORSDOF 18
ENDMDL
