MODEL 1
REMARK VINA RESULT:     -10.4      0.000      0.000
REMARK SMILES CC(C)C[N@@H+](C[C@@H](C)C(=O)OCCOCCOC(=O)c1ccc(-c2c3nc(c(-c4c(F)c(F)c(F)c(F)c4F)c4ccc([nH]4)c(-c4c(F)c(F)c(F)c(F)c4F)c4nc(c(-c5c(F)c(F)c(F)c(F)c5F)c5ccc2[nH]5)C=C4)C=C3)cc1)C1CCCC1
REMARK SMILES IDX 13 1 12 2 11 3 9 4 10 5 7 6 8 7 6 8 5 9 4 11 2 12 1 13 3 14
REMARK SMILES IDX 83 15 84 16 87 17 85 18 86 19 14 20 15 21 16 22 17 23 18 24
REMARK SMILES IDX 19 25 20 26 21 27 82 28 22 29 81 30 23 31 24 32 25 33 75 34
REMARK SMILES IDX 26 35 80 36 74 37 76 38 27 39 79 40 73 41 72 42 28 44 60 45
REMARK SMILES IDX 40 46 59 47 41 48 44 49 58 50 77 51 42 52 43 53 57 55 78 56
REMARK SMILES IDX 45 57 29 58 30 59 38 60 31 61 32 62 36 63 39 64 33 65 34 66
REMARK SMILES IDX 37 67 35 68 61 69 62 70 70 71 63 72 64 73 68 74 71 75 65 76
REMARK SMILES IDX 66 77 69 78 67 79 46 80 47 81 55 82 48 83 49 84 53 85 56 86
REMARK SMILES IDX 50 87 51 88 54 89 52 90
REMARK H PARENT 5 10 76 43 44 54
REMARK Flexibility Score: inf
ROOT
ATOM      1  C   UNL A   1      40.955  20.630  26.698  1.00  0.00     0.202 C 
ENDROOT
BRANCH   1   2
ATOM      2  C   UNL A   1      39.504  20.995  26.379  1.00  0.00     0.261 C 
BRANCH   2   3
ATOM      3  O   UNL A   1      39.350  22.297  25.791  1.00  0.00    -0.463 OA
BRANCH   3   4
ATOM      4  C   UNL A   1      38.076  22.771  25.800  1.00  0.00     0.314 C 
ATOM      5  O   UNL A   1      37.695  23.745  26.442  1.00  0.00    -0.252 OA
BRANCH   4   6
ATOM      6  C   UNL A   1      37.114  21.901  25.019  1.00  0.00     0.151 C 
ATOM      7  C   UNL A   1      36.807  22.654  23.729  1.00  0.00     0.026 C 
BRANCH   6   8
ATOM      8  C   UNL A   1      35.886  21.424  25.847  1.00  0.00     0.277 C 
BRANCH   8   9
ATOM      9  N   UNL A   1      34.506  21.657  25.296  1.00  0.00    -0.332 N 
ATOM     10  H   UNL A   1      34.502  22.300  24.504  1.00  0.00     0.348 HD
BRANCH   9  11
ATOM     11  C   UNL A   1      33.686  22.345  26.324  1.00  0.00     0.265 C 
BRANCH  11  12
ATOM     12  C   UNL A   1      33.261  23.829  26.125  1.00  0.00     0.038 C 
ATOM     13  C   UNL A   1      34.354  24.715  25.520  1.00  0.00     0.013 C 
ATOM     14  C   UNL A   1      32.055  23.881  25.164  1.00  0.00     0.013 C 
ENDBRANCH  11  12
ENDBRANCH   9  11
BRANCH   9  15
ATOM     15  C   UNL A   1      33.971  20.421  24.703  1.00  0.00     0.184 C 
ATOM     16  C   UNL A   1      34.834  19.168  24.600  1.00  0.00     0.065 C 
ATOM     17  C   UNL A   1      32.763  19.855  25.477  1.00  0.00     0.065 C 
ATOM     18  C   UNL A   1      33.834  18.088  24.192  1.00  0.00     0.006 C 
ATOM     19  C   UNL A   1      32.527  18.471  24.874  1.00  0.00     0.006 C 
ENDBRANCH   9  15
ENDBRANCH   8   9
ENDBRANCH   6   8
ENDBRANCH   4   6
ENDBRANCH   3   4
ENDBRANCH   2   3
ENDBRANCH   1   2
BRANCH   1  20
ATOM     20  O   UNL A   1      41.911  20.797  25.657  1.00  0.00    -0.374 OA
BRANCH  20  21
ATOM     21  C   UNL A   1      43.217  21.239  26.030  1.00  0.00     0.202 C 
BRANCH  21  22
ATOM     22  C   UNL A   1      43.982  22.052  24.981  1.00  0.00     0.261 C 
BRANCH  22  23
ATOM     23  O   UNL A   1      43.309  23.289  24.673  1.00  0.00    -0.460 OA
BRANCH  23  24
ATOM     24  C   UNL A   1      44.002  24.406  24.995  1.00  0.00     0.338 C 
ATOM     25  O   UNL A   1      45.074  24.770  24.542  1.00  0.00    -0.246 OA
BRANCH  24  26
ATOM     26  C   UNL A   1      43.194  25.270  25.878  1.00  0.00     0.060 A 
ATOM     27  C   UNL A   1      43.609  26.600  26.027  1.00  0.00     0.016 A 
ATOM     28  C   UNL A   1      42.122  24.773  26.620  1.00  0.00     0.016 A 
ATOM     29  C   UNL A   1      42.992  27.422  26.967  1.00  0.00     0.010 A 
ATOM     30  C   UNL A   1      41.509  25.597  27.571  1.00  0.00     0.010 A 
ATOM     31  C   UNL A   1      41.970  26.910  27.777  1.00  0.00    -0.014 A 
BRANCH  31  32
ATOM     32  C   UNL A   1      41.507  27.700  28.945  1.00  0.00     0.031 A 
ATOM     33  C   UNL A   1      42.264  27.592  30.241  1.00  0.00     0.074 A 
ATOM     34  C   UNL A   1      40.457  28.532  28.844  1.00  0.00     0.049 A 
ATOM     35  N   UNL A   1      42.034  28.176  31.390  1.00  0.00    -0.248 NA
ATOM     36  C   UNL A   1      43.441  26.709  30.240  1.00  0.00     0.031 C 
ATOM     37  C   UNL A   1      39.671  28.754  27.632  1.00  0.00     0.029 A 
ATOM     38  N   UNL A   1      39.870  29.343  29.782  1.00  0.00    -0.354 N 
ATOM     39  C   UNL A   1      43.031  27.728  32.246  1.00  0.00     0.074 A 
ATOM     40  C   UNL A   1      43.853  26.804  31.495  1.00  0.00     0.031 C 
ATOM     41  C   UNL A   1      38.697  29.639  27.903  1.00  0.00     0.029 A 
ATOM     42  C   UNL A   1      38.773  30.021  29.312  1.00  0.00     0.049 A 
ATOM     43  H   UNL A   1      40.204  29.430  30.704  1.00  0.00     0.167 HD
ATOM     44  C   UNL A   1      43.248  28.065  33.539  1.00  0.00     0.037 A 
ATOM     45  C   UNL A   1      37.918  30.840  29.955  1.00  0.00     0.037 A 
ATOM     46  C   UNL A   1      42.433  28.987  34.285  1.00  0.00     0.049 A 
ATOM     47  C   UNL A   1      38.141  31.147  31.414  1.00  0.00     0.074 A 
ATOM     48  C   UNL A   1      42.581  29.406  35.596  1.00  0.00     0.029 A 
ATOM     49  N   UNL A   1      41.310  29.629  33.785  1.00  0.00    -0.354 N 
ATOM     50  N   UNL A   1      39.100  30.738  32.209  1.00  0.00    -0.248 NA
ATOM     51  C   UNL A   1      37.164  32.034  32.062  1.00  0.00     0.031 C 
ATOM     52  C   UNL A   1      41.522  30.266  35.903  1.00  0.00     0.029 A 
ATOM     53  C   UNL A   1      40.742  30.422  34.768  1.00  0.00     0.049 A 
ATOM     54  H   UNL A   1      40.967  29.535  32.866  1.00  0.00     0.167 HD
ATOM     55  C   UNL A   1      38.859  31.338  33.439  1.00  0.00     0.074 A 
ATOM     56  C   UNL A   1      37.668  32.147  33.283  1.00  0.00     0.031 C 
ATOM     57  C   UNL A   1      39.562  31.229  34.593  1.00  0.00     0.037 A 
BRANCH  44  58
ATOM     58  C   UNL A   1      44.402  27.413  34.240  1.00  0.00     0.064 A 
ATOM     59  C   UNL A   1      45.671  28.012  34.283  1.00  0.00     0.173 A 
ATOM     60  C   UNL A   1      44.230  26.191  34.907  1.00  0.00     0.173 A 
ATOM     61  F   UNL A   1      45.891  29.174  33.650  1.00  0.00    -0.203 F 
ATOM     62  C   UNL A   1      46.728  27.399  34.950  1.00  0.00     0.198 A 
ATOM     63  C   UNL A   1      45.283  25.594  35.594  1.00  0.00     0.198 A 
ATOM     64  F   UNL A   1      43.036  25.580  34.898  1.00  0.00    -0.203 F 
ATOM     65  F   UNL A   1      47.942  27.969  34.945  1.00  0.00    -0.200 F 
ATOM     66  C   UNL A   1      46.532  26.196  35.611  1.00  0.00     0.200 A 
ATOM     67  F   UNL A   1      45.089  24.436  36.240  1.00  0.00    -0.200 F 
ATOM     68  F   UNL A   1      47.550  25.610  36.257  1.00  0.00    -0.200 F 
ENDBRANCH  44  58
BRANCH  45  69
ATOM     69  C   UNL A   1      36.763  31.424  29.226  1.00  0.00     0.064 A 
ATOM     70  C   UNL A   1      36.732  32.784  28.889  1.00  0.00     0.173 A 
ATOM     71  C   UNL A   1      35.661  30.636  28.865  1.00  0.00     0.173 A 
ATOM     72  F   UNL A   1      37.751  33.583  29.236  1.00  0.00    -0.203 F 
ATOM     73  C   UNL A   1      35.634  33.337  28.232  1.00  0.00     0.198 A 
ATOM     74  C   UNL A   1      34.575  31.184  28.186  1.00  0.00     0.198 A 
ATOM     75  F   UNL A   1      35.641  29.330  29.168  1.00  0.00    -0.203 F 
ATOM     76  F   UNL A   1      35.611  34.649  27.959  1.00  0.00    -0.200 F 
ATOM     77  C   UNL A   1      34.560  32.535  27.876  1.00  0.00     0.200 A 
ATOM     78  F   UNL A   1      33.544  30.404  27.834  1.00  0.00    -0.200 F 
ATOM     79  F   UNL A   1      33.506  33.066  27.241  1.00  0.00    -0.200 F 
ENDBRANCH  45  69
BRANCH  57  80
ATOM     80  C   UNL A   1      39.087  32.031  35.769  1.00  0.00     0.064 A 
ATOM     81  C   UNL A   1      38.256  31.475  36.753  1.00  0.00     0.173 A 
ATOM     82  C   UNL A   1      39.508  33.359  35.939  1.00  0.00     0.173 A 
ATOM     83  F   UNL A   1      37.814  30.214  36.629  1.00  0.00    -0.203 F 
ATOM     84  C   UNL A   1      37.847  32.225  37.852  1.00  0.00     0.198 A 
ATOM     85  C   UNL A   1      39.120  34.098  37.052  1.00  0.00     0.198 A 
ATOM     86  F   UNL A   1      40.310  33.935  35.030  1.00  0.00    -0.203 F 
ATOM     87  F   UNL A   1      37.019  31.687  38.758  1.00  0.00    -0.200 F 
ATOM     88  C   UNL A   1      38.285  33.533  38.004  1.00  0.00     0.200 A 
ATOM     89  F   UNL A   1      39.554  35.356  37.205  1.00  0.00    -0.200 F 
ATOM     90  F   UNL A   1      37.897  34.251  39.067  1.00  0.00    -0.200 F 
ENDBRANCH  57  80
ENDBRANCH  31  32
ENDBRANCH  24  26
ENDBRANCH  23  24
ENDBRANCH  22  23
ENDBRANCH  21  22
ENDBRANCH  20  21
ENDBRANCH   1  20
TORSDOF 19
ENDMDL
MODEL 2
REMARK VINA RESULT:     -10.3      2.927      7.970
REMARK SMILES CC(C)C[N@@H+](C[C@@H](C)C(=O)OCCOCCOC(=O)c1ccc(-c2c3nc(c(-c4c(F)c(F)c(F)c(F)c4F)c4ccc([nH]4)c(-c4c(F)c(F)c(F)c(F)c4F)c4nc(c(-c5c(F)c(F)c(F)c(F)c5F)c5ccc2[nH]5)C=C4)C=C3)cc1)C1CCCC1
REMARK SMILES IDX 13 1 12 2 11 3 9 4 10 5 7 6 8 7 6 8 5 9 4 11 2 12 1 13 3 14
REMARK SMILES IDX 83 15 84 16 87 17 85 18 86 19 14 20 15 21 16 22 17 23 18 24
REMARK SMILES IDX 19 25 20 26 21 27 82 28 22 29 81 30 23 31 24 32 25 33 75 34
REMARK SMILES IDX 26 35 80 36 74 37 76 38 27 39 79 40 73 41 72 42 28 44 60 45
REMARK SMILES IDX 40 46 59 47 41 48 44 49 58 50 77 51 42 52 43 53 57 55 78 56
REMARK SMILES IDX 45 57 29 58 30 59 38 60 31 61 32 62 36 63 39 64 33 65 34 66
REMARK SMILES IDX 37 67 35 68 61 69 62 70 70 71 63 72 64 73 68 74 71 75 65 76
REMARK SMILES IDX 66 77 69 78 67 79 46 80 47 81 55 82 48 83 49 84 53 85 56 86
REMARK SMILES IDX 50 87 51 88 54 89 52 90
REMARK H PARENT 5 10 76 43 44 54
REMARK Flexibility Score: inf
ROOT
ATOM      1  C   UNL A   1      33.342  26.909  25.932  1.00  0.00     0.202 C 
ENDROOT
BRANCH   1   2
ATOM      2  C   UNL A   1      34.358  25.852  25.495  1.00  0.00     0.261 C 
BRANCH   2   3
ATOM      3  O   UNL A   1      33.945  25.090  24.350  1.00  0.00    -0.463 OA
BRANCH   3   4
ATOM      4  C   UNL A   1      34.771  24.058  24.033  1.00  0.00     0.314 C 
ATOM      5  O   UNL A   1      34.861  23.547  22.922  1.00  0.00    -0.252 OA
BRANCH   4   6
ATOM      6  C   UNL A   1      35.507  23.500  25.233  1.00  0.00     0.151 C 
ATOM      7  C   UNL A   1      36.957  23.315  24.797  1.00  0.00     0.026 C 
BRANCH   6   8
ATOM      8  C   UNL A   1      34.817  22.260  25.872  1.00  0.00     0.277 C 
BRANCH   8   9
ATOM      9  N   UNL A   1      33.404  21.931  25.472  1.00  0.00    -0.332 N 
ATOM     10  H   UNL A   1      33.139  22.354  24.582  1.00  0.00     0.348 HD
BRANCH   9  11
ATOM     11  C   UNL A   1      32.472  22.537  26.454  1.00  0.00     0.265 C 
BRANCH  11  12
ATOM     12  C   UNL A   1      31.381  23.543  25.983  1.00  0.00     0.038 C 
ATOM     13  C   UNL A   1      30.979  23.385  24.513  1.00  0.00     0.013 C 
ATOM     14  C   UNL A   1      30.105  23.330  26.824  1.00  0.00     0.013 C 
ENDBRANCH  11  12
ENDBRANCH   9  11
BRANCH   9  15
ATOM     15  C   UNL A   1      33.269  20.493  25.191  1.00  0.00     0.184 C 
ATOM     16  C   UNL A   1      32.410  20.001  24.031  1.00  0.00     0.065 C 
ATOM     17  C   UNL A   1      34.611  19.819  24.839  1.00  0.00     0.065 C 
ATOM     18  C   UNL A   1      32.762  18.517  23.942  1.00  0.00     0.006 C 
ATOM     19  C   UNL A   1      34.230  18.426  24.340  1.00  0.00     0.006 C 
ENDBRANCH   9  15
ENDBRANCH   8   9
ENDBRANCH   6   8
ENDBRANCH   4   6
ENDBRANCH   3   4
ENDBRANCH   2   3
ENDBRANCH   1   2
BRANCH   1  20
ATOM     20  O   UNL A   1      33.269  28.101  25.157  1.00  0.00    -0.374 OA
BRANCH  20  21
ATOM     21  C   UNL A   1      32.001  28.751  25.070  1.00  0.00     0.202 C 
BRANCH  21  22
ATOM     22  C   UNL A   1      31.922  30.164  25.654  1.00  0.00     0.261 C 
BRANCH  22  23
ATOM     23  O   UNL A   1      32.522  30.232  26.963  1.00  0.00    -0.460 OA
BRANCH  23  24
ATOM     24  C   UNL A   1      33.201  31.375  27.216  1.00  0.00     0.338 C 
ATOM     25  O   UNL A   1      32.763  32.512  27.221  1.00  0.00    -0.246 OA
BRANCH  24  26
ATOM     26  C   UNL A   1      34.569  31.064  27.675  1.00  0.00     0.060 A 
ATOM     27  C   UNL A   1      34.865  29.720  27.940  1.00  0.00     0.016 A 
ATOM     28  C   UNL A   1      35.508  32.063  27.937  1.00  0.00     0.016 A 
ATOM     29  C   UNL A   1      36.080  29.376  28.528  1.00  0.00     0.010 A 
ATOM     30  C   UNL A   1      36.724  31.717  28.537  1.00  0.00     0.010 A 
ATOM     31  C   UNL A   1      36.995  30.378  28.874  1.00  0.00    -0.014 A 
BRANCH  31  32
ATOM     32  C   UNL A   1      38.155  30.035  29.734  1.00  0.00     0.031 A 
ATOM     33  C   UNL A   1      39.192  29.080  29.207  1.00  0.00     0.074 A 
ATOM     34  C   UNL A   1      38.307  30.596  30.945  1.00  0.00     0.049 A 
ATOM     35  N   UNL A   1      40.276  28.628  29.785  1.00  0.00    -0.248 NA
ATOM     36  C   UNL A   1      38.978  28.568  27.845  1.00  0.00     0.031 C 
ATOM     37  C   UNL A   1      37.395  31.566  31.545  1.00  0.00     0.029 A 
ATOM     38  N   UNL A   1      39.288  30.425  31.889  1.00  0.00    -0.354 N 
ATOM     39  C   UNL A   1      40.869  27.778  28.861  1.00  0.00     0.074 A 
ATOM     40  C   UNL A   1      40.013  27.754  27.695  1.00  0.00     0.031 C 
ATOM     41  C   UNL A   1      37.855  31.899  32.763  1.00  0.00     0.029 A 
ATOM     42  C   UNL A   1      39.076  31.145  33.038  1.00  0.00     0.049 A 
ATOM     43  H   UNL A   1      40.070  29.842  31.754  1.00  0.00     0.167 HD
ATOM     44  C   UNL A   1      42.028  27.087  28.971  1.00  0.00     0.037 A 
ATOM     45  C   UNL A   1      39.779  31.172  34.187  1.00  0.00     0.037 A 
ATOM     46  C   UNL A   1      42.882  27.114  30.129  1.00  0.00     0.049 A 
ATOM     47  C   UNL A   1      41.031  30.342  34.310  1.00  0.00     0.074 A 
ATOM     48  C   UNL A   1      44.086  26.461  30.330  1.00  0.00     0.029 A 
ATOM     49  N   UNL A   1      42.617  27.829  31.287  1.00  0.00    -0.354 N 
ATOM     50  N   UNL A   1      41.597  29.560  33.423  1.00  0.00    -0.248 NA
ATOM     51  C   UNL A   1      41.743  30.402  35.595  1.00  0.00     0.031 C 
ATOM     52  C   UNL A   1      44.527  26.746  31.627  1.00  0.00     0.029 A 
ATOM     53  C   UNL A   1      43.621  27.614  32.215  1.00  0.00     0.049 A 
ATOM     54  H   UNL A   1      41.830  28.405  31.428  1.00  0.00     0.167 HD
ATOM     55  C   UNL A   1      42.742  29.059  34.029  1.00  0.00     0.074 A 
ATOM     56  C   UNL A   1      42.797  29.633  35.358  1.00  0.00     0.031 C 
ATOM     57  C   UNL A   1      43.666  28.202  33.529  1.00  0.00     0.037 A 
BRANCH  44  58
ATOM     58  C   UNL A   1      42.431  26.223  27.814  1.00  0.00     0.064 A 
ATOM     59  C   UNL A   1      41.888  24.942  27.627  1.00  0.00     0.173 A 
ATOM     60  C   UNL A   1      43.347  26.693  26.861  1.00  0.00     0.173 A 
ATOM     61  F   UNL A   1      41.019  24.441  28.517  1.00  0.00    -0.203 F 
ATOM     62  C   UNL A   1      42.264  24.158  26.540  1.00  0.00     0.198 A 
ATOM     63  C   UNL A   1      43.701  25.916  25.761  1.00  0.00     0.198 A 
ATOM     64  F   UNL A   1      43.892  27.912  26.993  1.00  0.00    -0.203 F 
ATOM     65  F   UNL A   1      41.763  22.922  26.402  1.00  0.00    -0.200 F 
ATOM     66  C   UNL A   1      43.163  24.648  25.605  1.00  0.00     0.200 A 
ATOM     67  F   UNL A   1      44.563  26.395  24.855  1.00  0.00    -0.200 F 
ATOM     68  F   UNL A   1      43.520  23.894  24.555  1.00  0.00    -0.200 F 
ENDBRANCH  44  58
BRANCH  45  69
ATOM     69  C   UNL A   1      39.312  32.012  35.320  1.00  0.00     0.064 A 
ATOM     70  C   UNL A   1      38.512  31.474  36.337  1.00  0.00     0.173 A 
ATOM     71  C   UNL A   1      39.645  33.372  35.400  1.00  0.00     0.173 A 
ATOM     72  F   UNL A   1      38.145  30.186  36.290  1.00  0.00    -0.203 F 
ATOM     73  C   UNL A   1      38.049  32.271  37.384  1.00  0.00     0.198 A 
ATOM     74  C   UNL A   1      39.204  34.160  36.460  1.00  0.00     0.198 A 
ATOM     75  F   UNL A   1      40.407  33.934  34.449  1.00  0.00    -0.203 F 
ATOM     76  F   UNL A   1      37.249  31.742  38.320  1.00  0.00    -0.200 F 
ATOM     77  C   UNL A   1      38.400  33.611  37.447  1.00  0.00     0.200 A 
ATOM     78  F   UNL A   1      39.554  35.451  36.523  1.00  0.00    -0.200 F 
ATOM     79  F   UNL A   1      37.958  34.375  38.455  1.00  0.00    -0.200 F 
ENDBRANCH  45  69
BRANCH  57  80
ATOM     80  C   UNL A   1      44.836  27.861  34.405  1.00  0.00     0.064 A 
ATOM     81  C   UNL A   1      45.996  28.649  34.426  1.00  0.00     0.173 A 
ATOM     82  C   UNL A   1      44.777  26.756  35.270  1.00  0.00     0.173 A 
ATOM     83  F   UNL A   1      46.108  29.707  33.608  1.00  0.00    -0.203 F 
ATOM     84  C   UNL A   1      47.061  28.334  35.265  1.00  0.00     0.198 A 
ATOM     85  C   UNL A   1      45.832  26.459  36.127  1.00  0.00     0.198 A 
ATOM     86  F   UNL A   1      43.686  25.975  35.293  1.00  0.00    -0.203 F 
ATOM     87  F   UNL A   1      48.176  29.077  35.239  1.00  0.00    -0.200 F 
ATOM     88  C   UNL A   1      46.975  27.243  36.119  1.00  0.00     0.200 A 
ATOM     89  F   UNL A   1      45.742  25.414  36.960  1.00  0.00    -0.200 F 
ATOM     90  F   UNL A   1      47.999  26.945  36.932  1.00  0.00    -0.200 F 
ENDBRANCH  57  80
ENDBRANCH  31  32
ENDBRANCH  24  26
ENDBRANCH  23  24
ENDBRANCH  22  23
ENDBRANCH  21  22
ENDBRANCH  20  21
ENDBRANCH   1  20
TORSDOF 19
ENDMDL
MODEL 3
REMARK VINA RESULT:     -10.2      0.434      2.086
REMARK SMILES CC(C)C[N@@H+](C[C@@H](C)C(=O)OCCOCCOC(=O)c1ccc(-c2c3nc(c(-c4c(F)c(F)c(F)c(F)c4F)c4ccc([nH]4)c(-c4c(F)c(F)c(F)c(F)c4F)c4nc(c(-c5c(F)c(F)c(F)c(F)c5F)c5ccc2[nH]5)C=C4)C=C3)cc1)C1CCCC1
REMARK SMILES IDX 13 1 12 2 11 3 9 4 10 5 7 6 8 7 6 8 5 9 4 11 2 12 1 13 3 14
REMARK SMILES IDX 83 15 84 16 87 17 85 18 86 19 14 20 15 21 16 22 17 23 18 24
REMARK SMILES IDX 19 25 20 26 21 27 82 28 22 29 81 30 23 31 24 32 25 33 75 34
REMARK SMILES IDX 26 35 80 36 74 37 76 38 27 39 79 40 73 41 72 42 28 44 60 45
REMARK SMILES IDX 40 46 59 47 41 48 44 49 58 50 77 51 42 52 43 53 57 55 78 56
REMARK SMILES IDX 45 57 29 58 30 59 38 60 31 61 32 62 36 63 39 64 33 65 34 66
REMARK SMILES IDX 37 67 35 68 61 69 62 70 70 71 63 72 64 73 68 74 71 75 65 76
REMARK SMILES IDX 66 77 69 78 67 79 46 80 47 81 55 82 48 83 49 84 53 85 56 86
REMARK SMILES IDX 50 87 51 88 54 89 52 90
REMARK H PARENT 5 10 76 43 44 54
REMARK Flexibility Score: inf
ROOT
ATOM      1  C   UNL A   1      40.898  21.022  26.786  1.00  0.00     0.202 C 
ENDROOT
BRANCH   1   2
ATOM      2  C   UNL A   1      39.487  21.242  26.235  1.00  0.00     0.261 C 
BRANCH   2   3
ATOM      3  O   UNL A   1      39.267  22.564  25.719  1.00  0.00    -0.463 OA
BRANCH   3   4
ATOM      4  C   UNL A   1      38.035  23.073  25.984  1.00  0.00     0.314 C 
ATOM      5  O   UNL A   1      37.809  23.991  26.766  1.00  0.00    -0.252 OA
BRANCH   4   6
ATOM      6  C   UNL A   1      36.919  22.312  25.300  1.00  0.00     0.151 C 
ATOM      7  C   UNL A   1      36.777  22.920  23.909  1.00  0.00     0.026 C 
BRANCH   6   8
ATOM      8  C   UNL A   1      35.616  22.215  26.145  1.00  0.00     0.277 C 
BRANCH   8   9
ATOM      9  N   UNL A   1      34.292  22.429  25.463  1.00  0.00    -0.332 N 
ATOM     10  H   UNL A   1      34.390  22.845  24.538  1.00  0.00     0.348 HD
BRANCH   9  11
ATOM     11  C   UNL A   1      33.510  23.428  26.231  1.00  0.00     0.265 C 
BRANCH  11  12
ATOM     12  C   UNL A   1      33.028  24.741  25.547  1.00  0.00     0.038 C 
ATOM     13  C   UNL A   1      31.920  25.472  26.311  1.00  0.00     0.013 C 
ATOM     14  C   UNL A   1      34.219  25.717  25.436  1.00  0.00     0.013 C 
ENDBRANCH  11  12
ENDBRANCH   9  11
BRANCH   9  15
ATOM     15  C   UNL A   1      33.652  21.138  25.163  1.00  0.00     0.184 C 
ATOM     16  C   UNL A   1      32.754  20.977  23.942  1.00  0.00     0.065 C 
ATOM     17  C   UNL A   1      34.669  20.008  24.903  1.00  0.00     0.065 C 
ATOM     18  C   UNL A   1      32.535  19.467  23.866  1.00  0.00     0.006 C 
ATOM     19  C   UNL A   1      33.834  18.846  24.367  1.00  0.00     0.006 C 
ENDBRANCH   9  15
ENDBRANCH   8   9
ENDBRANCH   6   8
ENDBRANCH   4   6
ENDBRANCH   3   4
ENDBRANCH   2   3
ENDBRANCH   1   2
BRANCH   1  20
ATOM     20  O   UNL A   1      41.936  20.789  25.841  1.00  0.00    -0.374 OA
BRANCH  20  21
ATOM     21  C   UNL A   1      43.198  21.409  26.086  1.00  0.00     0.202 C 
BRANCH  21  22
ATOM     22  C   UNL A   1      43.836  22.141  24.902  1.00  0.00     0.261 C 
BRANCH  22  23
ATOM     23  O   UNL A   1      43.185  23.401  24.645  1.00  0.00    -0.460 OA
BRANCH  23  24
ATOM     24  C   UNL A   1      43.903  24.492  25.001  1.00  0.00     0.338 C 
ATOM     25  O   UNL A   1      44.989  24.839  24.568  1.00  0.00    -0.246 OA
BRANCH  24  26
ATOM     26  C   UNL A   1      43.108  25.355  25.897  1.00  0.00     0.060 A 
ATOM     27  C   UNL A   1      43.542  26.676  26.066  1.00  0.00     0.016 A 
ATOM     28  C   UNL A   1      42.028  24.862  26.632  1.00  0.00     0.016 A 
ATOM     29  C   UNL A   1      42.937  27.493  27.018  1.00  0.00     0.010 A 
ATOM     30  C   UNL A   1      41.428  25.681  27.595  1.00  0.00     0.010 A 
ATOM     31  C   UNL A   1      41.908  26.984  27.821  1.00  0.00    -0.014 A 
BRANCH  31  32
ATOM     32  C   UNL A   1      41.456  27.763  29.000  1.00  0.00     0.031 A 
ATOM     33  C   UNL A   1      42.222  27.638  30.289  1.00  0.00     0.074 A 
ATOM     34  C   UNL A   1      40.409  28.600  28.915  1.00  0.00     0.049 A 
ATOM     35  N   UNL A   1      42.002  28.211  31.446  1.00  0.00    -0.248 NA
ATOM     36  C   UNL A   1      43.395  26.750  30.270  1.00  0.00     0.031 C 
ATOM     37  C   UNL A   1      39.616  28.839  27.712  1.00  0.00     0.029 A 
ATOM     38  N   UNL A   1      39.832  29.403  29.867  1.00  0.00    -0.354 N 
ATOM     39  C   UNL A   1      43.005  27.750  32.290  1.00  0.00     0.074 A 
ATOM     40  C   UNL A   1      43.817  26.830  31.523  1.00  0.00     0.031 C 
ATOM     41  C   UNL A   1      38.646  29.724  28.000  1.00  0.00     0.029 A 
ATOM     42  C   UNL A   1      38.734  30.091  29.412  1.00  0.00     0.049 A 
ATOM     43  H   UNL A   1      40.173  29.480  30.787  1.00  0.00     0.167 HD
ATOM     44  C   UNL A   1      43.232  28.072  33.585  1.00  0.00     0.037 A 
ATOM     45  C   UNL A   1      37.888  30.907  30.070  1.00  0.00     0.037 A 
ATOM     46  C   UNL A   1      42.426  28.989  34.347  1.00  0.00     0.049 A 
ATOM     47  C   UNL A   1      38.123  31.197  31.530  1.00  0.00     0.074 A 
ATOM     48  C   UNL A   1      42.585  29.393  35.661  1.00  0.00     0.029 A 
ATOM     49  N   UNL A   1      41.302  29.641  33.861  1.00  0.00    -0.354 N 
ATOM     50  N   UNL A   1      39.085  30.776  32.314  1.00  0.00    -0.248 NA
ATOM     51  C   UNL A   1      37.153  32.080  32.194  1.00  0.00     0.031 C 
ATOM     52  C   UNL A   1      41.532  30.255  35.985  1.00  0.00     0.029 A 
ATOM     53  C   UNL A   1      40.744  30.425  34.857  1.00  0.00     0.049 A 
ATOM     54  H   UNL A   1      40.952  29.558  32.944  1.00  0.00     0.167 HD
ATOM     55  C   UNL A   1      38.855  31.363  33.551  1.00  0.00     0.074 A 
ATOM     56  C   UNL A   1      37.667  32.178  33.413  1.00  0.00     0.031 C 
ATOM     57  C   UNL A   1      39.567  31.239  34.699  1.00  0.00     0.037 A 
BRANCH  44  58
ATOM     58  C   UNL A   1      44.388  27.408  34.271  1.00  0.00     0.064 A 
ATOM     59  C   UNL A   1      44.255  26.160  34.897  1.00  0.00     0.173 A 
ATOM     60  C   UNL A   1      45.654  28.012  34.273  1.00  0.00     0.173 A 
ATOM     61  F   UNL A   1      43.063  25.546  34.935  1.00  0.00    -0.203 F 
ATOM     62  C   UNL A   1      45.344  25.551  35.518  1.00  0.00     0.198 A 
ATOM     63  C   UNL A   1      46.746  27.390  34.872  1.00  0.00     0.198 A 
ATOM     64  F   UNL A   1      45.834  29.205  33.685  1.00  0.00    -0.203 F 
ATOM     65  F   UNL A   1      45.185  24.377  36.145  1.00  0.00    -0.200 F 
ATOM     66  C   UNL A   1      46.588  26.163  35.499  1.00  0.00     0.200 A 
ATOM     67  F   UNL A   1      47.949  27.978  34.844  1.00  0.00    -0.200 F 
ATOM     68  F   UNL A   1      47.636  25.574  36.091  1.00  0.00    -0.200 F 
ENDBRANCH  44  58
BRANCH  45  69
ATOM     69  C   UNL A   1      36.730  31.503  29.355  1.00  0.00     0.064 A 
ATOM     70  C   UNL A   1      35.634  30.719  28.971  1.00  0.00     0.173 A 
ATOM     71  C   UNL A   1      36.705  32.867  29.030  1.00  0.00     0.173 A 
ATOM     72  F   UNL A   1      35.625  29.405  29.237  1.00  0.00    -0.203 F 
ATOM     73  C   UNL A   1      34.562  31.275  28.274  1.00  0.00     0.198 A 
ATOM     74  C   UNL A   1      35.621  33.426  28.355  1.00  0.00     0.198 A 
ATOM     75  F   UNL A   1      37.731  33.659  29.373  1.00  0.00    -0.203 F 
ATOM     76  F   UNL A   1      33.546  30.495  27.880  1.00  0.00    -0.200 F 
ATOM     77  C   UNL A   1      34.555  32.628  27.972  1.00  0.00     0.200 A 
ATOM     78  F   UNL A   1      35.613  34.736  28.076  1.00  0.00    -0.200 F 
ATOM     79  F   UNL A   1      33.522  33.163  27.305  1.00  0.00    -0.200 F 
ENDBRANCH  45  69
BRANCH  57  80
ATOM     80  C   UNL A   1      39.103  32.030  35.888  1.00  0.00     0.064 A 
ATOM     81  C   UNL A   1      39.477  33.369  36.072  1.00  0.00     0.173 A 
ATOM     82  C   UNL A   1      38.235  31.454  36.829  1.00  0.00     0.173 A 
ATOM     83  F   UNL A   1      40.317  33.961  35.209  1.00  0.00    -0.203 F 
ATOM     84  C   UNL A   1      39.015  34.097  37.166  1.00  0.00     0.198 A 
ATOM     85  C   UNL A   1      37.754  32.192  37.906  1.00  0.00     0.198 A 
ATOM     86  F   UNL A   1      37.842  30.179  36.692  1.00  0.00    -0.203 F 
ATOM     87  F   UNL A   1      39.418  35.363  37.346  1.00  0.00    -0.200 F 
ATOM     88  C   UNL A   1      38.149  33.509  38.078  1.00  0.00     0.200 A 
ATOM     89  F   UNL A   1      36.907  31.628  38.778  1.00  0.00    -0.200 F 
ATOM     90  F   UNL A   1      37.699  34.214  39.126  1.00  0.00    -0.200 F 
ENDBRANCH  57  80
ENDBRANCH  31  32
ENDBRANCH  24  26
ENDBRANCH  23  24
ENDBRANCH  22  23
ENDBRANCH  21  22
ENDBRANCH  20  21
ENDBRANCH   1  20
TORSDOF 19
ENDMDL
