MODEL 1
REMARK VINA RESULT:     -12.9      0.000      0.000
REMARK SMILES CC(C)Cc1ccc(-c2cc(Cl)cc3c2O[C@@H](C(F)(F)F)C(C(=O)OCCOCCOC(=O)c2ccc(-c4c5nc(c(-c6c(F)c(F)c(F)c(F)c6F)c6ccc([nH]6)c(-c6c(F)c(F)c(F)c(F)c6F)c6nc(c(-c7c(F)c(F)c(F)c(F)c7F)c7ccc4[nH]7)C=C6)C=C5)cc2)=C3)cc1
REMARK SMILES IDX 27 1 26 2 25 3 23 4 24 5 22 6 9 7 10 8 15 9 11 10 14 11
REMARK SMILES IDX 16 12 12 13 13 14 97 15 17 16 8 17 5 18 6 19 99 20 7 21
REMARK SMILES IDX 98 22 4 23 2 24 1 25 3 26 18 27 19 28 20 29 21 30 28 31
REMARK SMILES IDX 29 32 30 33 31 34 32 35 33 36 34 37 35 38 96 39 36 40 95 41
REMARK SMILES IDX 37 42 38 43 39 44 89 45 40 46 94 47 88 48 90 49 41 50 93 51
REMARK SMILES IDX 87 52 86 53 42 55 74 56 54 57 73 58 55 59 58 60 72 61 91 62
REMARK SMILES IDX 56 63 57 64 71 66 92 67 59 68 43 69 44 70 52 71 45 72 46 73
REMARK SMILES IDX 50 74 53 75 47 76 48 77 51 78 49 79 75 80 76 81 84 82 77 83
REMARK SMILES IDX 78 84 82 85 85 86 79 87 80 88 83 89 81 90 60 91 61 92 69 93
REMARK SMILES IDX 62 94 63 95 67 96 70 97 64 98 65 99 68 100 66 101
REMARK H PARENT 90 54 58 65
REMARK Flexibility Score: inf
ROOT
ATOM      1  C   UNL A   1      31.791  29.401  25.939  1.00  0.00     0.202 C 
ENDROOT
BRANCH   1   2
ATOM      2  C   UNL A   1      32.796  29.064  24.827  1.00  0.00     0.261 C 
BRANCH   2   3
ATOM      3  O   UNL A   1      32.743  27.691  24.412  1.00  0.00    -0.460 OA
BRANCH   3   4
ATOM      4  C   UNL A   1      32.781  27.478  23.083  1.00  0.00     0.338 C 
ATOM      5  O   UNL A   1      33.448  28.122  22.284  1.00  0.00    -0.246 OA
BRANCH   4   6
ATOM      6  C   UNL A   1      32.048  26.253  22.685  1.00  0.00     0.087 C 
ATOM      7  C   UNL A   1      32.774  22.801  24.896  1.00  0.00     0.026 A 
ATOM      8  C   UNL A   1      34.035  23.034  25.493  1.00  0.00     0.033 A 
ATOM      9  C   UNL A   1      32.356  23.805  23.994  1.00  0.00     0.135 A 
ATOM     10  C   UNL A   1      34.939  23.938  24.936  1.00  0.00     0.042 A 
ATOM     11  C   UNL A   1      33.330  24.515  23.270  1.00  0.00     0.019 A 
ATOM     12  O   UNL A   1      31.130  24.473  24.218  1.00  0.00    -0.475 OA
ATOM     13  Cl  UNL A   1      36.489  24.143  25.647  1.00  0.00    -0.084 Cl
ATOM     14  C   UNL A   1      34.627  24.602  23.759  1.00  0.00     0.032 A 
ATOM     15  C   UNL A   1      32.898  25.365  22.141  1.00  0.00     0.027 C 
ATOM     16  C   UNL A   1      30.831  25.641  23.343  1.00  0.00     0.316 C 
BRANCH   7  17
ATOM     17  C   UNL A   1      32.466  21.321  24.726  1.00  0.00    -0.015 A 
ATOM     18  C   UNL A   1      32.773  18.473  24.253  1.00  0.00    -0.048 A 
ATOM     19  C   UNL A   1      32.854  19.023  25.541  1.00  0.00     0.004 A 
ATOM     20  C   UNL A   1      32.445  19.352  23.217  1.00  0.00     0.004 A 
ATOM     21  C   UNL A   1      32.682  20.404  25.774  1.00  0.00     0.009 A 
ATOM     22  C   UNL A   1      32.294  20.745  23.449  1.00  0.00     0.009 A 
BRANCH  18  23
ATOM     23  C   UNL A   1      33.085  16.989  24.092  1.00  0.00     0.038 C 
BRANCH  23  24
ATOM     24  C   UNL A   1      33.528  16.140  25.310  1.00  0.00    -0.013 C 
ATOM     25  C   UNL A   1      32.778  14.807  25.402  1.00  0.00     0.008 C 
ATOM     26  C   UNL A   1      35.034  15.831  25.226  1.00  0.00     0.008 C 
ENDBRANCH  23  24
ENDBRANCH  18  23
ENDBRANCH   7  17
BRANCH  16  27
ATOM     27  C   UNL A   1      29.804  26.667  23.877  1.00  0.00     0.430 C 
ATOM     28  F   UNL A   1      28.548  26.165  23.714  1.00  0.00    -0.167 F 
ATOM     29  F   UNL A   1      29.954  26.890  25.203  1.00  0.00    -0.167 F 
ATOM     30  F   UNL A   1      29.820  27.867  23.269  1.00  0.00    -0.167 F 
ENDBRANCH  16  27
ENDBRANCH   4   6
ENDBRANCH   3   4
ENDBRANCH   2   3
ENDBRANCH   1   2
BRANCH   1  31
ATOM     31  O   UNL A   1      32.034  30.537  26.756  1.00  0.00    -0.374 OA
BRANCH  31  32
ATOM     32  C   UNL A   1      31.402  31.768  26.410  1.00  0.00     0.202 C 
BRANCH  32  33
ATOM     33  C   UNL A   1      31.988  33.075  26.952  1.00  0.00     0.261 C 
BRANCH  33  34
ATOM     34  O   UNL A   1      32.930  32.885  28.020  1.00  0.00    -0.460 OA
BRANCH  34  35
ATOM     35  C   UNL A   1      34.039  33.651  27.934  1.00  0.00     0.338 C 
ATOM     36  O   UNL A   1      34.102  34.861  27.733  1.00  0.00    -0.246 OA
BRANCH  35  37
ATOM     37  C   UNL A   1      35.226  32.858  28.271  1.00  0.00     0.060 A 
ATOM     38  C   UNL A   1      35.042  31.523  28.653  1.00  0.00     0.016 A 
ATOM     39  C   UNL A   1      36.489  33.451  28.327  1.00  0.00     0.016 A 
ATOM     40  C   UNL A   1      36.117  30.787  29.140  1.00  0.00     0.010 A 
ATOM     41  C   UNL A   1      37.564  32.712  28.822  1.00  0.00     0.010 A 
ATOM     42  C   UNL A   1      37.374  31.391  29.267  1.00  0.00    -0.014 A 
BRANCH  42  43
ATOM     43  C   UNL A   1      38.448  30.696  30.013  1.00  0.00     0.031 A 
ATOM     44  C   UNL A   1      38.664  31.036  31.461  1.00  0.00     0.074 A 
ATOM     45  C   UNL A   1      39.203  29.759  29.413  1.00  0.00     0.049 A 
ATOM     46  N   UNL A   1      39.573  30.598  32.293  1.00  0.00    -0.248 NA
ATOM     47  C   UNL A   1      37.729  32.008  32.049  1.00  0.00     0.031 C 
ATOM     48  C   UNL A   1      39.054  29.318  28.028  1.00  0.00     0.029 A 
ATOM     49  N   UNL A   1      40.251  29.018  29.894  1.00  0.00    -0.354 N 
ATOM     50  C   UNL A   1      39.327  31.246  33.496  1.00  0.00     0.074 A 
ATOM     51  C   UNL A   1      38.206  32.136  33.277  1.00  0.00     0.031 C 
ATOM     52  C   UNL A   1      39.985  28.386  27.767  1.00  0.00     0.029 A 
ATOM     53  C   UNL A   1      40.816  28.194  28.953  1.00  0.00     0.049 A 
ATOM     54  H   UNL A   1      40.568  29.072  30.824  1.00  0.00     0.167 HD
ATOM     55  C   UNL A   1      39.971  31.104  34.679  1.00  0.00     0.037 A 
ATOM     56  C   UNL A   1      41.898  27.396  29.040  1.00  0.00     0.037 A 
ATOM     57  C   UNL A   1      41.086  30.216  34.886  1.00  0.00     0.049 A 
ATOM     58  C   UNL A   1      42.646  27.313  30.345  1.00  0.00     0.074 A 
ATOM     59  C   UNL A   1      41.803  29.986  36.046  1.00  0.00     0.029 A 
ATOM     60  N   UNL A   1      41.652  29.419  33.900  1.00  0.00    -0.354 N 
ATOM     61  N   UNL A   1      42.396  27.911  31.485  1.00  0.00    -0.248 NA
ATOM     62  C   UNL A   1      43.825  26.437  30.376  1.00  0.00     0.031 C 
ATOM     63  C   UNL A   1      42.839  29.095  35.749  1.00  0.00     0.029 A 
ATOM     64  C   UNL A   1      42.727  28.716  34.420  1.00  0.00     0.049 A 
ATOM     65  H   UNL A   1      41.336  29.361  32.970  1.00  0.00     0.167 HD
ATOM     66  C   UNL A   1      43.361  27.459  32.376  1.00  0.00     0.074 A 
ATOM     67  C   UNL A   1      44.195  26.527  31.646  1.00  0.00     0.031 C 
ATOM     68  C   UNL A   1      43.540  27.783  33.680  1.00  0.00     0.037 A 
BRANCH  55  69
ATOM     69  C   UNL A   1      39.505  31.951  35.830  1.00  0.00     0.064 A 
ATOM     70  C   UNL A   1      40.057  33.214  36.092  1.00  0.00     0.173 A 
ATOM     71  C   UNL A   1      38.475  31.500  36.669  1.00  0.00     0.173 A 
ATOM     72  F   UNL A   1      41.052  33.689  35.329  1.00  0.00    -0.203 F 
ATOM     73  C   UNL A   1      39.618  33.978  37.172  1.00  0.00     0.198 A 
ATOM     74  C   UNL A   1      38.015  32.281  37.726  1.00  0.00     0.198 A 
ATOM     75  F   UNL A   1      37.908  30.301  36.462  1.00  0.00    -0.203 F 
ATOM     76  F   UNL A   1      40.199  35.156  37.436  1.00  0.00    -0.200 F 
ATOM     77  C   UNL A   1      38.593  33.514  37.983  1.00  0.00     0.200 A 
ATOM     78  F   UNL A   1      37.014  31.838  38.500  1.00  0.00    -0.200 F 
ATOM     79  F   UNL A   1      38.169  34.254  39.017  1.00  0.00    -0.200 F 
ENDBRANCH  55  69
BRANCH  56  80
ATOM     80  C   UNL A   1      42.340  26.614  27.855  1.00  0.00     0.064 A 
ATOM     81  C   UNL A   1      43.296  27.127  26.967  1.00  0.00     0.173 A 
ATOM     82  C   UNL A   1      41.808  25.346  27.578  1.00  0.00     0.173 A 
ATOM     83  F   UNL A   1      43.818  28.345  27.175  1.00  0.00    -0.203 F 
ATOM     84  C   UNL A   1      43.686  26.412  25.836  1.00  0.00     0.198 A 
ATOM     85  C   UNL A   1      42.222  24.618  26.464  1.00  0.00     0.198 A 
ATOM     86  F   UNL A   1      40.890  24.809  28.395  1.00  0.00    -0.203 F 
ATOM     87  F   UNL A   1      44.562  26.948  24.977  1.00  0.00    -0.200 F 
ATOM     88  C   UNL A   1      43.154  25.155  25.590  1.00  0.00     0.200 A 
ATOM     89  F   UNL A   1      41.716  23.398  26.238  1.00  0.00    -0.200 F 
ATOM     90  F   UNL A   1      43.532  24.467  24.504  1.00  0.00    -0.200 F 
ENDBRANCH  56  80
BRANCH  68  91
ATOM     91  C   UNL A   1      44.648  27.086  34.420  1.00  0.00     0.064 A 
ATOM     92  C   UNL A   1      44.458  25.844  35.043  1.00  0.00     0.173 A 
ATOM     93  C   UNL A   1      45.931  27.654  34.468  1.00  0.00     0.173 A 
ATOM     94  F   UNL A   1      43.248  25.264  35.037  1.00  0.00    -0.203 F 
ATOM     95  C   UNL A   1      45.502  25.212  35.714  1.00  0.00     0.198 A 
ATOM     96  C   UNL A   1      46.982  27.001  35.108  1.00  0.00     0.198 A 
ATOM     97  F   UNL A   1      46.171  28.836  33.881  1.00  0.00    -0.203 F 
ATOM     98  F   UNL A   1      45.283  24.052  36.349  1.00  0.00    -0.200 F 
ATOM     99  C   UNL A   1      46.764  25.787  35.738  1.00  0.00     0.200 A 
ATOM    100  F   UNL A   1      48.204  27.551  35.115  1.00  0.00    -0.200 F 
ATOM    101  F   UNL A   1      47.769  25.171  36.376  1.00  0.00    -0.200 F 
ENDBRANCH  68  91
ENDBRANCH  42  43
ENDBRANCH  35  37
ENDBRANCH  34  35
ENDBRANCH  33  34
ENDBRANCH  32  33
ENDBRANCH  31  32
ENDBRANCH   1  31
TORSDOF 18
ENDMDL
MODEL 2
REMARK VINA RESULT:     -12.7      4.622     10.539
REMARK SMILES CC(C)Cc1ccc(-c2cc(Cl)cc3c2O[C@@H](C(F)(F)F)C(C(=O)OCCOCCOC(=O)c2ccc(-c4c5nc(c(-c6c(F)c(F)c(F)c(F)c6F)c6ccc([nH]6)c(-c6c(F)c(F)c(F)c(F)c6F)c6nc(c(-c7c(F)c(F)c(F)c(F)c7F)c7ccc4[nH]7)C=C6)C=C5)cc2)=C3)cc1
REMARK SMILES IDX 27 1 26 2 25 3 23 4 24 5 22 6 9 7 10 8 15 9 11 10 14 11
REMARK SMILES IDX 16 12 12 13 13 14 97 15 17 16 8 17 5 18 6 19 99 20 7 21
REMARK SMILES IDX 98 22 4 23 2 24 1 25 3 26 18 27 19 28 20 29 21 30 28 31
REMARK SMILES IDX 29 32 30 33 31 34 32 35 33 36 34 37 35 38 96 39 36 40 95 41
REMARK SMILES IDX 37 42 38 43 39 44 89 45 40 46 94 47 88 48 90 49 41 50 93 51
REMARK SMILES IDX 87 52 86 53 42 55 74 56 54 57 73 58 55 59 58 60 72 61 91 62
REMARK SMILES IDX 56 63 57 64 71 66 92 67 59 68 43 69 44 70 52 71 45 72 46 73
REMARK SMILES IDX 50 74 53 75 47 76 48 77 51 78 49 79 75 80 76 81 84 82 77 83
REMARK SMILES IDX 78 84 82 85 85 86 79 87 80 88 83 89 81 90 60 91 61 92 69 93
REMARK SMILES IDX 62 94 63 95 67 96 70 97 64 98 65 99 68 100 66 101
REMARK H PARENT 90 54 58 65
REMARK Flexibility Score: inf
ROOT
ATOM      1  C   UNL A   1      36.043  21.252  25.303  1.00  0.00     0.202 C 
ENDROOT
BRANCH   1   2
ATOM      2  C   UNL A   1      35.640  22.448  26.180  1.00  0.00     0.261 C 
BRANCH   2   3
ATOM      3  O   UNL A   1      34.336  22.963  25.872  1.00  0.00    -0.460 OA
BRANCH   3   4
ATOM      4  C   UNL A   1      33.306  22.360  26.495  1.00  0.00     0.338 C 
ATOM      5  O   UNL A   1      33.374  21.776  27.568  1.00  0.00    -0.246 OA
BRANCH   4   6
ATOM      6  C   UNL A   1      32.010  22.618  25.824  1.00  0.00     0.087 C 
ATOM      7  C   UNL A   1      31.610  26.225  23.784  1.00  0.00     0.026 A 
ATOM      8  C   UNL A   1      32.591  27.061  24.368  1.00  0.00     0.033 A 
ATOM      9  C   UNL A   1      31.477  24.959  24.396  1.00  0.00     0.135 A 
ATOM     10  C   UNL A   1      33.071  26.817  25.654  1.00  0.00     0.042 A 
ATOM     11  C   UNL A   1      31.741  24.838  25.771  1.00  0.00     0.019 A 
ATOM     12  O   UNL A   1      31.654  23.791  23.618  1.00  0.00    -0.475 OA
ATOM     13  Cl  UNL A   1      34.209  27.893  26.359  1.00  0.00    -0.084 Cl
ATOM     14  C   UNL A   1      32.565  25.762  26.400  1.00  0.00     0.032 A 
ATOM     15  C   UNL A   1      31.346  23.595  26.465  1.00  0.00     0.027 C 
ATOM     16  C   UNL A   1      31.683  22.493  24.351  1.00  0.00     0.316 C 
BRANCH   7  17
ATOM     17  C   UNL A   1      30.452  27.007  23.182  1.00  0.00    -0.015 A 
ATOM     18  C   UNL A   1      28.464  29.066  22.702  1.00  0.00    -0.048 A 
ATOM     19  C   UNL A   1      29.718  29.086  22.073  1.00  0.00     0.004 A 
ATOM     20  C   UNL A   1      28.182  27.956  23.501  1.00  0.00     0.004 A 
ATOM     21  C   UNL A   1      30.677  28.073  22.288  1.00  0.00     0.009 A 
ATOM     22  C   UNL A   1      29.156  26.947  23.734  1.00  0.00     0.009 A 
BRANCH  18  23
ATOM     23  C   UNL A   1      27.544  30.265  22.492  1.00  0.00     0.038 C 
BRANCH  23  24
ATOM     24  C   UNL A   1      27.912  31.652  23.074  1.00  0.00    -0.013 C 
ATOM     25  C   UNL A   1      29.058  31.579  24.089  1.00  0.00     0.008 C 
ATOM     26  C   UNL A   1      28.340  32.608  21.946  1.00  0.00     0.008 C 
ENDBRANCH  23  24
ENDBRANCH  18  23
ENDBRANCH   7  17
BRANCH  16  27
ATOM     27  C   UNL A   1      32.369  21.305  23.637  1.00  0.00     0.430 C 
ATOM     28  F   UNL A   1      32.203  20.180  24.388  1.00  0.00    -0.167 F 
ATOM     29  F   UNL A   1      31.809  21.046  22.434  1.00  0.00    -0.167 F 
ATOM     30  F   UNL A   1      33.693  21.442  23.437  1.00  0.00    -0.167 F 
ENDBRANCH  16  27
ENDBRANCH   4   6
ENDBRANCH   3   4
ENDBRANCH   2   3
ENDBRANCH   1   2
BRANCH   1  31
ATOM     31  O   UNL A   1      37.416  21.067  24.991  1.00  0.00    -0.374 OA
BRANCH  31  32
ATOM     32  C   UNL A   1      37.933  19.738  24.965  1.00  0.00     0.202 C 
BRANCH  32  33
ATOM     33  C   UNL A   1      39.340  19.483  25.513  1.00  0.00     0.261 C 
BRANCH  33  34
ATOM     34  O   UNL A   1      39.611  20.170  26.745  1.00  0.00    -0.460 OA
BRANCH  34  35
ATOM     35  C   UNL A   1      40.914  20.457  26.954  1.00  0.00     0.338 C 
ATOM     36  O   UNL A   1      41.887  19.747  26.714  1.00  0.00    -0.246 OA
BRANCH  35  37
ATOM     37  C   UNL A   1      41.058  21.849  27.393  1.00  0.00     0.060 A 
ATOM     38  C   UNL A   1      40.373  22.841  26.680  1.00  0.00     0.016 A 
ATOM     39  C   UNL A   1      41.949  22.186  28.414  1.00  0.00     0.016 A 
ATOM     40  C   UNL A   1      40.613  24.183  26.955  1.00  0.00     0.010 A 
ATOM     41  C   UNL A   1      42.192  23.534  28.684  1.00  0.00     0.010 A 
ATOM     42  C   UNL A   1      41.555  24.537  27.929  1.00  0.00    -0.014 A 
BRANCH  42  43
ATOM     43  C   UNL A   1      41.993  25.947  28.046  1.00  0.00     0.031 A 
ATOM     44  C   UNL A   1      43.316  26.348  27.456  1.00  0.00     0.074 A 
ATOM     45  C   UNL A   1      41.211  26.858  28.649  1.00  0.00     0.049 A 
ATOM     46  N   UNL A   1      43.925  27.505  27.486  1.00  0.00    -0.248 NA
ATOM     47  C   UNL A   1      44.056  25.296  26.741  1.00  0.00     0.031 C 
ATOM     48  C   UNL A   1      39.891  26.592  29.217  1.00  0.00     0.029 A 
ATOM     49  N   UNL A   1      41.421  28.191  28.889  1.00  0.00    -0.354 N 
ATOM     50  C   UNL A   1      45.120  27.319  26.804  1.00  0.00     0.074 A 
ATOM     51  C   UNL A   1      45.169  25.930  26.403  1.00  0.00     0.031 C 
ATOM     52  C   UNL A   1      39.410  27.728  29.749  1.00  0.00     0.029 A 
ATOM     53  C   UNL A   1      40.404  28.788  29.592  1.00  0.00     0.049 A 
ATOM     54  H   UNL A   1      42.224  28.675  28.587  1.00  0.00     0.167 HD
ATOM     55  C   UNL A   1      46.084  28.230  26.528  1.00  0.00     0.037 A 
ATOM     56  C   UNL A   1      40.304  30.043  30.072  1.00  0.00     0.037 A 
ATOM     57  C   UNL A   1      46.026  29.611  26.932  1.00  0.00     0.049 A 
ATOM     58  C   UNL A   1      41.424  31.017  29.819  1.00  0.00     0.074 A 
ATOM     59  C   UNL A   1      46.942  30.620  26.694  1.00  0.00     0.029 A 
ATOM     60  N   UNL A   1      44.994  30.173  27.671  1.00  0.00    -0.354 N 
ATOM     61  N   UNL A   1      42.542  30.843  29.155  1.00  0.00    -0.248 NA
ATOM     62  C   UNL A   1      41.267  32.366  30.378  1.00  0.00     0.031 C 
ATOM     63  C   UNL A   1      46.493  31.777  27.338  1.00  0.00     0.029 A 
ATOM     64  C   UNL A   1      45.264  31.509  27.920  1.00  0.00     0.049 A 
ATOM     65  H   UNL A   1      44.189  29.693  27.972  1.00  0.00     0.167 HD
ATOM     66  C   UNL A   1      43.202  32.065  29.186  1.00  0.00     0.074 A 
ATOM     67  C   UNL A   1      42.353  32.976  29.926  1.00  0.00     0.031 C 
ATOM     68  C   UNL A   1      44.400  32.404  28.650  1.00  0.00     0.037 A 
BRANCH  55  69
ATOM     69  C   UNL A   1      47.297  27.752  25.780  1.00  0.00     0.064 A 
ATOM     70  C   UNL A   1      47.352  27.754  24.378  1.00  0.00     0.173 A 
ATOM     71  C   UNL A   1      48.429  27.305  26.478  1.00  0.00     0.173 A 
ATOM     72  F   UNL A   1      46.293  28.158  23.661  1.00  0.00    -0.203 F 
ATOM     73  C   UNL A   1      48.481  27.294  23.703  1.00  0.00     0.198 A 
ATOM     74  C   UNL A   1      49.569  26.879  25.801  1.00  0.00     0.198 A 
ATOM     75  F   UNL A   1      48.434  27.286  27.820  1.00  0.00    -0.203 F 
ATOM     76  F   UNL A   1      48.489  27.252  22.364  1.00  0.00    -0.200 F 
ATOM     77  C   UNL A   1      49.591  26.865  24.415  1.00  0.00     0.200 A 
ATOM     78  F   UNL A   1      50.647  26.479  26.491  1.00  0.00    -0.200 F 
ATOM     79  F   UNL A   1      50.679  26.429  23.765  1.00  0.00    -0.200 F 
ENDBRANCH  55  69
BRANCH  56  80
ATOM     80  C   UNL A   1      39.100  30.448  30.844  1.00  0.00     0.064 A 
ATOM     81  C   UNL A   1      37.977  30.988  30.201  1.00  0.00     0.173 A 
ATOM     82  C   UNL A   1      39.051  30.319  32.240  1.00  0.00     0.173 A 
ATOM     83  F   UNL A   1      37.983  31.154  28.870  1.00  0.00    -0.203 F 
ATOM     84  C   UNL A   1      36.861  31.402  30.926  1.00  0.00     0.198 A 
ATOM     85  C   UNL A   1      37.922  30.703  32.961  1.00  0.00     0.198 A 
ATOM     86  F   UNL A   1      40.098  29.809  32.905  1.00  0.00    -0.203 F 
ATOM     87  F   UNL A   1      35.823  31.962  30.291  1.00  0.00    -0.200 F 
ATOM     88  C   UNL A   1      36.832  31.253  32.304  1.00  0.00     0.200 A 
ATOM     89  F   UNL A   1      37.893  30.545  34.291  1.00  0.00    -0.200 F 
ATOM     90  F   UNL A   1      35.757  31.649  33.000  1.00  0.00    -0.200 F 
ENDBRANCH  56  80
BRANCH  68  91
ATOM     91  C   UNL A   1      44.843  33.834  28.795  1.00  0.00     0.064 A 
ATOM     92  C   UNL A   1      45.670  34.251  29.848  1.00  0.00     0.173 A 
ATOM     93  C   UNL A   1      44.465  34.790  27.840  1.00  0.00     0.173 A 
ATOM     94  F   UNL A   1      46.049  33.379  30.795  1.00  0.00    -0.203 F 
ATOM     95  C   UNL A   1      46.076  35.579  29.957  1.00  0.00     0.198 A 
ATOM     96  C   UNL A   1      44.903  36.109  27.931  1.00  0.00     0.198 A 
ATOM     97  F   UNL A   1      43.683  34.444  26.807  1.00  0.00    -0.203 F 
ATOM     98  F   UNL A   1      46.821  35.966  31.002  1.00  0.00    -0.200 F 
ATOM     99  C   UNL A   1      45.700  36.504  28.995  1.00  0.00     0.200 A 
ATOM    100  F   UNL A   1      44.553  36.997  26.990  1.00  0.00    -0.200 F 
ATOM    101  F   UNL A   1      46.100  37.779  29.096  1.00  0.00    -0.200 F 
ENDBRANCH  68  91
ENDBRANCH  42  43
ENDBRANCH  35  37
ENDBRANCH  34  35
ENDBRANCH  33  34
ENDBRANCH  32  33
ENDBRANCH  31  32
ENDBRANCH   1  31
TORSDOF 18
ENDMDL
MODEL 3
REMARK VINA RESULT:     -12.6      0.716      6.902
REMARK SMILES CC(C)Cc1ccc(-c2cc(Cl)cc3c2O[C@@H](C(F)(F)F)C(C(=O)OCCOCCOC(=O)c2ccc(-c4c5nc(c(-c6c(F)c(F)c(F)c(F)c6F)c6ccc([nH]6)c(-c6c(F)c(F)c(F)c(F)c6F)c6nc(c(-c7c(F)c(F)c(F)c(F)c7F)c7ccc4[nH]7)C=C6)C=C5)cc2)=C3)cc1
REMARK SMILES IDX 27 1 26 2 25 3 23 4 24 5 22 6 9 7 10 8 15 9 11 10 14 11
REMARK SMILES IDX 16 12 12 13 13 14 97 15 17 16 8 17 5 18 6 19 99 20 7 21
REMARK SMILES IDX 98 22 4 23 2 24 1 25 3 26 18 27 19 28 20 29 21 30 28 31
REMARK SMILES IDX 29 32 30 33 31 34 32 35 33 36 34 37 35 38 96 39 36 40 95 41
REMARK SMILES IDX 37 42 38 43 39 44 89 45 40 46 94 47 88 48 90 49 41 50 93 51
REMARK SMILES IDX 87 52 86 53 42 55 74 56 54 57 73 58 55 59 58 60 72 61 91 62
REMARK SMILES IDX 56 63 57 64 71 66 92 67 59 68 43 69 44 70 52 71 45 72 46 73
REMARK SMILES IDX 50 74 53 75 47 76 48 77 51 78 49 79 75 80 76 81 84 82 77 83
REMARK SMILES IDX 78 84 82 85 85 86 79 87 80 88 83 89 81 90 60 91 61 92 69 93
REMARK SMILES IDX 62 94 63 95 67 96 70 97 64 98 65 99 68 100 66 101
REMARK H PARENT 90 54 58 65
REMARK Flexibility Score: inf
ROOT
ATOM      1  C   UNL A   1      33.168  28.933  26.684  1.00  0.00     0.202 C 
ENDROOT
BRANCH   1   2
ATOM      2  C   UNL A   1      33.420  28.908  25.169  1.00  0.00     0.261 C 
BRANCH   2   3
ATOM      3  O   UNL A   1      33.240  27.609  24.586  1.00  0.00    -0.460 OA
BRANCH   3   4
ATOM      4  C   UNL A   1      33.050  27.586  23.252  1.00  0.00     0.338 C 
ATOM      5  O   UNL A   1      33.536  28.379  22.457  1.00  0.00    -0.246 OA
BRANCH   4   6
ATOM      6  C   UNL A   1      32.312  26.381  22.807  1.00  0.00     0.087 C 
ATOM      7  C   UNL A   1      32.867  22.890  25.006  1.00  0.00     0.026 A 
ATOM      8  C   UNL A   1      34.105  23.090  25.662  1.00  0.00     0.033 A 
ATOM      9  C   UNL A   1      32.511  23.912  24.098  1.00  0.00     0.135 A 
ATOM     10  C   UNL A   1      35.051  23.982  25.158  1.00  0.00     0.042 A 
ATOM     11  C   UNL A   1      33.530  24.611  23.428  1.00  0.00     0.019 A 
ATOM     12  O   UNL A   1      31.289  24.603  24.276  1.00  0.00    -0.475 OA
ATOM     13  Cl  UNL A   1      36.571  24.147  25.940  1.00  0.00    -0.084 Cl
ATOM     14  C   UNL A   1      34.805  24.666  23.976  1.00  0.00     0.032 A 
ATOM     15  C   UNL A   1      33.167  25.482  22.291  1.00  0.00     0.027 C 
ATOM     16  C   UNL A   1      31.054  25.787  23.402  1.00  0.00     0.316 C 
BRANCH   7  17
ATOM     17  C   UNL A   1      32.538  21.419  24.804  1.00  0.00    -0.015 A 
ATOM     18  C   UNL A   1      32.803  18.577  24.272  1.00  0.00    -0.048 A 
ATOM     19  C   UNL A   1      32.888  19.099  25.572  1.00  0.00     0.004 A 
ATOM     20  C   UNL A   1      32.492  19.482  23.254  1.00  0.00     0.004 A 
ATOM     21  C   UNL A   1      32.737  20.477  25.834  1.00  0.00     0.009 A 
ATOM     22  C   UNL A   1      32.361  20.872  23.516  1.00  0.00     0.009 A 
BRANCH  18  23
ATOM     23  C   UNL A   1      33.094  17.092  24.081  1.00  0.00     0.038 C 
BRANCH  23  24
ATOM     24  C   UNL A   1      33.508  16.209  25.285  1.00  0.00    -0.013 C 
ATOM     25  C   UNL A   1      32.656  14.940  25.403  1.00  0.00     0.008 C 
ATOM     26  C   UNL A   1      34.980  15.780  25.152  1.00  0.00     0.008 C 
ENDBRANCH  23  24
ENDBRANCH  18  23
ENDBRANCH   7  17
BRANCH  16  27
ATOM     27  C   UNL A   1      30.024  26.827  23.903  1.00  0.00     0.430 C 
ATOM     28  F   UNL A   1      29.890  27.806  22.965  1.00  0.00    -0.167 F 
ATOM     29  F   UNL A   1      28.795  26.286  24.066  1.00  0.00    -0.167 F 
ATOM     30  F   UNL A   1      30.343  27.442  25.056  1.00  0.00    -0.167 F 
ENDBRANCH  16  27
ENDBRANCH   4   6
ENDBRANCH   3   4
ENDBRANCH   2   3
ENDBRANCH   1   2
BRANCH   1  31
ATOM     31  O   UNL A   1      32.225  29.861  27.204  1.00  0.00    -0.374 OA
BRANCH  31  32
ATOM     32  C   UNL A   1      31.745  30.893  26.344  1.00  0.00     0.202 C 
BRANCH  32  33
ATOM     33  C   UNL A   1      31.664  32.323  26.885  1.00  0.00     0.261 C 
BRANCH  33  34
ATOM     34  O   UNL A   1      32.887  33.063  26.744  1.00  0.00    -0.460 OA
BRANCH  34  35
ATOM     35  C   UNL A   1      33.353  33.604  27.891  1.00  0.00     0.338 C 
ATOM     36  O   UNL A   1      32.811  34.450  28.596  1.00  0.00    -0.246 OA
BRANCH  35  37
ATOM     37  C   UNL A   1      34.585  32.922  28.303  1.00  0.00     0.060 A 
ATOM     38  C   UNL A   1      34.474  31.657  28.893  1.00  0.00     0.016 A 
ATOM     39  C   UNL A   1      35.819  33.570  28.223  1.00  0.00     0.016 A 
ATOM     40  C   UNL A   1      35.596  31.051  29.449  1.00  0.00     0.010 A 
ATOM     41  C   UNL A   1      36.942  32.963  28.788  1.00  0.00     0.010 A 
ATOM     42  C   UNL A   1      36.826  31.720  29.437  1.00  0.00    -0.014 A 
BRANCH  42  43
ATOM     43  C   UNL A   1      37.953  31.195  30.242  1.00  0.00     0.031 A 
ATOM     44  C   UNL A   1      38.891  30.201  29.616  1.00  0.00     0.074 A 
ATOM     45  C   UNL A   1      38.149  31.616  31.503  1.00  0.00     0.049 A 
ATOM     46  N   UNL A   1      39.907  29.568  30.143  1.00  0.00    -0.248 NA
ATOM     47  C   UNL A   1      38.643  29.870  28.204  1.00  0.00     0.031 C 
ATOM     48  C   UNL A   1      37.330  32.608  32.196  1.00  0.00     0.029 A 
ATOM     49  N   UNL A   1      39.096  31.254  32.426  1.00  0.00    -0.354 N 
ATOM     50  C   UNL A   1      40.414  28.761  29.133  1.00  0.00     0.074 A 
ATOM     51  C   UNL A   1      39.571  28.954  27.973  1.00  0.00     0.031 C 
ATOM     52  C   UNL A   1      37.806  32.771  33.442  1.00  0.00     0.029 A 
ATOM     53  C   UNL A   1      38.937  31.868  33.643  1.00  0.00     0.049 A 
ATOM     54  H   UNL A   1      39.820  30.615  32.234  1.00  0.00     0.167 HD
ATOM     55  C   UNL A   1      41.491  27.941  29.169  1.00  0.00     0.037 A 
ATOM     56  C   UNL A   1      39.616  31.697  34.794  1.00  0.00     0.037 A 
ATOM     57  C   UNL A   1      42.323  27.755  30.329  1.00  0.00     0.049 A 
ATOM     58  C   UNL A   1      40.763  30.721  34.830  1.00  0.00     0.074 A 
ATOM     59  C   UNL A   1      43.445  26.959  30.469  1.00  0.00     0.029 A 
ATOM     60  N   UNL A   1      42.113  28.370  31.556  1.00  0.00    -0.354 N 
ATOM     61  N   UNL A   1      41.251  29.976  33.868  1.00  0.00    -0.248 NA
ATOM     62  C   UNL A   1      41.458  30.565  36.115  1.00  0.00     0.031 C 
ATOM     63  C   UNL A   1      43.879  27.046  31.796  1.00  0.00     0.029 A 
ATOM     64  C   UNL A   1      43.069  27.950  32.466  1.00  0.00     0.049 A 
ATOM     65  H   UNL A   1      41.391  29.011  31.750  1.00  0.00     0.167 HD
ATOM     66  C   UNL A   1      42.329  29.293  34.418  1.00  0.00     0.074 A 
ATOM     67  C   UNL A   1      42.429  29.721  35.798  1.00  0.00     0.031 C 
ATOM     68  C   UNL A   1      43.161  28.395  33.834  1.00  0.00     0.037 A 
BRANCH  55  69
ATOM     69  C   UNL A   1      41.810  27.160  27.925  1.00  0.00     0.064 A 
ATOM     70  C   UNL A   1      42.690  27.650  26.947  1.00  0.00     0.173 A 
ATOM     71  C   UNL A   1      41.244  25.893  27.719  1.00  0.00     0.173 A 
ATOM     72  F   UNL A   1      43.249  28.861  27.087  1.00  0.00    -0.203 F 
ATOM     73  C   UNL A   1      42.962  26.916  25.795  1.00  0.00     0.198 A 
ATOM     74  C   UNL A   1      41.546  25.147  26.583  1.00  0.00     0.198 A 
ATOM     75  F   UNL A   1      40.400  25.373  28.623  1.00  0.00    -0.203 F 
ATOM     76  F   UNL A   1      43.761  27.429  24.849  1.00  0.00    -0.200 F 
ATOM     77  C   UNL A   1      42.397  25.662  25.618  1.00  0.00     0.200 A 
ATOM     78  F   UNL A   1      41.010  23.929  26.420  1.00  0.00    -0.200 F 
ATOM     79  F   UNL A   1      42.665  24.954  24.511  1.00  0.00    -0.200 F 
ENDBRANCH  55  69
BRANCH  56  80
ATOM     80  C   UNL A   1      39.228  32.464  36.006  1.00  0.00     0.064 A 
ATOM     81  C   UNL A   1      39.775  33.728  36.267  1.00  0.00     0.173 A 
ATOM     82  C   UNL A   1      38.315  31.945  36.936  1.00  0.00     0.173 A 
ATOM     83  F   UNL A   1      40.671  34.258  35.421  1.00  0.00    -0.203 F 
ATOM     84  C   UNL A   1      39.440  34.434  37.422  1.00  0.00     0.198 A 
ATOM     85  C   UNL A   1      37.956  32.666  38.074  1.00  0.00     0.198 A 
ATOM     86  F   UNL A   1      37.762  30.740  36.735  1.00  0.00    -0.203 F 
ATOM     87  F   UNL A   1      40.017  35.617  37.672  1.00  0.00    -0.200 F 
ATOM     88  C   UNL A   1      38.526  33.905  38.320  1.00  0.00     0.200 A 
ATOM     89  F   UNL A   1      37.062  32.157  38.932  1.00  0.00    -0.200 F 
ATOM     90  F   UNL A   1      38.202  34.586  39.428  1.00  0.00    -0.200 F 
ENDBRANCH  56  80
BRANCH  68  91
ATOM     91  C   UNL A   1      44.288  27.853  34.669  1.00  0.00     0.064 A 
ATOM     92  C   UNL A   1      44.164  26.662  35.400  1.00  0.00     0.173 A 
ATOM     93  C   UNL A   1      45.524  28.517  34.703  1.00  0.00     0.173 A 
ATOM     94  F   UNL A   1      43.000  25.996  35.412  1.00  0.00    -0.203 F 
ATOM     95  C   UNL A   1      45.225  26.174  36.158  1.00  0.00     0.198 A 
ATOM     96  C   UNL A   1      46.594  28.006  35.432  1.00  0.00     0.198 A 
ATOM     97  F   UNL A   1      45.700  29.655  34.015  1.00  0.00    -0.203 F 
ATOM     98  F   UNL A   1      45.066  25.064  36.893  1.00  0.00    -0.200 F 
ATOM     99  C   UNL A   1      46.441  26.841  36.167  1.00  0.00     0.200 A 
ATOM    100  F   UNL A   1      47.774  28.644  35.424  1.00  0.00    -0.200 F 
ATOM    101  F   UNL A   1      47.463  26.364  36.889  1.00  0.00    -0.200 F 
ENDBRANCH  68  91
ENDBRANCH  42  43
ENDBRANCH  35  37
ENDBRANCH  34  35
ENDBRANCH  33  34
ENDBRANCH  32  33
ENDBRANCH  31  32
ENDBRANCH   1  31
TORSDOF 18
ENDMDL
