MODEL 1
REMARK VINA RESULT:     -12.0      0.000      0.000
REMARK SMILES Cc1nc2scc(C)n2c1CNc1ccc(C(=O)OCCOCCOC(=O)c2ccc(-c3c4nc(c(-c5c(F)c(F)c(F)c(F)c5F)c5ccc([nH]5)c(-c5c(F)c(F)c(F)c(F)c5F)c5nc(c(-c6c(F)c(F)c(F)c(F)c6F)c6ccc3[nH]6)C=C5)C=C4)cc2)cc1
REMARK SMILES IDX 21 1 20 2 19 3 17 4 18 5 16 6 13 7 14 8 92 9 15 10 91 11
REMARK SMILES IDX 12 12 11 14 10 15 1 16 2 17 3 18 4 19 9 20 5 21 7 22 6 23
REMARK SMILES IDX 8 24 22 25 23 26 24 27 25 28 26 29 27 30 28 31 29 32 90 33
REMARK SMILES IDX 30 34 89 35 31 36 32 37 33 38 83 39 34 40 88 41 82 42 84 43
REMARK SMILES IDX 35 44 87 45 81 46 80 47 36 49 68 50 48 51 67 52 49 53 52 54
REMARK SMILES IDX 66 55 85 56 50 57 51 58 65 60 86 61 53 62 37 63 38 64 46 65
REMARK SMILES IDX 39 66 40 67 44 68 47 69 41 70 42 71 45 72 43 73 69 74 70 75
REMARK SMILES IDX 78 76 71 77 72 78 76 79 79 80 73 81 74 82 77 83 75 84 54 85
REMARK SMILES IDX 55 86 63 87 56 88 57 89 61 90 64 91 58 92 59 93 62 94 60 95
REMARK H PARENT 12 13 84 48 52 59
REMARK Flexibility Score: inf
ROOT
ATOM      1  C   UNL A   1      41.289  21.359  26.132  1.00  0.00     0.202 C 
ENDROOT
BRANCH   1   2
ATOM      2  C   UNL A   1      39.981  21.682  26.857  1.00  0.00     0.261 C 
BRANCH   2   3
ATOM      3  O   UNL A   1      38.854  21.702  25.964  1.00  0.00    -0.460 OA
BRANCH   3   4
ATOM      4  C   UNL A   1      38.146  22.852  25.984  1.00  0.00     0.338 C 
ATOM      5  O   UNL A   1      38.584  23.990  26.125  1.00  0.00    -0.246 OA
BRANCH   4   6
ATOM      6  C   UNL A   1      36.736  22.603  25.641  1.00  0.00     0.060 A 
ATOM      7  C   UNL A   1      34.004  22.036  25.465  1.00  0.00     0.034 A 
ATOM      8  C   UNL A   1      34.433  23.279  25.937  1.00  0.00     0.026 A 
ATOM      9  C   UNL A   1      34.957  21.146  24.944  1.00  0.00     0.026 A 
ATOM     10  C   UNL A   1      35.793  23.551  26.054  1.00  0.00     0.018 A 
ATOM     11  C   UNL A   1      36.324  21.428  25.019  1.00  0.00     0.018 A 
BRANCH   7  12
ATOM     12  N   UNL A   1      32.696  21.644  25.718  1.00  0.00    -0.379 N 
ATOM     13  H   UNL A   1      32.489  21.039  26.464  1.00  0.00     0.160 HD
BRANCH  12  14
ATOM     14  C   UNL A   1      31.637  22.147  24.856  1.00  0.00     0.169 C 
BRANCH  14  15
ATOM     15  C   UNL A   1      31.081  23.458  25.278  1.00  0.00     0.066 A 
ATOM     16  C   UNL A   1      29.570  22.805  27.283  1.00  0.00     0.069 C 
ATOM     17  C   UNL A   1      30.204  23.744  26.326  1.00  0.00     0.062 A 
ATOM     18  N   UNL A   1      29.968  25.095  26.438  1.00  0.00    -0.224 NA
ATOM     19  C   UNL A   1      30.691  25.607  25.486  1.00  0.00     0.194 A 
ATOM     20  N   UNL A   1      31.394  24.694  24.745  1.00  0.00    -0.290 N 
ATOM     21  S   UNL A   1      30.981  27.238  24.971  1.00  0.00    -0.105 S 
ATOM     22  C   UNL A   1      32.181  25.264  23.746  1.00  0.00     0.032 A 
ATOM     23  C   UNL A   1      32.072  26.609  23.742  1.00  0.00     0.090 A 
ATOM     24  C   UNL A   1      33.052  24.527  22.798  1.00  0.00     0.066 C 
ENDBRANCH  14  15
ENDBRANCH  12  14
ENDBRANCH   7  12
ENDBRANCH   4   6
ENDBRANCH   3   4
ENDBRANCH   2   3
ENDBRANCH   1   2
BRANCH   1  25
ATOM     25  O   UNL A   1      41.457  20.039  25.621  1.00  0.00    -0.374 OA
BRANCH  25  26
ATOM     26  C   UNL A   1      42.421  19.176  26.212  1.00  0.00     0.202 C 
BRANCH  26  27
ATOM     27  C   UNL A   1      43.715  18.920  25.454  1.00  0.00     0.261 C 
BRANCH  27  28
ATOM     28  O   UNL A   1      43.936  19.856  24.406  1.00  0.00    -0.460 OA
BRANCH  28  29
ATOM     29  C   UNL A   1      45.193  20.335  24.355  1.00  0.00     0.338 C 
ATOM     30  O   UNL A   1      46.231  19.683  24.213  1.00  0.00    -0.246 OA
BRANCH  29  31
ATOM     31  C   UNL A   1      45.180  21.760  24.676  1.00  0.00     0.060 A 
ATOM     32  C   UNL A   1      46.019  22.176  25.712  1.00  0.00     0.016 A 
ATOM     33  C   UNL A   1      44.182  22.600  24.151  1.00  0.00     0.016 A 
ATOM     34  C   UNL A   1      45.737  23.363  26.346  1.00  0.00     0.010 A 
ATOM     35  C   UNL A   1      43.900  23.788  24.790  1.00  0.00     0.010 A 
ATOM     36  C   UNL A   1      44.632  24.117  25.925  1.00  0.00    -0.014 A 
BRANCH  36  37
ATOM     37  C   UNL A   1      44.326  25.310  26.680  1.00  0.00     0.031 A 
ATOM     38  C   UNL A   1      45.322  26.387  26.505  1.00  0.00     0.074 A 
ATOM     39  C   UNL A   1      43.229  25.444  27.446  1.00  0.00     0.049 A 
ATOM     40  N   UNL A   1      46.158  26.829  27.383  1.00  0.00    -0.248 NA
ATOM     41  C   UNL A   1      45.512  26.930  25.154  1.00  0.00     0.031 C 
ATOM     42  C   UNL A   1      42.046  24.586  27.508  1.00  0.00     0.029 A 
ATOM     43  N   UNL A   1      42.922  26.460  28.296  1.00  0.00    -0.354 N 
ATOM     44  C   UNL A   1      46.879  27.828  26.745  1.00  0.00     0.074 A 
ATOM     45  C   UNL A   1      46.545  27.751  25.346  1.00  0.00     0.031 C 
ATOM     46  C   UNL A   1      41.067  25.229  28.187  1.00  0.00     0.029 A 
ATOM     47  C   UNL A   1      41.604  26.471  28.721  1.00  0.00     0.049 A 
ATOM     48  H   UNL A   1      43.582  27.131  28.586  1.00  0.00     0.167 HD
ATOM     49  C   UNL A   1      47.527  28.788  27.457  1.00  0.00     0.037 A 
ATOM     50  C   UNL A   1      40.999  27.473  29.405  1.00  0.00     0.037 A 
ATOM     51  C   UNL A   1      47.718  28.391  28.828  1.00  0.00     0.049 A 
ATOM     52  C   UNL A   1      42.063  28.278  30.055  1.00  0.00     0.074 A 
ATOM     53  C   UNL A   1      48.415  27.380  29.458  1.00  0.00     0.029 A 
ATOM     54  N   UNL A   1      46.838  28.878  29.761  1.00  0.00    -0.354 N 
ATOM     55  N   UNL A   1      42.803  27.849  31.039  1.00  0.00    -0.248 NA
ATOM     56  C   UNL A   1      42.596  29.423  29.330  1.00  0.00     0.031 C 
ATOM     57  C   UNL A   1      47.610  27.011  30.576  1.00  0.00     0.029 A 
ATOM     58  C   UNL A   1      46.490  27.844  30.590  1.00  0.00     0.049 A 
ATOM     59  H   UNL A   1      46.513  29.805  29.821  1.00  0.00     0.167 HD
ATOM     60  C   UNL A   1      44.064  28.366  30.783  1.00  0.00     0.074 A 
ATOM     61  C   UNL A   1      43.850  29.413  29.790  1.00  0.00     0.031 C 
ATOM     62  C   UNL A   1      45.185  27.704  31.192  1.00  0.00     0.037 A 
BRANCH  49  63
ATOM     63  C   UNL A   1      47.644  30.217  27.009  1.00  0.00     0.064 A 
ATOM     64  C   UNL A   1      48.882  30.876  27.120  1.00  0.00     0.173 A 
ATOM     65  C   UNL A   1      46.526  31.046  26.768  1.00  0.00     0.173 A 
ATOM     66  F   UNL A   1      50.002  30.184  27.379  1.00  0.00    -0.203 F 
ATOM     67  C   UNL A   1      48.981  32.268  27.063  1.00  0.00     0.198 A 
ATOM     68  C   UNL A   1      46.637  32.430  26.656  1.00  0.00     0.198 A 
ATOM     69  F   UNL A   1      45.275  30.569  26.749  1.00  0.00    -0.203 F 
ATOM     70  F   UNL A   1      50.159  32.861  27.301  1.00  0.00    -0.200 F 
ATOM     71  C   UNL A   1      47.857  33.043  26.835  1.00  0.00     0.200 A 
ATOM     72  F   UNL A   1      45.533  33.164  26.458  1.00  0.00    -0.200 F 
ATOM     73  F   UNL A   1      47.940  34.380  26.841  1.00  0.00    -0.200 F 
ENDBRANCH  49  63
BRANCH  50  74
ATOM     74  C   UNL A   1      39.608  27.964  29.270  1.00  0.00     0.064 A 
ATOM     75  C   UNL A   1      38.761  28.051  30.386  1.00  0.00     0.173 A 
ATOM     76  C   UNL A   1      39.181  28.633  28.106  1.00  0.00     0.173 A 
ATOM     77  F   UNL A   1      39.116  27.481  31.548  1.00  0.00    -0.203 F 
ATOM     78  C   UNL A   1      37.574  28.789  30.351  1.00  0.00     0.198 A 
ATOM     79  C   UNL A   1      37.993  29.364  28.070  1.00  0.00     0.198 A 
ATOM     80  F   UNL A   1      39.955  28.677  27.012  1.00  0.00    -0.203 F 
ATOM     81  F   UNL A   1      36.827  28.907  31.457  1.00  0.00    -0.200 F 
ATOM     82  C   UNL A   1      37.197  29.455  29.196  1.00  0.00     0.200 A 
ATOM     83  F   UNL A   1      37.660  30.034  26.958  1.00  0.00    -0.200 F 
ATOM     84  F   UNL A   1      36.096  30.218  29.182  1.00  0.00    -0.200 F 
ENDBRANCH  50  74
BRANCH  62  85
ATOM     85  C   UNL A   1      45.006  26.588  32.182  1.00  0.00     0.064 A 
ATOM     86  C   UNL A   1      44.717  25.258  31.830  1.00  0.00     0.173 A 
ATOM     87  C   UNL A   1      45.255  26.856  33.535  1.00  0.00     0.173 A 
ATOM     88  F   UNL A   1      44.565  24.899  30.549  1.00  0.00    -0.203 F 
ATOM     89  C   UNL A   1      44.629  24.257  32.798  1.00  0.00     0.198 A 
ATOM     90  C   UNL A   1      45.207  25.848  34.494  1.00  0.00     0.198 A 
ATOM     91  F   UNL A   1      45.590  28.096  33.923  1.00  0.00    -0.203 F 
ATOM     92  F   UNL A   1      44.330  22.999  32.439  1.00  0.00    -0.200 F 
ATOM     93  C   UNL A   1      44.880  24.552  34.127  1.00  0.00     0.200 A 
ATOM     94  F   UNL A   1      45.499  26.129  35.771  1.00  0.00    -0.200 F 
ATOM     95  F   UNL A   1      44.834  23.584  35.053  1.00  0.00    -0.200 F 
ENDBRANCH  62  85
ENDBRANCH  36  37
ENDBRANCH  29  31
ENDBRANCH  28  29
ENDBRANCH  27  28
ENDBRANCH  26  27
ENDBRANCH  25  26
ENDBRANCH   1  25
TORSDOF 17
ENDMDL
MODEL 2
REMARK VINA RESULT:     -11.7      3.127      4.779
REMARK SMILES Cc1nc2scc(C)n2c1CNc1ccc(C(=O)OCCOCCOC(=O)c2ccc(-c3c4nc(c(-c5c(F)c(F)c(F)c(F)c5F)c5ccc([nH]5)c(-c5c(F)c(F)c(F)c(F)c5F)c5nc(c(-c6c(F)c(F)c(F)c(F)c6F)c6ccc3[nH]6)C=C5)C=C4)cc2)cc1
REMARK SMILES IDX 21 1 20 2 19 3 17 4 18 5 16 6 13 7 14 8 92 9 15 10 91 11
REMARK SMILES IDX 12 12 11 14 10 15 1 16 2 17 3 18 4 19 9 20 5 21 7 22 6 23
REMARK SMILES IDX 8 24 22 25 23 26 24 27 25 28 26 29 27 30 28 31 29 32 90 33
REMARK SMILES IDX 30 34 89 35 31 36 32 37 33 38 83 39 34 40 88 41 82 42 84 43
REMARK SMILES IDX 35 44 87 45 81 46 80 47 36 49 68 50 48 51 67 52 49 53 52 54
REMARK SMILES IDX 66 55 85 56 50 57 51 58 65 60 86 61 53 62 37 63 38 64 46 65
REMARK SMILES IDX 39 66 40 67 44 68 47 69 41 70 42 71 45 72 43 73 69 74 70 75
REMARK SMILES IDX 78 76 71 77 72 78 76 79 79 80 73 81 74 82 77 83 75 84 54 85
REMARK SMILES IDX 55 86 63 87 56 88 57 89 61 90 64 91 58 92 59 93 62 94 60 95
REMARK H PARENT 12 13 84 48 52 59
REMARK Flexibility Score: inf
ROOT
ATOM      1  C   UNL A   1      36.118  21.763  24.471  1.00  0.00     0.202 C 
ENDROOT
BRANCH   1   2
ATOM      2  C   UNL A   1      34.982  21.179  25.316  1.00  0.00     0.261 C 
BRANCH   2   3
ATOM      3  O   UNL A   1      34.258  20.152  24.617  1.00  0.00    -0.460 OA
BRANCH   3   4
ATOM      4  C   UNL A   1      32.962  20.036  24.981  1.00  0.00     0.338 C 
ATOM      5  O   UNL A   1      32.463  19.153  25.672  1.00  0.00    -0.246 OA
BRANCH   4   6
ATOM      6  C   UNL A   1      32.197  21.226  24.574  1.00  0.00     0.060 A 
ATOM      7  C   UNL A   1      31.179  23.696  23.752  1.00  0.00     0.034 A 
ATOM      8  C   UNL A   1      31.692  22.801  22.810  1.00  0.00     0.026 A 
ATOM      9  C   UNL A   1      31.047  23.273  25.084  1.00  0.00     0.026 A 
ATOM     10  C   UNL A   1      32.227  21.584  23.222  1.00  0.00     0.018 A 
ATOM     11  C   UNL A   1      31.543  22.035  25.500  1.00  0.00     0.018 A 
BRANCH   7  12
ATOM     12  N   UNL A   1      31.016  25.026  23.385  1.00  0.00    -0.379 N 
ATOM     13  H   UNL A   1      30.118  25.404  23.255  1.00  0.00     0.160 HD
BRANCH  12  14
ATOM     14  C   UNL A   1      32.201  25.849  23.198  1.00  0.00     0.169 C 
BRANCH  14  15
ATOM     15  C   UNL A   1      32.627  26.588  24.413  1.00  0.00     0.066 A 
ATOM     16  C   UNL A   1      34.407  25.004  25.437  1.00  0.00     0.069 C 
ATOM     17  C   UNL A   1      33.582  26.233  25.368  1.00  0.00     0.062 A 
ATOM     18  N   UNL A   1      33.739  27.215  26.320  1.00  0.00    -0.224 NA
ATOM     19  C   UNL A   1      32.905  28.139  25.941  1.00  0.00     0.194 A 
ATOM     20  N   UNL A   1      32.201  27.844  24.803  1.00  0.00    -0.290 N 
ATOM     21  S   UNL A   1      32.515  29.707  26.570  1.00  0.00    -0.105 S 
ATOM     22  C   UNL A   1      31.330  28.855  24.400  1.00  0.00     0.032 A 
ATOM     23  C   UNL A   1      31.387  29.913  25.236  1.00  0.00     0.090 A 
ATOM     24  C   UNL A   1      30.450  28.821  23.207  1.00  0.00     0.066 C 
ENDBRANCH  14  15
ENDBRANCH  12  14
ENDBRANCH   7  12
ENDBRANCH   4   6
ENDBRANCH   3   4
ENDBRANCH   2   3
ENDBRANCH   1   2
BRANCH   1  25
ATOM     25  O   UNL A   1      37.438  21.279  24.706  1.00  0.00    -0.374 OA
BRANCH  25  26
ATOM     26  C   UNL A   1      38.232  21.873  25.725  1.00  0.00     0.202 C 
BRANCH  26  27
ATOM     27  C   UNL A   1      39.574  21.236  26.052  1.00  0.00     0.261 C 
BRANCH  27  28
ATOM     28  O   UNL A   1      40.641  22.176  26.071  1.00  0.00    -0.460 OA
BRANCH  28  29
ATOM     29  C   UNL A   1      41.000  22.573  27.307  1.00  0.00     0.338 C 
ATOM     30  O   UNL A   1      41.030  21.883  28.329  1.00  0.00    -0.246 OA
BRANCH  29  31
ATOM     31  C   UNL A   1      41.187  24.022  27.314  1.00  0.00     0.060 A 
ATOM     32  C   UNL A   1      42.165  24.521  28.176  1.00  0.00     0.016 A 
ATOM     33  C   UNL A   1      40.251  24.865  26.690  1.00  0.00     0.016 A 
ATOM     34  C   UNL A   1      42.090  25.841  28.557  1.00  0.00     0.010 A 
ATOM     35  C   UNL A   1      40.175  26.185  27.076  1.00  0.00     0.010 A 
ATOM     36  C   UNL A   1      41.047  26.636  28.060  1.00  0.00    -0.014 A 
BRANCH  36  37
ATOM     37  C   UNL A   1      40.959  27.989  28.560  1.00  0.00     0.031 A 
ATOM     38  C   UNL A   1      42.037  28.869  28.065  1.00  0.00     0.074 A 
ATOM     39  C   UNL A   1      39.979  28.419  29.374  1.00  0.00     0.049 A 
ATOM     40  N   UNL A   1      43.012  29.371  28.745  1.00  0.00    -0.248 NA
ATOM     41  C   UNL A   1      42.126  29.091  26.615  1.00  0.00     0.031 C 
ATOM     42  C   UNL A   1      38.726  27.752  29.729  1.00  0.00     0.029 A 
ATOM     43  N   UNL A   1      39.883  29.619  30.005  1.00  0.00    -0.354 N 
ATOM     44  C   UNL A   1      43.756  30.116  27.840  1.00  0.00     0.074 A 
ATOM     45  C   UNL A   1      43.256  29.794  26.528  1.00  0.00     0.031 C 
ATOM     46  C   UNL A   1      37.907  28.643  30.336  1.00  0.00     0.029 A 
ATOM     47  C   UNL A   1      38.631  29.888  30.534  1.00  0.00     0.049 A 
ATOM     48  H   UNL A   1      40.639  30.245  30.080  1.00  0.00     0.167 HD
ATOM     49  C   UNL A   1      44.581  31.110  28.264  1.00  0.00     0.037 A 
ATOM     50  C   UNL A   1      38.220  31.079  31.034  1.00  0.00     0.037 A 
ATOM     51  C   UNL A   1      44.886  30.984  29.664  1.00  0.00     0.049 A 
ATOM     52  C   UNL A   1      39.432  31.857  31.392  1.00  0.00     0.074 A 
ATOM     53  C   UNL A   1      45.539  30.044  30.436  1.00  0.00     0.029 A 
ATOM     54  N   UNL A   1      44.177  31.763  30.544  1.00  0.00    -0.354 N 
ATOM     55  N   UNL A   1      40.230  31.550  32.376  1.00  0.00    -0.248 NA
ATOM     56  C   UNL A   1      39.996  32.749  30.389  1.00  0.00     0.031 C 
ATOM     57  C   UNL A   1      44.834  30.021  31.675  1.00  0.00     0.029 A 
ATOM     58  C   UNL A   1      43.820  30.977  31.608  1.00  0.00     0.049 A 
ATOM     59  H   UNL A   1      43.961  32.717  30.429  1.00  0.00     0.167 HD
ATOM     60  C   UNL A   1      41.501  31.835  31.900  1.00  0.00     0.074 A 
ATOM     61  C   UNL A   1      41.287  32.673  30.725  1.00  0.00     0.031 C 
ATOM     62  C   UNL A   1      42.586  31.134  32.341  1.00  0.00     0.037 A 
BRANCH  49  63
ATOM     63  C   UNL A   1      44.796  32.389  27.504  1.00  0.00     0.064 A 
ATOM     64  C   UNL A   1      45.989  32.569  26.781  1.00  0.00     0.173 A 
ATOM     65  C   UNL A   1      44.022  33.551  27.711  1.00  0.00     0.173 A 
ATOM     66  F   UNL A   1      46.813  31.534  26.555  1.00  0.00    -0.203 F 
ATOM     67  C   UNL A   1      46.408  33.833  26.358  1.00  0.00     0.198 A 
ATOM     68  C   UNL A   1      44.415  34.801  27.239  1.00  0.00     0.198 A 
ATOM     69  F   UNL A   1      42.921  33.548  28.474  1.00  0.00    -0.203 F 
ATOM     70  F   UNL A   1      47.611  33.977  25.785  1.00  0.00    -0.200 F 
ATOM     71  C   UNL A   1      45.622  34.947  26.591  1.00  0.00     0.200 A 
ATOM     72  F   UNL A   1      43.650  35.872  27.495  1.00  0.00    -0.200 F 
ATOM     73  F   UNL A   1      46.050  36.167  26.241  1.00  0.00    -0.200 F 
ENDBRANCH  49  63
BRANCH  50  74
ATOM     74  C   UNL A   1      36.883  31.707  30.921  1.00  0.00     0.064 A 
ATOM     75  C   UNL A   1      36.098  31.946  32.060  1.00  0.00     0.173 A 
ATOM     76  C   UNL A   1      36.478  32.351  29.735  1.00  0.00     0.173 A 
ATOM     77  F   UNL A   1      36.441  31.408  33.240  1.00  0.00    -0.203 F 
ATOM     78  C   UNL A   1      34.994  32.803  32.024  1.00  0.00     0.198 A 
ATOM     79  C   UNL A   1      35.371  33.200  29.698  1.00  0.00     0.198 A 
ATOM     80  F   UNL A   1      37.204  32.250  28.613  1.00  0.00    -0.203 F 
ATOM     81  F   UNL A   1      34.311  33.062  33.148  1.00  0.00    -0.200 F 
ATOM     82  C   UNL A   1      34.639  33.439  30.845  1.00  0.00     0.200 A 
ATOM     83  F   UNL A   1      35.062  33.838  28.560  1.00  0.00    -0.200 F 
ATOM     84  F   UNL A   1      33.623  34.313  30.825  1.00  0.00    -0.200 F 
ENDBRANCH  50  74
BRANCH  62  85
ATOM     85  C   UNL A   1      42.404  30.279  33.564  1.00  0.00     0.064 A 
ATOM     86  C   UNL A   1      42.523  30.752  34.883  1.00  0.00     0.173 A 
ATOM     87  C   UNL A   1      41.977  28.956  33.390  1.00  0.00     0.173 A 
ATOM     88  F   UNL A   1      42.828  32.031  35.134  1.00  0.00    -0.203 F 
ATOM     89  C   UNL A   1      42.276  29.918  35.974  1.00  0.00     0.198 A 
ATOM     90  C   UNL A   1      41.692  28.138  34.480  1.00  0.00     0.198 A 
ATOM     91  F   UNL A   1      41.792  28.466  32.154  1.00  0.00    -0.203 F 
ATOM     92  F   UNL A   1      42.418  30.386  37.223  1.00  0.00    -0.200 F 
ATOM     93  C   UNL A   1      41.855  28.615  35.771  1.00  0.00     0.200 A 
ATOM     94  F   UNL A   1      41.237  26.894  34.279  1.00  0.00    -0.200 F 
ATOM     95  F   UNL A   1      41.580  27.825  36.818  1.00  0.00    -0.200 F 
ENDBRANCH  62  85
ENDBRANCH  36  37
ENDBRANCH  29  31
ENDBRANCH  28  29
ENDBRANCH  27  28
ENDBRANCH  26  27
ENDBRANCH  25  26
ENDBRANCH   1  25
TORSDOF 17
ENDMDL
MODEL 3
REMARK VINA RESULT:     -11.4      5.855     11.728
REMARK SMILES Cc1nc2scc(C)n2c1CNc1ccc(C(=O)OCCOCCOC(=O)c2ccc(-c3c4nc(c(-c5c(F)c(F)c(F)c(F)c5F)c5ccc([nH]5)c(-c5c(F)c(F)c(F)c(F)c5F)c5nc(c(-c6c(F)c(F)c(F)c(F)c6F)c6ccc3[nH]6)C=C5)C=C4)cc2)cc1
REMARK SMILES IDX 21 1 20 2 19 3 17 4 18 5 16 6 13 7 14 8 92 9 15 10 91 11
REMARK SMILES IDX 12 12 11 14 10 15 1 16 2 17 3 18 4 19 9 20 5 21 7 22 6 23
REMARK SMILES IDX 8 24 22 25 23 26 24 27 25 28 26 29 27 30 28 31 29 32 90 33
REMARK SMILES IDX 30 34 89 35 31 36 32 37 33 38 83 39 34 40 88 41 82 42 84 43
REMARK SMILES IDX 35 44 87 45 81 46 80 47 36 49 68 50 48 51 67 52 49 53 52 54
REMARK SMILES IDX 66 55 85 56 50 57 51 58 65 60 86 61 53 62 37 63 38 64 46 65
REMARK SMILES IDX 39 66 40 67 44 68 47 69 41 70 42 71 45 72 43 73 69 74 70 75
REMARK SMILES IDX 78 76 71 77 72 78 76 79 79 80 73 81 74 82 77 83 75 84 54 85
REMARK SMILES IDX 55 86 63 87 56 88 57 89 61 90 64 91 58 92 59 93 62 94 60 95
REMARK H PARENT 12 13 84 48 52 59
REMARK Flexibility Score: inf
ROOT
ATOM      1  C   UNL A   1      33.312  36.573  31.525  1.00  0.00     0.202 C 
ENDROOT
BRANCH   1   2
ATOM      2  C   UNL A   1      33.150  35.352  32.434  1.00  0.00     0.261 C 
BRANCH   2   3
ATOM      3  O   UNL A   1      34.410  34.884  32.945  1.00  0.00    -0.460 OA
BRANCH   3   4
ATOM      4  C   UNL A   1      34.658  33.577  32.709  1.00  0.00     0.338 C 
ATOM      5  O   UNL A   1      33.854  32.726  32.336  1.00  0.00    -0.246 OA
BRANCH   4   6
ATOM      6  C   UNL A   1      36.099  33.294  32.796  1.00  0.00     0.060 A 
ATOM      7  C   UNL A   1      38.763  32.745  33.443  1.00  0.00     0.034 A 
ATOM      8  C   UNL A   1      37.816  31.718  33.444  1.00  0.00     0.026 A 
ATOM      9  C   UNL A   1      38.386  34.011  32.969  1.00  0.00     0.026 A 
ATOM     10  C   UNL A   1      36.484  31.997  33.152  1.00  0.00     0.018 A 
ATOM     11  C   UNL A   1      37.058  34.291  32.633  1.00  0.00     0.018 A 
BRANCH   7  12
ATOM     12  N   UNL A   1      39.969  32.537  34.099  1.00  0.00    -0.379 N 
ATOM     13  H   UNL A   1      40.773  33.043  33.843  1.00  0.00     0.160 HD
BRANCH  12  14
ATOM     14  C   UNL A   1      40.021  31.556  35.172  1.00  0.00     0.169 C 
BRANCH  14  15
ATOM     15  C   UNL A   1      40.556  32.084  36.453  1.00  0.00     0.066 A 
ATOM     16  C   UNL A   1      43.038  31.334  36.373  1.00  0.00     0.069 C 
ATOM     17  C   UNL A   1      41.853  32.000  36.964  1.00  0.00     0.062 A 
ATOM     18  N   UNL A   1      41.973  32.670  38.161  1.00  0.00    -0.224 NA
ATOM     19  C   UNL A   1      40.780  33.150  38.358  1.00  0.00     0.194 A 
ATOM     20  N   UNL A   1      39.871  32.848  37.379  1.00  0.00    -0.290 N 
ATOM     21  S   UNL A   1      40.097  34.137  39.610  1.00  0.00    -0.105 S 
ATOM     22  C   UNL A   1      38.606  33.390  37.596  1.00  0.00     0.032 A 
ATOM     23  C   UNL A   1      38.569  34.107  38.739  1.00  0.00     0.090 A 
ATOM     24  C   UNL A   1      37.429  33.239  36.705  1.00  0.00     0.066 C 
ENDBRANCH  14  15
ENDBRANCH  12  14
ENDBRANCH   7  12
ENDBRANCH   4   6
ENDBRANCH   3   4
ENDBRANCH   2   3
ENDBRANCH   1   2
BRANCH   1  25
ATOM     25  O   UNL A   1      33.232  36.368  30.116  1.00  0.00    -0.374 OA
BRANCH  25  26
ATOM     26  C   UNL A   1      33.291  35.046  29.596  1.00  0.00     0.202 C 
BRANCH  26  27
ATOM     27  C   UNL A   1      34.582  34.595  28.929  1.00  0.00     0.261 C 
BRANCH  27  28
ATOM     28  O   UNL A   1      35.039  33.335  29.405  1.00  0.00    -0.460 OA
BRANCH  28  29
ATOM     29  C   UNL A   1      35.513  32.525  28.440  1.00  0.00     0.338 C 
ATOM     30  O   UNL A   1      35.132  32.464  27.268  1.00  0.00    -0.246 OA
BRANCH  29  31
ATOM     31  C   UNL A   1      36.450  31.571  29.028  1.00  0.00     0.060 A 
ATOM     32  C   UNL A   1      37.595  32.105  29.621  1.00  0.00     0.016 A 
ATOM     33  C   UNL A   1      36.328  30.195  28.764  1.00  0.00     0.016 A 
ATOM     34  C   UNL A   1      38.690  31.288  29.782  1.00  0.00     0.010 A 
ATOM     35  C   UNL A   1      37.427  29.380  28.922  1.00  0.00     0.010 A 
ATOM     36  C   UNL A   1      38.616  29.954  29.358  1.00  0.00    -0.014 A 
BRANCH  36  37
ATOM     37  C   UNL A   1      39.821  29.163  29.466  1.00  0.00     0.031 A 
ATOM     38  C   UNL A   1      40.229  28.904  30.861  1.00  0.00     0.074 A 
ATOM     39  C   UNL A   1      40.492  28.684  28.405  1.00  0.00     0.049 A 
ATOM     40  N   UNL A   1      41.260  29.377  31.476  1.00  0.00    -0.248 NA
ATOM     41  C   UNL A   1      39.301  28.152  31.717  1.00  0.00     0.031 C 
ATOM     42  C   UNL A   1      40.075  28.634  27.003  1.00  0.00     0.029 A 
ATOM     43  N   UNL A   1      41.698  28.055  28.393  1.00  0.00    -0.354 N 
ATOM     44  C   UNL A   1      41.207  28.852  32.759  1.00  0.00     0.074 A 
ATOM     45  C   UNL A   1      39.916  28.228  32.898  1.00  0.00     0.031 C 
ATOM     46  C   UNL A   1      40.915  27.822  26.320  1.00  0.00     0.029 A 
ATOM     47  C   UNL A   1      41.998  27.416  27.202  1.00  0.00     0.049 A 
ATOM     48  H   UNL A   1      42.307  28.054  29.167  1.00  0.00     0.167 HD
ATOM     49  C   UNL A   1      42.323  28.780  33.533  1.00  0.00     0.037 A 
ATOM     50  C   UNL A   1      43.033  26.565  26.996  1.00  0.00     0.037 A 
ATOM     51  C   UNL A   1      43.358  29.655  33.051  1.00  0.00     0.049 A 
ATOM     52  C   UNL A   1      44.046  26.829  28.048  1.00  0.00     0.074 A 
ATOM     53  C   UNL A   1      43.485  31.022  32.906  1.00  0.00     0.029 A 
ATOM     54  N   UNL A   1      44.355  29.103  32.287  1.00  0.00    -0.354 N 
ATOM     55  N   UNL A   1      44.760  27.918  28.115  1.00  0.00    -0.248 NA
ATOM     56  C   UNL A   1      43.973  26.057  29.280  1.00  0.00     0.031 C 
ATOM     57  C   UNL A   1      44.250  31.203  31.717  1.00  0.00     0.029 A 
ATOM     58  C   UNL A   1      44.584  29.940  31.227  1.00  0.00     0.049 A 
ATOM     59  H   UNL A   1      44.822  28.256  32.469  1.00  0.00     0.167 HD
ATOM     60  C   UNL A   1      44.851  28.196  29.470  1.00  0.00     0.074 A 
ATOM     61  C   UNL A   1      44.450  26.962  30.138  1.00  0.00     0.031 C 
ATOM     62  C   UNL A   1      44.971  29.481  29.913  1.00  0.00     0.037 A 
BRANCH  49  63
ATOM     63  C   UNL A   1      42.601  27.649  34.483  1.00  0.00     0.064 A 
ATOM     64  C   UNL A   1      43.158  26.456  33.990  1.00  0.00     0.173 A 
ATOM     65  C   UNL A   1      42.063  27.584  35.787  1.00  0.00     0.173 A 
ATOM     66  F   UNL A   1      43.669  26.402  32.750  1.00  0.00    -0.203 F 
ATOM     67  C   UNL A   1      43.114  25.267  34.723  1.00  0.00     0.198 A 
ATOM     68  C   UNL A   1      42.072  26.411  36.538  1.00  0.00     0.198 A 
ATOM     69  F   UNL A   1      41.406  28.612  36.339  1.00  0.00    -0.203 F 
ATOM     70  F   UNL A   1      43.540  24.125  34.165  1.00  0.00    -0.200 F 
ATOM     71  C   UNL A   1      42.568  25.246  35.994  1.00  0.00     0.200 A 
ATOM     72  F   UNL A   1      41.517  26.406  37.758  1.00  0.00    -0.200 F 
ATOM     73  F   UNL A   1      42.469  24.096  36.673  1.00  0.00    -0.200 F 
ENDBRANCH  49  63
BRANCH  50  74
ATOM     74  C   UNL A   1      43.059  25.340  26.164  1.00  0.00     0.064 A 
ATOM     75  C   UNL A   1      44.107  25.102  25.260  1.00  0.00     0.173 A 
ATOM     76  C   UNL A   1      42.219  24.246  26.450  1.00  0.00     0.173 A 
ATOM     77  F   UNL A   1      44.980  26.078  24.968  1.00  0.00    -0.203 F 
ATOM     78  C   UNL A   1      44.322  23.838  24.702  1.00  0.00     0.198 A 
ATOM     79  C   UNL A   1      42.430  22.986  25.887  1.00  0.00     0.198 A 
ATOM     80  F   UNL A   1      41.238  24.349  27.359  1.00  0.00    -0.203 F 
ATOM     81  F   UNL A   1      45.375  23.632  23.899  1.00  0.00    -0.200 F 
ATOM     82  C   UNL A   1      43.491  22.779  25.026  1.00  0.00     0.200 A 
ATOM     83  F   UNL A   1      41.641  21.962  26.239  1.00  0.00    -0.200 F 
ATOM     84  F   UNL A   1      43.736  21.552  24.546  1.00  0.00    -0.200 F 
ENDBRANCH  50  74
BRANCH  62  85
ATOM     85  C   UNL A   1      45.313  30.533  28.895  1.00  0.00     0.064 A 
ATOM     86  C   UNL A   1      44.370  31.171  28.071  1.00  0.00     0.173 A 
ATOM     87  C   UNL A   1      46.635  30.995  28.839  1.00  0.00     0.173 A 
ATOM     88  F   UNL A   1      43.070  30.859  28.137  1.00  0.00    -0.203 F 
ATOM     89  C   UNL A   1      44.748  32.188  27.194  1.00  0.00     0.198 A 
ATOM     90  C   UNL A   1      47.002  32.037  27.992  1.00  0.00     0.198 A 
ATOM     91  F   UNL A   1      47.568  30.461  29.643  1.00  0.00    -0.203 F 
ATOM     92  F   UNL A   1      43.834  32.767  26.401  1.00  0.00    -0.200 F 
ATOM     93  C   UNL A   1      46.062  32.623  27.160  1.00  0.00     0.200 A 
ATOM     94  F   UNL A   1      48.264  32.487  27.999  1.00  0.00    -0.200 F 
ATOM     95  F   UNL A   1      46.419  33.626  26.345  1.00  0.00    -0.200 F 
ENDBRANCH  62  85
ENDBRANCH  36  37
ENDBRANCH  29  31
ENDBRANCH  28  29
ENDBRANCH  27  28
ENDBRANCH  26  27
ENDBRANCH  25  26
ENDBRANCH   1  25
TORSDOF 17
ENDMDL
