MODEL 1
REMARK VINA RESULT:     -12.8      0.000      0.000
REMARK SMILES C[C@@H]1C(C(=O)OCCOCCOC(=O)c2ccc(-c3c4nc(c(-c5c(F)c(F)c(F)c(F)c5F)c5ccc([nH]5)c(-c5c(F)c(F)c(F)c(F)c5F)c5nc(c(-c6c(F)c(F)c(F)c(F)c6F)c6ccc3[nH]6)C=C5)C=C4)cc2)=NC2=C1C(=O)C[C@H](c1ccccc1)C2
REMARK SMILES IDX 10 1 9 2 8 3 7 4 6 5 4 6 5 7 3 8 1 9 2 10 80 11 78 12 79 13
REMARK SMILES IDX 81 14 91 15 82 16 83 17 84 18 85 19 86 20 90 21 87 22 89 23
REMARK SMILES IDX 88 24 11 25 12 26 13 27 14 28 15 29 16 30 77 31 17 32 76 33
REMARK SMILES IDX 18 34 19 35 20 36 70 37 21 38 75 39 69 40 71 41 22 42 74 43
REMARK SMILES IDX 68 44 67 45 23 47 55 48 35 49 54 50 36 51 39 52 53 53 72 54
REMARK SMILES IDX 37 55 38 56 52 58 73 59 40 60 24 61 25 62 33 63 26 64 27 65
REMARK SMILES IDX 31 66 34 67 28 68 29 69 32 70 30 71 56 72 57 73 65 74 58 75
REMARK SMILES IDX 59 76 63 77 66 78 60 79 61 80 64 81 62 82 41 83 42 84 50 85
REMARK SMILES IDX 43 86 44 87 48 88 51 89 45 90 46 91 49 92 47 93
REMARK H PARENT 71 46 39 57
REMARK Flexibility Score: inf
ROOT
ATOM      1  C   UNL A   1      32.748  29.785  26.883  1.00  0.00     0.202 C 
ENDROOT
BRANCH   1   2
ATOM      2  O   UNL A   1      32.752  29.565  25.476  1.00  0.00    -0.374 OA
BRANCH   2   3
ATOM      3  C   UNL A   1      33.669  28.561  25.048  1.00  0.00     0.202 C 
BRANCH   3   4
ATOM      4  C   UNL A   1      33.089  27.672  23.940  1.00  0.00     0.261 C 
BRANCH   4   5
ATOM      5  O   UNL A   1      33.854  26.449  23.791  1.00  0.00    -0.459 OA
BRANCH   5   6
ATOM      6  C   UNL A   1      33.455  25.587  22.821  1.00  0.00     0.353 C 
ATOM      7  O   UNL A   1      33.744  25.631  21.642  1.00  0.00    -0.245 OA
BRANCH   6   8
ATOM      8  C   UNL A   1      32.735  24.391  23.458  1.00  0.00     0.133 C 
ATOM      9  C   UNL A   1      30.277  24.484  23.523  1.00  0.00     0.020 C 
ATOM     10  C   UNL A   1      31.546  24.597  24.370  1.00  0.00     0.078 C 
ATOM     11  C   UNL A   1      31.801  23.330  25.107  1.00  0.00     0.026 C 
ATOM     12  N   UNL A   1      33.127  23.146  23.317  1.00  0.00    -0.249 NA
ATOM     13  C   UNL A   1      32.515  22.488  24.362  1.00  0.00     0.049 C 
ATOM     14  C   UNL A   1      31.790  23.100  26.555  1.00  0.00     0.161 C 
ATOM     15  C   UNL A   1      32.952  21.159  24.902  1.00  0.00     0.065 C 
ATOM     16  O   UNL A   1      30.954  23.672  27.251  1.00  0.00    -0.294 OA
ATOM     17  C   UNL A   1      32.905  22.217  27.167  1.00  0.00     0.089 C 
ATOM     18  C   UNL A   1      33.800  21.398  26.166  1.00  0.00     0.033 C 
BRANCH  18  19
ATOM     19  C   UNL A   1      35.205  21.943  25.838  1.00  0.00    -0.044 A 
ATOM     20  C   UNL A   1      35.564  23.278  26.126  1.00  0.00     0.004 A 
ATOM     21  C   UNL A   1      36.189  21.161  25.220  1.00  0.00     0.004 A 
ATOM     22  C   UNL A   1      36.877  23.740  26.032  1.00  0.00     0.000 A 
ATOM     23  C   UNL A   1      37.511  21.634  25.095  1.00  0.00     0.000 A 
ATOM     24  C   UNL A   1      37.865  22.900  25.555  1.00  0.00     0.000 A 
ENDBRANCH  18  19
ENDBRANCH   6   8
ENDBRANCH   5   6
ENDBRANCH   4   5
ENDBRANCH   3   4
ENDBRANCH   2   3
ENDBRANCH   1   2
BRANCH   1  25
ATOM     25  C   UNL A   1      33.403  31.096  27.252  1.00  0.00     0.261 C 
BRANCH  25  26
ATOM     26  O   UNL A   1      34.762  30.830  27.518  1.00  0.00    -0.460 OA
BRANCH  26  27
ATOM     27  C   UNL A   1      35.530  31.813  28.000  1.00  0.00     0.338 C 
ATOM     28  O   UNL A   1      35.529  33.001  27.716  1.00  0.00    -0.246 OA
BRANCH  27  29
ATOM     29  C   UNL A   1      36.496  31.103  28.836  1.00  0.00     0.060 A 
ATOM     30  C   UNL A   1      37.584  31.836  29.299  1.00  0.00     0.016 A 
ATOM     31  C   UNL A   1      36.480  29.695  28.826  1.00  0.00     0.016 A 
ATOM     32  C   UNL A   1      38.765  31.159  29.487  1.00  0.00     0.010 A 
ATOM     33  C   UNL A   1      37.668  29.037  28.940  1.00  0.00     0.010 A 
ATOM     34  C   UNL A   1      38.808  29.793  29.184  1.00  0.00    -0.014 A 
BRANCH  34  35
ATOM     35  C   UNL A   1      40.054  29.081  29.301  1.00  0.00     0.031 A 
ATOM     36  C   UNL A   1      40.338  28.802  30.722  1.00  0.00     0.074 A 
ATOM     37  C   UNL A   1      40.726  28.618  28.233  1.00  0.00     0.049 A 
ATOM     38  N   UNL A   1      41.095  29.494  31.510  1.00  0.00    -0.248 NA
ATOM     39  C   UNL A   1      39.442  27.867  31.428  1.00  0.00     0.031 C 
ATOM     40  C   UNL A   1      40.319  28.604  26.827  1.00  0.00     0.029 A 
ATOM     41  N   UNL A   1      41.923  27.971  28.212  1.00  0.00    -0.354 N 
ATOM     42  C   UNL A   1      40.954  28.882  32.748  1.00  0.00     0.074 A 
ATOM     43  C   UNL A   1      39.711  28.169  32.698  1.00  0.00     0.031 C 
ATOM     44  C   UNL A   1      41.149  27.793  26.126  1.00  0.00     0.029 A 
ATOM     45  C   UNL A   1      42.214  27.343  27.003  1.00  0.00     0.049 A 
ATOM     46  H   UNL A   1      42.533  27.950  28.985  1.00  0.00     0.167 HD
ATOM     47  C   UNL A   1      42.047  28.659  33.524  1.00  0.00     0.037 A 
ATOM     48  C   UNL A   1      43.228  26.457  26.820  1.00  0.00     0.037 A 
ATOM     49  C   UNL A   1      43.151  29.478  33.075  1.00  0.00     0.049 A 
ATOM     50  C   UNL A   1      44.179  26.658  27.949  1.00  0.00     0.074 A 
ATOM     51  C   UNL A   1      43.386  30.834  32.961  1.00  0.00     0.029 A 
ATOM     52  N   UNL A   1      44.063  28.861  32.254  1.00  0.00    -0.354 N 
ATOM     53  N   UNL A   1      44.879  27.747  28.119  1.00  0.00    -0.248 NA
ATOM     54  C   UNL A   1      43.977  25.855  29.144  1.00  0.00     0.031 C 
ATOM     55  C   UNL A   1      44.161  30.985  31.771  1.00  0.00     0.029 A 
ATOM     56  C   UNL A   1      44.434  29.718  31.253  1.00  0.00     0.049 A 
ATOM     57  H   UNL A   1      44.397  27.943  32.368  1.00  0.00     0.167 HD
ATOM     58  C   UNL A   1      44.828  27.991  29.485  1.00  0.00     0.074 A 
ATOM     59  C   UNL A   1      44.332  26.748  30.072  1.00  0.00     0.031 C 
ATOM     60  C   UNL A   1      44.905  29.270  29.961  1.00  0.00     0.037 A 
BRANCH  47  61
ATOM     61  C   UNL A   1      42.267  27.385  34.324  1.00  0.00     0.064 A 
ATOM     62  C   UNL A   1      41.960  27.408  35.698  1.00  0.00     0.173 A 
ATOM     63  C   UNL A   1      43.020  26.263  33.901  1.00  0.00     0.173 A 
ATOM     64  F   UNL A   1      41.256  28.423  36.222  1.00  0.00    -0.203 F 
ATOM     65  C   UNL A   1      42.447  26.443  36.584  1.00  0.00     0.198 A 
ATOM     66  C   UNL A   1      43.462  25.277  34.779  1.00  0.00     0.198 A 
ATOM     67  F   UNL A   1      43.460  26.100  32.651  1.00  0.00    -0.203 F 
ATOM     68  F   UNL A   1      42.235  26.582  37.898  1.00  0.00    -0.200 F 
ATOM     69  C   UNL A   1      43.207  25.384  36.125  1.00  0.00     0.200 A 
ATOM     70  F   UNL A   1      44.212  24.269  34.308  1.00  0.00    -0.200 F 
ATOM     71  F   UNL A   1      43.729  24.494  36.977  1.00  0.00    -0.200 F 
ENDBRANCH  47  61
BRANCH  48  72
ATOM     72  C   UNL A   1      43.245  25.222  25.998  1.00  0.00     0.064 A 
ATOM     73  C   UNL A   1      44.352  24.899  25.193  1.00  0.00     0.173 A 
ATOM     74  C   UNL A   1      42.312  24.190  26.216  1.00  0.00     0.173 A 
ATOM     75  F   UNL A   1      45.317  25.806  24.980  1.00  0.00    -0.203 F 
ATOM     76  C   UNL A   1      44.525  23.617  24.658  1.00  0.00     0.198 A 
ATOM     77  C   UNL A   1      42.485  22.912  25.680  1.00  0.00     0.198 A 
ATOM     78  F   UNL A   1      41.267  24.373  27.035  1.00  0.00    -0.203 F 
ATOM     79  F   UNL A   1      45.626  23.329  23.947  1.00  0.00    -0.200 F 
ATOM     80  C   UNL A   1      43.596  22.621  24.912  1.00  0.00     0.200 A 
ATOM     81  F   UNL A   1      41.600  21.946  25.968  1.00  0.00    -0.200 F 
ATOM     82  F   UNL A   1      43.793  21.376  24.455  1.00  0.00    -0.200 F 
ENDBRANCH  48  72
BRANCH  60  83
ATOM     83  C   UNL A   1      45.359  30.337  28.999  1.00  0.00     0.064 A 
ATOM     84  C   UNL A   1      44.503  31.067  28.154  1.00  0.00     0.173 A 
ATOM     85  C   UNL A   1      46.706  30.716  29.031  1.00  0.00     0.173 A 
ATOM     86  F   UNL A   1      43.185  30.826  28.134  1.00  0.00    -0.203 F 
ATOM     87  C   UNL A   1      44.988  32.100  27.351  1.00  0.00     0.198 A 
ATOM     88  C   UNL A   1      47.181  31.771  28.258  1.00  0.00     0.198 A 
ATOM     89  F   UNL A   1      47.559  30.088  29.855  1.00  0.00    -0.203 F 
ATOM     90  F   UNL A   1      44.156  32.773  26.543  1.00  0.00    -0.200 F 
ATOM     91  C   UNL A   1      46.325  32.455  27.410  1.00  0.00     0.200 A 
ATOM     92  F   UNL A   1      48.465  32.141  28.356  1.00  0.00    -0.200 F 
ATOM     93  F   UNL A   1      46.786  33.473  26.670  1.00  0.00    -0.200 F 
ENDBRANCH  60  83
ENDBRANCH  34  35
ENDBRANCH  27  29
ENDBRANCH  26  27
ENDBRANCH  25  26
ENDBRANCH   1  25
TORSDOF 15
ENDMDL
MODEL 2
REMARK VINA RESULT:     -12.8      2.919      8.421
REMARK SMILES C[C@@H]1C(C(=O)OCCOCCOC(=O)c2ccc(-c3c4nc(c(-c5c(F)c(F)c(F)c(F)c5F)c5ccc([nH]5)c(-c5c(F)c(F)c(F)c(F)c5F)c5nc(c(-c6c(F)c(F)c(F)c(F)c6F)c6ccc3[nH]6)C=C5)C=C4)cc2)=NC2=C1C(=O)C[C@H](c1ccccc1)C2
REMARK SMILES IDX 10 1 9 2 8 3 7 4 6 5 4 6 5 7 3 8 1 9 2 10 80 11 78 12 79 13
REMARK SMILES IDX 81 14 91 15 82 16 83 17 84 18 85 19 86 20 90 21 87 22 89 23
REMARK SMILES IDX 88 24 11 25 12 26 13 27 14 28 15 29 16 30 77 31 17 32 76 33
REMARK SMILES IDX 18 34 19 35 20 36 70 37 21 38 75 39 69 40 71 41 22 42 74 43
REMARK SMILES IDX 68 44 67 45 23 47 55 48 35 49 54 50 36 51 39 52 53 53 72 54
REMARK SMILES IDX 37 55 38 56 52 58 73 59 40 60 24 61 25 62 33 63 26 64 27 65
REMARK SMILES IDX 31 66 34 67 28 68 29 69 32 70 30 71 56 72 57 73 65 74 58 75
REMARK SMILES IDX 59 76 63 77 66 78 60 79 61 80 64 81 62 82 41 83 42 84 50 85
REMARK SMILES IDX 43 86 44 87 48 88 51 89 45 90 46 91 49 92 47 93
REMARK H PARENT 71 46 39 57
REMARK Flexibility Score: inf
ROOT
ATOM      1  C   UNL A   1      36.410  22.048  26.041  1.00  0.00     0.202 C 
ENDROOT
BRANCH   1   2
ATOM      2  O   UNL A   1      35.506  22.061  24.942  1.00  0.00    -0.374 OA
BRANCH   2   3
ATOM      3  C   UNL A   1      34.237  21.478  25.227  1.00  0.00     0.202 C 
BRANCH   3   4
ATOM      4  C   UNL A   1      33.518  22.177  26.388  1.00  0.00     0.261 C 
BRANCH   4   5
ATOM      5  O   UNL A   1      33.407  23.604  26.158  1.00  0.00    -0.459 OA
BRANCH   5   6
ATOM      6  C   UNL A   1      32.187  24.165  26.347  1.00  0.00     0.353 C 
ATOM      7  O   UNL A   1      31.582  24.261  27.397  1.00  0.00    -0.245 OA
BRANCH   6   8
ATOM      8  C   UNL A   1      31.739  24.873  25.062  1.00  0.00     0.133 C 
ATOM      9  C   UNL A   1      31.197  23.437  23.138  1.00  0.00     0.020 C 
ATOM     10  C   UNL A   1      32.231  24.409  23.709  1.00  0.00     0.078 C 
ATOM     11  C   UNL A   1      32.072  25.760  23.107  1.00  0.00     0.026 C 
ATOM     12  N   UNL A   1      30.975  25.941  25.046  1.00  0.00    -0.249 NA
ATOM     13  C   UNL A   1      31.190  26.481  23.796  1.00  0.00     0.049 C 
ATOM     14  C   UNL A   1      33.007  26.491  22.246  1.00  0.00     0.161 C 
ATOM     15  C   UNL A   1      30.893  27.903  23.424  1.00  0.00     0.065 C 
ATOM     16  O   UNL A   1      33.657  25.877  21.402  1.00  0.00    -0.294 OA
ATOM     17  C   UNL A   1      33.217  28.003  22.505  1.00  0.00     0.089 C 
ATOM     18  C   UNL A   1      32.205  28.708  23.481  1.00  0.00     0.033 C 
BRANCH  18  19
ATOM     19  C   UNL A   1      32.664  28.982  24.928  1.00  0.00    -0.044 A 
ATOM     20  C   UNL A   1      33.817  28.368  25.464  1.00  0.00     0.004 A 
ATOM     21  C   UNL A   1      31.960  29.828  25.793  1.00  0.00     0.004 A 
ATOM     22  C   UNL A   1      34.371  28.748  26.686  1.00  0.00     0.000 A 
ATOM     23  C   UNL A   1      32.499  30.192  27.043  1.00  0.00     0.000 A 
ATOM     24  C   UNL A   1      33.732  29.697  27.462  1.00  0.00     0.000 A 
ENDBRANCH  18  19
ENDBRANCH   6   8
ENDBRANCH   5   6
ENDBRANCH   4   5
ENDBRANCH   3   4
ENDBRANCH   2   3
ENDBRANCH   1   2
BRANCH   1  25
ATOM     25  C   UNL A   1      37.849  21.942  25.591  1.00  0.00     0.261 C 
BRANCH  25  26
ATOM     26  O   UNL A   1      38.589  22.909  26.301  1.00  0.00    -0.460 OA
BRANCH  26  27
ATOM     27  C   UNL A   1      39.728  22.541  26.897  1.00  0.00     0.338 C 
ATOM     28  O   UNL A   1      40.031  21.460  27.380  1.00  0.00    -0.246 OA
BRANCH  27  29
ATOM     29  C   UNL A   1      40.478  23.793  26.986  1.00  0.00     0.060 A 
ATOM     30  C   UNL A   1      41.451  23.872  27.977  1.00  0.00     0.016 A 
ATOM     31  C   UNL A   1      39.954  24.932  26.346  1.00  0.00     0.016 A 
ATOM     32  C   UNL A   1      41.694  25.109  28.524  1.00  0.00     0.010 A 
ATOM     33  C   UNL A   1      40.138  26.145  26.937  1.00  0.00     0.010 A 
ATOM     34  C   UNL A   1      40.939  26.198  28.072  1.00  0.00    -0.014 A 
BRANCH  34  35
ATOM     35  C   UNL A   1      41.123  27.489  28.683  1.00  0.00     0.031 A 
ATOM     36  C   UNL A   1      42.354  28.117  28.165  1.00  0.00     0.074 A 
ATOM     37  C   UNL A   1      40.193  28.056  29.471  1.00  0.00     0.049 A 
ATOM     38  N   UNL A   1      43.520  28.108  28.722  1.00  0.00    -0.248 NA
ATOM     39  C   UNL A   1      42.376  28.504  26.741  1.00  0.00     0.031 C 
ATOM     40  C   UNL A   1      38.831  27.600  29.758  1.00  0.00     0.029 A 
ATOM     41  N   UNL A   1      40.265  29.242  30.134  1.00  0.00    -0.354 N 
ATOM     42  C   UNL A   1      44.346  28.740  27.801  1.00  0.00     0.074 A 
ATOM     43  C   UNL A   1      43.687  28.624  26.533  1.00  0.00     0.031 C 
ATOM     44  C   UNL A   1      38.139  28.601  30.355  1.00  0.00     0.029 A 
ATOM     45  C   UNL A   1      39.042  29.708  30.611  1.00  0.00     0.049 A 
ATOM     46  H   UNL A   1      41.111  29.729  30.266  1.00  0.00     0.167 HD
ATOM     47  C   UNL A   1      45.253  29.660  28.223  1.00  0.00     0.037 A 
ATOM     48  C   UNL A   1      38.830  30.960  31.095  1.00  0.00     0.037 A 
ATOM     49  C   UNL A   1      45.472  29.527  29.646  1.00  0.00     0.049 A 
ATOM     50  C   UNL A   1      40.169  31.517  31.438  1.00  0.00     0.074 A 
ATOM     51  C   UNL A   1      45.945  28.533  30.479  1.00  0.00     0.029 A 
ATOM     52  N   UNL A   1      44.769  30.394  30.446  1.00  0.00    -0.354 N 
ATOM     53  N   UNL A   1      40.923  31.046  32.394  1.00  0.00    -0.248 NA
ATOM     54  C   UNL A   1      40.868  32.264  30.404  1.00  0.00     0.031 C 
ATOM     55  C   UNL A   1      45.167  28.635  31.672  1.00  0.00     0.029 A 
ATOM     56  C   UNL A   1      44.309  29.730  31.551  1.00  0.00     0.049 A 
ATOM     57  H   UNL A   1      44.618  31.347  30.253  1.00  0.00     0.167 HD
ATOM     58  C   UNL A   1      42.208  31.053  31.868  1.00  0.00     0.074 A 
ATOM     59  C   UNL A   1      42.122  31.892  30.674  1.00  0.00     0.031 C 
ATOM     60  C   UNL A   1      43.131  30.135  32.286  1.00  0.00     0.037 A 
BRANCH  47  61
ATOM     61  C   UNL A   1      45.543  30.957  27.485  1.00  0.00     0.064 A 
ATOM     62  C   UNL A   1      46.877  31.225  27.122  1.00  0.00     0.173 A 
ATOM     63  C   UNL A   1      44.663  32.061  27.377  1.00  0.00     0.173 A 
ATOM     64  F   UNL A   1      47.808  30.261  27.187  1.00  0.00    -0.203 F 
ATOM     65  C   UNL A   1      47.308  32.509  26.776  1.00  0.00     0.198 A 
ATOM     66  C   UNL A   1      45.088  33.328  26.984  1.00  0.00     0.198 A 
ATOM     67  F   UNL A   1      43.378  32.017  27.737  1.00  0.00    -0.203 F 
ATOM     68  F   UNL A   1      48.611  32.736  26.566  1.00  0.00    -0.200 F 
ATOM     69  C   UNL A   1      46.415  33.562  26.718  1.00  0.00     0.200 A 
ATOM     70  F   UNL A   1      44.202  34.335  26.952  1.00  0.00    -0.200 F 
ATOM     71  F   UNL A   1      46.835  34.804  26.450  1.00  0.00    -0.200 F 
ENDBRANCH  47  61
BRANCH  48  72
ATOM     72  C   UNL A   1      37.645  31.835  30.920  1.00  0.00     0.064 A 
ATOM     73  C   UNL A   1      37.262  32.295  29.647  1.00  0.00     0.173 A 
ATOM     74  C   UNL A   1      36.696  31.988  31.949  1.00  0.00     0.173 A 
ATOM     75  F   UNL A   1      38.083  32.138  28.599  1.00  0.00    -0.203 F 
ATOM     76  C   UNL A   1      35.999  32.854  29.416  1.00  0.00     0.198 A 
ATOM     77  C   UNL A   1      35.437  32.547  31.717  1.00  0.00     0.198 A 
ATOM     78  F   UNL A   1      36.933  31.506  33.177  1.00  0.00    -0.203 F 
ATOM     79  F   UNL A   1      35.646  33.225  28.176  1.00  0.00    -0.200 F 
ATOM     80  C   UNL A   1      35.084  32.969  30.449  1.00  0.00     0.200 A 
ATOM     81  F   UNL A   1      34.546  32.613  32.717  1.00  0.00    -0.200 F 
ATOM     82  F   UNL A   1      33.852  33.444  30.216  1.00  0.00    -0.200 F 
ENDBRANCH  48  72
BRANCH  60  83
ATOM     83  C   UNL A   1      42.807  29.352  33.531  1.00  0.00     0.064 A 
ATOM     84  C   UNL A   1      42.095  28.139  33.550  1.00  0.00     0.173 A 
ATOM     85  C   UNL A   1      43.356  29.794  34.742  1.00  0.00     0.173 A 
ATOM     86  F   UNL A   1      41.617  27.603  32.419  1.00  0.00    -0.203 F 
ATOM     87  C   UNL A   1      41.908  27.428  34.737  1.00  0.00     0.198 A 
ATOM     88  C   UNL A   1      43.201  29.064  35.917  1.00  0.00     0.198 A 
ATOM     89  F   UNL A   1      44.087  30.918  34.775  1.00  0.00    -0.203 F 
ATOM     90  F   UNL A   1      41.213  26.281  34.733  1.00  0.00    -0.200 F 
ATOM     91  C   UNL A   1      42.468  27.888  35.917  1.00  0.00     0.200 A 
ATOM     92  F   UNL A   1      43.786  29.489  37.044  1.00  0.00    -0.200 F 
ATOM     93  F   UNL A   1      42.325  27.187  37.050  1.00  0.00    -0.200 F 
ENDBRANCH  60  83
ENDBRANCH  34  35
ENDBRANCH  27  29
ENDBRANCH  26  27
ENDBRANCH  25  26
ENDBRANCH   1  25
TORSDOF 15
ENDMDL
MODEL 3
REMARK VINA RESULT:     -12.8      2.798      7.230
REMARK SMILES C[C@@H]1C(C(=O)OCCOCCOC(=O)c2ccc(-c3c4nc(c(-c5c(F)c(F)c(F)c(F)c5F)c5ccc([nH]5)c(-c5c(F)c(F)c(F)c(F)c5F)c5nc(c(-c6c(F)c(F)c(F)c(F)c6F)c6ccc3[nH]6)C=C5)C=C4)cc2)=NC2=C1C(=O)C[C@H](c1ccccc1)C2
REMARK SMILES IDX 10 1 9 2 8 3 7 4 6 5 4 6 5 7 3 8 1 9 2 10 80 11 78 12 79 13
REMARK SMILES IDX 81 14 91 15 82 16 83 17 84 18 85 19 86 20 90 21 87 22 89 23
REMARK SMILES IDX 88 24 11 25 12 26 13 27 14 28 15 29 16 30 77 31 17 32 76 33
REMARK SMILES IDX 18 34 19 35 20 36 70 37 21 38 75 39 69 40 71 41 22 42 74 43
REMARK SMILES IDX 68 44 67 45 23 47 55 48 35 49 54 50 36 51 39 52 53 53 72 54
REMARK SMILES IDX 37 55 38 56 52 58 73 59 40 60 24 61 25 62 33 63 26 64 27 65
REMARK SMILES IDX 31 66 34 67 28 68 29 69 32 70 30 71 56 72 57 73 65 74 58 75
REMARK SMILES IDX 59 76 63 77 66 78 60 79 61 80 64 81 62 82 41 83 42 84 50 85
REMARK SMILES IDX 43 86 44 87 48 88 51 89 45 90 46 91 49 92 47 93
REMARK H PARENT 71 46 39 57
REMARK Flexibility Score: inf
ROOT
ATOM      1  C   UNL A   1      32.499  29.537  26.035  1.00  0.00     0.202 C 
ENDROOT
BRANCH   1   2
ATOM      2  O   UNL A   1      31.664  28.954  25.040  1.00  0.00    -0.374 OA
BRANCH   2   3
ATOM      3  C   UNL A   1      32.246  28.923  23.739  1.00  0.00     0.202 C 
BRANCH   3   4
ATOM      4  C   UNL A   1      33.718  28.492  23.766  1.00  0.00     0.261 C 
BRANCH   4   5
ATOM      5  O   UNL A   1      33.847  27.062  23.968  1.00  0.00    -0.459 OA
BRANCH   5   6
ATOM      6  C   UNL A   1      33.464  26.259  22.944  1.00  0.00     0.353 C 
ATOM      7  O   UNL A   1      33.828  26.327  21.787  1.00  0.00    -0.245 OA
BRANCH   6   8
ATOM      8  C   UNL A   1      32.644  25.082  23.490  1.00  0.00     0.133 C 
ATOM      9  C   UNL A   1      30.211  25.413  23.660  1.00  0.00     0.020 C 
ATOM     10  C   UNL A   1      31.509  25.313  24.463  1.00  0.00     0.078 C 
ATOM     11  C   UNL A   1      31.653  23.960  25.064  1.00  0.00     0.026 C 
ATOM     12  N   UNL A   1      32.901  23.825  23.215  1.00  0.00    -0.249 NA
ATOM     13  C   UNL A   1      32.255  23.130  24.215  1.00  0.00     0.049 C 
ATOM     14  C   UNL A   1      31.660  23.589  26.483  1.00  0.00     0.161 C 
ATOM     15  C   UNL A   1      32.569  21.717  24.606  1.00  0.00     0.065 C 
ATOM     16  O   UNL A   1      30.908  24.169  27.263  1.00  0.00    -0.294 OA
ATOM     17  C   UNL A   1      32.696  22.543  26.963  1.00  0.00     0.089 C 
ATOM     18  C   UNL A   1      33.472  21.743  25.854  1.00  0.00     0.033 C 
BRANCH  18  19
ATOM     19  C   UNL A   1      34.916  22.175  25.525  1.00  0.00    -0.044 A 
ATOM     20  C   UNL A   1      35.484  23.337  26.091  1.00  0.00     0.004 A 
ATOM     21  C   UNL A   1      35.731  21.461  24.639  1.00  0.00     0.004 A 
ATOM     22  C   UNL A   1      36.841  23.642  25.978  1.00  0.00     0.000 A 
ATOM     23  C   UNL A   1      37.096  21.782  24.497  1.00  0.00     0.000 A 
ATOM     24  C   UNL A   1      37.662  22.835  25.212  1.00  0.00     0.000 A 
ENDBRANCH  18  19
ENDBRANCH   6   8
ENDBRANCH   5   6
ENDBRANCH   4   5
ENDBRANCH   3   4
ENDBRANCH   2   3
ENDBRANCH   1   2
BRANCH   1  25
ATOM     25  C   UNL A   1      31.970  30.871  26.507  1.00  0.00     0.261 C 
BRANCH  25  26
ATOM     26  O   UNL A   1      32.971  31.467  27.302  1.00  0.00    -0.460 OA
BRANCH  26  27
ATOM     27  C   UNL A   1      32.822  32.740  27.682  1.00  0.00     0.338 C 
ATOM     28  O   UNL A   1      31.944  33.535  27.383  1.00  0.00    -0.246 OA
BRANCH  27  29
ATOM     29  C   UNL A   1      34.055  33.017  28.417  1.00  0.00     0.060 A 
ATOM     30  C   UNL A   1      35.059  33.688  27.727  1.00  0.00     0.016 A 
ATOM     31  C   UNL A   1      34.300  32.300  29.603  1.00  0.00     0.016 A 
ATOM     32  C   UNL A   1      36.358  33.406  28.073  1.00  0.00     0.010 A 
ATOM     33  C   UNL A   1      35.586  31.962  29.897  1.00  0.00     0.010 A 
ATOM     34  C   UNL A   1      36.591  32.453  29.072  1.00  0.00    -0.014 A 
BRANCH  34  35
ATOM     35  C   UNL A   1      37.945  32.086  29.399  1.00  0.00     0.031 A 
ATOM     36  C   UNL A   1      38.182  30.675  29.036  1.00  0.00     0.074 A 
ATOM     37  C   UNL A   1      38.858  32.982  29.811  1.00  0.00     0.049 A 
ATOM     38  N   UNL A   1      38.116  29.653  29.824  1.00  0.00    -0.248 NA
ATOM     39  C   UNL A   1      38.161  30.326  27.603  1.00  0.00     0.031 C 
ATOM     40  C   UNL A   1      38.746  34.440  29.886  1.00  0.00     0.029 A 
ATOM     41  N   UNL A   1      40.146  32.755  30.185  1.00  0.00    -0.354 N 
ATOM     42  C   UNL A   1      38.321  28.562  28.989  1.00  0.00     0.074 A 
ATOM     43  C   UNL A   1      37.987  29.006  27.668  1.00  0.00     0.031 C 
ATOM     44  C   UNL A   1      39.976  34.978  30.072  1.00  0.00     0.029 A 
ATOM     45  C   UNL A   1      40.933  33.903  30.262  1.00  0.00     0.049 A 
ATOM     46  H   UNL A   1      40.493  31.855  30.387  1.00  0.00     0.167 HD
ATOM     47  C   UNL A   1      39.145  27.554  29.380  1.00  0.00     0.037 A 
ATOM     48  C   UNL A   1      42.286  33.902  30.388  1.00  0.00     0.037 A 
ATOM     49  C   UNL A   1      39.362  27.614  30.808  1.00  0.00     0.049 A 
ATOM     50  C   UNL A   1      42.667  32.550  30.883  1.00  0.00     0.074 A 
ATOM     51  C   UNL A   1      38.560  27.527  31.929  1.00  0.00     0.029 A 
ATOM     52  N   UNL A   1      40.522  28.226  31.214  1.00  0.00    -0.354 N 
ATOM     53  N   UNL A   1      42.345  32.094  32.063  1.00  0.00    -0.248 NA
ATOM     54  C   UNL A   1      42.973  31.535  29.887  1.00  0.00     0.031 C 
ATOM     55  C   UNL A   1      39.116  28.451  32.865  1.00  0.00     0.029 A 
ATOM     56  C   UNL A   1      40.273  29.004  32.312  1.00  0.00     0.049 A 
ATOM     57  H   UNL A   1      41.400  28.121  30.781  1.00  0.00     0.167 HD
ATOM     58  C   UNL A   1      41.982  30.772  31.846  1.00  0.00     0.074 A 
ATOM     59  C   UNL A   1      42.471  30.463  30.504  1.00  0.00     0.031 C 
ATOM     60  C   UNL A   1      41.062  30.167  32.655  1.00  0.00     0.037 A 
BRANCH  47  61
ATOM     61  C   UNL A   1      40.122  26.856  28.448  1.00  0.00     0.064 A 
ATOM     62  C   UNL A   1      41.074  27.649  27.777  1.00  0.00     0.173 A 
ATOM     63  C   UNL A   1      39.995  25.534  27.957  1.00  0.00     0.173 A 
ATOM     64  F   UNL A   1      41.282  28.922  28.146  1.00  0.00    -0.203 F 
ATOM     65  C   UNL A   1      41.764  27.187  26.654  1.00  0.00     0.198 A 
ATOM     66  C   UNL A   1      40.722  25.062  26.867  1.00  0.00     0.198 A 
ATOM     67  F   UNL A   1      39.102  24.658  28.422  1.00  0.00    -0.203 F 
ATOM     68  F   UNL A   1      42.561  28.022  25.975  1.00  0.00    -0.200 F 
ATOM     69  C   UNL A   1      41.580  25.897  26.193  1.00  0.00     0.200 A 
ATOM     70  F   UNL A   1      40.511  23.810  26.431  1.00  0.00    -0.200 F 
ATOM     71  F   UNL A   1      42.190  25.471  25.081  1.00  0.00    -0.200 F 
ENDBRANCH  47  61
BRANCH  48  72
ATOM     72  C   UNL A   1      43.277  34.811  29.761  1.00  0.00     0.064 A 
ATOM     73  C   UNL A   1      43.551  34.748  28.383  1.00  0.00     0.173 A 
ATOM     74  C   UNL A   1      43.749  35.951  30.439  1.00  0.00     0.173 A 
ATOM     75  F   UNL A   1      43.090  33.725  27.651  1.00  0.00    -0.203 F 
ATOM     76  C   UNL A   1      44.236  35.775  27.722  1.00  0.00     0.198 A 
ATOM     77  C   UNL A   1      44.434  36.973  29.778  1.00  0.00     0.198 A 
ATOM     78  F   UNL A   1      43.467  36.143  31.735  1.00  0.00    -0.203 F 
ATOM     79  F   UNL A   1      44.424  35.710  26.395  1.00  0.00    -0.200 F 
ATOM     80  C   UNL A   1      44.667  36.892  28.419  1.00  0.00     0.200 A 
ATOM     81  F   UNL A   1      44.808  38.068  30.457  1.00  0.00    -0.200 F 
ATOM     82  F   UNL A   1      45.266  37.905  27.776  1.00  0.00    -0.200 F 
ENDBRANCH  48  72
BRANCH  60  83
ATOM     83  C   UNL A   1      40.713  30.865  33.944  1.00  0.00     0.064 A 
ATOM     84  C   UNL A   1      41.485  30.807  35.119  1.00  0.00     0.173 A 
ATOM     85  C   UNL A   1      39.611  31.729  33.941  1.00  0.00     0.173 A 
ATOM     86  F   UNL A   1      42.605  30.074  35.171  1.00  0.00    -0.203 F 
ATOM     87  C   UNL A   1      41.139  31.550  36.248  1.00  0.00     0.198 A 
ATOM     88  C   UNL A   1      39.290  32.498  35.055  1.00  0.00     0.198 A 
ATOM     89  F   UNL A   1      38.867  31.863  32.832  1.00  0.00    -0.203 F 
ATOM     90  F   UNL A   1      41.882  31.469  37.362  1.00  0.00    -0.200 F 
ATOM     91  C   UNL A   1      40.047  32.401  36.212  1.00  0.00     0.200 A 
ATOM     92  F   UNL A   1      38.262  33.355  34.998  1.00  0.00    -0.200 F 
ATOM     93  F   UNL A   1      39.737  33.147  37.281  1.00  0.00    -0.200 F 
ENDBRANCH  60  83
ENDBRANCH  34  35
ENDBRANCH  27  29
ENDBRANCH  26  27
ENDBRANCH  25  26
ENDBRANCH   1  25
TORSDOF 15
ENDMDL
