MODEL 1
REMARK VINA RESULT:     -10.9      0.000      0.000
REMARK SMILES COC(=O)CCS(=O)(=O)Nc1ccc(C(=O)OCCOCCOC(=O)c2ccc(-c3c4nc(c(-c5c(F)c(F)c(F)c(F)c5F)c5ccc([nH]5)c(-c5c(F)c(F)c(F)c(F)c5F)c5nc(c(-c6c(F)c(F)c(F)c(F)c6F)c6ccc3[nH]6)C=C5)C=C4)cc2)cc1
REMARK SMILES IDX 18 1 17 2 15 3 16 4 14 5 11 6 12 7 90 8 13 9 89 10 10 11
REMARK SMILES IDX 7 13 8 14 9 15 6 16 5 17 3 18 4 19 2 20 1 21 19 22 20 23
REMARK SMILES IDX 21 24 22 25 23 26 24 27 25 28 26 29 27 30 88 31 28 32 87 33
REMARK SMILES IDX 29 34 30 35 31 36 81 37 32 38 86 39 80 40 82 41 33 42 85 43
REMARK SMILES IDX 79 44 78 45 34 47 66 48 46 49 65 50 47 51 50 52 64 53 83 54
REMARK SMILES IDX 48 55 49 56 63 58 84 59 51 60 35 61 36 62 44 63 37 64 38 65
REMARK SMILES IDX 42 66 45 67 39 68 40 69 43 70 41 71 67 72 68 73 76 74 69 75
REMARK SMILES IDX 70 76 74 77 77 78 71 79 72 80 75 81 73 82 52 83 53 84 61 85
REMARK SMILES IDX 54 86 55 87 59 88 62 89 56 90 57 91 60 92 58 93
REMARK H PARENT 10 12 82 46 50 57
REMARK Flexibility Score: inf
ROOT
ATOM      1  C   UNL A   1      31.259  27.718  24.352  1.00  0.00     0.261 C 
ENDROOT
BRANCH   1   2
ATOM      2  O   UNL A   1      32.135  27.100  25.300  1.00  0.00    -0.460 OA
BRANCH   2   3
ATOM      3  C   UNL A   1      31.556  26.632  26.440  1.00  0.00     0.338 C 
ATOM      4  O   UNL A   1      30.955  27.266  27.278  1.00  0.00    -0.246 OA
BRANCH   3   5
ATOM      5  C   UNL A   1      31.676  25.154  26.435  1.00  0.00     0.060 A 
ATOM      6  C   UNL A   1      31.974  22.377  26.116  1.00  0.00     0.049 A 
ATOM      7  C   UNL A   1      30.710  22.968  26.015  1.00  0.00     0.027 A 
ATOM      8  C   UNL A   1      33.057  23.182  26.457  1.00  0.00     0.027 A 
ATOM      9  C   UNL A   1      30.555  24.353  26.192  1.00  0.00     0.018 A 
ATOM     10  C   UNL A   1      32.922  24.558  26.593  1.00  0.00     0.018 A 
BRANCH   6  11
ATOM     11  N   UNL A   1      32.168  21.079  25.569  1.00  0.00    -0.284 N 
ATOM     12  H   UNL A   1      31.532  20.387  25.864  1.00  0.00     0.180 HD
BRANCH  11  13
ATOM     13  S   UNL A   1      33.328  20.587  24.498  1.00  0.00     0.233 S 
ATOM     14  O   UNL A   1      34.566  20.594  25.251  1.00  0.00    -0.207 OA
ATOM     15  O   UNL A   1      33.202  21.397  23.305  1.00  0.00    -0.207 OA
BRANCH  13  16
ATOM     16  C   UNL A   1      33.007  18.894  24.036  1.00  0.00     0.171 C 
BRANCH  16  17
ATOM     17  C   UNL A   1      33.942  17.823  24.565  1.00  0.00     0.141 C 
BRANCH  17  18
ATOM     18  C   UNL A   1      33.995  16.518  23.813  1.00  0.00     0.306 C 
ATOM     19  O   UNL A   1      34.017  16.443  22.592  1.00  0.00    -0.252 OA
BRANCH  18  20
ATOM     20  O   UNL A   1      34.009  15.461  24.662  1.00  0.00    -0.469 OA
ATOM     21  C   UNL A   1      32.764  15.208  25.319  1.00  0.00     0.282 C 
ENDBRANCH  18  20
ENDBRANCH  17  18
ENDBRANCH  16  17
ENDBRANCH  13  16
ENDBRANCH  11  13
ENDBRANCH   6  11
ENDBRANCH   3   5
ENDBRANCH   2   3
ENDBRANCH   1   2
BRANCH   1  22
ATOM     22  C   UNL A   1      31.760  29.098  23.918  1.00  0.00     0.202 C 
BRANCH  22  23
ATOM     23  O   UNL A   1      32.104  29.991  24.975  1.00  0.00    -0.374 OA
BRANCH  23  24
ATOM     24  C   UNL A   1      31.049  30.828  25.454  1.00  0.00     0.202 C 
BRANCH  24  25
ATOM     25  C   UNL A   1      31.483  31.926  26.432  1.00  0.00     0.261 C 
BRANCH  25  26
ATOM     26  O   UNL A   1      32.624  31.523  27.211  1.00  0.00    -0.460 OA
BRANCH  26  27
ATOM     27  C   UNL A   1      33.413  32.543  27.624  1.00  0.00     0.338 C 
ATOM     28  O   UNL A   1      33.086  33.701  27.820  1.00  0.00    -0.246 OA
BRANCH  27  29
ATOM     29  C   UNL A   1      34.752  32.036  27.977  1.00  0.00     0.060 A 
ATOM     30  C   UNL A   1      34.879  30.659  28.196  1.00  0.00     0.016 A 
ATOM     31  C   UNL A   1      35.839  32.890  28.179  1.00  0.00     0.016 A 
ATOM     32  C   UNL A   1      36.074  30.138  28.683  1.00  0.00     0.010 A 
ATOM     33  C   UNL A   1      37.040  32.364  28.667  1.00  0.00     0.010 A 
ATOM     34  C   UNL A   1      37.149  30.992  28.962  1.00  0.00    -0.014 A 
BRANCH  34  35
ATOM     35  C   UNL A   1      38.329  30.462  29.691  1.00  0.00     0.031 A 
ATOM     36  C   UNL A   1      38.578  30.901  31.108  1.00  0.00     0.074 A 
ATOM     37  C   UNL A   1      39.142  29.563  29.110  1.00  0.00     0.049 A 
ATOM     38  N   UNL A   1      39.544  30.565  31.926  1.00  0.00    -0.248 NA
ATOM     39  C   UNL A   1      37.608  31.847  31.681  1.00  0.00     0.031 C 
ATOM     40  C   UNL A   1      38.985  29.034  27.756  1.00  0.00     0.029 A 
ATOM     41  N   UNL A   1      40.263  28.933  29.590  1.00  0.00    -0.354 N 
ATOM     42  C   UNL A   1      39.302  31.261  33.104  1.00  0.00     0.074 A 
ATOM     43  C   UNL A   1      38.121  32.068  32.882  1.00  0.00     0.031 C 
ATOM     44  C   UNL A   1      39.974  28.159  27.513  1.00  0.00     0.029 A 
ATOM     45  C   UNL A   1      40.853  28.091  28.679  1.00  0.00     0.049 A 
ATOM     46  H   UNL A   1      40.612  29.071  30.500  1.00  0.00     0.167 HD
ATOM     47  C   UNL A   1      39.993  31.220  34.269  1.00  0.00     0.037 A 
ATOM     48  C   UNL A   1      41.982  27.364  28.772  1.00  0.00     0.037 A 
ATOM     49  C   UNL A   1      41.167  30.414  34.485  1.00  0.00     0.049 A 
ATOM     50  C   UNL A   1      42.772  27.390  30.055  1.00  0.00     0.074 A 
ATOM     51  C   UNL A   1      41.929  30.288  35.634  1.00  0.00     0.029 A 
ATOM     52  N   UNL A   1      41.757  29.603  33.526  1.00  0.00    -0.354 N 
ATOM     53  N   UNL A   1      42.521  28.027  31.174  1.00  0.00    -0.248 NA
ATOM     54  C   UNL A   1      44.003  26.587  30.090  1.00  0.00     0.031 C 
ATOM     55  C   UNL A   1      43.014  29.451  35.351  1.00  0.00     0.029 A 
ATOM     56  C   UNL A   1      42.889  28.997  34.049  1.00  0.00     0.049 A 
ATOM     57  H   UNL A   1      41.420  29.476  32.609  1.00  0.00     0.167 HD
ATOM     58  C   UNL A   1      43.537  27.676  32.052  1.00  0.00     0.074 A 
ATOM     59  C   UNL A   1      44.401  26.756  31.342  1.00  0.00     0.031 C 
ATOM     60  C   UNL A   1      43.739  28.079  33.332  1.00  0.00     0.037 A 
BRANCH  47  61
ATOM     61  C   UNL A   1      39.513  32.092  35.395  1.00  0.00     0.064 A 
ATOM     62  C   UNL A   1      38.568  31.643  36.330  1.00  0.00     0.173 A 
ATOM     63  C   UNL A   1      40.033  33.385  35.562  1.00  0.00     0.173 A 
ATOM     64  F   UNL A   1      38.029  30.420  36.212  1.00  0.00    -0.203 F 
ATOM     65  C   UNL A   1      38.143  32.465  37.372  1.00  0.00     0.198 A 
ATOM     66  C   UNL A   1      39.632  34.191  36.623  1.00  0.00     0.198 A 
ATOM     67  F   UNL A   1      40.944  33.865  34.700  1.00  0.00    -0.203 F 
ATOM     68  F   UNL A   1      37.202  32.032  38.222  1.00  0.00    -0.200 F 
ATOM     69  C   UNL A   1      38.681  33.734  37.523  1.00  0.00     0.200 A 
ATOM     70  F   UNL A   1      40.163  35.411  36.776  1.00  0.00    -0.200 F 
ATOM     71  F   UNL A   1      38.277  34.519  38.530  1.00  0.00    -0.200 F 
ENDBRANCH  47  61
BRANCH  48  72
ATOM     72  C   UNL A   1      42.441  26.551  27.615  1.00  0.00     0.064 A 
ATOM     73  C   UNL A   1      41.934  25.264  27.386  1.00  0.00     0.173 A 
ATOM     74  C   UNL A   1      43.411  27.036  26.725  1.00  0.00     0.173 A 
ATOM     75  F   UNL A   1      41.022  24.746  28.222  1.00  0.00    -0.203 F 
ATOM     76  C   UNL A   1      42.397  24.485  26.328  1.00  0.00     0.198 A 
ATOM     77  C   UNL A   1      43.848  26.269  25.647  1.00  0.00     0.198 A 
ATOM     78  F   UNL A   1      43.929  28.261  26.897  1.00  0.00    -0.203 F 
ATOM     79  F   UNL A   1      41.935  23.238  26.166  1.00  0.00    -0.200 F 
ATOM     80  C   UNL A   1      43.349  24.990  25.456  1.00  0.00     0.200 A 
ATOM     81  F   UNL A   1      44.757  26.768  24.797  1.00  0.00    -0.200 F 
ATOM     82  F   UNL A   1      43.792  24.241  24.437  1.00  0.00    -0.200 F 
ENDBRANCH  48  72
BRANCH  60  83
ATOM     83  C   UNL A   1      44.913  27.490  34.064  1.00  0.00     0.064 A 
ATOM     84  C   UNL A   1      44.817  26.283  34.775  1.00  0.00     0.173 A 
ATOM     85  C   UNL A   1      46.162  28.131  34.033  1.00  0.00     0.173 A 
ATOM     86  F   UNL A   1      43.645  25.634  34.848  1.00  0.00    -0.203 F 
ATOM     87  C   UNL A   1      45.914  25.765  35.459  1.00  0.00     0.198 A 
ATOM     88  C   UNL A   1      47.265  27.591  34.685  1.00  0.00     0.198 A 
ATOM     89  F   UNL A   1      46.315  29.281  33.359  1.00  0.00    -0.203 F 
ATOM     90  F   UNL A   1      45.780  24.646  36.185  1.00  0.00    -0.200 F 
ATOM     91  C   UNL A   1      47.138  26.415  35.409  1.00  0.00     0.200 A 
ATOM     92  F   UNL A   1      48.452  28.210  34.620  1.00  0.00    -0.200 F 
ATOM     93  F   UNL A   1      48.192  25.912  36.066  1.00  0.00    -0.200 F 
ENDBRANCH  60  83
ENDBRANCH  34  35
ENDBRANCH  27  29
ENDBRANCH  26  27
ENDBRANCH  25  26
ENDBRANCH  24  25
ENDBRANCH  23  24
ENDBRANCH  22  23
ENDBRANCH   1  22
TORSDOF 20
ENDMDL
MODEL 2
REMARK VINA RESULT:     -10.6      3.518      5.613
REMARK SMILES COC(=O)CCS(=O)(=O)Nc1ccc(C(=O)OCCOCCOC(=O)c2ccc(-c3c4nc(c(-c5c(F)c(F)c(F)c(F)c5F)c5ccc([nH]5)c(-c5c(F)c(F)c(F)c(F)c5F)c5nc(c(-c6c(F)c(F)c(F)c(F)c6F)c6ccc3[nH]6)C=C5)C=C4)cc2)cc1
REMARK SMILES IDX 18 1 17 2 15 3 16 4 14 5 11 6 12 7 90 8 13 9 89 10 10 11
REMARK SMILES IDX 7 13 8 14 9 15 6 16 5 17 3 18 4 19 2 20 1 21 19 22 20 23
REMARK SMILES IDX 21 24 22 25 23 26 24 27 25 28 26 29 27 30 88 31 28 32 87 33
REMARK SMILES IDX 29 34 30 35 31 36 81 37 32 38 86 39 80 40 82 41 33 42 85 43
REMARK SMILES IDX 79 44 78 45 34 47 66 48 46 49 65 50 47 51 50 52 64 53 83 54
REMARK SMILES IDX 48 55 49 56 63 58 84 59 51 60 35 61 36 62 44 63 37 64 38 65
REMARK SMILES IDX 42 66 45 67 39 68 40 69 43 70 41 71 67 72 68 73 76 74 69 75
REMARK SMILES IDX 70 76 74 77 77 78 71 79 72 80 75 81 73 82 52 83 53 84 61 85
REMARK SMILES IDX 54 86 55 87 59 88 62 89 56 90 57 91 60 92 58 93
REMARK H PARENT 10 12 82 46 50 57
REMARK Flexibility Score: inf
ROOT
ATOM      1  C   UNL A   1      34.825  32.107  27.948  1.00  0.00     0.261 C 
ENDROOT
BRANCH   1   2
ATOM      2  O   UNL A   1      34.186  30.827  27.968  1.00  0.00    -0.460 OA
BRANCH   2   3
ATOM      3  C   UNL A   1      33.030  30.719  27.256  1.00  0.00     0.338 C 
ATOM      4  O   UNL A   1      32.301  31.614  26.890  1.00  0.00    -0.246 OA
BRANCH   3   5
ATOM      5  C   UNL A   1      32.861  29.294  26.880  1.00  0.00     0.060 A 
ATOM      6  C   UNL A   1      32.402  26.699  25.903  1.00  0.00     0.049 A 
ATOM      7  C   UNL A   1      31.488  27.297  26.777  1.00  0.00     0.027 A 
ATOM      8  C   UNL A   1      33.574  27.385  25.599  1.00  0.00     0.027 A 
ATOM      9  C   UNL A   1      31.723  28.586  27.283  1.00  0.00     0.018 A 
ATOM     10  C   UNL A   1      33.797  28.677  26.059  1.00  0.00     0.018 A 
BRANCH   6  11
ATOM     11  N   UNL A   1      31.976  25.591  25.121  1.00  0.00    -0.284 N 
ATOM     12  H   UNL A   1      32.312  24.709  25.404  1.00  0.00     0.180 HD
BRANCH  11  13
ATOM     13  S   UNL A   1      30.987  25.598  23.796  1.00  0.00     0.233 S 
ATOM     14  O   UNL A   1      29.655  25.825  24.319  1.00  0.00    -0.207 OA
ATOM     15  O   UNL A   1      31.269  24.405  23.027  1.00  0.00    -0.207 OA
BRANCH  13  16
ATOM     16  C   UNL A   1      31.395  27.006  22.778  1.00  0.00     0.171 C 
BRANCH  16  17
ATOM     17  C   UNL A   1      30.272  27.946  22.381  1.00  0.00     0.141 C 
BRANCH  17  18
ATOM     18  C   UNL A   1      29.999  29.117  23.287  1.00  0.00     0.306 C 
ATOM     19  O   UNL A   1      30.810  29.548  24.096  1.00  0.00    -0.252 OA
BRANCH  18  20
ATOM     20  O   UNL A   1      28.753  29.614  23.089  1.00  0.00    -0.469 OA
ATOM     21  C   UNL A   1      28.506  30.089  21.762  1.00  0.00     0.282 C 
ENDBRANCH  18  20
ENDBRANCH  17  18
ENDBRANCH  16  17
ENDBRANCH  13  16
ENDBRANCH  11  13
ENDBRANCH   6  11
ENDBRANCH   3   5
ENDBRANCH   2   3
ENDBRANCH   1   2
BRANCH   1  22
ATOM     22  C   UNL A   1      34.675  32.848  29.279  1.00  0.00     0.202 C 
BRANCH  22  23
ATOM     23  O   UNL A   1      35.119  34.203  29.285  1.00  0.00    -0.374 OA
BRANCH  23  24
ATOM     24  C   UNL A   1      34.203  35.163  28.754  1.00  0.00     0.202 C 
BRANCH  24  25
ATOM     25  C   UNL A   1      32.908  35.341  29.556  1.00  0.00     0.261 C 
BRANCH  25  26
ATOM     26  O   UNL A   1      33.118  36.149  30.729  1.00  0.00    -0.460 OA
BRANCH  26  27
ATOM     27  C   UNL A   1      32.737  35.566  31.890  1.00  0.00     0.338 C 
ATOM     28  O   UNL A   1      31.604  35.441  32.321  1.00  0.00    -0.246 OA
BRANCH  27  29
ATOM     29  C   UNL A   1      33.898  34.930  32.540  1.00  0.00     0.060 A 
ATOM     30  C   UNL A   1      35.133  35.580  32.427  1.00  0.00     0.016 A 
ATOM     31  C   UNL A   1      33.806  33.685  33.168  1.00  0.00     0.016 A 
ATOM     32  C   UNL A   1      36.292  34.957  32.881  1.00  0.00     0.010 A 
ATOM     33  C   UNL A   1      34.973  33.061  33.624  1.00  0.00     0.010 A 
ATOM     34  C   UNL A   1      36.226  33.675  33.443  1.00  0.00    -0.014 A 
BRANCH  34  35
ATOM     35  C   UNL A   1      37.483  32.932  33.711  1.00  0.00     0.031 A 
ATOM     36  C   UNL A   1      38.228  33.182  34.992  1.00  0.00     0.074 A 
ATOM     37  C   UNL A   1      37.927  32.008  32.840  1.00  0.00     0.049 A 
ATOM     38  N   UNL A   1      39.342  32.647  35.426  1.00  0.00    -0.248 NA
ATOM     39  C   UNL A   1      37.641  34.172  35.910  1.00  0.00     0.031 C 
ATOM     40  C   UNL A   1      37.274  31.651  31.582  1.00  0.00     0.029 A 
ATOM     41  N   UNL A   1      39.035  31.200  32.886  1.00  0.00    -0.354 N 
ATOM     42  C   UNL A   1      39.591  33.236  36.660  1.00  0.00     0.074 A 
ATOM     43  C   UNL A   1      38.534  34.199  36.888  1.00  0.00     0.031 C 
ATOM     44  C   UNL A   1      37.993  30.694  30.974  1.00  0.00     0.029 A 
ATOM     45  C   UNL A   1      39.174  30.396  31.782  1.00  0.00     0.049 A 
ATOM     46  H   UNL A   1      39.670  31.196  33.639  1.00  0.00     0.167 HD
ATOM     47  C   UNL A   1      40.600  32.987  37.529  1.00  0.00     0.037 A 
ATOM     48  C   UNL A   1      40.154  29.531  31.454  1.00  0.00     0.037 A 
ATOM     49  C   UNL A   1      41.648  32.027  37.297  1.00  0.00     0.049 A 
ATOM     50  C   UNL A   1      41.303  29.325  32.407  1.00  0.00     0.074 A 
ATOM     51  C   UNL A   1      42.706  31.688  38.123  1.00  0.00     0.029 A 
ATOM     52  N   UNL A   1      41.777  31.258  36.149  1.00  0.00    -0.354 N 
ATOM     53  N   UNL A   1      41.516  29.863  33.583  1.00  0.00    -0.248 NA
ATOM     54  C   UNL A   1      42.347  28.379  31.986  1.00  0.00     0.031 C 
ATOM     55  C   UNL A   1      43.509  30.761  37.449  1.00  0.00     0.029 A 
ATOM     56  C   UNL A   1      42.913  30.468  36.233  1.00  0.00     0.049 A 
ATOM     57  H   UNL A   1      41.153  31.272  35.387  1.00  0.00     0.167 HD
ATOM     58  C   UNL A   1      42.693  29.300  34.056  1.00  0.00     0.074 A 
ATOM     59  C   UNL A   1      43.141  28.364  33.046  1.00  0.00     0.031 C 
ATOM     60  C   UNL A   1      43.346  29.535  35.222  1.00  0.00     0.037 A 
BRANCH  47  61
ATOM     61  C   UNL A   1      40.636  33.785  38.802  1.00  0.00     0.064 A 
ATOM     62  C   UNL A   1      41.434  34.932  38.936  1.00  0.00     0.173 A 
ATOM     63  C   UNL A   1      39.832  33.418  39.892  1.00  0.00     0.173 A 
ATOM     64  F   UNL A   1      42.230  35.322  37.929  1.00  0.00    -0.203 F 
ATOM     65  C   UNL A   1      41.446  35.663  40.122  1.00  0.00     0.198 A 
ATOM     66  C   UNL A   1      39.821  34.170  41.064  1.00  0.00     0.198 A 
ATOM     67  F   UNL A   1      39.046  32.333  39.819  1.00  0.00    -0.203 F 
ATOM     68  F   UNL A   1      42.255  36.725  40.243  1.00  0.00    -0.200 F 
ATOM     69  C   UNL A   1      40.634  35.287  41.181  1.00  0.00     0.200 A 
ATOM     70  F   UNL A   1      39.025  33.813  42.080  1.00  0.00    -0.200 F 
ATOM     71  F   UNL A   1      40.641  35.996  42.318  1.00  0.00    -0.200 F 
ENDBRANCH  47  61
BRANCH  48  72
ATOM     72  C   UNL A   1      40.097  28.798  30.162  1.00  0.00     0.064 A 
ATOM     73  C   UNL A   1      39.455  27.556  30.061  1.00  0.00     0.173 A 
ATOM     74  C   UNL A   1      40.702  29.314  29.006  1.00  0.00     0.173 A 
ATOM     75  F   UNL A   1      38.883  27.009  31.143  1.00  0.00    -0.203 F 
ATOM     76  C   UNL A   1      39.441  26.848  28.861  1.00  0.00     0.198 A 
ATOM     77  C   UNL A   1      40.658  28.622  27.798  1.00  0.00     0.198 A 
ATOM     78  F   UNL A   1      41.329  30.499  29.047  1.00  0.00    -0.203 F 
ATOM     79  F   UNL A   1      38.868  25.638  28.807  1.00  0.00    -0.200 F 
ATOM     80  C   UNL A   1      40.037  27.384  27.729  1.00  0.00     0.200 A 
ATOM     81  F   UNL A   1      41.221  29.150  26.703  1.00  0.00    -0.200 F 
ATOM     82  F   UNL A   1      40.021  26.703  26.575  1.00  0.00    -0.200 F 
ENDBRANCH  48  72
BRANCH  60  83
ATOM     83  C   UNL A   1      44.590  28.734  35.490  1.00  0.00     0.064 A 
ATOM     84  C   UNL A   1      45.864  29.193  35.121  1.00  0.00     0.173 A 
ATOM     85  C   UNL A   1      44.508  27.496  36.148  1.00  0.00     0.173 A 
ATOM     86  F   UNL A   1      46.000  30.363  34.479  1.00  0.00    -0.203 F 
ATOM     87  C   UNL A   1      47.001  28.426  35.364  1.00  0.00     0.198 A 
ATOM     88  C   UNL A   1      45.649  26.750  36.424  1.00  0.00     0.198 A 
ATOM     89  F   UNL A   1      43.317  27.013  36.534  1.00  0.00    -0.203 F 
ATOM     90  F   UNL A   1      48.198  28.856  34.944  1.00  0.00    -0.200 F 
ATOM     91  C   UNL A   1      46.894  27.209  36.021  1.00  0.00     0.200 A 
ATOM     92  F   UNL A   1      45.546  25.583  37.074  1.00  0.00    -0.200 F 
ATOM     93  F   UNL A   1      47.990  26.474  36.255  1.00  0.00    -0.200 F 
ENDBRANCH  60  83
ENDBRANCH  34  35
ENDBRANCH  27  29
ENDBRANCH  26  27
ENDBRANCH  25  26
ENDBRANCH  24  25
ENDBRANCH  23  24
ENDBRANCH  22  23
ENDBRANCH   1  22
TORSDOF 20
ENDMDL
MODEL 3
REMARK VINA RESULT:     -10.5      3.445      8.711
REMARK SMILES COC(=O)CCS(=O)(=O)Nc1ccc(C(=O)OCCOCCOC(=O)c2ccc(-c3c4nc(c(-c5c(F)c(F)c(F)c(F)c5F)c5ccc([nH]5)c(-c5c(F)c(F)c(F)c(F)c5F)c5nc(c(-c6c(F)c(F)c(F)c(F)c6F)c6ccc3[nH]6)C=C5)C=C4)cc2)cc1
REMARK SMILES IDX 18 1 17 2 15 3 16 4 14 5 11 6 12 7 90 8 13 9 89 10 10 11
REMARK SMILES IDX 7 13 8 14 9 15 6 16 5 17 3 18 4 19 2 20 1 21 19 22 20 23
REMARK SMILES IDX 21 24 22 25 23 26 24 27 25 28 26 29 27 30 88 31 28 32 87 33
REMARK SMILES IDX 29 34 30 35 31 36 81 37 32 38 86 39 80 40 82 41 33 42 85 43
REMARK SMILES IDX 79 44 78 45 34 47 66 48 46 49 65 50 47 51 50 52 64 53 83 54
REMARK SMILES IDX 48 55 49 56 63 58 84 59 51 60 35 61 36 62 44 63 37 64 38 65
REMARK SMILES IDX 42 66 45 67 39 68 40 69 43 70 41 71 67 72 68 73 76 74 69 75
REMARK SMILES IDX 70 76 74 77 77 78 71 79 72 80 75 81 73 82 52 83 53 84 61 85
REMARK SMILES IDX 54 86 55 87 59 88 62 89 56 90 57 91 60 92 58 93
REMARK H PARENT 10 12 82 46 50 57
REMARK Flexibility Score: inf
ROOT
ATOM      1  C   UNL A   1      41.131  20.278  26.994  1.00  0.00     0.261 C 
ENDROOT
BRANCH   1   2
ATOM      2  O   UNL A   1      40.247  20.866  26.034  1.00  0.00    -0.460 OA
BRANCH   2   3
ATOM      3  C   UNL A   1      39.557  21.966  26.444  1.00  0.00     0.338 C 
ATOM      4  O   UNL A   1      39.952  22.866  27.150  1.00  0.00    -0.246 OA
BRANCH   3   5
ATOM      5  C   UNL A   1      38.237  21.949  25.768  1.00  0.00     0.060 A 
ATOM      6  C   UNL A   1      35.609  21.858  24.774  1.00  0.00     0.049 A 
ATOM      7  C   UNL A   1      36.417  20.716  24.741  1.00  0.00     0.027 A 
ATOM      8  C   UNL A   1      36.164  23.049  25.231  1.00  0.00     0.027 A 
ATOM      9  C   UNL A   1      37.736  20.762  25.220  1.00  0.00     0.018 A 
ATOM     10  C   UNL A   1      37.454  23.098  25.746  1.00  0.00     0.018 A 
BRANCH   6  11
ATOM     11  N   UNL A   1      34.201  21.704  24.650  1.00  0.00    -0.284 N 
ATOM     12  H   UNL A   1      33.809  21.992  23.794  1.00  0.00     0.180 HD
BRANCH  11  13
ATOM     13  S   UNL A   1      33.140  21.102  25.767  1.00  0.00     0.233 S 
ATOM     14  O   UNL A   1      31.903  21.821  25.540  1.00  0.00    -0.207 OA
ATOM     15  O   UNL A   1      33.783  21.157  27.062  1.00  0.00    -0.207 OA
BRANCH  13  16
ATOM     16  C   UNL A   1      32.822  19.386  25.396  1.00  0.00     0.171 C 
BRANCH  16  17
ATOM     17  C   UNL A   1      32.838  18.958  23.940  1.00  0.00     0.141 C 
BRANCH  17  18
ATOM     18  C   UNL A   1      33.149  17.513  23.648  1.00  0.00     0.306 C 
ATOM     19  O   UNL A   1      33.647  17.129  22.598  1.00  0.00    -0.252 OA
BRANCH  18  20
ATOM     20  O   UNL A   1      32.801  16.715  24.687  1.00  0.00    -0.469 OA
ATOM     21  C   UNL A   1      33.830  15.822  25.122  1.00  0.00     0.282 C 
ENDBRANCH  18  20
ENDBRANCH  17  18
ENDBRANCH  16  17
ENDBRANCH  13  16
ENDBRANCH  11  13
ENDBRANCH   6  11
ENDBRANCH   3   5
ENDBRANCH   2   3
ENDBRANCH   1   2
BRANCH   1  22
ATOM     22  C   UNL A   1      42.571  20.199  26.481  1.00  0.00     0.202 C 
BRANCH  22  23
ATOM     23  O   UNL A   1      43.167  21.443  26.119  1.00  0.00    -0.374 OA
BRANCH  23  24
ATOM     24  C   UNL A   1      43.788  21.486  24.832  1.00  0.00     0.202 C 
BRANCH  24  25
ATOM     25  C   UNL A   1      44.350  22.854  24.427  1.00  0.00     0.261 C 
BRANCH  25  26
ATOM     26  O   UNL A   1      45.030  23.494  25.522  1.00  0.00    -0.460 OA
BRANCH  26  27
ATOM     27  C   UNL A   1      45.201  24.830  25.376  1.00  0.00     0.338 C 
ATOM     28  O   UNL A   1      45.889  25.403  24.551  1.00  0.00    -0.246 OA
BRANCH  27  29
ATOM     29  C   UNL A   1      44.290  25.557  26.280  1.00  0.00     0.060 A 
ATOM     30  C   UNL A   1      44.439  26.947  26.358  1.00  0.00     0.016 A 
ATOM     31  C   UNL A   1      43.374  24.894  27.100  1.00  0.00     0.016 A 
ATOM     32  C   UNL A   1      43.721  27.672  27.304  1.00  0.00     0.010 A 
ATOM     33  C   UNL A   1      42.652  25.625  28.050  1.00  0.00     0.010 A 
ATOM     34  C   UNL A   1      42.854  27.012  28.185  1.00  0.00    -0.014 A 
BRANCH  34  35
ATOM     35  C   UNL A   1      42.273  27.757  29.330  1.00  0.00     0.031 A 
ATOM     36  C   UNL A   1      42.973  27.726  30.661  1.00  0.00     0.074 A 
ATOM     37  C   UNL A   1      41.159  28.493  29.171  1.00  0.00     0.049 A 
ATOM     38  N   UNL A   1      42.643  28.301  31.790  1.00  0.00    -0.248 NA
ATOM     39  C   UNL A   1      44.214  26.938  30.730  1.00  0.00     0.031 C 
ATOM     40  C   UNL A   1      40.411  28.630  27.922  1.00  0.00     0.029 A 
ATOM     41  N   UNL A   1      40.465  29.265  30.067  1.00  0.00    -0.354 N 
ATOM     42  C   UNL A   1      43.628  27.941  32.702  1.00  0.00     0.074 A 
ATOM     43  C   UNL A   1      44.547  27.066  32.006  1.00  0.00     0.031 C 
ATOM     44  C   UNL A   1      39.360  29.440  28.132  1.00  0.00     0.029 A 
ATOM     45  C   UNL A   1      39.341  29.848  29.535  1.00  0.00     0.049 A 
ATOM     46  H   UNL A   1      40.744  29.389  31.003  1.00  0.00     0.167 HD
ATOM     47  C   UNL A   1      43.760  28.318  33.996  1.00  0.00     0.037 A 
ATOM     48  C   UNL A   1      38.397  30.611  30.120  1.00  0.00     0.037 A 
ATOM     49  C   UNL A   1      42.843  29.190  34.683  1.00  0.00     0.049 A 
ATOM     50  C   UNL A   1      38.532  30.957  31.580  1.00  0.00     0.074 A 
ATOM     51  C   UNL A   1      42.898  29.646  35.989  1.00  0.00     0.029 A 
ATOM     52  N   UNL A   1      41.695  29.732  34.122  1.00  0.00    -0.354 N 
ATOM     53  N   UNL A   1      39.480  30.638  32.427  1.00  0.00    -0.248 NA
ATOM     54  C   UNL A   1      37.462  31.780  32.164  1.00  0.00     0.031 C 
ATOM     55  C   UNL A   1      41.753  30.411  36.236  1.00  0.00     0.029 A 
ATOM     56  C   UNL A   1      41.020  30.492  35.064  1.00  0.00     0.049 A 
ATOM     57  H   UNL A   1      41.403  29.595  33.191  1.00  0.00     0.167 HD
ATOM     58  C   UNL A   1      39.142  31.246  33.629  1.00  0.00     0.074 A 
ATOM     59  C   UNL A   1      37.909  31.968  33.397  1.00  0.00     0.031 C 
ATOM     60  C   UNL A   1      39.794  31.211  34.819  1.00  0.00     0.037 A 
BRANCH  47  61
ATOM     61  C   UNL A   1      44.928  27.766  34.766  1.00  0.00     0.064 A 
ATOM     62  C   UNL A   1      46.154  28.445  34.840  1.00  0.00     0.173 A 
ATOM     63  C   UNL A   1      44.806  26.558  35.469  1.00  0.00     0.173 A 
ATOM     64  F   UNL A   1      46.329  29.598  34.178  1.00  0.00    -0.203 F 
ATOM     65  C   UNL A   1      47.221  27.920  35.567  1.00  0.00     0.198 A 
ATOM     66  C   UNL A   1      45.864  26.054  36.222  1.00  0.00     0.198 A 
ATOM     67  F   UNL A   1      43.655  25.869  35.438  1.00  0.00    -0.203 F 
ATOM     68  F   UNL A   1      48.398  28.562  35.580  1.00  0.00    -0.200 F 
ATOM     69  C   UNL A   1      47.073  26.731  36.263  1.00  0.00     0.200 A 
ATOM     70  F   UNL A   1      45.714  24.912  36.906  1.00  0.00    -0.200 F 
ATOM     71  F   UNL A   1      48.098  26.233  36.968  1.00  0.00    -0.200 F 
ENDBRANCH  47  61
BRANCH  48  72
ATOM     72  C   UNL A   1      37.237  31.095  29.327  1.00  0.00     0.064 A 
ATOM     73  C   UNL A   1      37.156  32.428  28.900  1.00  0.00     0.173 A 
ATOM     74  C   UNL A   1      36.173  30.242  28.999  1.00  0.00     0.173 A 
ATOM     75  F   UNL A   1      38.136  33.290  29.209  1.00  0.00    -0.203 F 
ATOM     76  C   UNL A   1      36.047  32.893  28.197  1.00  0.00     0.198 A 
ATOM     77  C   UNL A   1      35.080  30.699  28.266  1.00  0.00     0.198 A 
ATOM     78  F   UNL A   1      36.199  28.956  29.384  1.00  0.00    -0.203 F 
ATOM     79  F   UNL A   1      35.972  34.185  27.849  1.00  0.00    -0.200 F 
ATOM     80  C   UNL A   1      35.013  32.027  27.875  1.00  0.00     0.200 A 
ATOM     81  F   UNL A   1      34.090  29.855  27.945  1.00  0.00    -0.200 F 
ATOM     82  F   UNL A   1      33.948  32.475  27.196  1.00  0.00    -0.200 F 
ENDBRANCH  48  72
BRANCH  60  83
ATOM     83  C   UNL A   1      39.211  32.014  35.949  1.00  0.00     0.064 A 
ATOM     84  C   UNL A   1      38.295  31.461  36.857  1.00  0.00     0.173 A 
ATOM     85  C   UNL A   1      39.593  33.351  36.139  1.00  0.00     0.173 A 
ATOM     86  F   UNL A   1      37.886  30.191  36.715  1.00  0.00    -0.203 F 
ATOM     87  C   UNL A   1      37.754  32.228  37.887  1.00  0.00     0.198 A 
ATOM     88  C   UNL A   1      39.080  34.103  37.191  1.00  0.00     0.198 A 
ATOM     89  F   UNL A   1      40.473  33.928  35.308  1.00  0.00    -0.203 F 
ATOM     90  F   UNL A   1      36.832  31.697  38.702  1.00  0.00    -0.200 F 
ATOM     91  C   UNL A   1      38.152  33.546  38.057  1.00  0.00     0.200 A 
ATOM     92  F   UNL A   1      39.480  35.371  37.365  1.00  0.00    -0.200 F 
ATOM     93  F   UNL A   1      37.632  34.281  39.050  1.00  0.00    -0.200 F 
ENDBRANCH  60  83
ENDBRANCH  34  35
ENDBRANCH  27  29
ENDBRANCH  26  27
ENDBRANCH  25  26
ENDBRANCH  24  25
ENDBRANCH  23  24
ENDBRANCH  22  23
ENDBRANCH   1  22
TORSDOF 20
ENDMDL
