MODEL 1
REMARK VINA RESULT:     -10.7      0.000      0.000
REMARK SMILES C[C@H](CO)CSc1cc(Cl)ccc1C(=O)OCCOCCOC(=O)c1ccc(-c2c3nc(c(-c4c(F)c(F)c(F)c(F)c4F)c4ccc([nH]4)c(-c4c(F)c(F)c(F)c(F)c4F)c4nc(c(-c5c(F)c(F)c(F)c(F)c5F)c5ccc2[nH]5)C=C4)C=C3)cc1
REMARK SMILES IDX 17 1 16 2 14 3 15 4 13 5 7 6 8 7 9 8 12 9 10 10 11 11 6 12
REMARK SMILES IDX 5 13 2 14 1 15 3 16 4 17 18 19 19 20 20 21 21 22 22 23 23 24
REMARK SMILES IDX 24 25 25 26 26 27 87 28 27 29 86 30 28 31 29 32 30 33 80 34
REMARK SMILES IDX 31 35 85 36 79 37 81 38 32 39 84 40 78 41 77 42 33 44 65 45
REMARK SMILES IDX 45 46 64 47 46 48 49 49 63 50 82 51 47 52 48 53 62 55 83 56
REMARK SMILES IDX 50 57 34 58 35 59 43 60 36 61 37 62 41 63 44 64 38 65 39 66
REMARK SMILES IDX 42 67 40 68 66 69 67 70 75 71 68 72 69 73 73 74 76 75 70 76
REMARK SMILES IDX 71 77 74 78 72 79 51 80 52 81 60 82 53 83 54 84 58 85 61 86
REMARK SMILES IDX 55 87 56 88 59 89 57 90
REMARK H PARENT 4 18 81 43 49 54
REMARK Flexibility Score: inf
ROOT
ATOM      1  C   UNL A   1      32.564  26.466  24.942  1.00  0.00     0.261 C 
ENDROOT
BRANCH   1   2
ATOM      2  O   UNL A   1      33.510  25.396  25.116  1.00  0.00    -0.460 OA
BRANCH   2   3
ATOM      3  C   UNL A   1      33.588  24.496  24.116  1.00  0.00     0.339 C 
ATOM      4  O   UNL A   1      33.044  24.591  23.027  1.00  0.00    -0.246 OA
BRANCH   3   5
ATOM      5  C   UNL A   1      34.578  23.422  24.411  1.00  0.00     0.073 A 
ATOM      6  C   UNL A   1      34.328  22.037  24.471  1.00  0.00     0.023 A 
ATOM      7  C   UNL A   1      35.421  21.160  24.624  1.00  0.00     0.036 A 
ATOM      8  C   UNL A   1      36.713  21.647  24.818  1.00  0.00     0.042 A 
ATOM      9  C   UNL A   1      35.891  23.892  24.625  1.00  0.00     0.018 A 
ATOM     10  Cl  UNL A   1      38.014  20.548  25.050  1.00  0.00    -0.084 Cl
ATOM     11  C   UNL A   1      36.949  23.013  24.845  1.00  0.00     0.021 A 
BRANCH   6  12
ATOM     12  S   UNL A   1      32.739  21.225  24.346  1.00  0.00    -0.125 SA
BRANCH  12  13
ATOM     13  C   UNL A   1      33.101  19.571  25.071  1.00  0.00     0.080 C 
BRANCH  13  14
ATOM     14  C   UNL A   1      32.745  18.349  24.194  1.00  0.00     0.022 C 
ATOM     15  C   UNL A   1      33.915  17.365  24.182  1.00  0.00     0.011 C 
BRANCH  14  16
ATOM     16  C   UNL A   1      32.340  18.760  22.763  1.00  0.00     0.160 C 
BRANCH  16  17
ATOM     17  O   UNL A   1      31.778  17.702  21.996  1.00  0.00    -0.396 OA
ATOM     18  H   UNL A   1      31.957  17.855  21.055  1.00  0.00     0.210 HD
ENDBRANCH  16  17
ENDBRANCH  14  16
ENDBRANCH  13  14
ENDBRANCH  12  13
ENDBRANCH   6  12
ENDBRANCH   3   5
ENDBRANCH   2   3
ENDBRANCH   1   2
BRANCH   1  19
ATOM     19  C   UNL A   1      31.940  26.803  26.295  1.00  0.00     0.202 C 
BRANCH  19  20
ATOM     20  O   UNL A   1      31.996  28.190  26.633  1.00  0.00    -0.374 OA
BRANCH  20  21
ATOM     21  C   UNL A   1      31.747  29.106  25.567  1.00  0.00     0.202 C 
BRANCH  21  22
ATOM     22  C   UNL A   1      32.097  30.564  25.893  1.00  0.00     0.261 C 
BRANCH  22  23
ATOM     23  O   UNL A   1      32.562  30.703  27.252  1.00  0.00    -0.460 OA
BRANCH  23  24
ATOM     24  C   UNL A   1      33.340  31.790  27.483  1.00  0.00     0.338 C 
ATOM     25  O   UNL A   1      32.989  32.960  27.518  1.00  0.00    -0.246 OA
BRANCH  24  26
ATOM     26  C   UNL A   1      34.694  31.357  27.879  1.00  0.00     0.060 A 
ATOM     27  C   UNL A   1      34.909  30.000  28.132  1.00  0.00     0.016 A 
ATOM     28  C   UNL A   1      35.733  32.268  28.050  1.00  0.00     0.016 A 
ATOM     29  C   UNL A   1      36.150  29.565  28.601  1.00  0.00     0.010 A 
ATOM     30  C   UNL A   1      37.000  31.820  28.439  1.00  0.00     0.010 A 
ATOM     31  C   UNL A   1      37.205  30.474  28.788  1.00  0.00    -0.014 A 
BRANCH  31  32
ATOM     32  C   UNL A   1      38.439  30.047  29.513  1.00  0.00     0.031 A 
ATOM     33  C   UNL A   1      38.657  30.497  30.942  1.00  0.00     0.074 A 
ATOM     34  C   UNL A   1      39.337  29.223  28.941  1.00  0.00     0.049 A 
ATOM     35  N   UNL A   1      39.636  30.215  31.766  1.00  0.00    -0.248 NA
ATOM     36  C   UNL A   1      37.653  31.410  31.510  1.00  0.00     0.031 C 
ATOM     37  C   UNL A   1      39.279  28.724  27.568  1.00  0.00     0.029 A 
ATOM     38  N   UNL A   1      40.476  28.647  29.454  1.00  0.00    -0.354 N 
ATOM     39  C   UNL A   1      39.374  30.931  32.928  1.00  0.00     0.074 A 
ATOM     40  C   UNL A   1      38.188  31.718  32.679  1.00  0.00     0.031 C 
ATOM     41  C   UNL A   1      40.312  27.890  27.358  1.00  0.00     0.029 A 
ATOM     42  C   UNL A   1      41.123  27.815  28.572  1.00  0.00     0.049 A 
ATOM     43  H   UNL A   1      40.798  28.815  30.369  1.00  0.00     0.167 HD
ATOM     44  C   UNL A   1      40.030  30.914  34.113  1.00  0.00     0.037 A 
ATOM     45  C   UNL A   1      42.238  27.074  28.725  1.00  0.00     0.037 A 
ATOM     46  C   UNL A   1      41.182  30.099  34.391  1.00  0.00     0.049 A 
ATOM     47  C   UNL A   1      42.952  27.067  30.053  1.00  0.00     0.074 A 
ATOM     48  C   UNL A   1      41.881  29.967  35.578  1.00  0.00     0.029 A 
ATOM     49  N   UNL A   1      41.805  29.272  33.468  1.00  0.00    -0.354 N 
ATOM     50  N   UNL A   1      42.654  27.700  31.162  1.00  0.00    -0.248 NA
ATOM     51  C   UNL A   1      44.153  26.224  30.153  1.00  0.00     0.031 C 
ATOM     52  C   UNL A   1      42.959  29.102  35.359  1.00  0.00     0.029 A 
ATOM     53  C   UNL A   1      42.893  28.646  34.054  1.00  0.00     0.049 A 
ATOM     54  H   UNL A   1      41.516  29.150  32.535  1.00  0.00     0.167 HD
ATOM     55  C   UNL A   1      43.610  27.311  32.093  1.00  0.00     0.074 A 
ATOM     56  C   UNL A   1      44.481  26.367  31.428  1.00  0.00     0.031 C 
ATOM     57  C   UNL A   1      43.754  27.703  33.384  1.00  0.00     0.037 A 
BRANCH  44  58
ATOM     58  C   UNL A   1      39.509  31.806  35.207  1.00  0.00     0.064 A 
ATOM     59  C   UNL A   1      38.605  31.342  36.176  1.00  0.00     0.173 A 
ATOM     60  C   UNL A   1      39.933  33.141  35.296  1.00  0.00     0.173 A 
ATOM     61  F   UNL A   1      38.156  30.079  36.130  1.00  0.00    -0.203 F 
ATOM     62  C   UNL A   1      38.114  32.191  37.164  1.00  0.00     0.198 A 
ATOM     63  C   UNL A   1      39.470  33.976  36.309  1.00  0.00     0.198 A 
ATOM     64  F   UNL A   1      40.802  33.636  34.401  1.00  0.00    -0.203 F 
ATOM     65  F   UNL A   1      37.199  31.743  38.035  1.00  0.00    -0.200 F 
ATOM     66  C   UNL A   1      38.551  33.504  37.234  1.00  0.00     0.200 A 
ATOM     67  F   UNL A   1      39.906  35.241  36.385  1.00  0.00    -0.200 F 
ATOM     68  F   UNL A   1      38.080  34.319  38.188  1.00  0.00    -0.200 F 
ENDBRANCH  44  58
BRANCH  45  69
ATOM     69  C   UNL A   1      42.747  26.247  27.595  1.00  0.00     0.064 A 
ATOM     70  C   UNL A   1      43.724  26.741  26.718  1.00  0.00     0.173 A 
ATOM     71  C   UNL A   1      42.245  24.961  27.350  1.00  0.00     0.173 A 
ATOM     72  F   UNL A   1      44.218  27.976  26.893  1.00  0.00    -0.203 F 
ATOM     73  C   UNL A   1      44.159  25.993  25.626  1.00  0.00     0.198 A 
ATOM     74  C   UNL A   1      42.704  24.199  26.277  1.00  0.00     0.198 A 
ATOM     75  F   UNL A   1      41.309  24.441  28.158  1.00  0.00    -0.203 F 
ATOM     76  F   UNL A   1      45.050  26.513  24.772  1.00  0.00    -0.200 F 
ATOM     77  C   UNL A   1      43.653  24.720  25.410  1.00  0.00     0.200 A 
ATOM     78  F   UNL A   1      42.221  22.965  26.080  1.00  0.00    -0.200 F 
ATOM     79  F   UNL A   1      44.071  23.999  24.360  1.00  0.00    -0.200 F 
ENDBRANCH  45  69
BRANCH  57  80
ATOM     80  C   UNL A   1      44.873  27.083  34.176  1.00  0.00     0.064 A 
ATOM     81  C   UNL A   1      46.147  27.668  34.242  1.00  0.00     0.173 A 
ATOM     82  C   UNL A   1      44.663  25.894  34.891  1.00  0.00     0.173 A 
ATOM     83  F   UNL A   1      46.407  28.799  33.569  1.00  0.00    -0.203 F 
ATOM     84  C   UNL A   1      47.178  27.063  34.957  1.00  0.00     0.198 A 
ATOM     85  C   UNL A   1      45.685  25.311  35.636  1.00  0.00     0.198 A 
ATOM     86  F   UNL A   1      43.461  25.297  34.875  1.00  0.00    -0.203 F 
ATOM     87  F   UNL A   1      48.404  27.604  34.949  1.00  0.00    -0.200 F 
ATOM     88  C   UNL A   1      46.945  25.889  35.658  1.00  0.00     0.200 A 
ATOM     89  F   UNL A   1      45.452  24.187  36.327  1.00  0.00    -0.200 F 
ATOM     90  F   UNL A   1      47.938  25.308  36.344  1.00  0.00    -0.200 F 
ENDBRANCH  57  80
ENDBRANCH  31  32
ENDBRANCH  24  26
ENDBRANCH  23  24
ENDBRANCH  22  23
ENDBRANCH  21  22
ENDBRANCH  20  21
ENDBRANCH  19  20
ENDBRANCH   1  19
TORSDOF 19
ENDMDL
MODEL 2
REMARK VINA RESULT:     -10.4      0.680      2.122
REMARK SMILES C[C@H](CO)CSc1cc(Cl)ccc1C(=O)OCCOCCOC(=O)c1ccc(-c2c3nc(c(-c4c(F)c(F)c(F)c(F)c4F)c4ccc([nH]4)c(-c4c(F)c(F)c(F)c(F)c4F)c4nc(c(-c5c(F)c(F)c(F)c(F)c5F)c5ccc2[nH]5)C=C4)C=C3)cc1
REMARK SMILES IDX 17 1 16 2 14 3 15 4 13 5 7 6 8 7 9 8 12 9 10 10 11 11 6 12
REMARK SMILES IDX 5 13 2 14 1 15 3 16 4 17 18 19 19 20 20 21 21 22 22 23 23 24
REMARK SMILES IDX 24 25 25 26 26 27 87 28 27 29 86 30 28 31 29 32 30 33 80 34
REMARK SMILES IDX 31 35 85 36 79 37 81 38 32 39 84 40 78 41 77 42 33 44 65 45
REMARK SMILES IDX 45 46 64 47 46 48 49 49 63 50 82 51 47 52 48 53 62 55 83 56
REMARK SMILES IDX 50 57 34 58 35 59 43 60 36 61 37 62 41 63 44 64 38 65 39 66
REMARK SMILES IDX 42 67 40 68 66 69 67 70 75 71 68 72 69 73 73 74 76 75 70 76
REMARK SMILES IDX 71 77 74 78 72 79 51 80 52 81 60 82 53 83 54 84 58 85 61 86
REMARK SMILES IDX 55 87 56 88 59 89 57 90
REMARK H PARENT 4 18 81 43 49 54
REMARK Flexibility Score: inf
ROOT
ATOM      1  C   UNL A   1      32.693  26.615  25.655  1.00  0.00     0.261 C 
ENDROOT
BRANCH   1   2
ATOM      2  O   UNL A   1      33.787  25.693  25.808  1.00  0.00    -0.460 OA
BRANCH   2   3
ATOM      3  C   UNL A   1      34.120  24.972  24.718  1.00  0.00     0.339 C 
ATOM      4  O   UNL A   1      33.747  25.192  23.577  1.00  0.00    -0.246 OA
BRANCH   3   5
ATOM      5  C   UNL A   1      35.161  23.951  25.025  1.00  0.00     0.073 A 
ATOM      6  C   UNL A   1      35.047  22.556  24.871  1.00  0.00     0.023 A 
ATOM      7  C   UNL A   1      36.191  21.759  25.078  1.00  0.00     0.036 A 
ATOM      8  C   UNL A   1      37.386  22.317  25.529  1.00  0.00     0.042 A 
ATOM      9  C   UNL A   1      36.376  24.493  25.496  1.00  0.00     0.018 A 
ATOM     10  Cl  UNL A   1      38.747  21.307  25.818  1.00  0.00    -0.084 Cl
ATOM     11  C   UNL A   1      37.476  23.681  25.764  1.00  0.00     0.021 A 
BRANCH   6  12
ATOM     12  S   UNL A   1      33.583  21.643  24.402  1.00  0.00    -0.125 SA
BRANCH  12  13
ATOM     13  C   UNL A   1      33.931  19.979  25.113  1.00  0.00     0.080 C 
BRANCH  13  14
ATOM     14  C   UNL A   1      33.418  18.769  24.299  1.00  0.00     0.022 C 
ATOM     15  C   UNL A   1      32.406  19.241  23.256  1.00  0.00     0.011 C 
BRANCH  14  16
ATOM     16  C   UNL A   1      32.824  17.670  25.205  1.00  0.00     0.160 C 
BRANCH  16  17
ATOM     17  O   UNL A   1      32.523  18.109  26.524  1.00  0.00    -0.396 OA
ATOM     18  H   UNL A   1      33.346  18.331  26.986  1.00  0.00     0.210 HD
ENDBRANCH  16  17
ENDBRANCH  14  16
ENDBRANCH  13  14
ENDBRANCH  12  13
ENDBRANCH   6  12
ENDBRANCH   3   5
ENDBRANCH   2   3
ENDBRANCH   1   2
BRANCH   1  19
ATOM     19  C   UNL A   1      32.171  26.999  27.039  1.00  0.00     0.202 C 
BRANCH  19  20
ATOM     20  O   UNL A   1      31.898  28.394  27.191  1.00  0.00    -0.374 OA
BRANCH  20  21
ATOM     21  C   UNL A   1      31.789  29.148  25.984  1.00  0.00     0.202 C 
BRANCH  21  22
ATOM     22  C   UNL A   1      32.446  30.533  26.043  1.00  0.00     0.261 C 
BRANCH  22  23
ATOM     23  O   UNL A   1      32.580  30.995  27.404  1.00  0.00    -0.460 OA
BRANCH  23  24
ATOM     24  C   UNL A   1      33.402  32.061  27.569  1.00  0.00     0.338 C 
ATOM     25  O   UNL A   1      33.093  33.243  27.568  1.00  0.00    -0.246 OA
BRANCH  24  26
ATOM     26  C   UNL A   1      34.752  31.595  27.942  1.00  0.00     0.060 A 
ATOM     27  C   UNL A   1      34.943  30.229  28.168  1.00  0.00     0.016 A 
ATOM     28  C   UNL A   1      35.811  32.482  28.117  1.00  0.00     0.016 A 
ATOM     29  C   UNL A   1      36.180  29.761  28.615  1.00  0.00     0.010 A 
ATOM     30  C   UNL A   1      37.073  32.002  28.483  1.00  0.00     0.010 A 
ATOM     31  C   UNL A   1      37.255  30.646  28.806  1.00  0.00    -0.014 A 
BRANCH  31  32
ATOM     32  C   UNL A   1      38.488  30.182  29.510  1.00  0.00     0.031 A 
ATOM     33  C   UNL A   1      38.742  30.621  30.935  1.00  0.00     0.074 A 
ATOM     34  C   UNL A   1      39.354  29.336  28.919  1.00  0.00     0.049 A 
ATOM     35  N   UNL A   1      39.726  30.308  31.743  1.00  0.00    -0.248 NA
ATOM     36  C   UNL A   1      37.773  31.559  31.523  1.00  0.00     0.031 C 
ATOM     37  C   UNL A   1      39.259  28.844  27.546  1.00  0.00     0.029 A 
ATOM     38  N   UNL A   1      40.484  28.727  29.412  1.00  0.00    -0.354 N 
ATOM     39  C   UNL A   1      39.504  31.028  32.911  1.00  0.00     0.074 A 
ATOM     40  C   UNL A   1      38.336  31.847  32.684  1.00  0.00     0.031 C 
ATOM     41  C   UNL A   1      40.265  27.983  27.316  1.00  0.00     0.029 A 
ATOM     42  C   UNL A   1      41.094  27.881  28.516  1.00  0.00     0.049 A 
ATOM     43  H   UNL A   1      40.826  28.882  30.322  1.00  0.00     0.167 HD
ATOM     44  C   UNL A   1      40.178  30.987  34.085  1.00  0.00     0.037 A 
ATOM     45  C   UNL A   1      42.190  27.108  28.648  1.00  0.00     0.037 A 
ATOM     46  C   UNL A   1      41.312  30.140  34.341  1.00  0.00     0.049 A 
ATOM     47  C   UNL A   1      42.925  27.076  29.965  1.00  0.00     0.074 A 
ATOM     48  C   UNL A   1      42.026  29.984  35.516  1.00  0.00     0.029 A 
ATOM     49  N   UNL A   1      41.895  29.299  33.405  1.00  0.00    -0.354 N 
ATOM     50  N   UNL A   1      42.663  27.713  31.080  1.00  0.00    -0.248 NA
ATOM     51  C   UNL A   1      44.103  26.200  30.041  1.00  0.00     0.031 C 
ATOM     52  C   UNL A   1      43.075  29.090  35.277  1.00  0.00     0.029 A 
ATOM     53  C   UNL A   1      42.976  28.641  33.971  1.00  0.00     0.049 A 
ATOM     54  H   UNL A   1      41.588  29.189  32.476  1.00  0.00     0.167 HD
ATOM     55  C   UNL A   1      43.623  27.294  31.995  1.00  0.00     0.074 A 
ATOM     56  C   UNL A   1      44.456  26.329  31.312  1.00  0.00     0.031 C 
ATOM     57  C   UNL A   1      43.799  27.677  33.284  1.00  0.00     0.037 A 
BRANCH  44  58
ATOM     58  C   UNL A   1      39.701  31.890  35.190  1.00  0.00     0.064 A 
ATOM     59  C   UNL A   1      40.198  33.193  35.351  1.00  0.00     0.173 A 
ATOM     60  C   UNL A   1      38.719  31.450  36.092  1.00  0.00     0.173 A 
ATOM     61  F   UNL A   1      41.147  33.660  34.526  1.00  0.00    -0.203 F 
ATOM     62  C   UNL A   1      39.763  34.004  36.396  1.00  0.00     0.198 A 
ATOM     63  C   UNL A   1      38.257  32.278  37.111  1.00  0.00     0.198 A 
ATOM     64  F   UNL A   1      38.202  30.217  35.980  1.00  0.00    -0.203 F 
ATOM     65  F   UNL A   1      40.304  35.217  36.570  1.00  0.00    -0.200 F 
ATOM     66  C   UNL A   1      38.789  33.549  37.271  1.00  0.00     0.200 A 
ATOM     67  F   UNL A   1      37.304  31.842  37.946  1.00  0.00    -0.200 F 
ATOM     68  F   UNL A   1      38.368  34.332  38.274  1.00  0.00    -0.200 F 
ENDBRANCH  44  58
BRANCH  45  69
ATOM     69  C   UNL A   1      42.656  26.272  27.507  1.00  0.00     0.064 A 
ATOM     70  C   UNL A   1      42.123  24.995  27.279  1.00  0.00     0.173 A 
ATOM     71  C   UNL A   1      43.666  26.718  26.643  1.00  0.00     0.173 A 
ATOM     72  F   UNL A   1      41.173  24.511  28.093  1.00  0.00    -0.203 F 
ATOM     73  C   UNL A   1      42.599  24.188  26.247  1.00  0.00     0.198 A 
ATOM     74  C   UNL A   1      44.119  25.924  25.591  1.00  0.00     0.198 A 
ATOM     75  F   UNL A   1      44.211  27.931  26.817  1.00  0.00    -0.203 F 
ATOM     76  F   UNL A   1      42.111  22.950  26.089  1.00  0.00    -0.200 F 
ATOM     77  C   UNL A   1      43.592  24.655  25.401  1.00  0.00     0.200 A 
ATOM     78  F   UNL A   1      45.070  26.385  24.768  1.00  0.00    -0.200 F 
ATOM     79  F   UNL A   1      44.050  23.879  24.408  1.00  0.00    -0.200 F 
ENDBRANCH  45  69
BRANCH  57  80
ATOM     80  C   UNL A   1      44.913  27.023  34.055  1.00  0.00     0.064 A 
ATOM     81  C   UNL A   1      44.738  25.798  34.716  1.00  0.00     0.173 A 
ATOM     82  C   UNL A   1      46.180  27.624  34.120  1.00  0.00     0.173 A 
ATOM     83  F   UNL A   1      43.545  25.184  34.695  1.00  0.00    -0.203 F 
ATOM     84  C   UNL A   1      45.774  25.223  35.448  1.00  0.00     0.198 A 
ATOM     85  C   UNL A   1      47.225  27.028  34.821  1.00  0.00     0.198 A 
ATOM     86  F   UNL A   1      46.410  28.790  33.496  1.00  0.00    -0.203 F 
ATOM     87  F   UNL A   1      45.561  24.087  36.126  1.00  0.00    -0.200 F 
ATOM     88  C   UNL A   1      47.017  25.834  35.495  1.00  0.00     0.200 A 
ATOM     89  F   UNL A   1      48.431  27.612  34.850  1.00  0.00    -0.200 F 
ATOM     90  F   UNL A   1      48.012  25.280  36.200  1.00  0.00    -0.200 F 
ENDBRANCH  57  80
ENDBRANCH  31  32
ENDBRANCH  24  26
ENDBRANCH  23  24
ENDBRANCH  22  23
ENDBRANCH  21  22
ENDBRANCH  20  21
ENDBRANCH  19  20
ENDBRANCH   1  19
TORSDOF 19
ENDMDL
MODEL 3
REMARK VINA RESULT:      -9.7      1.408      7.551
REMARK SMILES C[C@H](CO)CSc1cc(Cl)ccc1C(=O)OCCOCCOC(=O)c1ccc(-c2c3nc(c(-c4c(F)c(F)c(F)c(F)c4F)c4ccc([nH]4)c(-c4c(F)c(F)c(F)c(F)c4F)c4nc(c(-c5c(F)c(F)c(F)c(F)c5F)c5ccc2[nH]5)C=C4)C=C3)cc1
REMARK SMILES IDX 17 1 16 2 14 3 15 4 13 5 7 6 8 7 9 8 12 9 10 10 11 11 6 12
REMARK SMILES IDX 5 13 2 14 1 15 3 16 4 17 18 19 19 20 20 21 21 22 22 23 23 24
REMARK SMILES IDX 24 25 25 26 26 27 87 28 27 29 86 30 28 31 29 32 30 33 80 34
REMARK SMILES IDX 31 35 85 36 79 37 81 38 32 39 84 40 78 41 77 42 33 44 65 45
REMARK SMILES IDX 45 46 64 47 46 48 49 49 63 50 82 51 47 52 48 53 62 55 83 56
REMARK SMILES IDX 50 57 34 58 35 59 43 60 36 61 37 62 41 63 44 64 38 65 39 66
REMARK SMILES IDX 42 67 40 68 66 69 67 70 75 71 68 72 69 73 73 74 76 75 70 76
REMARK SMILES IDX 71 77 74 78 72 79 51 80 52 81 60 82 53 83 54 84 58 85 61 86
REMARK SMILES IDX 55 87 56 88 59 89 57 90
REMARK H PARENT 4 18 81 43 49 54
REMARK Flexibility Score: inf
ROOT
ATOM      1  C   UNL A   1      33.135  25.839  25.083  1.00  0.00     0.261 C 
ENDROOT
BRANCH   1   2
ATOM      2  O   UNL A   1      34.034  24.770  25.425  1.00  0.00    -0.460 OA
BRANCH   2   3
ATOM      3  C   UNL A   1      34.676  24.175  24.400  1.00  0.00     0.339 C 
ATOM      4  O   UNL A   1      34.520  24.431  23.216  1.00  0.00    -0.246 OA
BRANCH   3   5
ATOM      5  C   UNL A   1      35.760  23.269  24.875  1.00  0.00     0.073 A 
ATOM      6  C   UNL A   1      35.727  21.860  24.910  1.00  0.00     0.023 A 
ATOM      7  C   UNL A   1      36.905  21.168  25.259  1.00  0.00     0.036 A 
ATOM      8  C   UNL A   1      38.050  21.851  25.663  1.00  0.00     0.042 A 
ATOM      9  C   UNL A   1      36.925  23.940  25.302  1.00  0.00     0.018 A 
ATOM     10  Cl  UNL A   1      39.451  20.972  26.129  1.00  0.00    -0.084 Cl
ATOM     11  C   UNL A   1      38.057  23.237  25.711  1.00  0.00     0.021 A 
BRANCH   6  12
ATOM     12  S   UNL A   1      34.333  20.808  24.529  1.00  0.00    -0.125 SA
BRANCH  12  13
ATOM     13  C   UNL A   1      33.114  21.313  25.814  1.00  0.00     0.080 C 
BRANCH  13  14
ATOM     14  C   UNL A   1      31.683  21.617  25.315  1.00  0.00     0.022 C 
ATOM     15  C   UNL A   1      31.744  22.227  23.915  1.00  0.00     0.011 C 
BRANCH  14  16
ATOM     16  C   UNL A   1      30.908  22.525  26.293  1.00  0.00     0.160 C 
BRANCH  16  17
ATOM     17  O   UNL A   1      29.581  22.087  26.559  1.00  0.00    -0.396 OA
ATOM     18  H   UNL A   1      28.956  22.610  26.035  1.00  0.00     0.210 HD
ENDBRANCH  16  17
ENDBRANCH  14  16
ENDBRANCH  13  14
ENDBRANCH  12  13
ENDBRANCH   6  12
ENDBRANCH   3   5
ENDBRANCH   2   3
ENDBRANCH   1   2
BRANCH   1  19
ATOM     19  C   UNL A   1      32.026  25.912  26.132  1.00  0.00     0.202 C 
BRANCH  19  20
ATOM     20  O   UNL A   1      31.813  27.222  26.663  1.00  0.00    -0.374 OA
BRANCH  20  21
ATOM     21  C   UNL A   1      31.311  28.196  25.747  1.00  0.00     0.202 C 
BRANCH  21  22
ATOM     22  C   UNL A   1      32.082  29.522  25.753  1.00  0.00     0.261 C 
BRANCH  22  23
ATOM     23  O   UNL A   1      32.193  30.062  27.086  1.00  0.00    -0.460 OA
BRANCH  23  24
ATOM     24  C   UNL A   1      32.882  31.227  27.178  1.00  0.00     0.338 C 
ATOM     25  O   UNL A   1      32.465  32.355  26.960  1.00  0.00    -0.246 OA
BRANCH  24  26
ATOM     26  C   UNL A   1      34.210  30.974  27.769  1.00  0.00     0.060 A 
ATOM     27  C   UNL A   1      34.712  29.670  27.739  1.00  0.00     0.016 A 
ATOM     28  C   UNL A   1      34.941  31.984  28.388  1.00  0.00     0.016 A 
ATOM     29  C   UNL A   1      35.921  29.371  28.370  1.00  0.00     0.010 A 
ATOM     30  C   UNL A   1      36.193  31.701  28.947  1.00  0.00     0.010 A 
ATOM     31  C   UNL A   1      36.664  30.379  29.008  1.00  0.00    -0.014 A 
BRANCH  31  32
ATOM     32  C   UNL A   1      37.819  30.014  29.882  1.00  0.00     0.031 A 
ATOM     33  C   UNL A   1      38.913  29.123  29.337  1.00  0.00     0.074 A 
ATOM     34  C   UNL A   1      37.934  30.506  31.131  1.00  0.00     0.049 A 
ATOM     35  N   UNL A   1      40.019  28.713  29.909  1.00  0.00    -0.248 NA
ATOM     36  C   UNL A   1      38.726  28.600  27.975  1.00  0.00     0.031 C 
ATOM     37  C   UNL A   1      36.953  31.355  31.804  1.00  0.00     0.029 A 
ATOM     38  N   UNL A   1      38.944  30.370  32.055  1.00  0.00    -0.354 N 
ATOM     39  C   UNL A   1      40.635  27.873  28.989  1.00  0.00     0.074 A 
ATOM     40  C   UNL A   1      39.749  27.772  27.852  1.00  0.00     0.031 C 
ATOM     41  C   UNL A   1      37.423  31.694  33.017  1.00  0.00     0.029 A 
ATOM     42  C   UNL A   1      38.726  31.065  33.221  1.00  0.00     0.049 A 
ATOM     43  H   UNL A   1      39.749  29.826  31.897  1.00  0.00     0.167 HD
ATOM     44  C   UNL A   1      41.846  27.268  29.055  1.00  0.00     0.037 A 
ATOM     45  C   UNL A   1      39.491  31.186  34.325  1.00  0.00     0.037 A 
ATOM     46  C   UNL A   1      42.760  27.400  30.158  1.00  0.00     0.049 A 
ATOM     47  C   UNL A   1      40.836  30.506  34.377  1.00  0.00     0.074 A 
ATOM     48  C   UNL A   1      44.033  26.875  30.292  1.00  0.00     0.029 A 
ATOM     49  N   UNL A   1      42.497  28.113  31.319  1.00  0.00    -0.354 N 
ATOM     50  N   UNL A   1      41.432  29.768  33.471  1.00  0.00    -0.248 NA
ATOM     51  C   UNL A   1      41.622  30.692  35.605  1.00  0.00     0.031 C 
ATOM     52  C   UNL A   1      44.521  27.224  31.557  1.00  0.00     0.029 A 
ATOM     53  C   UNL A   1      43.577  28.021  32.183  1.00  0.00     0.049 A 
ATOM     54  H   UNL A   1      41.667  28.609  31.501  1.00  0.00     0.167 HD
ATOM     55  C   UNL A   1      42.669  29.428  34.008  1.00  0.00     0.074 A 
ATOM     56  C   UNL A   1      42.749  30.062  35.306  1.00  0.00     0.031 C 
ATOM     57  C   UNL A   1      43.649  28.658  33.473  1.00  0.00     0.037 A 
BRANCH  44  58
ATOM     58  C   UNL A   1      42.255  26.407  27.891  1.00  0.00     0.064 A 
ATOM     59  C   UNL A   1      43.033  26.907  26.835  1.00  0.00     0.173 A 
ATOM     60  C   UNL A   1      41.877  25.056  27.840  1.00  0.00     0.173 A 
ATOM     61  F   UNL A   1      43.410  28.195  26.825  1.00  0.00    -0.203 F 
ATOM     62  C   UNL A   1      43.378  26.102  25.753  1.00  0.00     0.198 A 
ATOM     63  C   UNL A   1      42.259  24.243  26.777  1.00  0.00     0.198 A 
ATOM     64  F   UNL A   1      41.141  24.522  28.827  1.00  0.00    -0.203 F 
ATOM     65  F   UNL A   1      44.061  26.622  24.724  1.00  0.00    -0.200 F 
ATOM     66  C   UNL A   1      42.997  24.770  25.728  1.00  0.00     0.200 A 
ATOM     67  F   UNL A   1      41.903  22.952  26.761  1.00  0.00    -0.200 F 
ATOM     68  F   UNL A   1      43.334  23.995  24.688  1.00  0.00    -0.200 F 
ENDBRANCH  44  58
BRANCH  45  69
ATOM     69  C   UNL A   1      39.019  32.006  35.474  1.00  0.00     0.064 A 
ATOM     70  C   UNL A   1      39.287  33.381  35.542  1.00  0.00     0.173 A 
ATOM     71  C   UNL A   1      38.319  31.427  36.543  1.00  0.00     0.173 A 
ATOM     72  F   UNL A   1      39.977  33.978  34.558  1.00  0.00    -0.203 F 
ATOM     73  C   UNL A   1      38.898  34.139  36.645  1.00  0.00     0.198 A 
ATOM     74  C   UNL A   1      37.900  32.192  37.630  1.00  0.00     0.198 A 
ATOM     75  F   UNL A   1      38.036  30.116  36.528  1.00  0.00    -0.203 F 
ATOM     76  F   UNL A   1      39.219  35.438  36.709  1.00  0.00    -0.200 F 
ATOM     77  C   UNL A   1      38.199  33.545  37.685  1.00  0.00     0.200 A 
ATOM     78  F   UNL A   1      37.215  31.616  38.627  1.00  0.00    -0.200 F 
ATOM     79  F   UNL A   1      37.824  34.274  38.745  1.00  0.00    -0.200 F 
ENDBRANCH  45  69
BRANCH  57  80
ATOM     80  C   UNL A   1      44.911  28.489  34.275  1.00  0.00     0.064 A 
ATOM     81  C   UNL A   1      46.004  29.357  34.131  1.00  0.00     0.173 A 
ATOM     82  C   UNL A   1      45.022  27.450  35.214  1.00  0.00     0.173 A 
ATOM     83  F   UNL A   1      45.956  30.360  33.241  1.00  0.00    -0.203 F 
ATOM     84  C   UNL A   1      47.174  29.166  34.862  1.00  0.00     0.198 A 
ATOM     85  C   UNL A   1      46.179  27.285  35.970  1.00  0.00     0.198 A 
ATOM     86  F   UNL A   1      44.004  26.597  35.404  1.00  0.00    -0.203 F 
ATOM     87  F   UNL A   1      48.228  29.967  34.657  1.00  0.00    -0.200 F 
ATOM     88  C   UNL A   1      47.259  28.134  35.784  1.00  0.00     0.200 A 
ATOM     89  F   UNL A   1      46.251  26.298  36.875  1.00  0.00    -0.200 F 
ATOM     90  F   UNL A   1      48.385  27.952  36.486  1.00  0.00    -0.200 F 
ENDBRANCH  57  80
ENDBRANCH  31  32
ENDBRANCH  24  26
ENDBRANCH  23  24
ENDBRANCH  22  23
ENDBRANCH  21  22
ENDBRANCH  20  21
ENDBRANCH  19  20
ENDBRANCH   1  19
TORSDOF 19
ENDMDL
