MODEL 1
REMARK VINA RESULT:     -12.0      0.000      0.000
REMARK SMILES O=C(OCCOCCOC(=O)c1ccc(F)cc1-c1ccc(F)c(Cl)c1)c1ccc(-c2c3nc(c(-c4c(F)c(F)c(F)c(F)c4F)c4ccc([nH]4)c(-c4c(F)c(F)c(F)c(F)c4F)c4nc(c(-c5c(F)c(F)c(F)c(F)c5F)c5ccc2[nH]5)C=C4)C=C3)cc1
REMARK SMILES IDX 5 1 4 2 3 3 2 4 1 5 27 6 28 7 89 8 29 9 88 10 30 11 31 12
REMARK SMILES IDX 32 13 82 14 33 15 87 16 81 17 83 18 34 19 86 20 80 21 79 22
REMARK SMILES IDX 35 24 67 25 47 26 66 27 48 28 51 29 65 30 84 31 49 32 50 33
REMARK SMILES IDX 64 35 85 36 52 37 36 38 37 39 45 40 38 41 39 42 43 43 46 44
REMARK SMILES IDX 40 45 41 46 44 47 42 48 68 49 69 50 77 51 70 52 71 53 75 54
REMARK SMILES IDX 78 55 72 56 73 57 76 58 74 59 53 60 54 61 62 62 55 63 56 64
REMARK SMILES IDX 60 65 63 66 57 67 58 68 61 69 59 70 6 71 7 72 8 73 9 74
REMARK SMILES IDX 10 75 11 76 12 77 13 78 18 79 14 80 17 81 15 82 16 83 19 84
REMARK SMILES IDX 20 85 26 86 21 87 24 88 22 89 25 90 23 91
REMARK H PARENT 83 23 51 34
REMARK Flexibility Score: inf
ROOT
ATOM      1  C   UNL A   1      31.239  29.288  24.795  1.00  0.00     0.202 C 
ENDROOT
BRANCH   1   2
ATOM      2  C   UNL A   1      31.553  30.454  25.729  1.00  0.00     0.261 C 
BRANCH   2   3
ATOM      3  O   UNL A   1      32.949  30.504  26.051  1.00  0.00    -0.460 OA
BRANCH   3   4
ATOM      4  C   UNL A   1      33.484  31.265  27.037  1.00  0.00     0.338 C 
ATOM      5  O   UNL A   1      32.861  32.225  27.480  1.00  0.00    -0.246 OA
BRANCH   4   6
ATOM      6  C   UNL A   1      34.815  30.952  27.623  1.00  0.00     0.060 A 
ATOM      7  C   UNL A   1      35.739  31.936  27.963  1.00  0.00     0.016 A 
ATOM      8  C   UNL A   1      35.109  29.630  27.960  1.00  0.00     0.016 A 
ATOM      9  C   UNL A   1      36.947  31.660  28.552  1.00  0.00     0.010 A 
ATOM     10  C   UNL A   1      36.281  29.343  28.665  1.00  0.00     0.010 A 
ATOM     11  C   UNL A   1      37.182  30.372  28.981  1.00  0.00    -0.014 A 
BRANCH  11  12
ATOM     12  C   UNL A   1      38.398  30.146  29.761  1.00  0.00     0.031 A 
ATOM     13  C   UNL A   1      39.470  29.332  29.142  1.00  0.00     0.074 A 
ATOM     14  C   UNL A   1      38.525  30.733  30.965  1.00  0.00     0.049 A 
ATOM     15  N   UNL A   1      40.506  28.783  29.701  1.00  0.00    -0.248 NA
ATOM     16  C   UNL A   1      39.347  29.090  27.694  1.00  0.00     0.031 C 
ATOM     17  C   UNL A   1      37.577  31.689  31.549  1.00  0.00     0.029 A 
ATOM     18  N   UNL A   1      39.505  30.623  31.910  1.00  0.00    -0.354 N 
ATOM     19  C   UNL A   1      41.118  28.060  28.691  1.00  0.00     0.074 A 
ATOM     20  C   UNL A   1      40.353  28.256  27.482  1.00  0.00     0.031 C 
ATOM     21  C   UNL A   1      38.026  32.078  32.750  1.00  0.00     0.029 A 
ATOM     22  C   UNL A   1      39.224  31.316  33.062  1.00  0.00     0.049 A 
ATOM     23  H   UNL A   1      40.329  30.100  31.779  1.00  0.00     0.167 HD
ATOM     24  C   UNL A   1      42.213  27.279  28.809  1.00  0.00     0.037 A 
ATOM     25  C   UNL A   1      39.834  31.268  34.259  1.00  0.00     0.037 A 
ATOM     26  C   UNL A   1      42.934  27.154  30.045  1.00  0.00     0.049 A 
ATOM     27  C   UNL A   1      41.001  30.332  34.395  1.00  0.00     0.074 A 
ATOM     28  C   UNL A   1      44.042  26.383  30.324  1.00  0.00     0.029 A 
ATOM     29  N   UNL A   1      42.602  27.833  31.216  1.00  0.00    -0.354 N 
ATOM     30  N   UNL A   1      41.542  29.561  33.479  1.00  0.00    -0.248 NA
ATOM     31  C   UNL A   1      41.627  30.228  35.716  1.00  0.00     0.031 C 
ATOM     32  C   UNL A   1      44.343  26.547  31.679  1.00  0.00     0.029 A 
ATOM     33  C   UNL A   1      43.469  27.477  32.230  1.00  0.00     0.049 A 
ATOM     34  H   UNL A   1      41.859  28.473  31.306  1.00  0.00     0.167 HD
ATOM     35  C   UNL A   1      42.581  28.892  34.101  1.00  0.00     0.074 A 
ATOM     36  C   UNL A   1      42.596  29.351  35.479  1.00  0.00     0.031 C 
ATOM     37  C   UNL A   1      43.445  27.984  33.584  1.00  0.00     0.037 A 
BRANCH  24  38
ATOM     38  C   UNL A   1      42.595  26.452  27.622  1.00  0.00     0.064 A 
ATOM     39  C   UNL A   1      43.598  26.907  26.753  1.00  0.00     0.173 A 
ATOM     40  C   UNL A   1      42.025  25.197  27.363  1.00  0.00     0.173 A 
ATOM     41  F   UNL A   1      44.190  28.093  26.964  1.00  0.00    -0.203 F 
ATOM     42  C   UNL A   1      44.017  26.138  25.672  1.00  0.00     0.198 A 
ATOM     43  C   UNL A   1      42.471  24.414  26.301  1.00  0.00     0.198 A 
ATOM     44  F   UNL A   1      41.087  24.698  28.182  1.00  0.00    -0.203 F 
ATOM     45  F   UNL A   1      44.973  26.599  24.854  1.00  0.00    -0.200 F 
ATOM     46  C   UNL A   1      43.462  24.887  25.454  1.00  0.00     0.200 A 
ATOM     47  F   UNL A   1      41.966  23.186  26.117  1.00  0.00    -0.200 F 
ATOM     48  F   UNL A   1      43.895  24.130  24.437  1.00  0.00    -0.200 F 
ENDBRANCH  24  38
BRANCH  25  49
ATOM     49  C   UNL A   1      39.304  32.081  35.385  1.00  0.00     0.064 A 
ATOM     50  C   UNL A   1      39.719  33.408  35.589  1.00  0.00     0.173 A 
ATOM     51  C   UNL A   1      38.448  31.517  36.338  1.00  0.00     0.173 A 
ATOM     52  F   UNL A   1      40.545  33.996  34.711  1.00  0.00    -0.203 F 
ATOM     53  C   UNL A   1      39.331  34.122  36.720  1.00  0.00     0.198 A 
ATOM     54  C   UNL A   1      38.039  32.243  37.457  1.00  0.00     0.198 A 
ATOM     55  F   UNL A   1      38.010  30.260  36.184  1.00  0.00    -0.203 F 
ATOM     56  F   UNL A   1      39.790  35.367  36.917  1.00  0.00    -0.200 F 
ATOM     57  C   UNL A   1      38.492  33.538  37.655  1.00  0.00     0.200 A 
ATOM     58  F   UNL A   1      37.213  31.681  38.352  1.00  0.00    -0.200 F 
ATOM     59  F   UNL A   1      38.122  34.223  38.747  1.00  0.00    -0.200 F 
ENDBRANCH  25  49
BRANCH  37  60
ATOM     60  C   UNL A   1      44.507  27.448  34.492  1.00  0.00     0.064 A 
ATOM     61  C   UNL A   1      44.242  26.317  35.279  1.00  0.00     0.173 A 
ATOM     62  C   UNL A   1      45.697  28.151  34.713  1.00  0.00     0.173 A 
ATOM     63  F   UNL A   1      43.107  25.623  35.104  1.00  0.00    -0.203 F 
ATOM     64  C   UNL A   1      45.111  25.938  36.293  1.00  0.00     0.198 A 
ATOM     65  C   UNL A   1      46.580  27.751  35.709  1.00  0.00     0.198 A 
ATOM     66  F   UNL A   1      45.993  29.232  33.974  1.00  0.00    -0.203 F 
ATOM     67  F   UNL A   1      44.805  24.901  37.083  1.00  0.00    -0.200 F 
ATOM     68  C   UNL A   1      46.277  26.659  36.511  1.00  0.00     0.200 A 
ATOM     69  F   UNL A   1      47.715  28.435  35.911  1.00  0.00    -0.200 F 
ATOM     70  F   UNL A   1      47.104  26.306  37.504  1.00  0.00    -0.200 F 
ENDBRANCH  37  60
ENDBRANCH  11  12
ENDBRANCH   4   6
ENDBRANCH   3   4
ENDBRANCH   2   3
ENDBRANCH   1   2
BRANCH   1  71
ATOM     71  O   UNL A   1      32.360  28.612  24.253  1.00  0.00    -0.374 OA
BRANCH  71  72
ATOM     72  C   UNL A   1      32.562  28.707  22.857  1.00  0.00     0.202 C 
BRANCH  72  73
ATOM     73  C   UNL A   1      33.627  27.687  22.480  1.00  0.00     0.261 C 
BRANCH  73  74
ATOM     74  O   UNL A   1      33.736  26.721  23.543  1.00  0.00    -0.460 OA
BRANCH  74  75
ATOM     75  C   UNL A   1      33.610  25.401  23.228  1.00  0.00     0.338 C 
ATOM     76  O   UNL A   1      34.074  24.821  22.261  1.00  0.00    -0.246 OA
BRANCH  75  77
ATOM     77  C   UNL A   1      32.834  24.755  24.321  1.00  0.00     0.068 A 
ATOM     78  C   UNL A   1      31.526  25.249  24.519  1.00  0.00     0.019 A 
ATOM     79  C   UNL A   1      33.345  23.733  25.165  1.00  0.00    -0.001 A 
ATOM     80  C   UNL A   1      30.712  24.741  25.523  1.00  0.00     0.040 A 
ATOM     81  C   UNL A   1      32.473  23.210  26.144  1.00  0.00     0.048 A 
ATOM     82  C   UNL A   1      31.188  23.713  26.315  1.00  0.00     0.123 A 
ATOM     83  F   UNL A   1      30.409  23.207  27.278  1.00  0.00    -0.207 F 
BRANCH  79  84
ATOM     84  C   UNL A   1      34.738  23.234  25.208  1.00  0.00    -0.016 A 
ATOM     85  C   UNL A   1      35.058  22.014  24.562  1.00  0.00     0.012 A 
ATOM     86  C   UNL A   1      35.789  23.960  25.789  1.00  0.00     0.032 A 
ATOM     87  C   UNL A   1      36.361  21.506  24.558  1.00  0.00     0.041 A 
ATOM     88  C   UNL A   1      37.103  23.466  25.754  1.00  0.00     0.077 A 
ATOM     89  C   UNL A   1      37.377  22.236  25.158  1.00  0.00     0.141 A 
ATOM     90  Cl  UNL A   1      38.381  24.399  26.432  1.00  0.00    -0.081 Cl
ATOM     91  F   UNL A   1      38.620  21.733  25.146  1.00  0.00    -0.205 F 
ENDBRANCH  79  84
ENDBRANCH  75  77
ENDBRANCH  74  75
ENDBRANCH  73  74
ENDBRANCH  72  73
ENDBRANCH  71  72
ENDBRANCH   1  71
TORSDOF 15
ENDMDL
MODEL 2
REMARK VINA RESULT:     -11.9      3.109      7.834
REMARK SMILES O=C(OCCOCCOC(=O)c1ccc(F)cc1-c1ccc(F)c(Cl)c1)c1ccc(-c2c3nc(c(-c4c(F)c(F)c(F)c(F)c4F)c4ccc([nH]4)c(-c4c(F)c(F)c(F)c(F)c4F)c4nc(c(-c5c(F)c(F)c(F)c(F)c5F)c5ccc2[nH]5)C=C4)C=C3)cc1
REMARK SMILES IDX 5 1 4 2 3 3 2 4 1 5 27 6 28 7 89 8 29 9 88 10 30 11 31 12
REMARK SMILES IDX 32 13 82 14 33 15 87 16 81 17 83 18 34 19 86 20 80 21 79 22
REMARK SMILES IDX 35 24 67 25 47 26 66 27 48 28 51 29 65 30 84 31 49 32 50 33
REMARK SMILES IDX 64 35 85 36 52 37 36 38 37 39 45 40 38 41 39 42 43 43 46 44
REMARK SMILES IDX 40 45 41 46 44 47 42 48 68 49 69 50 77 51 70 52 71 53 75 54
REMARK SMILES IDX 78 55 72 56 73 57 76 58 74 59 53 60 54 61 62 62 55 63 56 64
REMARK SMILES IDX 60 65 63 66 57 67 58 68 61 69 59 70 6 71 7 72 8 73 9 74
REMARK SMILES IDX 10 75 11 76 12 77 13 78 18 79 14 80 17 81 15 82 16 83 19 84
REMARK SMILES IDX 20 85 26 86 21 87 24 88 22 89 25 90 23 91
REMARK H PARENT 83 23 51 34
REMARK Flexibility Score: inf
ROOT
ATOM      1  C   UNL A   1      40.092  20.920  26.280  1.00  0.00     0.202 C 
ENDROOT
BRANCH   1   2
ATOM      2  C   UNL A   1      41.523  21.433  26.417  1.00  0.00     0.261 C 
BRANCH   2   3
ATOM      3  O   UNL A   1      41.847  22.364  25.376  1.00  0.00    -0.460 OA
BRANCH   3   4
ATOM      4  C   UNL A   1      42.600  23.478  25.548  1.00  0.00     0.338 C 
ATOM      5  O   UNL A   1      43.677  23.588  24.971  1.00  0.00    -0.246 OA
BRANCH   4   6
ATOM      6  C   UNL A   1      42.140  24.599  26.412  1.00  0.00     0.060 A 
ATOM      7  C   UNL A   1      41.333  24.406  27.530  1.00  0.00     0.016 A 
ATOM      8  C   UNL A   1      42.630  25.883  26.169  1.00  0.00     0.016 A 
ATOM      9  C   UNL A   1      40.948  25.426  28.363  1.00  0.00     0.010 A 
ATOM     10  C   UNL A   1      42.344  26.912  27.071  1.00  0.00     0.010 A 
ATOM     11  C   UNL A   1      41.523  26.665  28.182  1.00  0.00    -0.014 A 
BRANCH  11  12
ATOM     12  C   UNL A   1      41.229  27.683  29.189  1.00  0.00     0.031 A 
ATOM     13  C   UNL A   1      42.116  27.755  30.374  1.00  0.00     0.074 A 
ATOM     14  C   UNL A   1      40.222  28.549  28.974  1.00  0.00     0.049 A 
ATOM     15  N   UNL A   1      41.928  28.373  31.500  1.00  0.00    -0.248 NA
ATOM     16  C   UNL A   1      43.384  27.011  30.281  1.00  0.00     0.031 C 
ATOM     17  C   UNL A   1      39.427  28.639  27.743  1.00  0.00     0.029 A 
ATOM     18  N   UNL A   1      39.700  29.525  29.775  1.00  0.00    -0.354 N 
ATOM     19  C   UNL A   1      43.014  28.028  32.286  1.00  0.00     0.074 A 
ATOM     20  C   UNL A   1      43.868  27.167  31.503  1.00  0.00     0.031 C 
ATOM     21  C   UNL A   1      38.522  29.619  27.873  1.00  0.00     0.029 A 
ATOM     22  C   UNL A   1      38.601  30.141  29.228  1.00  0.00     0.049 A 
ATOM     23  H   UNL A   1      40.074  29.763  30.654  1.00  0.00     0.167 HD
ATOM     24  C   UNL A   1      43.232  28.396  33.566  1.00  0.00     0.037 A 
ATOM     25  C   UNL A   1      37.715  30.975  29.800  1.00  0.00     0.037 A 
ATOM     26  C   UNL A   1      42.344  29.278  34.271  1.00  0.00     0.049 A 
ATOM     27  C   UNL A   1      37.927  31.309  31.250  1.00  0.00     0.074 A 
ATOM     28  C   UNL A   1      42.420  29.719  35.575  1.00  0.00     0.029 A 
ATOM     29  N   UNL A   1      41.208  29.856  33.708  1.00  0.00    -0.354 N 
ATOM     30  N   UNL A   1      38.897  30.917  32.045  1.00  0.00    -0.248 NA
ATOM     31  C   UNL A   1      36.928  32.165  31.894  1.00  0.00     0.031 C 
ATOM     32  C   UNL A   1      41.295  30.511  35.821  1.00  0.00     0.029 A 
ATOM     33  C   UNL A   1      40.556  30.628  34.649  1.00  0.00     0.049 A 
ATOM     34  H   UNL A   1      40.914  29.732  32.777  1.00  0.00     0.167 HD
ATOM     35  C   UNL A   1      38.640  31.489  33.278  1.00  0.00     0.074 A 
ATOM     36  C   UNL A   1      37.418  32.259  33.125  1.00  0.00     0.031 C 
ATOM     37  C   UNL A   1      39.346  31.390  34.431  1.00  0.00     0.037 A 
BRANCH  24  38
ATOM     38  C   UNL A   1      44.388  27.761  34.273  1.00  0.00     0.064 A 
ATOM     39  C   UNL A   1      44.193  26.570  34.989  1.00  0.00     0.173 A 
ATOM     40  C   UNL A   1      45.689  28.280  34.208  1.00  0.00     0.173 A 
ATOM     41  F   UNL A   1      42.972  26.020  35.069  1.00  0.00    -0.203 F 
ATOM     42  C   UNL A   1      45.256  25.922  35.611  1.00  0.00     0.198 A 
ATOM     43  C   UNL A   1      46.757  27.611  34.802  1.00  0.00     0.198 A 
ATOM     44  F   UNL A   1      45.938  29.396  33.507  1.00  0.00    -0.203 F 
ATOM     45  F   UNL A   1      45.041  24.790  36.294  1.00  0.00    -0.200 F 
ATOM     46  C   UNL A   1      46.539  26.437  35.507  1.00  0.00     0.200 A 
ATOM     47  F   UNL A   1      48.004  28.084  34.662  1.00  0.00    -0.200 F 
ATOM     48  F   UNL A   1      47.568  25.790  36.072  1.00  0.00    -0.200 F 
ENDBRANCH  24  38
BRANCH  25  49
ATOM     49  C   UNL A   1      36.560  31.473  29.009  1.00  0.00     0.064 A 
ATOM     50  C   UNL A   1      36.451  32.826  28.644  1.00  0.00     0.173 A 
ATOM     51  C   UNL A   1      35.492  30.628  28.686  1.00  0.00     0.173 A 
ATOM     52  F   UNL A   1      37.442  33.682  28.935  1.00  0.00    -0.203 F 
ATOM     53  C   UNL A   1      35.304  33.319  28.025  1.00  0.00     0.198 A 
ATOM     54  C   UNL A   1      34.355  31.118  28.042  1.00  0.00     0.198 A 
ATOM     55  F   UNL A   1      35.550  29.326  28.997  1.00  0.00    -0.203 F 
ATOM     56  F   UNL A   1      35.205  34.626  27.741  1.00  0.00    -0.200 F 
ATOM     57  C   UNL A   1      34.256  32.464  27.726  1.00  0.00     0.200 A 
ATOM     58  F   UNL A   1      33.349  30.286  27.738  1.00  0.00    -0.200 F 
ATOM     59  F   UNL A   1      33.150  32.938  27.135  1.00  0.00    -0.200 F 
ENDBRANCH  25  49
BRANCH  37  60
ATOM     60  C   UNL A   1      38.847  32.159  35.614  1.00  0.00     0.064 A 
ATOM     61  C   UNL A   1      39.204  33.507  35.766  1.00  0.00     0.173 A 
ATOM     62  C   UNL A   1      38.182  31.522  36.667  1.00  0.00     0.173 A 
ATOM     63  F   UNL A   1      39.853  34.151  34.783  1.00  0.00    -0.203 F 
ATOM     64  C   UNL A   1      38.956  34.177  36.957  1.00  0.00     0.198 A 
ATOM     65  C   UNL A   1      37.908  32.205  37.847  1.00  0.00     0.198 A 
ATOM     66  F   UNL A   1      37.813  30.236  36.556  1.00  0.00    -0.203 F 
ATOM     67  F   UNL A   1      39.371  35.441  37.111  1.00  0.00    -0.200 F 
ATOM     68  C   UNL A   1      38.313  33.523  37.998  1.00  0.00     0.200 A 
ATOM     69  F   UNL A   1      37.272  31.581  38.848  1.00  0.00    -0.200 F 
ATOM     70  F   UNL A   1      38.095  34.164  39.155  1.00  0.00    -0.200 F 
ENDBRANCH  37  60
ENDBRANCH  11  12
ENDBRANCH   4   6
ENDBRANCH   3   4
ENDBRANCH   2   3
ENDBRANCH   1   2
BRANCH   1  71
ATOM     71  O   UNL A   1      39.070  21.884  26.467  1.00  0.00    -0.374 OA
BRANCH  71  72
ATOM     72  C   UNL A   1      38.071  21.973  25.471  1.00  0.00     0.202 C 
BRANCH  72  73
ATOM     73  C   UNL A   1      37.501  23.383  25.522  1.00  0.00     0.261 C 
BRANCH  73  74
ATOM     74  O   UNL A   1      36.063  23.298  25.534  1.00  0.00    -0.460 OA
BRANCH  74  75
ATOM     75  C   UNL A   1      35.387  23.684  24.415  1.00  0.00     0.338 C 
ATOM     76  O   UNL A   1      35.731  23.543  23.254  1.00  0.00    -0.246 OA
BRANCH  75  77
ATOM     77  C   UNL A   1      34.094  24.275  24.859  1.00  0.00     0.068 A 
ATOM     78  C   UNL A   1      34.181  25.540  25.482  1.00  0.00     0.019 A 
ATOM     79  C   UNL A   1      32.835  23.631  24.723  1.00  0.00    -0.001 A 
ATOM     80  C   UNL A   1      33.045  26.183  25.958  1.00  0.00     0.040 A 
ATOM     81  C   UNL A   1      31.700  24.335  25.178  1.00  0.00     0.048 A 
ATOM     82  C   UNL A   1      31.813  25.581  25.784  1.00  0.00     0.123 A 
ATOM     83  F   UNL A   1      30.710  26.197  26.229  1.00  0.00    -0.207 F 
BRANCH  79  84
ATOM     84  C   UNL A   1      32.595  22.245  24.264  1.00  0.00    -0.016 A 
ATOM     85  C   UNL A   1      32.302  22.009  22.897  1.00  0.00     0.012 A 
ATOM     86  C   UNL A   1      32.730  21.129  25.104  1.00  0.00     0.032 A 
ATOM     87  C   UNL A   1      32.081  20.718  22.406  1.00  0.00     0.041 A 
ATOM     88  C   UNL A   1      32.543  19.831  24.603  1.00  0.00     0.077 A 
ATOM     89  C   UNL A   1      32.202  19.635  23.266  1.00  0.00     0.141 A 
ATOM     90  Cl  UNL A   1      32.760  18.477  25.644  1.00  0.00    -0.081 Cl
ATOM     91  F   UNL A   1      31.986  18.404  22.778  1.00  0.00    -0.205 F 
ENDBRANCH  79  84
ENDBRANCH  75  77
ENDBRANCH  74  75
ENDBRANCH  73  74
ENDBRANCH  72  73
ENDBRANCH  71  72
ENDBRANCH   1  71
TORSDOF 15
ENDMDL
MODEL 3
REMARK VINA RESULT:     -11.9      4.430      9.762
REMARK SMILES O=C(OCCOCCOC(=O)c1ccc(F)cc1-c1ccc(F)c(Cl)c1)c1ccc(-c2c3nc(c(-c4c(F)c(F)c(F)c(F)c4F)c4ccc([nH]4)c(-c4c(F)c(F)c(F)c(F)c4F)c4nc(c(-c5c(F)c(F)c(F)c(F)c5F)c5ccc2[nH]5)C=C4)C=C3)cc1
REMARK SMILES IDX 5 1 4 2 3 3 2 4 1 5 27 6 28 7 89 8 29 9 88 10 30 11 31 12
REMARK SMILES IDX 32 13 82 14 33 15 87 16 81 17 83 18 34 19 86 20 80 21 79 22
REMARK SMILES IDX 35 24 67 25 47 26 66 27 48 28 51 29 65 30 84 31 49 32 50 33
REMARK SMILES IDX 64 35 85 36 52 37 36 38 37 39 45 40 38 41 39 42 43 43 46 44
REMARK SMILES IDX 40 45 41 46 44 47 42 48 68 49 69 50 77 51 70 52 71 53 75 54
REMARK SMILES IDX 78 55 72 56 73 57 76 58 74 59 53 60 54 61 62 62 55 63 56 64
REMARK SMILES IDX 60 65 63 66 57 67 58 68 61 69 59 70 6 71 7 72 8 73 9 74
REMARK SMILES IDX 10 75 11 76 12 77 13 78 18 79 14 80 17 81 15 82 16 83 19 84
REMARK SMILES IDX 20 85 26 86 21 87 24 88 22 89 25 90 23 91
REMARK H PARENT 83 23 51 34
REMARK Flexibility Score: inf
ROOT
ATOM      1  C   UNL A   1      35.552  20.502  25.223  1.00  0.00     0.202 C 
ENDROOT
BRANCH   1   2
ATOM      2  C   UNL A   1      37.038  20.558  24.875  1.00  0.00     0.261 C 
BRANCH   2   3
ATOM      3  O   UNL A   1      37.673  21.695  25.477  1.00  0.00    -0.460 OA
BRANCH   3   4
ATOM      4  C   UNL A   1      38.884  21.665  26.085  1.00  0.00     0.338 C 
ATOM      5  O   UNL A   1      39.504  20.610  26.172  1.00  0.00    -0.246 OA
BRANCH   4   6
ATOM      6  C   UNL A   1      39.504  22.900  26.637  1.00  0.00     0.060 A 
ATOM      7  C   UNL A   1      40.612  22.875  27.480  1.00  0.00     0.016 A 
ATOM      8  C   UNL A   1      39.037  24.142  26.204  1.00  0.00     0.016 A 
ATOM      9  C   UNL A   1      41.223  24.009  27.952  1.00  0.00     0.010 A 
ATOM     10  C   UNL A   1      39.716  25.303  26.580  1.00  0.00     0.010 A 
ATOM     11  C   UNL A   1      40.828  25.223  27.434  1.00  0.00    -0.014 A 
BRANCH  11  12
ATOM     12  C   UNL A   1      41.613  26.395  27.821  1.00  0.00     0.031 A 
ATOM     13  C   UNL A   1      40.957  27.407  28.682  1.00  0.00     0.074 A 
ATOM     14  C   UNL A   1      42.901  26.476  27.444  1.00  0.00     0.049 A 
ATOM     15  N   UNL A   1      41.331  28.622  28.945  1.00  0.00    -0.248 NA
ATOM     16  C   UNL A   1      39.695  26.996  29.321  1.00  0.00     0.031 C 
ATOM     17  C   UNL A   1      43.650  25.425  26.746  1.00  0.00     0.029 A 
ATOM     18  N   UNL A   1      43.814  27.480  27.604  1.00  0.00    -0.354 N 
ATOM     19  C   UNL A   1      40.311  29.154  29.715  1.00  0.00     0.074 A 
ATOM     20  C   UNL A   1      39.314  28.125  29.896  1.00  0.00     0.031 C 
ATOM     21  C   UNL A   1      44.908  25.841  26.541  1.00  0.00     0.029 A 
ATOM     22  C   UNL A   1      45.014  27.220  26.990  1.00  0.00     0.049 A 
ATOM     23  H   UNL A   1      43.630  28.305  28.108  1.00  0.00     0.167 HD
ATOM     24  C   UNL A   1      40.233  30.415  30.189  1.00  0.00     0.037 A 
ATOM     25  C   UNL A   1      46.050  28.045  26.752  1.00  0.00     0.037 A 
ATOM     26  C   UNL A   1      41.281  31.376  29.986  1.00  0.00     0.049 A 
ATOM     27  C   UNL A   1      45.911  29.467  27.215  1.00  0.00     0.074 A 
ATOM     28  C   UNL A   1      41.333  32.695  30.383  1.00  0.00     0.029 A 
ATOM     29  N   UNL A   1      42.473  31.102  29.318  1.00  0.00    -0.354 N 
ATOM     30  N   UNL A   1      44.912  30.022  27.862  1.00  0.00    -0.248 NA
ATOM     31  C   UNL A   1      47.009  30.385  26.900  1.00  0.00     0.031 C 
ATOM     32  C   UNL A   1      42.527  33.237  29.901  1.00  0.00     0.029 A 
ATOM     33  C   UNL A   1      43.257  32.237  29.267  1.00  0.00     0.049 A 
ATOM     34  H   UNL A   1      42.720  30.227  28.940  1.00  0.00     0.167 HD
ATOM     35  C   UNL A   1      45.262  31.348  28.050  1.00  0.00     0.074 A 
ATOM     36  C   UNL A   1      46.573  31.514  27.446  1.00  0.00     0.031 C 
ATOM     37  C   UNL A   1      44.568  32.337  28.665  1.00  0.00     0.037 A 
BRANCH  24  38
ATOM     38  C   UNL A   1      38.953  30.819  30.851  1.00  0.00     0.064 A 
ATOM     39  C   UNL A   1      37.848  31.180  30.064  1.00  0.00     0.173 A 
ATOM     40  C   UNL A   1      38.786  30.803  32.243  1.00  0.00     0.173 A 
ATOM     41  F   UNL A   1      37.947  31.195  28.725  1.00  0.00    -0.203 F 
ATOM     42  C   UNL A   1      36.627  31.506  30.644  1.00  0.00     0.198 A 
ATOM     43  C   UNL A   1      37.552  31.096  32.820  1.00  0.00     0.198 A 
ATOM     44  F   UNL A   1      39.799  30.431  33.042  1.00  0.00    -0.203 F 
ATOM     45  F   UNL A   1      35.590  31.853  29.869  1.00  0.00    -0.200 F 
ATOM     46  C   UNL A   1      36.476  31.452  32.021  1.00  0.00     0.200 A 
ATOM     47  F   UNL A   1      37.395  30.999  34.148  1.00  0.00    -0.200 F 
ATOM     48  F   UNL A   1      35.288  31.727  32.576  1.00  0.00    -0.200 F 
ENDBRANCH  24  38
BRANCH  25  49
ATOM     49  C   UNL A   1      47.234  27.539  26.009  1.00  0.00     0.064 A 
ATOM     50  C   UNL A   1      48.363  27.044  26.682  1.00  0.00     0.173 A 
ATOM     51  C   UNL A   1      47.302  27.634  24.614  1.00  0.00     0.173 A 
ATOM     52  F   UNL A   1      48.357  26.938  28.020  1.00  0.00    -0.203 F 
ATOM     53  C   UNL A   1      49.525  26.701  25.993  1.00  0.00     0.198 A 
ATOM     54  C   UNL A   1      48.456  27.266  23.923  1.00  0.00     0.198 A 
ATOM     55  F   UNL A   1      46.247  28.087  23.922  1.00  0.00    -0.203 F 
ATOM     56  F   UNL A   1      50.607  26.286  26.668  1.00  0.00    -0.200 F 
ATOM     57  C   UNL A   1      49.571  26.814  24.613  1.00  0.00     0.200 A 
ATOM     58  F   UNL A   1      48.493  27.360  22.586  1.00  0.00    -0.200 F 
ATOM     59  F   UNL A   1      50.689  26.490  23.949  1.00  0.00    -0.200 F 
ENDBRANCH  25  49
BRANCH  37  60
ATOM     60  C   UNL A   1      45.219  33.682  28.756  1.00  0.00     0.064 A 
ATOM     61  C   UNL A   1      45.029  34.616  27.726  1.00  0.00     0.173 A 
ATOM     62  C   UNL A   1      46.158  33.969  29.753  1.00  0.00     0.173 A 
ATOM     63  F   UNL A   1      44.145  34.371  26.746  1.00  0.00    -0.203 F 
ATOM     64  C   UNL A   1      45.798  35.771  27.664  1.00  0.00     0.198 A 
ATOM     65  C   UNL A   1      46.904  35.141  29.704  1.00  0.00     0.198 A 
ATOM     66  F   UNL A   1      46.361  33.107  30.761  1.00  0.00    -0.203 F 
ATOM     67  F   UNL A   1      45.655  36.614  26.633  1.00  0.00    -0.200 F 
ATOM     68  C   UNL A   1      46.739  36.029  28.651  1.00  0.00     0.200 A 
ATOM     69  F   UNL A   1      47.802  35.402  30.665  1.00  0.00    -0.200 F 
ATOM     70  F   UNL A   1      47.495  37.133  28.579  1.00  0.00    -0.200 F 
ENDBRANCH  37  60
ENDBRANCH  11  12
ENDBRANCH   4   6
ENDBRANCH   3   4
ENDBRANCH   2   3
ENDBRANCH   1   2
BRANCH   1  71
ATOM     71  O   UNL A   1      35.066  21.565  26.024  1.00  0.00    -0.374 OA
BRANCH  71  72
ATOM     72  C   UNL A   1      33.974  21.288  26.877  1.00  0.00     0.202 C 
BRANCH  72  73
ATOM     73  C   UNL A   1      33.785  22.496  27.783  1.00  0.00     0.261 C 
BRANCH  73  74
ATOM     74  O   UNL A   1      33.723  23.680  26.966  1.00  0.00    -0.460 OA
BRANCH  74  75
ATOM     75  C   UNL A   1      32.500  24.102  26.538  1.00  0.00     0.338 C 
ATOM     76  O   UNL A   1      31.478  24.204  27.195  1.00  0.00    -0.246 OA
BRANCH  75  77
ATOM     77  C   UNL A   1      32.636  24.480  25.105  1.00  0.00     0.068 A 
ATOM     78  C   UNL A   1      32.730  23.405  24.194  1.00  0.00     0.019 A 
ATOM     79  C   UNL A   1      32.712  25.819  24.637  1.00  0.00    -0.001 A 
ATOM     80  C   UNL A   1      32.882  23.631  22.831  1.00  0.00     0.040 A 
ATOM     81  C   UNL A   1      32.822  26.010  23.243  1.00  0.00     0.048 A 
ATOM     82  C   UNL A   1      32.908  24.933  22.368  1.00  0.00     0.123 A 
ATOM     83  F   UNL A   1      33.043  25.164  21.056  1.00  0.00    -0.207 F 
BRANCH  79  84
ATOM     84  C   UNL A   1      32.810  27.042  25.466  1.00  0.00    -0.016 A 
ATOM     85  C   UNL A   1      31.622  27.693  25.883  1.00  0.00     0.012 A 
ATOM     86  C   UNL A   1      34.031  27.546  25.939  1.00  0.00     0.032 A 
ATOM     87  C   UNL A   1      31.657  28.843  26.680  1.00  0.00     0.041 A 
ATOM     88  C   UNL A   1      34.063  28.679  26.767  1.00  0.00     0.077 A 
ATOM     89  C   UNL A   1      32.880  29.330  27.116  1.00  0.00     0.141 A 
ATOM     90  Cl  UNL A   1      35.571  29.249  27.372  1.00  0.00    -0.081 Cl
ATOM     91  F   UNL A   1      32.895  30.433  27.879  1.00  0.00    -0.205 F 
ENDBRANCH  79  84
ENDBRANCH  75  77
ENDBRANCH  74  75
ENDBRANCH  73  74
ENDBRANCH  72  73
ENDBRANCH  71  72
ENDBRANCH   1  71
TORSDOF 15
ENDMDL
