MODEL 1
REMARK VINA RESULT:     -11.5      0.000      0.000
REMARK SMILES C=Cc1cccc(-c2ccc([C@@H](C)C(=O)OCCOCCOC(=O)c3ccc(-c4c5nc(c(-c6c(F)c(F)c(F)c(F)c6F)c6ccc([nH]6)c(-c6c(F)c(F)c(F)c(F)c6F)c6nc(c(-c7c(F)c(F)c(F)c(F)c7F)c7ccc4[nH]7)C=C6)C=C5)cc3)cc2)c1
REMARK SMILES IDX 18 1 17 2 16 3 14 4 15 5 12 6 13 7 11 8 8 9 9 10 89 11 10 12
REMARK SMILES IDX 88 13 7 14 3 15 4 16 90 17 5 18 6 19 2 20 1 21 19 22 20 23
REMARK SMILES IDX 21 24 22 25 23 26 24 27 25 28 26 29 87 30 27 31 86 32 28 33
REMARK SMILES IDX 29 34 30 35 80 36 31 37 85 38 79 39 81 40 32 41 84 42 78 43
REMARK SMILES IDX 77 44 33 46 65 47 45 48 64 49 46 50 49 51 63 52 82 53 47 54
REMARK SMILES IDX 48 55 62 57 83 58 50 59 34 60 35 61 43 62 36 63 37 64 41 65
REMARK SMILES IDX 44 66 38 67 39 68 42 69 40 70 66 71 67 72 75 73 68 74 69 75
REMARK SMILES IDX 73 76 76 77 70 78 71 79 74 80 72 81 51 82 52 83 60 84 53 85
REMARK SMILES IDX 54 86 58 87 61 88 55 89 56 90 59 91 57 92
REMARK H PARENT 81 45 49 56
REMARK Flexibility Score: inf
ROOT
ATOM      1  C   UNL A   1      44.141  19.460  24.887  1.00  0.00     0.202 C 
ENDROOT
BRANCH   1   2
ATOM      2  C   UNL A   1      43.022  18.849  25.735  1.00  0.00     0.261 C 
BRANCH   2   3
ATOM      3  O   UNL A   1      41.807  19.610  25.597  1.00  0.00    -0.463 OA
BRANCH   3   4
ATOM      4  C   UNL A   1      41.257  20.073  26.749  1.00  0.00     0.313 C 
ATOM      5  O   UNL A   1      40.942  19.364  27.700  1.00  0.00    -0.252 OA
BRANCH   4   6
ATOM      6  C   UNL A   1      41.011  21.576  26.753  1.00  0.00     0.126 C 
ATOM      7  C   UNL A   1      41.477  22.155  28.087  1.00  0.00     0.025 C 
BRANCH   6   8
ATOM      8  C   UNL A   1      39.617  22.067  26.371  1.00  0.00    -0.034 A 
ATOM      9  C   UNL A   1      37.081  22.995  25.460  1.00  0.00    -0.018 A 
ATOM     10  C   UNL A   1      37.893  23.787  26.287  1.00  0.00     0.009 A 
ATOM     11  C   UNL A   1      37.546  21.716  25.124  1.00  0.00     0.009 A 
ATOM     12  C   UNL A   1      39.140  23.333  26.735  1.00  0.00     0.005 A 
ATOM     13  C   UNL A   1      38.793  21.260  25.570  1.00  0.00     0.005 A 
BRANCH   9  14
ATOM     14  C   UNL A   1      35.811  23.509  24.922  1.00  0.00    -0.018 A 
ATOM     15  C   UNL A   1      34.089  25.251  24.790  1.00  0.00    -0.026 A 
ATOM     16  C   UNL A   1      33.348  24.442  23.922  1.00  0.00     0.008 A 
ATOM     17  C   UNL A   1      35.309  24.770  25.295  1.00  0.00     0.016 A 
ATOM     18  C   UNL A   1      33.826  23.190  23.540  1.00  0.00     0.001 A 
ATOM     19  C   UNL A   1      35.049  22.732  24.035  1.00  0.00     0.009 A 
BRANCH  15  20
ATOM     20  C   UNL A   1      33.532  26.551  25.185  1.00  0.00     0.000 C 
ATOM     21  C   UNL A   1      33.735  27.693  24.516  1.00  0.00     0.009 C 
ENDBRANCH  15  20
ENDBRANCH   9  14
ENDBRANCH   6   8
ENDBRANCH   4   6
ENDBRANCH   3   4
ENDBRANCH   2   3
ENDBRANCH   1   2
BRANCH   1  22
ATOM     22  O   UNL A   1      44.705  20.672  25.389  1.00  0.00    -0.374 OA
BRANCH  22  23
ATOM     23  C   UNL A   1      44.573  21.837  24.573  1.00  0.00     0.202 C 
BRANCH  23  24
ATOM     24  C   UNL A   1      43.403  22.765  24.919  1.00  0.00     0.261 C 
BRANCH  24  25
ATOM     25  O   UNL A   1      43.544  24.062  24.310  1.00  0.00    -0.460 OA
BRANCH  25  26
ATOM     26  C   UNL A   1      44.311  24.934  24.999  1.00  0.00     0.338 C 
ATOM     27  O   UNL A   1      45.499  25.179  24.828  1.00  0.00    -0.246 OA
BRANCH  26  28
ATOM     28  C   UNL A   1      43.479  25.720  25.928  1.00  0.00     0.060 A 
ATOM     29  C   UNL A   1      43.814  27.068  26.108  1.00  0.00     0.016 A 
ATOM     30  C   UNL A   1      42.450  25.139  26.673  1.00  0.00     0.016 A 
ATOM     31  C   UNL A   1      43.160  27.828  27.075  1.00  0.00     0.010 A 
ATOM     32  C   UNL A   1      41.799  25.902  27.651  1.00  0.00     0.010 A 
ATOM     33  C   UNL A   1      42.178  27.237  27.882  1.00  0.00    -0.014 A 
BRANCH  33  34
ATOM     34  C   UNL A   1      41.671  27.978  29.063  1.00  0.00     0.031 A 
ATOM     35  C   UNL A   1      42.411  27.867  30.368  1.00  0.00     0.074 A 
ATOM     36  C   UNL A   1      40.596  28.780  28.966  1.00  0.00     0.049 A 
ATOM     37  N   UNL A   1      42.151  28.425  31.522  1.00  0.00    -0.248 NA
ATOM     38  C   UNL A   1      43.609  27.012  30.368  1.00  0.00     0.031 C 
ATOM     39  C   UNL A   1      39.819  29.006  27.750  1.00  0.00     0.029 A 
ATOM     40  N   UNL A   1      39.974  29.554  29.913  1.00  0.00    -0.354 N 
ATOM     41  C   UNL A   1      43.148  27.990  32.386  1.00  0.00     0.074 A 
ATOM     42  C   UNL A   1      44.003  27.097  31.631  1.00  0.00     0.031 C 
ATOM     43  C   UNL A   1      38.817  29.857  28.026  1.00  0.00     0.029 A 
ATOM     44  C   UNL A   1      38.866  30.214  29.443  1.00  0.00     0.049 A 
ATOM     45  H   UNL A   1      40.292  29.628  30.843  1.00  0.00     0.167 HD
ATOM     46  C   UNL A   1      43.341  28.312  33.687  1.00  0.00     0.037 A 
ATOM     47  C   UNL A   1      37.986  31.003  30.089  1.00  0.00     0.037 A 
ATOM     48  C   UNL A   1      42.495  29.201  34.438  1.00  0.00     0.049 A 
ATOM     49  C   UNL A   1      38.183  31.292  31.554  1.00  0.00     0.074 A 
ATOM     50  C   UNL A   1      42.620  29.604  35.756  1.00  0.00     0.029 A 
ATOM     51  N   UNL A   1      41.360  29.820  33.937  1.00  0.00    -0.354 N 
ATOM     52  N   UNL A   1      39.142  30.897  32.356  1.00  0.00    -0.248 NA
ATOM     53  C   UNL A   1      37.174  32.141  32.205  1.00  0.00     0.031 C 
ATOM     54  C   UNL A   1      41.534  30.431  36.066  1.00  0.00     0.029 A 
ATOM     55  C   UNL A   1      40.760  30.581  34.927  1.00  0.00     0.049 A 
ATOM     56  H   UNL A   1      41.029  29.731  33.014  1.00  0.00     0.167 HD
ATOM     57  C   UNL A   1      38.869  31.468  33.592  1.00  0.00     0.074 A 
ATOM     58  C   UNL A   1      37.659  32.246  33.434  1.00  0.00     0.031 C 
ATOM     59  C   UNL A   1      39.560  31.357  34.753  1.00  0.00     0.037 A 
BRANCH  46  60
ATOM     60  C   UNL A   1      44.506  27.680  34.389  1.00  0.00     0.064 A 
ATOM     61  C   UNL A   1      44.392  26.441  35.036  1.00  0.00     0.173 A 
ATOM     62  C   UNL A   1      45.761  28.307  34.384  1.00  0.00     0.173 A 
ATOM     63  F   UNL A   1      43.210  25.809  35.079  1.00  0.00    -0.203 F 
ATOM     64  C   UNL A   1      45.488  25.863  35.672  1.00  0.00     0.198 A 
ATOM     65  C   UNL A   1      46.860  27.714  34.999  1.00  0.00     0.198 A 
ATOM     66  F   UNL A   1      45.924  29.492  33.775  1.00  0.00    -0.203 F 
ATOM     67  F   UNL A   1      45.346  24.698  36.320  1.00  0.00    -0.200 F 
ATOM     68  C   UNL A   1      46.722  26.496  35.648  1.00  0.00     0.200 A 
ATOM     69  F   UNL A   1      48.054  28.323  34.967  1.00  0.00    -0.200 F 
ATOM     70  F   UNL A   1      47.776  25.936  36.256  1.00  0.00    -0.200 F 
ENDBRANCH  46  60
BRANCH  47  71
ATOM     71  C   UNL A   1      36.826  31.573  29.355  1.00  0.00     0.064 A 
ATOM     72  C   UNL A   1      36.765  32.937  29.045  1.00  0.00     0.173 A 
ATOM     73  C   UNL A   1      35.747  30.765  28.967  1.00  0.00     0.173 A 
ATOM     74  F   UNL A   1      37.760  33.755  29.419  1.00  0.00    -0.203 F 
ATOM     75  C   UNL A   1      35.660  33.476  28.387  1.00  0.00     0.198 A 
ATOM     76  C   UNL A   1      34.655  31.299  28.287  1.00  0.00     0.198 A 
ATOM     77  F   UNL A   1      35.756  29.453  29.246  1.00  0.00    -0.203 F 
ATOM     78  F   UNL A   1      35.607  34.793  28.140  1.00  0.00    -0.200 F 
ATOM     79  C   UNL A   1      34.610  32.656  28.003  1.00  0.00     0.200 A 
ATOM     80  F   UNL A   1      33.647  30.502  27.910  1.00  0.00    -0.200 F 
ATOM     81  F   UNL A   1      33.550  33.174  27.369  1.00  0.00    -0.200 F 
ENDBRANCH  47  71
BRANCH  59  82
ATOM     82  C   UNL A   1      39.044  32.121  35.938  1.00  0.00     0.064 A 
ATOM     83  C   UNL A   1      38.171  31.536  36.867  1.00  0.00     0.173 A 
ATOM     84  C   UNL A   1      39.463  33.439  36.170  1.00  0.00     0.173 A 
ATOM     85  F   UNL A   1      37.731  30.282  36.683  1.00  0.00    -0.203 F 
ATOM     86  C   UNL A   1      37.720  32.251  37.974  1.00  0.00     0.198 A 
ATOM     87  C   UNL A   1      39.032  34.143  37.291  1.00  0.00     0.198 A 
ATOM     88  F   UNL A   1      40.303  34.043  35.315  1.00  0.00    -0.203 F 
ATOM     89  F   UNL A   1      36.853  31.688  38.825  1.00  0.00    -0.200 F 
ATOM     90  C   UNL A   1      38.155  33.550  38.188  1.00  0.00     0.200 A 
ATOM     91  F   UNL A   1      39.463  35.394  37.504  1.00  0.00    -0.200 F 
ATOM     92  F   UNL A   1      37.725  34.236  39.257  1.00  0.00    -0.200 F 
ENDBRANCH  59  82
ENDBRANCH  33  34
ENDBRANCH  26  28
ENDBRANCH  25  26
ENDBRANCH  24  25
ENDBRANCH  23  24
ENDBRANCH  22  23
ENDBRANCH   1  22
TORSDOF 17
ENDMDL
MODEL 2
REMARK VINA RESULT:     -11.5      5.010     11.176
REMARK SMILES C=Cc1cccc(-c2ccc([C@@H](C)C(=O)OCCOCCOC(=O)c3ccc(-c4c5nc(c(-c6c(F)c(F)c(F)c(F)c6F)c6ccc([nH]6)c(-c6c(F)c(F)c(F)c(F)c6F)c6nc(c(-c7c(F)c(F)c(F)c(F)c7F)c7ccc4[nH]7)C=C6)C=C5)cc3)cc2)c1
REMARK SMILES IDX 18 1 17 2 16 3 14 4 15 5 12 6 13 7 11 8 8 9 9 10 89 11 10 12
REMARK SMILES IDX 88 13 7 14 3 15 4 16 90 17 5 18 6 19 2 20 1 21 19 22 20 23
REMARK SMILES IDX 21 24 22 25 23 26 24 27 25 28 26 29 87 30 27 31 86 32 28 33
REMARK SMILES IDX 29 34 30 35 80 36 31 37 85 38 79 39 81 40 32 41 84 42 78 43
REMARK SMILES IDX 77 44 33 46 65 47 45 48 64 49 46 50 49 51 63 52 82 53 47 54
REMARK SMILES IDX 48 55 62 57 83 58 50 59 34 60 35 61 43 62 36 63 37 64 41 65
REMARK SMILES IDX 44 66 38 67 39 68 42 69 40 70 66 71 67 72 75 73 68 74 69 75
REMARK SMILES IDX 73 76 76 77 70 78 71 79 74 80 72 81 51 82 52 83 60 84 53 85
REMARK SMILES IDX 54 86 58 87 61 88 55 89 56 90 59 91 57 92
REMARK H PARENT 81 45 49 56
REMARK Flexibility Score: inf
ROOT
ATOM      1  C   UNL A   1      32.936  35.445  29.264  1.00  0.00     0.202 C 
ENDROOT
BRANCH   1   2
ATOM      2  C   UNL A   1      33.373  35.676  30.713  1.00  0.00     0.261 C 
BRANCH   2   3
ATOM      3  O   UNL A   1      34.628  35.020  30.976  1.00  0.00    -0.463 OA
BRANCH   3   4
ATOM      4  C   UNL A   1      34.571  33.910  31.758  1.00  0.00     0.313 C 
ATOM      5  O   UNL A   1      33.706  33.703  32.603  1.00  0.00    -0.252 OA
BRANCH   4   6
ATOM      6  C   UNL A   1      35.720  32.938  31.530  1.00  0.00     0.126 C 
ATOM      7  C   UNL A   1      35.934  32.112  32.797  1.00  0.00     0.025 C 
BRANCH   6   8
ATOM      8  C   UNL A   1      37.030  33.503  30.988  1.00  0.00    -0.034 A 
ATOM      9  C   UNL A   1      39.548  34.361  29.964  1.00  0.00    -0.018 A 
ATOM     10  C   UNL A   1      39.156  34.660  31.277  1.00  0.00     0.009 A 
ATOM     11  C   UNL A   1      38.644  33.652  29.160  1.00  0.00     0.009 A 
ATOM     12  C   UNL A   1      37.918  34.239  31.783  1.00  0.00     0.005 A 
ATOM     13  C   UNL A   1      37.407  33.229  29.663  1.00  0.00     0.005 A 
BRANCH   9  14
ATOM     14  C   UNL A   1      40.882  34.731  29.465  1.00  0.00    -0.018 A 
ATOM     15  C   UNL A   1      42.328  36.081  28.014  1.00  0.00    -0.026 A 
ATOM     16  C   UNL A   1      43.443  35.378  28.484  1.00  0.00     0.008 A 
ATOM     17  C   UNL A   1      41.054  35.741  28.499  1.00  0.00     0.016 A 
ATOM     18  C   UNL A   1      43.295  34.374  29.439  1.00  0.00     0.001 A 
ATOM     19  C   UNL A   1      42.026  34.058  29.926  1.00  0.00     0.009 A 
BRANCH  15  20
ATOM     20  C   UNL A   1      42.530  37.111  26.988  1.00  0.00     0.000 C 
ATOM     21  C   UNL A   1      41.832  38.252  26.918  1.00  0.00     0.009 C 
ENDBRANCH  15  20
ENDBRANCH   9  14
ENDBRANCH   6   8
ENDBRANCH   4   6
ENDBRANCH   3   4
ENDBRANCH   2   3
ENDBRANCH   1   2
BRANCH   1  22
ATOM     22  O   UNL A   1      32.674  34.087  28.907  1.00  0.00    -0.374 OA
BRANCH  22  23
ATOM     23  C   UNL A   1      33.353  33.574  27.759  1.00  0.00     0.202 C 
BRANCH  23  24
ATOM     24  C   UNL A   1      34.438  32.528  28.038  1.00  0.00     0.261 C 
BRANCH  24  25
ATOM     25  O   UNL A   1      33.884  31.213  28.225  1.00  0.00    -0.460 OA
BRANCH  25  26
ATOM     26  C   UNL A   1      34.577  30.214  27.637  1.00  0.00     0.338 C 
ATOM     27  O   UNL A   1      34.266  29.578  26.638  1.00  0.00    -0.246 OA
BRANCH  26  28
ATOM     28  C   UNL A   1      35.900  30.070  28.272  1.00  0.00     0.060 A 
ATOM     29  C   UNL A   1      37.026  30.235  27.455  1.00  0.00     0.016 A 
ATOM     30  C   UNL A   1      36.044  29.699  29.611  1.00  0.00     0.016 A 
ATOM     31  C   UNL A   1      38.299  29.974  27.957  1.00  0.00     0.010 A 
ATOM     32  C   UNL A   1      37.323  29.428  30.112  1.00  0.00     0.010 A 
ATOM     33  C   UNL A   1      38.451  29.526  29.277  1.00  0.00    -0.014 A 
BRANCH  33  34
ATOM     34  C   UNL A   1      39.772  29.016  29.720  1.00  0.00     0.031 A 
ATOM     35  C   UNL A   1      40.532  29.777  30.772  1.00  0.00     0.074 A 
ATOM     36  C   UNL A   1      40.269  27.867  29.231  1.00  0.00     0.049 A 
ATOM     37  N   UNL A   1      41.697  29.516  31.308  1.00  0.00    -0.248 NA
ATOM     38  C   UNL A   1      39.888  30.994  31.293  1.00  0.00     0.031 C 
ATOM     39  C   UNL A   1      39.611  27.018  28.241  1.00  0.00     0.029 A 
ATOM     40  N   UNL A   1      41.446  27.217  29.504  1.00  0.00    -0.354 N 
ATOM     41  C   UNL A   1      41.927  30.534  32.225  1.00  0.00     0.074 A 
ATOM     42  C   UNL A   1      40.795  31.433  32.153  1.00  0.00     0.031 C 
ATOM     43  C   UNL A   1      40.398  25.960  27.983  1.00  0.00     0.029 A 
ATOM     44  C   UNL A   1      41.626  26.071  28.770  1.00  0.00     0.049 A 
ATOM     45  H   UNL A   1      42.100  27.542  30.165  1.00  0.00     0.167 HD
ATOM     46  C   UNL A   1      42.982  30.699  33.059  1.00  0.00     0.037 A 
ATOM     47  C   UNL A   1      42.669  25.222  28.727  1.00  0.00     0.037 A 
ATOM     48  C   UNL A   1      44.107  29.805  33.134  1.00  0.00     0.049 A 
ATOM     49  C   UNL A   1      43.862  25.464  29.616  1.00  0.00     0.074 A 
ATOM     50  C   UNL A   1      45.214  29.878  33.961  1.00  0.00     0.029 A 
ATOM     51  N   UNL A   1      44.270  28.676  32.346  1.00  0.00    -0.354 N 
ATOM     52  N   UNL A   1      44.059  26.414  30.497  1.00  0.00    -0.248 NA
ATOM     53  C   UNL A   1      44.977  24.513  29.504  1.00  0.00     0.031 C 
ATOM     54  C   UNL A   1      46.070  28.819  33.641  1.00  0.00     0.029 A 
ATOM     55  C   UNL A   1      45.473  28.059  32.649  1.00  0.00     0.049 A 
ATOM     56  H   UNL A   1      43.627  28.361  31.671  1.00  0.00     0.167 HD
ATOM     57  C   UNL A   1      45.303  26.161  31.062  1.00  0.00     0.074 A 
ATOM     58  C   UNL A   1      45.811  24.962  30.432  1.00  0.00     0.031 C 
ATOM     59  C   UNL A   1      45.963  26.860  32.018  1.00  0.00     0.037 A 
BRANCH  46  60
ATOM     60  C   UNL A   1      42.977  31.909  33.946  1.00  0.00     0.064 A 
ATOM     61  C   UNL A   1      42.359  31.896  35.204  1.00  0.00     0.173 A 
ATOM     62  C   UNL A   1      43.629  33.084  33.545  1.00  0.00     0.173 A 
ATOM     63  F   UNL A   1      41.711  30.800  35.627  1.00  0.00    -0.203 F 
ATOM     64  C   UNL A   1      42.374  33.025  36.021  1.00  0.00     0.198 A 
ATOM     65  C   UNL A   1      43.665  34.202  34.374  1.00  0.00     0.198 A 
ATOM     66  F   UNL A   1      44.240  33.146  32.351  1.00  0.00    -0.203 F 
ATOM     67  F   UNL A   1      41.742  33.004  37.202  1.00  0.00    -0.200 F 
ATOM     68  C   UNL A   1      43.032  34.174  35.607  1.00  0.00     0.200 A 
ATOM     69  F   UNL A   1      44.309  35.308  33.977  1.00  0.00    -0.200 F 
ATOM     70  F   UNL A   1      43.051  35.257  36.396  1.00  0.00    -0.200 F 
ENDBRANCH  46  60
BRANCH  47  71
ATOM     71  C   UNL A   1      42.640  24.060  27.802  1.00  0.00     0.064 A 
ATOM     72  C   UNL A   1      42.272  22.785  28.250  1.00  0.00     0.173 A 
ATOM     73  C   UNL A   1      43.000  24.199  26.453  1.00  0.00     0.173 A 
ATOM     74  F   UNL A   1      41.946  22.596  29.537  1.00  0.00    -0.203 F 
ATOM     75  C   UNL A   1      42.278  21.690  27.389  1.00  0.00     0.198 A 
ATOM     76  C   UNL A   1      42.981  23.109  25.586  1.00  0.00     0.198 A 
ATOM     77  F   UNL A   1      43.366  25.398  25.977  1.00  0.00    -0.203 F 
ATOM     78  F   UNL A   1      41.963  20.472  27.853  1.00  0.00    -0.200 F 
ATOM     79  C   UNL A   1      42.627  21.853  26.056  1.00  0.00     0.200 A 
ATOM     80  F   UNL A   1      43.311  23.274  24.298  1.00  0.00    -0.200 F 
ATOM     81  F   UNL A   1      42.631  20.801  25.228  1.00  0.00    -0.200 F 
ENDBRANCH  47  71
BRANCH  59  82
ATOM     82  C   UNL A   1      47.293  26.329  32.466  1.00  0.00     0.064 A 
ATOM     83  C   UNL A   1      48.493  26.771  31.891  1.00  0.00     0.173 A 
ATOM     84  C   UNL A   1      47.369  25.399  33.514  1.00  0.00     0.173 A 
ATOM     85  F   UNL A   1      48.473  27.649  30.876  1.00  0.00    -0.203 F 
ATOM     86  C   UNL A   1      49.721  26.284  32.334  1.00  0.00     0.198 A 
ATOM     87  C   UNL A   1      48.599  24.935  33.973  1.00  0.00     0.198 A 
ATOM     88  F   UNL A   1      46.250  24.950  34.103  1.00  0.00    -0.203 F 
ATOM     89  F   UNL A   1      50.852  26.687  31.742  1.00  0.00    -0.200 F 
ATOM     90  C   UNL A   1      49.773  25.373  33.378  1.00  0.00     0.200 A 
ATOM     91  F   UNL A   1      48.649  24.064  34.990  1.00  0.00    -0.200 F 
ATOM     92  F   UNL A   1      50.955  24.910  33.808  1.00  0.00    -0.200 F 
ENDBRANCH  59  82
ENDBRANCH  33  34
ENDBRANCH  26  28
ENDBRANCH  25  26
ENDBRANCH  24  25
ENDBRANCH  23  24
ENDBRANCH  22  23
ENDBRANCH   1  22
TORSDOF 17
ENDMDL
MODEL 3
REMARK VINA RESULT:     -11.4      1.651      3.299
REMARK SMILES C=Cc1cccc(-c2ccc([C@@H](C)C(=O)OCCOCCOC(=O)c3ccc(-c4c5nc(c(-c6c(F)c(F)c(F)c(F)c6F)c6ccc([nH]6)c(-c6c(F)c(F)c(F)c(F)c6F)c6nc(c(-c7c(F)c(F)c(F)c(F)c7F)c7ccc4[nH]7)C=C6)C=C5)cc3)cc2)c1
REMARK SMILES IDX 18 1 17 2 16 3 14 4 15 5 12 6 13 7 11 8 8 9 9 10 89 11 10 12
REMARK SMILES IDX 88 13 7 14 3 15 4 16 90 17 5 18 6 19 2 20 1 21 19 22 20 23
REMARK SMILES IDX 21 24 22 25 23 26 24 27 25 28 26 29 87 30 27 31 86 32 28 33
REMARK SMILES IDX 29 34 30 35 80 36 31 37 85 38 79 39 81 40 32 41 84 42 78 43
REMARK SMILES IDX 77 44 33 46 65 47 45 48 64 49 46 50 49 51 63 52 82 53 47 54
REMARK SMILES IDX 48 55 62 57 83 58 50 59 34 60 35 61 43 62 36 63 37 64 41 65
REMARK SMILES IDX 44 66 38 67 39 68 42 69 40 70 66 71 67 72 75 73 68 74 69 75
REMARK SMILES IDX 73 76 76 77 70 78 71 79 74 80 72 81 51 82 52 83 60 84 53 85
REMARK SMILES IDX 54 86 58 87 61 88 55 89 56 90 59 91 57 92
REMARK H PARENT 81 45 49 56
REMARK Flexibility Score: inf
ROOT
ATOM      1  C   UNL A   1      39.637  21.598  26.499  1.00  0.00     0.202 C 
ENDROOT
BRANCH   1   2
ATOM      2  C   UNL A   1      38.458  21.626  25.523  1.00  0.00     0.261 C 
BRANCH   2   3
ATOM      3  O   UNL A   1      37.333  22.312  26.103  1.00  0.00    -0.463 OA
BRANCH   3   4
ATOM      4  C   UNL A   1      36.108  21.951  25.641  1.00  0.00     0.313 C 
ATOM      5  O   UNL A   1      35.912  21.381  24.572  1.00  0.00    -0.252 OA
BRANCH   4   6
ATOM      6  C   UNL A   1      34.961  22.358  26.556  1.00  0.00     0.126 C 
ATOM      7  C   UNL A   1      34.031  21.163  26.754  1.00  0.00     0.025 C 
BRANCH   6   8
ATOM      8  C   UNL A   1      34.192  23.629  26.205  1.00  0.00    -0.034 A 
ATOM      9  C   UNL A   1      32.677  25.900  25.386  1.00  0.00    -0.018 A 
ATOM     10  C   UNL A   1      34.078  25.900  25.326  1.00  0.00     0.009 A 
ATOM     11  C   UNL A   1      32.046  24.755  25.893  1.00  0.00     0.009 A 
ATOM     12  C   UNL A   1      34.825  24.784  25.729  1.00  0.00     0.005 A 
ATOM     13  C   UNL A   1      32.791  23.638  26.295  1.00  0.00     0.005 A 
BRANCH   9  14
ATOM     14  C   UNL A   1      31.893  27.040  24.883  1.00  0.00    -0.018 A 
ATOM     15  C   UNL A   1      29.872  27.956  23.837  1.00  0.00    -0.026 A 
ATOM     16  C   UNL A   1      30.441  29.234  23.874  1.00  0.00     0.008 A 
ATOM     17  C   UNL A   1      30.611  26.867  24.330  1.00  0.00     0.016 A 
ATOM     18  C   UNL A   1      31.710  29.428  24.417  1.00  0.00     0.001 A 
ATOM     19  C   UNL A   1      32.425  28.340  24.919  1.00  0.00     0.009 A 
BRANCH  15  20
ATOM     20  C   UNL A   1      28.545  27.797  23.230  1.00  0.00     0.000 C 
ATOM     21  C   UNL A   1      27.670  28.796  23.060  1.00  0.00     0.009 C 
ENDBRANCH  15  20
ENDBRANCH   9  14
ENDBRANCH   6   8
ENDBRANCH   4   6
ENDBRANCH   3   4
ENDBRANCH   2   3
ENDBRANCH   1   2
BRANCH   1  22
ATOM     22  O   UNL A   1      40.743  20.783  26.108  1.00  0.00    -0.374 OA
BRANCH  22  23
ATOM     23  C   UNL A   1      42.012  21.086  26.690  1.00  0.00     0.202 C 
BRANCH  23  24
ATOM     24  C   UNL A   1      43.086  21.595  25.723  1.00  0.00     0.261 C 
BRANCH  24  25
ATOM     25  O   UNL A   1      42.623  22.712  24.942  1.00  0.00    -0.460 OA
BRANCH  25  26
ATOM     26  C   UNL A   1      43.384  23.824  25.033  1.00  0.00     0.338 C 
ATOM     27  O   UNL A   1      44.402  24.085  24.405  1.00  0.00    -0.246 OA
BRANCH  26  28
ATOM     28  C   UNL A   1      42.731  24.817  25.906  1.00  0.00     0.060 A 
ATOM     29  C   UNL A   1      43.453  25.978  26.211  1.00  0.00     0.016 A 
ATOM     30  C   UNL A   1      41.482  24.587  26.486  1.00  0.00     0.016 A 
ATOM     31  C   UNL A   1      42.955  26.888  27.141  1.00  0.00     0.010 A 
ATOM     32  C   UNL A   1      40.985  25.498  27.427  1.00  0.00     0.010 A 
ATOM     33  C   UNL A   1      41.738  26.631  27.786  1.00  0.00    -0.014 A 
BRANCH  33  34
ATOM     34  C   UNL A   1      41.342  27.470  28.944  1.00  0.00     0.031 A 
ATOM     35  C   UNL A   1      42.144  27.384  30.215  1.00  0.00     0.074 A 
ATOM     36  C   UNL A   1      40.317  28.334  28.854  1.00  0.00     0.049 A 
ATOM     37  N   UNL A   1      41.982  28.023  31.345  1.00  0.00    -0.248 NA
ATOM     38  C   UNL A   1      43.284  26.454  30.207  1.00  0.00     0.031 C 
ATOM     39  C   UNL A   1      39.491  28.541  27.666  1.00  0.00     0.029 A 
ATOM     40  N   UNL A   1      39.797  29.200  29.782  1.00  0.00    -0.354 N 
ATOM     41  C   UNL A   1      42.995  27.573  32.182  1.00  0.00     0.074 A 
ATOM     42  C   UNL A   1      43.749  26.584  31.441  1.00  0.00     0.031 C 
ATOM     43  C   UNL A   1      38.561  29.471  27.941  1.00  0.00     0.029 A 
ATOM     44  C   UNL A   1      38.709  29.905  29.329  1.00  0.00     0.049 A 
ATOM     45  H   UNL A   1      40.168  29.306  30.689  1.00  0.00     0.167 HD
ATOM     46  C   UNL A   1      43.278  27.955  33.451  1.00  0.00     0.037 A 
ATOM     47  C   UNL A   1      37.916  30.785  29.969  1.00  0.00     0.037 A 
ATOM     48  C   UNL A   1      42.531  28.939  34.188  1.00  0.00     0.049 A 
ATOM     49  C   UNL A   1      38.210  31.144  31.403  1.00  0.00     0.074 A 
ATOM     50  C   UNL A   1      42.752  29.408  35.471  1.00  0.00     0.029 A 
ATOM     51  N   UNL A   1      41.412  29.603  33.708  1.00  0.00    -0.354 N 
ATOM     52  N   UNL A   1      39.184  30.732  32.178  1.00  0.00    -0.248 NA
ATOM     53  C   UNL A   1      37.293  32.093  32.051  1.00  0.00     0.031 C 
ATOM     54  C   UNL A   1      41.739  30.321  35.785  1.00  0.00     0.029 A 
ATOM     55  C   UNL A   1      40.915  30.457  34.680  1.00  0.00     0.049 A 
ATOM     56  H   UNL A   1      41.027  29.484  32.810  1.00  0.00     0.167 HD
ATOM     57  C   UNL A   1      39.015  31.389  33.390  1.00  0.00     0.074 A 
ATOM     58  C   UNL A   1      37.850  32.236  33.246  1.00  0.00     0.031 C 
ATOM     59  C   UNL A   1      39.758  31.299  34.520  1.00  0.00     0.037 A 
BRANCH  46  60
ATOM     60  C   UNL A   1      44.436  27.289  34.130  1.00  0.00     0.064 A 
ATOM     61  C   UNL A   1      45.723  27.846  34.108  1.00  0.00     0.173 A 
ATOM     62  C   UNL A   1      44.248  26.095  34.842  1.00  0.00     0.173 A 
ATOM     63  F   UNL A   1      45.956  28.980  33.430  1.00  0.00    -0.203 F 
ATOM     64  C   UNL A   1      46.785  27.219  34.754  1.00  0.00     0.198 A 
ATOM     65  C   UNL A   1      45.308  25.484  35.509  1.00  0.00     0.198 A 
ATOM     66  F   UNL A   1      43.035  25.523  34.897  1.00  0.00    -0.203 F 
ATOM     67  F   UNL A   1      48.015  27.747  34.686  1.00  0.00    -0.200 F 
ATOM     68  C   UNL A   1      46.576  26.043  35.460  1.00  0.00     0.200 A 
ATOM     69  F   UNL A   1      45.101  24.353  36.197  1.00  0.00    -0.200 F 
ATOM     70  F   UNL A   1      47.597  25.444  36.086  1.00  0.00    -0.200 F 
ENDBRANCH  46  60
BRANCH  47  71
ATOM     71  C   UNL A   1      36.757  31.388  29.262  1.00  0.00     0.064 A 
ATOM     72  C   UNL A   1      36.746  32.745  28.914  1.00  0.00     0.173 A 
ATOM     73  C   UNL A   1      35.628  30.621  28.937  1.00  0.00     0.173 A 
ATOM     74  F   UNL A   1      37.790  33.525  29.228  1.00  0.00    -0.203 F 
ATOM     75  C   UNL A   1      35.644  33.316  28.281  1.00  0.00     0.198 A 
ATOM     76  C   UNL A   1      34.538  31.186  28.281  1.00  0.00     0.198 A 
ATOM     77  F   UNL A   1      35.589  29.318  29.254  1.00  0.00    -0.203 F 
ATOM     78  F   UNL A   1      35.641  34.626  27.998  1.00  0.00    -0.200 F 
ATOM     79  C   UNL A   1      34.543  32.535  27.960  1.00  0.00     0.200 A 
ATOM     80  F   UNL A   1      33.480  30.427  27.965  1.00  0.00    -0.200 F 
ATOM     81  F   UNL A   1      33.485  33.084  27.349  1.00  0.00    -0.200 F 
ENDBRANCH  47  71
BRANCH  59  82
ATOM     82  C   UNL A   1      39.356  32.162  35.681  1.00  0.00     0.064 A 
ATOM     83  C   UNL A   1      39.832  33.474  35.820  1.00  0.00     0.173 A 
ATOM     84  C   UNL A   1      38.450  31.685  36.639  1.00  0.00     0.173 A 
ATOM     85  F   UNL A   1      40.711  33.972  34.937  1.00  0.00    -0.203 F 
ATOM     86  C   UNL A   1      39.431  34.269  36.892  1.00  0.00     0.198 A 
ATOM     87  C   UNL A   1      38.031  32.492  37.694  1.00  0.00     0.198 A 
ATOM     88  F   UNL A   1      37.961  30.439  36.547  1.00  0.00    -0.203 F 
ATOM     89  F   UNL A   1      39.931  35.505  37.029  1.00  0.00    -0.200 F 
ATOM     90  C   UNL A   1      38.527  33.780  37.822  1.00  0.00     0.200 A 
ATOM     91  F   UNL A   1      37.148  32.023  38.586  1.00  0.00    -0.200 F 
ATOM     92  F   UNL A   1      38.138  34.549  38.849  1.00  0.00    -0.200 F 
ENDBRANCH  59  82
ENDBRANCH  33  34
ENDBRANCH  26  28
ENDBRANCH  25  26
ENDBRANCH  24  25
ENDBRANCH  23  24
ENDBRANCH  22  23
ENDBRANCH   1  22
TORSDOF 17
ENDMDL
