MODEL 1
REMARK VINA RESULT:     -10.6      0.000      0.000
REMARK SMILES CC[C@H](C)[C@@H](Nc1ccc(Cl)c(Br)c1)C(=O)OCCOCCOC(=O)c1ccc(-c2c3nc(c(-c4c(F)c(F)c(F)c(F)c4F)c4ccc([nH]4)c(-c4c(F)c(F)c(F)c(F)c4F)c4nc(c(-c5c(F)c(F)c(F)c(F)c5F)c5ccc2[nH]5)C=C4)C=C3)cc1
REMARK SMILES IDX 20 1 19 2 18 3 17 4 15 5 16 6 5 7 3 8 4 9 2 10 1 11 6 12
REMARK SMILES IDX 7 14 8 15 14 16 9 17 12 18 10 19 13 20 11 21 21 22 22 23
REMARK SMILES IDX 23 24 24 25 25 26 26 27 27 28 88 29 28 30 87 31 29 32 30 33
REMARK SMILES IDX 31 34 81 35 32 36 86 37 80 38 82 39 33 40 85 41 79 42 78 43
REMARK SMILES IDX 34 45 66 46 46 47 65 48 47 49 50 50 64 51 83 52 48 53 49 54
REMARK SMILES IDX 63 56 84 57 51 58 35 59 36 60 44 61 37 62 38 63 42 64 45 65
REMARK SMILES IDX 39 66 40 67 43 68 41 69 67 70 68 71 76 72 69 73 70 74 74 75
REMARK SMILES IDX 77 76 71 77 72 78 75 79 73 80 52 81 53 82 61 83 54 84 55 85
REMARK SMILES IDX 59 86 62 87 56 88 57 89 60 90 58 91
REMARK H PARENT 6 13 82 44 50 55
REMARK Flexibility Score: inf
ROOT
ATOM      1  O   UNL A   1      35.462  21.244  25.817  1.00  0.00    -0.374 OA
ENDROOT
BRANCH   1   2
ATOM      2  C   UNL A   1      34.047  21.374  25.826  1.00  0.00     0.202 C 
BRANCH   2   3
ATOM      3  C   UNL A   1      33.445  22.707  26.274  1.00  0.00     0.261 C 
BRANCH   3   4
ATOM      4  O   UNL A   1      32.223  23.087  25.614  1.00  0.00    -0.462 OA
BRANCH   4   5
ATOM      5  C   UNL A   1      31.588  24.156  26.180  1.00  0.00     0.328 C 
ATOM      6  O   UNL A   1      31.011  24.117  27.265  1.00  0.00    -0.250 OA
BRANCH   5   7
ATOM      7  C   UNL A   1      31.554  25.405  25.275  1.00  0.00     0.192 C 
BRANCH   7   8
ATOM      8  C   UNL A   1      30.731  25.277  23.950  1.00  0.00     0.019 C 
ATOM      9  C   UNL A   1      29.553  26.274  23.981  1.00  0.00     0.010 C 
BRANCH   8  10
ATOM     10  C   UNL A   1      31.610  25.439  22.689  1.00  0.00     0.002 C 
ATOM     11  C   UNL A   1      33.083  25.753  22.913  1.00  0.00     0.004 C 
ENDBRANCH   8  10
ENDBRANCH   7   8
BRANCH   7  12
ATOM     12  N   UNL A   1      31.166  26.655  25.987  1.00  0.00    -0.372 N 
ATOM     13  H   UNL A   1      30.245  26.731  26.330  1.00  0.00     0.161 HD
BRANCH  12  14
ATOM     14  C   UNL A   1      32.031  27.715  26.194  1.00  0.00     0.036 A 
ATOM     15  C   UNL A   1      33.379  27.520  26.509  1.00  0.00     0.027 A 
ATOM     16  C   UNL A   1      31.529  29.019  26.206  1.00  0.00     0.043 A 
ATOM     17  C   UNL A   1      34.192  28.589  26.898  1.00  0.00     0.024 A 
ATOM     18  C   UNL A   1      32.337  30.099  26.587  1.00  0.00     0.038 A 
ATOM     19  C   UNL A   1      33.667  29.879  26.955  1.00  0.00     0.055 A 
ATOM     20  Br  UNL A   1      31.535  31.821  26.624  1.00  0.00    -0.049 Br
ATOM     21  Cl  UNL A   1      34.701  31.141  27.522  1.00  0.00    -0.083 Cl
ENDBRANCH  12  14
ENDBRANCH   7  12
ENDBRANCH   5   7
ENDBRANCH   4   5
ENDBRANCH   3   4
ENDBRANCH   2   3
ENDBRANCH   1   2
BRANCH   1  22
ATOM     22  C   UNL A   1      36.032  20.217  25.009  1.00  0.00     0.202 C 
BRANCH  22  23
ATOM     23  C   UNL A   1      37.565  20.150  24.942  1.00  0.00     0.261 C 
BRANCH  23  24
ATOM     24  O   UNL A   1      38.190  21.361  25.414  1.00  0.00    -0.460 OA
BRANCH  24  25
ATOM     25  C   UNL A   1      39.336  21.176  26.111  1.00  0.00     0.338 C 
ATOM     26  O   UNL A   1      40.028  20.167  26.141  1.00  0.00    -0.246 OA
BRANCH  25  27
ATOM     27  C   UNL A   1      39.791  22.451  26.701  1.00  0.00     0.060 A 
ATOM     28  C   UNL A   1      40.775  22.505  27.688  1.00  0.00     0.016 A 
ATOM     29  C   UNL A   1      39.247  23.632  26.177  1.00  0.00     0.016 A 
ATOM     30  C   UNL A   1      41.255  23.751  28.109  1.00  0.00     0.010 A 
ATOM     31  C   UNL A   1      39.725  24.871  26.599  1.00  0.00     0.010 A 
ATOM     32  C   UNL A   1      40.756  24.943  27.544  1.00  0.00    -0.014 A 
BRANCH  32  33
ATOM     33  C   UNL A   1      41.410  26.249  27.811  1.00  0.00     0.031 A 
ATOM     34  C   UNL A   1      42.815  26.535  27.376  1.00  0.00     0.074 A 
ATOM     35  C   UNL A   1      40.737  27.164  28.535  1.00  0.00     0.049 A 
ATOM     36  N   UNL A   1      43.514  27.633  27.522  1.00  0.00    -0.248 NA
ATOM     37  C   UNL A   1      43.535  25.445  26.705  1.00  0.00     0.031 C 
ATOM     38  C   UNL A   1      39.391  26.977  29.075  1.00  0.00     0.029 A 
ATOM     39  N   UNL A   1      41.091  28.425  28.948  1.00  0.00    -0.354 N 
ATOM     40  C   UNL A   1      44.750  27.376  26.948  1.00  0.00     0.074 A 
ATOM     41  C   UNL A   1      44.724  25.998  26.500  1.00  0.00     0.031 C 
ATOM     42  C   UNL A   1      39.019  28.092  29.721  1.00  0.00     0.029 A 
ATOM     43  C   UNL A   1      40.110  29.061  29.669  1.00  0.00     0.049 A 
ATOM     44  H   UNL A   1      41.964  28.834  28.746  1.00  0.00     0.167 HD
ATOM     45  C   UNL A   1      45.799  28.220  26.790  1.00  0.00     0.037 A 
ATOM     46  C   UNL A   1      40.087  30.288  30.224  1.00  0.00     0.037 A 
ATOM     47  C   UNL A   1      45.828  29.585  27.258  1.00  0.00     0.049 A 
ATOM     48  C   UNL A   1      41.274  31.195  30.068  1.00  0.00     0.074 A 
ATOM     49  C   UNL A   1      46.823  30.532  27.094  1.00  0.00     0.029 A 
ATOM     50  N   UNL A   1      44.824  30.192  28.001  1.00  0.00    -0.354 N 
ATOM     51  N   UNL A   1      42.400  30.978  29.433  1.00  0.00    -0.248 NA
ATOM     52  C   UNL A   1      41.185  32.520  30.697  1.00  0.00     0.031 C 
ATOM     53  C   UNL A   1      46.452  31.688  27.789  1.00  0.00     0.029 A 
ATOM     54  C   UNL A   1      45.194  31.487  28.335  1.00  0.00     0.049 A 
ATOM     55  H   UNL A   1      43.973  29.765  28.255  1.00  0.00     0.167 HD
ATOM     56  C   UNL A   1      43.147  32.139  29.572  1.00  0.00     0.074 A 
ATOM     57  C   UNL A   1      42.338  33.067  30.336  1.00  0.00     0.031 C 
ATOM     58  C   UNL A   1      44.393  32.406  29.105  1.00  0.00     0.037 A 
BRANCH  45  59
ATOM     59  C   UNL A   1      47.013  27.694  26.075  1.00  0.00     0.064 A 
ATOM     60  C   UNL A   1      47.111  27.734  24.675  1.00  0.00     0.173 A 
ATOM     61  C   UNL A   1      48.112  27.199  26.794  1.00  0.00     0.173 A 
ATOM     62  F   UNL A   1      46.090  28.201  23.940  1.00  0.00    -0.203 F 
ATOM     63  C   UNL A   1      48.249  27.269  24.022  1.00  0.00     0.198 A 
ATOM     64  C   UNL A   1      49.262  26.766  26.139  1.00  0.00     0.198 A 
ATOM     65  F   UNL A   1      48.080  27.153  28.134  1.00  0.00    -0.203 F 
ATOM     66  F   UNL A   1      48.303  27.280  22.683  1.00  0.00    -0.200 F 
ATOM     67  C   UNL A   1      49.326  26.793  24.754  1.00  0.00     0.200 A 
ATOM     68  F   UNL A   1      50.311  26.327  26.849  1.00  0.00    -0.200 F 
ATOM     69  F   UNL A   1      50.428  26.361  24.124  1.00  0.00    -0.200 F 
ENDBRANCH  45  59
BRANCH  46  70
ATOM     70  C   UNL A   1      38.859  30.736  30.929  1.00  0.00     0.064 A 
ATOM     71  C   UNL A   1      38.749  30.613  32.320  1.00  0.00     0.173 A 
ATOM     72  C   UNL A   1      37.805  31.356  30.241  1.00  0.00     0.173 A 
ATOM     73  F   UNL A   1      39.723  30.011  33.017  1.00  0.00    -0.203 F 
ATOM     74  C   UNL A   1      37.633  31.098  32.998  1.00  0.00     0.198 A 
ATOM     75  C   UNL A   1      36.701  31.864  30.923  1.00  0.00     0.198 A 
ATOM     76  F   UNL A   1      37.866  31.503  28.910  1.00  0.00    -0.203 F 
ATOM     77  F   UNL A   1      37.545  30.951  34.328  1.00  0.00    -0.200 F 
ATOM     78  C   UNL A   1      36.616  31.733  32.301  1.00  0.00     0.200 A 
ATOM     79  F   UNL A   1      35.731  32.494  30.249  1.00  0.00    -0.200 F 
ATOM     80  F   UNL A   1      35.556  32.223  32.959  1.00  0.00    -0.200 F 
ENDBRANCH  46  70
BRANCH  58  81
ATOM     81  C   UNL A   1      44.972  33.761  29.401  1.00  0.00     0.064 A 
ATOM     82  C   UNL A   1      44.742  34.860  28.558  1.00  0.00     0.173 A 
ATOM     83  C   UNL A   1      45.706  33.984  30.577  1.00  0.00     0.173 A 
ATOM     84  F   UNL A   1      44.061  34.700  27.414  1.00  0.00    -0.203 F 
ATOM     85  C   UNL A   1      45.234  36.124  28.875  1.00  0.00     0.198 A 
ATOM     86  C   UNL A   1      46.170  35.254  30.907  1.00  0.00     0.198 A 
ATOM     87  F   UNL A   1      45.953  32.970  31.421  1.00  0.00    -0.203 F 
ATOM     88  F   UNL A   1      45.032  37.149  28.037  1.00  0.00    -0.200 F 
ATOM     89  C   UNL A   1      45.936  36.323  30.054  1.00  0.00     0.200 A 
ATOM     90  F   UNL A   1      46.834  35.448  32.054  1.00  0.00    -0.200 F 
ATOM     91  F   UNL A   1      46.392  37.544  30.367  1.00  0.00    -0.200 F 
ENDBRANCH  58  81
ENDBRANCH  32  33
ENDBRANCH  25  27
ENDBRANCH  24  25
ENDBRANCH  23  24
ENDBRANCH  22  23
ENDBRANCH   1  22
TORSDOF 18
ENDMDL
MODEL 2
REMARK VINA RESULT:     -10.5      1.063      7.625
REMARK SMILES CC[C@H](C)[C@@H](Nc1ccc(Cl)c(Br)c1)C(=O)OCCOCCOC(=O)c1ccc(-c2c3nc(c(-c4c(F)c(F)c(F)c(F)c4F)c4ccc([nH]4)c(-c4c(F)c(F)c(F)c(F)c4F)c4nc(c(-c5c(F)c(F)c(F)c(F)c5F)c5ccc2[nH]5)C=C4)C=C3)cc1
REMARK SMILES IDX 20 1 19 2 18 3 17 4 15 5 16 6 5 7 3 8 4 9 2 10 1 11 6 12
REMARK SMILES IDX 7 14 8 15 14 16 9 17 12 18 10 19 13 20 11 21 21 22 22 23
REMARK SMILES IDX 23 24 24 25 25 26 26 27 27 28 88 29 28 30 87 31 29 32 30 33
REMARK SMILES IDX 31 34 81 35 32 36 86 37 80 38 82 39 33 40 85 41 79 42 78 43
REMARK SMILES IDX 34 45 66 46 46 47 65 48 47 49 50 50 64 51 83 52 48 53 49 54
REMARK SMILES IDX 63 56 84 57 51 58 35 59 36 60 44 61 37 62 38 63 42 64 45 65
REMARK SMILES IDX 39 66 40 67 43 68 41 69 67 70 68 71 76 72 69 73 70 74 74 75
REMARK SMILES IDX 77 76 71 77 72 78 75 79 73 80 52 81 53 82 61 83 54 84 55 85
REMARK SMILES IDX 59 86 62 87 56 88 57 89 60 90 58 91
REMARK H PARENT 6 13 82 44 50 55
REMARK Flexibility Score: inf
ROOT
ATOM      1  O   UNL A   1      35.189  21.378  26.413  1.00  0.00    -0.374 OA
ENDROOT
BRANCH   1   2
ATOM      2  C   UNL A   1      33.878  21.922  26.487  1.00  0.00     0.202 C 
BRANCH   2   3
ATOM      3  C   UNL A   1      33.276  22.537  25.222  1.00  0.00     0.261 C 
BRANCH   3   4
ATOM      4  O   UNL A   1      33.031  23.954  25.280  1.00  0.00    -0.462 OA
BRANCH   4   5
ATOM      5  C   UNL A   1      33.864  24.701  24.495  1.00  0.00     0.328 C 
ATOM      6  O   UNL A   1      34.920  24.286  24.024  1.00  0.00    -0.250 OA
BRANCH   5   7
ATOM      7  C   UNL A   1      33.415  26.169  24.341  1.00  0.00     0.192 C 
BRANCH   7   8
ATOM      8  C   UNL A   1      32.769  26.556  22.969  1.00  0.00     0.019 C 
ATOM      9  C   UNL A   1      33.630  27.640  22.286  1.00  0.00     0.010 C 
BRANCH   8  10
ATOM     10  C   UNL A   1      32.532  25.329  22.060  1.00  0.00     0.002 C 
ATOM     11  C   UNL A   1      32.532  25.578  20.557  1.00  0.00     0.004 C 
ENDBRANCH   8  10
ENDBRANCH   7   8
BRANCH   7  12
ATOM     12  N   UNL A   1      32.553  26.655  25.456  1.00  0.00    -0.372 N 
ATOM     13  H   UNL A   1      31.786  26.101  25.729  1.00  0.00     0.161 HD
BRANCH  12  14
ATOM     14  C   UNL A   1      32.775  27.844  26.129  1.00  0.00     0.036 A 
ATOM     15  C   UNL A   1      31.773  28.808  26.279  1.00  0.00     0.027 A 
ATOM     16  C   UNL A   1      34.064  28.152  26.573  1.00  0.00     0.043 A 
ATOM     17  C   UNL A   1      32.061  30.075  26.792  1.00  0.00     0.024 A 
ATOM     18  C   UNL A   1      34.362  29.417  27.097  1.00  0.00     0.038 A 
ATOM     19  C   UNL A   1      33.361  30.389  27.186  1.00  0.00     0.055 A 
ATOM     20  Br  UNL A   1      36.159  29.747  27.617  1.00  0.00    -0.049 Br
ATOM     21  Cl  UNL A   1      33.667  31.998  27.735  1.00  0.00    -0.083 Cl
ENDBRANCH  12  14
ENDBRANCH   7  12
ENDBRANCH   5   7
ENDBRANCH   4   5
ENDBRANCH   3   4
ENDBRANCH   2   3
ENDBRANCH   1   2
BRANCH   1  22
ATOM     22  C   UNL A   1      35.577  20.736  25.201  1.00  0.00     0.202 C 
BRANCH  22  23
ATOM     23  C   UNL A   1      37.076  20.471  25.000  1.00  0.00     0.261 C 
BRANCH  23  24
ATOM     24  O   UNL A   1      37.887  21.616  25.332  1.00  0.00    -0.460 OA
BRANCH  24  25
ATOM     25  C   UNL A   1      38.981  21.341  26.082  1.00  0.00     0.338 C 
ATOM     26  O   UNL A   1      39.577  20.275  26.157  1.00  0.00    -0.246 OA
BRANCH  25  27
ATOM     27  C   UNL A   1      39.521  22.581  26.677  1.00  0.00     0.060 A 
ATOM     28  C   UNL A   1      40.592  22.572  27.571  1.00  0.00     0.016 A 
ATOM     29  C   UNL A   1      38.965  23.794  26.250  1.00  0.00     0.016 A 
ATOM     30  C   UNL A   1      41.141  23.789  27.993  1.00  0.00     0.010 A 
ATOM     31  C   UNL A   1      39.512  25.004  26.673  1.00  0.00     0.010 A 
ATOM     32  C   UNL A   1      40.626  25.013  27.521  1.00  0.00    -0.014 A 
BRANCH  32  33
ATOM     33  C   UNL A   1      41.337  26.292  27.777  1.00  0.00     0.031 A 
ATOM     34  C   UNL A   1      40.685  27.430  28.501  1.00  0.00     0.074 A 
ATOM     35  C   UNL A   1      42.575  26.447  27.270  1.00  0.00     0.049 A 
ATOM     36  N   UNL A   1      41.183  28.600  28.813  1.00  0.00    -0.248 NA
ATOM     37  C   UNL A   1      39.288  27.239  28.912  1.00  0.00     0.031 C 
ATOM     38  C   UNL A   1      43.290  25.438  26.488  1.00  0.00     0.029 A 
ATOM     39  N   UNL A   1      43.447  27.507  27.326  1.00  0.00    -0.354 N 
ATOM     40  C   UNL A   1      40.171  29.281  29.473  1.00  0.00     0.074 A 
ATOM     41  C   UNL A   1      39.010  28.412  29.466  1.00  0.00     0.031 C 
ATOM     42  C   UNL A   1      44.501  25.914  26.163  1.00  0.00     0.029 A 
ATOM     43  C   UNL A   1      44.639  27.270  26.686  1.00  0.00     0.049 A 
ATOM     44  H   UNL A   1      43.237  28.354  27.782  1.00  0.00     0.167 HD
ATOM     45  C   UNL A   1      40.215  30.507  30.049  1.00  0.00     0.037 A 
ATOM     46  C   UNL A   1      45.724  28.054  26.537  1.00  0.00     0.037 A 
ATOM     47  C   UNL A   1      41.367  31.377  30.034  1.00  0.00     0.049 A 
ATOM     48  C   UNL A   1      45.739  29.424  27.154  1.00  0.00     0.074 A 
ATOM     49  C   UNL A   1      41.523  32.611  30.638  1.00  0.00     0.029 A 
ATOM     50  N   UNL A   1      42.552  31.114  29.360  1.00  0.00    -0.354 N 
ATOM     51  N   UNL A   1      44.812  30.018  27.865  1.00  0.00    -0.248 NA
ATOM     52  C   UNL A   1      46.952  30.229  26.955  1.00  0.00     0.031 C 
ATOM     53  C   UNL A   1      42.774  33.123  30.281  1.00  0.00     0.029 A 
ATOM     54  C   UNL A   1      43.429  32.180  29.504  1.00  0.00     0.049 A 
ATOM     55  H   UNL A   1      42.743  30.291  28.853  1.00  0.00     0.167 HD
ATOM     56  C   UNL A   1      45.333  31.257  28.212  1.00  0.00     0.074 A 
ATOM     57  C   UNL A   1      46.666  31.322  27.648  1.00  0.00     0.031 C 
ATOM     58  C   UNL A   1      44.752  32.248  28.933  1.00  0.00     0.037 A 
BRANCH  45  59
ATOM     59  C   UNL A   1      38.977  30.988  30.755  1.00  0.00     0.064 A 
ATOM     60  C   UNL A   1      38.746  30.692  32.108  1.00  0.00     0.173 A 
ATOM     61  C   UNL A   1      38.043  31.799  30.094  1.00  0.00     0.173 A 
ATOM     62  F   UNL A   1      39.610  29.924  32.789  1.00  0.00    -0.203 F 
ATOM     63  C   UNL A   1      37.611  31.164  32.762  1.00  0.00     0.198 A 
ATOM     64  C   UNL A   1      36.925  32.296  30.760  1.00  0.00     0.198 A 
ATOM     65  F   UNL A   1      38.221  32.127  28.805  1.00  0.00    -0.203 F 
ATOM     66  F   UNL A   1      37.392  30.835  34.042  1.00  0.00    -0.200 F 
ATOM     67  C   UNL A   1      36.706  31.971  32.090  1.00  0.00     0.200 A 
ATOM     68  F   UNL A   1      36.063  33.095  30.116  1.00  0.00    -0.200 F 
ATOM     69  F   UNL A   1      35.621  32.437  32.725  1.00  0.00    -0.200 F 
ENDBRANCH  45  59
BRANCH  46  70
ATOM     70  C   UNL A   1      46.906  27.518  25.815  1.00  0.00     0.064 A 
ATOM     71  C   UNL A   1      47.040  27.700  24.432  1.00  0.00     0.173 A 
ATOM     72  C   UNL A   1      47.952  26.879  26.496  1.00  0.00     0.173 A 
ATOM     73  F   UNL A   1      46.057  28.289  23.736  1.00  0.00    -0.203 F 
ATOM     74  C   UNL A   1      48.178  27.266  23.757  1.00  0.00     0.198 A 
ATOM     75  C   UNL A   1      49.103  26.470  25.825  1.00  0.00     0.198 A 
ATOM     76  F   UNL A   1      47.874  26.688  27.821  1.00  0.00    -0.203 F 
ATOM     77  F   UNL A   1      48.274  27.436  22.432  1.00  0.00    -0.200 F 
ATOM     78  C   UNL A   1      49.214  26.663  24.456  1.00  0.00     0.200 A 
ATOM     79  F   UNL A   1      50.108  25.904  26.506  1.00  0.00    -0.200 F 
ATOM     80  F   UNL A   1      50.321  26.270  23.810  1.00  0.00    -0.200 F 
ENDBRANCH  46  70
BRANCH  58  81
ATOM     81  C   UNL A   1      45.549  33.501  29.165  1.00  0.00     0.064 A 
ATOM     82  C   UNL A   1      46.440  33.618  30.244  1.00  0.00     0.173 A 
ATOM     83  C   UNL A   1      45.479  34.572  28.259  1.00  0.00     0.173 A 
ATOM     84  F   UNL A   1      46.535  32.632  31.148  1.00  0.00    -0.203 F 
ATOM     85  C   UNL A   1      47.218  34.761  30.413  1.00  0.00     0.198 A 
ATOM     86  C   UNL A   1      46.281  35.699  28.412  1.00  0.00     0.198 A 
ATOM     87  F   UNL A   1      44.647  34.513  27.207  1.00  0.00    -0.203 F 
ATOM     88  F   UNL A   1      48.034  34.863  31.470  1.00  0.00    -0.200 F 
ATOM     89  C   UNL A   1      47.147  35.795  29.491  1.00  0.00     0.200 A 
ATOM     90  F   UNL A   1      46.223  36.691  27.512  1.00  0.00    -0.200 F 
ATOM     91  F   UNL A   1      47.911  36.885  29.645  1.00  0.00    -0.200 F 
ENDBRANCH  58  81
ENDBRANCH  32  33
ENDBRANCH  25  27
ENDBRANCH  24  25
ENDBRANCH  23  24
ENDBRANCH  22  23
ENDBRANCH   1  22
TORSDOF 18
ENDMDL
MODEL 3
REMARK VINA RESULT:     -10.4      1.003      2.061
REMARK SMILES CC[C@H](C)[C@@H](Nc1ccc(Cl)c(Br)c1)C(=O)OCCOCCOC(=O)c1ccc(-c2c3nc(c(-c4c(F)c(F)c(F)c(F)c4F)c4ccc([nH]4)c(-c4c(F)c(F)c(F)c(F)c4F)c4nc(c(-c5c(F)c(F)c(F)c(F)c5F)c5ccc2[nH]5)C=C4)C=C3)cc1
REMARK SMILES IDX 20 1 19 2 18 3 17 4 15 5 16 6 5 7 3 8 4 9 2 10 1 11 6 12
REMARK SMILES IDX 7 14 8 15 14 16 9 17 12 18 10 19 13 20 11 21 21 22 22 23
REMARK SMILES IDX 23 24 24 25 25 26 26 27 27 28 88 29 28 30 87 31 29 32 30 33
REMARK SMILES IDX 31 34 81 35 32 36 86 37 80 38 82 39 33 40 85 41 79 42 78 43
REMARK SMILES IDX 34 45 66 46 46 47 65 48 47 49 50 50 64 51 83 52 48 53 49 54
REMARK SMILES IDX 63 56 84 57 51 58 35 59 36 60 44 61 37 62 38 63 42 64 45 65
REMARK SMILES IDX 39 66 40 67 43 68 41 69 67 70 68 71 76 72 69 73 70 74 74 75
REMARK SMILES IDX 77 76 71 77 72 78 75 79 73 80 52 81 53 82 61 83 54 84 55 85
REMARK SMILES IDX 59 86 62 87 56 88 57 89 60 90 58 91
REMARK H PARENT 6 13 82 44 50 55
REMARK Flexibility Score: inf
ROOT
ATOM      1  O   UNL A   1      34.581  20.989  25.583  1.00  0.00    -0.374 OA
ENDROOT
BRANCH   1   2
ATOM      2  C   UNL A   1      33.269  21.303  25.132  1.00  0.00     0.202 C 
BRANCH   2   3
ATOM      3  C   UNL A   1      33.111  22.387  24.064  1.00  0.00     0.261 C 
BRANCH   3   4
ATOM      4  O   UNL A   1      33.128  23.742  24.551  1.00  0.00    -0.462 OA
BRANCH   4   5
ATOM      5  C   UNL A   1      33.721  24.635  23.704  1.00  0.00     0.328 C 
ATOM      6  O   UNL A   1      34.579  24.334  22.878  1.00  0.00    -0.250 OA
BRANCH   5   7
ATOM      7  C   UNL A   1      33.298  26.098  23.956  1.00  0.00     0.192 C 
BRANCH   7   8
ATOM      8  C   UNL A   1      32.438  26.772  22.836  1.00  0.00     0.019 C 
ATOM      9  C   UNL A   1      30.948  26.440  23.068  1.00  0.00     0.010 C 
BRANCH   8  10
ATOM     10  C   UNL A   1      32.695  28.291  22.725  1.00  0.00     0.002 C 
ATOM     11  C   UNL A   1      34.139  28.731  22.519  1.00  0.00     0.004 C 
ENDBRANCH   8  10
ENDBRANCH   7   8
BRANCH   7  12
ATOM     12  N   UNL A   1      32.658  26.319  25.283  1.00  0.00    -0.372 N 
ATOM     13  H   UNL A   1      32.098  25.601  25.657  1.00  0.00     0.161 HD
BRANCH  12  14
ATOM     14  C   UNL A   1      32.809  27.482  26.018  1.00  0.00     0.036 A 
ATOM     15  C   UNL A   1      31.740  28.349  26.261  1.00  0.00     0.027 A 
ATOM     16  C   UNL A   1      34.086  27.870  26.435  1.00  0.00     0.043 A 
ATOM     17  C   UNL A   1      31.945  29.604  26.840  1.00  0.00     0.024 A 
ATOM     18  C   UNL A   1      34.301  29.123  27.023  1.00  0.00     0.038 A 
ATOM     19  C   UNL A   1      33.230  30.001  27.206  1.00  0.00     0.055 A 
ATOM     20  Br  UNL A   1      36.086  29.571  27.499  1.00  0.00    -0.049 Br
ATOM     21  Cl  UNL A   1      33.426  31.596  27.840  1.00  0.00    -0.083 Cl
ENDBRANCH  12  14
ENDBRANCH   7  12
ENDBRANCH   5   7
ENDBRANCH   4   5
ENDBRANCH   3   4
ENDBRANCH   2   3
ENDBRANCH   1   2
BRANCH   1  22
ATOM     22  C   UNL A   1      35.662  21.187  24.676  1.00  0.00     0.202 C 
BRANCH  22  23
ATOM     23  C   UNL A   1      37.048  20.702  25.126  1.00  0.00     0.261 C 
BRANCH  23  24
ATOM     24  O   UNL A   1      37.994  21.783  25.258  1.00  0.00    -0.460 OA
BRANCH  24  25
ATOM     25  C   UNL A   1      39.072  21.505  26.029  1.00  0.00     0.338 C 
ATOM     26  O   UNL A   1      39.671  20.441  26.107  1.00  0.00    -0.246 OA
BRANCH  25  27
ATOM     27  C   UNL A   1      39.593  22.741  26.647  1.00  0.00     0.060 A 
ATOM     28  C   UNL A   1      40.645  22.728  27.564  1.00  0.00     0.016 A 
ATOM     29  C   UNL A   1      39.040  23.956  26.221  1.00  0.00     0.016 A 
ATOM     30  C   UNL A   1      41.179  23.943  28.010  1.00  0.00     0.010 A 
ATOM     31  C   UNL A   1      39.572  25.164  26.668  1.00  0.00     0.010 A 
ATOM     32  C   UNL A   1      40.668  25.170  27.540  1.00  0.00    -0.014 A 
BRANCH  32  33
ATOM     33  C   UNL A   1      41.367  26.449  27.823  1.00  0.00     0.031 A 
ATOM     34  C   UNL A   1      42.790  26.682  27.416  1.00  0.00     0.074 A 
ATOM     35  C   UNL A   1      40.716  27.388  28.537  1.00  0.00     0.049 A 
ATOM     36  N   UNL A   1      43.528  27.752  27.579  1.00  0.00    -0.248 NA
ATOM     37  C   UNL A   1      43.480  25.566  26.756  1.00  0.00     0.031 C 
ATOM     38  C   UNL A   1      39.353  27.252  29.050  1.00  0.00     0.029 A 
ATOM     39  N   UNL A   1      41.110  28.634  28.960  1.00  0.00    -0.354 N 
ATOM     40  C   UNL A   1      44.764  27.448  27.027  1.00  0.00     0.074 A 
ATOM     41  C   UNL A   1      44.693  26.073  26.575  1.00  0.00     0.031 C 
ATOM     42  C   UNL A   1      39.013  28.379  29.693  1.00  0.00     0.029 A 
ATOM     43  C   UNL A   1      40.141  29.306  29.664  1.00  0.00     0.049 A 
ATOM     44  H   UNL A   1      42.002  29.009  28.776  1.00  0.00     0.167 HD
ATOM     45  C   UNL A   1      45.848  28.251  26.893  1.00  0.00     0.037 A 
ATOM     46  C   UNL A   1      40.154  30.531  30.222  1.00  0.00     0.037 A 
ATOM     47  C   UNL A   1      45.920  29.613  27.365  1.00  0.00     0.049 A 
ATOM     48  C   UNL A   1      41.379  31.392  30.091  1.00  0.00     0.074 A 
ATOM     49  C   UNL A   1      46.954  30.521  27.223  1.00  0.00     0.029 A 
ATOM     50  N   UNL A   1      44.926  30.256  28.090  1.00  0.00    -0.354 N 
ATOM     51  N   UNL A   1      42.507  31.133  29.478  1.00  0.00    -0.248 NA
ATOM     52  C   UNL A   1      41.329  32.718  30.723  1.00  0.00     0.031 C 
ATOM     53  C   UNL A   1      46.615  31.688  27.914  1.00  0.00     0.029 A 
ATOM     54  C   UNL A   1      45.340  31.536  28.435  1.00  0.00     0.049 A 
ATOM     55  H   UNL A   1      44.054  29.863  28.327  1.00  0.00     0.167 HD
ATOM     56  C   UNL A   1      43.296  32.264  29.634  1.00  0.00     0.074 A 
ATOM     57  C   UNL A   1      42.509  33.221  30.385  1.00  0.00     0.031 C 
ATOM     58  C   UNL A   1      44.560  32.483  29.192  1.00  0.00     0.037 A 
BRANCH  45  59
ATOM     59  C   UNL A   1      47.054  27.680  26.199  1.00  0.00     0.064 A 
ATOM     60  C   UNL A   1      47.168  27.695  24.800  1.00  0.00     0.173 A 
ATOM     61  C   UNL A   1      48.130  27.166  26.938  1.00  0.00     0.173 A 
ATOM     62  F   UNL A   1      46.169  28.178  24.046  1.00  0.00    -0.203 F 
ATOM     63  C   UNL A   1      48.300  27.188  24.167  1.00  0.00     0.198 A 
ATOM     64  C   UNL A   1      49.275  26.690  26.302  1.00  0.00     0.198 A 
ATOM     65  F   UNL A   1      48.082  27.141  28.278  1.00  0.00    -0.203 F 
ATOM     66  F   UNL A   1      48.368  27.177  22.829  1.00  0.00    -0.200 F 
ATOM     67  C   UNL A   1      49.355  26.693  24.918  1.00  0.00     0.200 A 
ATOM     68  F   UNL A   1      50.303  26.233  27.031  1.00  0.00    -0.200 F 
ATOM     69  F   UNL A   1      50.450  26.221  24.308  1.00  0.00    -0.200 F 
ENDBRANCH  45  59
BRANCH  46  70
ATOM     70  C   UNL A   1      38.931  31.025  30.904  1.00  0.00     0.064 A 
ATOM     71  C   UNL A   1      37.911  31.652  30.176  1.00  0.00     0.173 A 
ATOM     72  C   UNL A   1      38.726  30.821  32.277  1.00  0.00     0.173 A 
ATOM     73  F   UNL A   1      38.071  31.885  28.866  1.00  0.00    -0.203 F 
ATOM     74  C   UNL A   1      36.729  32.052  30.795  1.00  0.00     0.198 A 
ATOM     75  C   UNL A   1      37.532  31.197  32.889  1.00  0.00     0.198 A 
ATOM     76  F   UNL A   1      39.669  30.219  33.015  1.00  0.00    -0.203 F 
ATOM     77  F   UNL A   1      35.776  32.666  30.079  1.00  0.00    -0.200 F 
ATOM     78  C   UNL A   1      36.535  31.813  32.147  1.00  0.00     0.200 A 
ATOM     79  F   UNL A   1      37.341  30.948  34.191  1.00  0.00    -0.200 F 
ATOM     80  F   UNL A   1      35.386  32.175  32.735  1.00  0.00    -0.200 F 
ENDBRANCH  46  70
BRANCH  58  81
ATOM     81  C   UNL A   1      45.185  33.815  29.503  1.00  0.00     0.064 A 
ATOM     82  C   UNL A   1      45.974  34.008  30.648  1.00  0.00     0.173 A 
ATOM     83  C   UNL A   1      45.057  34.890  28.610  1.00  0.00     0.173 A 
ATOM     84  F   UNL A   1      46.117  33.019  31.542  1.00  0.00    -0.203 F 
ATOM     85  C   UNL A   1      46.598  35.229  30.892  1.00  0.00     0.198 A 
ATOM     86  C   UNL A   1      45.707  36.099  28.840  1.00  0.00     0.198 A 
ATOM     87  F   UNL A   1      44.318  34.760  27.497  1.00  0.00    -0.203 F 
ATOM     88  F   UNL A   1      47.316  35.401  32.010  1.00  0.00    -0.200 F 
ATOM     89  C   UNL A   1      46.475  36.269  29.983  1.00  0.00     0.200 A 
ATOM     90  F   UNL A   1      45.601  37.098  27.953  1.00  0.00    -0.200 F 
ATOM     91  F   UNL A   1      47.092  37.437  30.210  1.00  0.00    -0.200 F 
ENDBRANCH  58  81
ENDBRANCH  32  33
ENDBRANCH  25  27
ENDBRANCH  24  25
ENDBRANCH  23  24
ENDBRANCH  22  23
ENDBRANCH   1  22
TORSDOF 18
ENDMDL
