MODEL 1
REMARK VINA RESULT:     -11.1      0.000      0.000
REMARK SMILES CCC(CC)Nc1cc(C)c(N)c(C(=O)OCCOCCOC(=O)c2ccc(-c3c4nc(c(-c5c(F)c(F)c(F)c(F)c5F)c5ccc([nH]5)c(-c5c(F)c(F)c(F)c(F)c5F)c5nc(c(-c6c(F)c(F)c(F)c(F)c6F)c6ccc3[nH]6)C=C5)C=C4)cc2)c1
REMARK SMILES IDX 18 1 17 2 16 3 14 4 15 5 13 6 7 7 8 8 88 9 9 10 10 11 11 12
REMARK SMILES IDX 6 13 3 15 2 16 1 17 4 18 5 19 12 20 19 23 20 24 21 25 22 26
REMARK SMILES IDX 23 27 24 28 25 29 26 30 87 31 27 32 86 33 28 34 29 35 30 36
REMARK SMILES IDX 80 37 31 38 85 39 79 40 81 41 32 42 84 43 78 44 77 45 33 47
REMARK SMILES IDX 65 48 45 49 64 50 46 51 49 52 63 53 82 54 47 55 48 56 62 58
REMARK SMILES IDX 83 59 50 60 34 61 35 62 43 63 36 64 37 65 41 66 44 67 38 68
REMARK SMILES IDX 39 69 42 70 40 71 66 72 67 73 75 74 68 75 69 76 73 77 76 78
REMARK SMILES IDX 70 79 71 80 74 81 72 82 51 83 52 84 60 85 53 86 54 87 58 88
REMARK SMILES IDX 61 89 55 90 56 91 59 92 57 93
REMARK H PARENT 6 14 12 21 12 22 81 46 49 57
REMARK Flexibility Score: inf
ROOT
ATOM      1  C   UNL A   1      30.758  26.789  24.701  1.00  0.00     0.202 C 
ENDROOT
BRANCH   1   2
ATOM      2  C   UNL A   1      30.480  25.512  25.501  1.00  0.00     0.261 C 
BRANCH   2   3
ATOM      3  O   UNL A   1      31.427  24.481  25.178  1.00  0.00    -0.460 OA
BRANCH   3   4
ATOM      4  C   UNL A   1      31.836  23.735  26.236  1.00  0.00     0.340 C 
ATOM      5  O   UNL A   1      31.390  23.794  27.373  1.00  0.00    -0.246 OA
BRANCH   4   6
ATOM      6  C   UNL A   1      32.806  22.697  25.801  1.00  0.00     0.085 A 
ATOM      7  C   UNL A   1      33.489  20.353  25.704  1.00  0.00     0.035 A 
ATOM      8  C   UNL A   1      34.607  20.763  24.972  1.00  0.00     0.031 A 
ATOM      9  C   UNL A   1      32.583  21.343  26.105  1.00  0.00     0.043 A 
ATOM     10  C   UNL A   1      34.855  22.115  24.660  1.00  0.00    -0.025 A 
ATOM     11  C   UNL A   1      36.099  22.463  23.889  1.00  0.00     0.047 C 
ATOM     12  C   UNL A   1      33.953  23.105  25.085  1.00  0.00     0.049 A 
BRANCH   7  13
ATOM     13  N   UNL A   1      33.277  19.046  26.101  1.00  0.00    -0.382 N 
ATOM     14  H   UNL A   1      33.624  18.782  26.983  1.00  0.00     0.160 HD
BRANCH  13  15
ATOM     15  C   UNL A   1      32.582  18.021  25.321  1.00  0.00     0.078 C 
BRANCH  15  16
ATOM     16  C   UNL A   1      32.484  18.512  23.863  1.00  0.00     0.021 C 
ATOM     17  C   UNL A   1      33.272  17.656  22.881  1.00  0.00     0.006 C 
ENDBRANCH  15  16
BRANCH  15  18
ATOM     18  C   UNL A   1      33.278  16.659  25.493  1.00  0.00     0.021 C 
ATOM     19  C   UNL A   1      32.343  15.484  25.751  1.00  0.00     0.006 C 
ENDBRANCH  15  18
ENDBRANCH  13  15
ENDBRANCH   7  13
BRANCH  12  20
ATOM     20  N   UNL A   1      34.291  24.457  24.968  1.00  0.00    -0.398 N 
ATOM     21  H   UNL A   1      35.214  24.751  25.143  1.00  0.00     0.156 HD
ATOM     22  H   UNL A   1      33.605  25.116  24.712  1.00  0.00     0.156 HD
ENDBRANCH  12  20
ENDBRANCH   4   6
ENDBRANCH   3   4
ENDBRANCH   2   3
ENDBRANCH   1   2
BRANCH   1  23
ATOM     23  O   UNL A   1      31.158  27.928  25.464  1.00  0.00    -0.374 OA
BRANCH  23  24
ATOM     24  C   UNL A   1      31.424  29.129  24.735  1.00  0.00     0.202 C 
BRANCH  24  25
ATOM     25  C   UNL A   1      31.594  30.398  25.579  1.00  0.00     0.261 C 
BRANCH  25  26
ATOM     26  O   UNL A   1      32.548  30.205  26.643  1.00  0.00    -0.460 OA
BRANCH  26  27
ATOM     27  C   UNL A   1      33.117  31.336  27.117  1.00  0.00     0.338 C 
ATOM     28  O   UNL A   1      32.594  32.435  27.250  1.00  0.00    -0.246 OA
BRANCH  27  29
ATOM     29  C   UNL A   1      34.463  31.038  27.641  1.00  0.00     0.060 A 
ATOM     30  C   UNL A   1      34.777  29.697  27.893  1.00  0.00     0.016 A 
ATOM     31  C   UNL A   1      35.381  32.048  27.939  1.00  0.00     0.016 A 
ATOM     32  C   UNL A   1      35.993  29.362  28.487  1.00  0.00     0.010 A 
ATOM     33  C   UNL A   1      36.597  31.712  28.545  1.00  0.00     0.010 A 
ATOM     34  C   UNL A   1      36.894  30.371  28.851  1.00  0.00    -0.014 A 
BRANCH  34  35
ATOM     35  C   UNL A   1      38.082  30.034  29.673  1.00  0.00     0.031 A 
ATOM     36  C   UNL A   1      39.099  29.072  29.124  1.00  0.00     0.074 A 
ATOM     37  C   UNL A   1      38.263  30.592  30.883  1.00  0.00     0.049 A 
ATOM     38  N   UNL A   1      40.184  28.601  29.684  1.00  0.00    -0.248 NA
ATOM     39  C   UNL A   1      38.858  28.571  27.762  1.00  0.00     0.031 C 
ATOM     40  C   UNL A   1      37.366  31.563  31.507  1.00  0.00     0.029 A 
ATOM     41  N   UNL A   1      39.260  30.410  31.808  1.00  0.00    -0.354 N 
ATOM     42  C   UNL A   1      40.750  27.745  28.748  1.00  0.00     0.074 A 
ATOM     43  C   UNL A   1      39.878  27.741  27.594  1.00  0.00     0.031 C 
ATOM     44  C   UNL A   1      37.846  31.880  32.722  1.00  0.00     0.029 A 
ATOM     45  C   UNL A   1      39.065  31.112  32.972  1.00  0.00     0.049 A 
ATOM     46  H   UNL A   1      40.041  29.831  31.652  1.00  0.00     0.167 HD
ATOM     47  C   UNL A   1      41.898  27.034  28.842  1.00  0.00     0.037 A 
ATOM     48  C   UNL A   1      39.777  31.112  34.116  1.00  0.00     0.037 A 
ATOM     49  C   UNL A   1      42.770  27.045  29.987  1.00  0.00     0.049 A 
ATOM     50  C   UNL A   1      41.020  30.265  34.215  1.00  0.00     0.074 A 
ATOM     51  C   UNL A   1      43.972  26.382  30.163  1.00  0.00     0.029 A 
ATOM     52  N   UNL A   1      42.529  27.754  31.154  1.00  0.00    -0.354 N 
ATOM     53  N   UNL A   1      41.565  29.486  33.313  1.00  0.00    -0.248 NA
ATOM     54  C   UNL A   1      41.747  30.300  35.493  1.00  0.00     0.031 C 
ATOM     55  C   UNL A   1      44.434  26.650  31.455  1.00  0.00     0.029 A 
ATOM     56  C   UNL A   1      43.546  27.521  32.066  1.00  0.00     0.049 A 
ATOM     57  H   UNL A   1      41.751  28.336  31.311  1.00  0.00     0.167 HD
ATOM     58  C   UNL A   1      42.710  28.963  33.901  1.00  0.00     0.074 A 
ATOM     59  C   UNL A   1      42.789  29.523  35.233  1.00  0.00     0.031 C 
ATOM     60  C   UNL A   1      43.616  28.096  33.384  1.00  0.00     0.037 A 
BRANCH  47  61
ATOM     61  C   UNL A   1      42.274  26.160  27.682  1.00  0.00     0.064 A 
ATOM     62  C   UNL A   1      43.213  26.571  26.725  1.00  0.00     0.173 A 
ATOM     63  C   UNL A   1      41.730  24.873  27.559  1.00  0.00     0.173 A 
ATOM     64  F   UNL A   1      43.752  27.798  26.792  1.00  0.00    -0.203 F 
ATOM     65  C   UNL A   1      43.582  25.730  25.678  1.00  0.00     0.198 A 
ATOM     66  C   UNL A   1      42.119  24.026  26.525  1.00  0.00     0.198 A 
ATOM     67  F   UNL A   1      40.830  24.432  28.450  1.00  0.00    -0.203 F 
ATOM     68  F   UNL A   1      44.456  26.156  24.756  1.00  0.00    -0.200 F 
ATOM     69  C   UNL A   1      43.041  24.456  25.584  1.00  0.00     0.200 A 
ATOM     70  F   UNL A   1      41.605  22.792  26.443  1.00  0.00    -0.200 F 
ATOM     71  F   UNL A   1      43.407  23.644  24.583  1.00  0.00    -0.200 F 
ENDBRANCH  47  61
BRANCH  48  72
ATOM     72  C   UNL A   1      39.324  31.925  35.275  1.00  0.00     0.064 A 
ATOM     73  C   UNL A   1      38.520  31.371  36.281  1.00  0.00     0.173 A 
ATOM     74  C   UNL A   1      39.656  33.285  35.380  1.00  0.00     0.173 A 
ATOM     75  F   UNL A   1      38.153  30.083  36.211  1.00  0.00    -0.203 F 
ATOM     76  C   UNL A   1      38.049  32.149  37.336  1.00  0.00     0.198 A 
ATOM     77  C   UNL A   1      39.209  34.055  36.452  1.00  0.00     0.198 A 
ATOM     78  F   UNL A   1      40.419  33.864  34.443  1.00  0.00    -0.203 F 
ATOM     79  F   UNL A   1      37.238  31.608  38.255  1.00  0.00    -0.200 F 
ATOM     80  C   UNL A   1      38.397  33.490  37.423  1.00  0.00     0.200 A 
ATOM     81  F   UNL A   1      39.555  35.346  36.536  1.00  0.00    -0.200 F 
ATOM     82  F   UNL A   1      37.941  34.238  38.436  1.00  0.00    -0.200 F 
ENDBRANCH  48  72
BRANCH  60  83
ATOM     83  C   UNL A   1      44.789  27.727  34.244  1.00  0.00     0.064 A 
ATOM     84  C   UNL A   1      44.764  26.600  35.079  1.00  0.00     0.173 A 
ATOM     85  C   UNL A   1      45.970  28.483  34.195  1.00  0.00     0.173 A 
ATOM     86  F   UNL A   1      43.654  25.853  35.172  1.00  0.00    -0.203 F 
ATOM     87  C   UNL A   1      45.871  26.258  35.852  1.00  0.00     0.198 A 
ATOM     88  C   UNL A   1      47.085  28.121  34.947  1.00  0.00     0.198 A 
ATOM     89  F   UNL A   1      46.049  29.565  33.405  1.00  0.00    -0.203 F 
ATOM     90  F   UNL A   1      45.810  25.204  36.677  1.00  0.00    -0.200 F 
ATOM     91  C   UNL A   1      47.033  27.014  35.780  1.00  0.00     0.200 A 
ATOM     92  F   UNL A   1      48.210  28.844  34.864  1.00  0.00    -0.200 F 
ATOM     93  F   UNL A   1      48.100  26.678  36.518  1.00  0.00    -0.200 F 
ENDBRANCH  60  83
ENDBRANCH  34  35
ENDBRANCH  27  29
ENDBRANCH  26  27
ENDBRANCH  25  26
ENDBRANCH  24  25
ENDBRANCH  23  24
ENDBRANCH   1  23
TORSDOF 19
ENDMDL
MODEL 2
REMARK VINA RESULT:     -11.0      1.615      7.789
REMARK SMILES CCC(CC)Nc1cc(C)c(N)c(C(=O)OCCOCCOC(=O)c2ccc(-c3c4nc(c(-c5c(F)c(F)c(F)c(F)c5F)c5ccc([nH]5)c(-c5c(F)c(F)c(F)c(F)c5F)c5nc(c(-c6c(F)c(F)c(F)c(F)c6F)c6ccc3[nH]6)C=C5)C=C4)cc2)c1
REMARK SMILES IDX 18 1 17 2 16 3 14 4 15 5 13 6 7 7 8 8 88 9 9 10 10 11 11 12
REMARK SMILES IDX 6 13 3 15 2 16 1 17 4 18 5 19 12 20 19 23 20 24 21 25 22 26
REMARK SMILES IDX 23 27 24 28 25 29 26 30 87 31 27 32 86 33 28 34 29 35 30 36
REMARK SMILES IDX 80 37 31 38 85 39 79 40 81 41 32 42 84 43 78 44 77 45 33 47
REMARK SMILES IDX 65 48 45 49 64 50 46 51 49 52 63 53 82 54 47 55 48 56 62 58
REMARK SMILES IDX 83 59 50 60 34 61 35 62 43 63 36 64 37 65 41 66 44 67 38 68
REMARK SMILES IDX 39 69 42 70 40 71 66 72 67 73 75 74 68 75 69 76 73 77 76 78
REMARK SMILES IDX 70 79 71 80 74 81 72 82 51 83 52 84 60 85 53 86 54 87 58 88
REMARK SMILES IDX 61 89 55 90 56 91 59 92 57 93
REMARK H PARENT 6 14 12 21 12 22 81 46 49 57
REMARK Flexibility Score: inf
ROOT
ATOM      1  C   UNL A   1      31.780  29.378  27.251  1.00  0.00     0.202 C 
ENDROOT
BRANCH   1   2
ATOM      2  C   UNL A   1      32.594  28.116  26.950  1.00  0.00     0.261 C 
BRANCH   2   3
ATOM      3  O   UNL A   1      32.647  27.856  25.538  1.00  0.00    -0.460 OA
BRANCH   3   4
ATOM      4  C   UNL A   1      31.622  27.104  25.061  1.00  0.00     0.340 C 
ATOM      5  O   UNL A   1      30.709  27.500  24.351  1.00  0.00    -0.246 OA
BRANCH   4   6
ATOM      6  C   UNL A   1      31.831  25.669  25.383  1.00  0.00     0.085 A 
ATOM      7  C   UNL A   1      33.272  23.696  25.393  1.00  0.00     0.035 A 
ATOM      8  C   UNL A   1      32.225  22.998  26.003  1.00  0.00     0.031 A 
ATOM      9  C   UNL A   1      33.060  25.048  25.098  1.00  0.00     0.043 A 
ATOM     10  C   UNL A   1      30.983  23.598  26.294  1.00  0.00    -0.025 A 
ATOM     11  C   UNL A   1      29.906  22.760  26.928  1.00  0.00     0.047 C 
ATOM     12  C   UNL A   1      30.769  24.949  25.974  1.00  0.00     0.049 A 
BRANCH   7  13
ATOM     13  N   UNL A   1      34.462  23.103  25.015  1.00  0.00    -0.382 N 
ATOM     14  H   UNL A   1      34.520  22.757  24.095  1.00  0.00     0.160 HD
BRANCH  13  15
ATOM     15  C   UNL A   1      35.643  22.944  25.864  1.00  0.00     0.078 C 
BRANCH  15  16
ATOM     16  C   UNL A   1      35.881  21.436  26.078  1.00  0.00     0.021 C 
ATOM     17  C   UNL A   1      35.250  20.565  25.001  1.00  0.00     0.006 C 
ENDBRANCH  15  16
BRANCH  15  18
ATOM     18  C   UNL A   1      36.838  23.704  25.261  1.00  0.00     0.021 C 
ATOM     19  C   UNL A   1      38.091  23.730  26.127  1.00  0.00     0.006 C 
ENDBRANCH  15  18
ENDBRANCH  13  15
ENDBRANCH   7  13
BRANCH  12  20
ATOM     20  N   UNL A   1      29.484  25.495  26.061  1.00  0.00    -0.398 N 
ATOM     21  H   UNL A   1      28.886  25.231  26.796  1.00  0.00     0.156 HD
ATOM     22  H   UNL A   1      29.178  26.144  25.386  1.00  0.00     0.156 HD
ENDBRANCH  12  20
ENDBRANCH   4   6
ENDBRANCH   3   4
ENDBRANCH   2   3
ENDBRANCH   1   2
BRANCH   1  23
ATOM     23  O   UNL A   1      32.349  30.608  26.804  1.00  0.00    -0.374 OA
BRANCH  23  24
ATOM     24  C   UNL A   1      31.435  31.661  26.484  1.00  0.00     0.202 C 
BRANCH  24  25
ATOM     25  C   UNL A   1      31.878  33.073  26.885  1.00  0.00     0.261 C 
BRANCH  25  26
ATOM     26  O   UNL A   1      32.756  33.051  28.028  1.00  0.00    -0.460 OA
BRANCH  26  27
ATOM     27  C   UNL A   1      33.873  33.805  27.911  1.00  0.00     0.338 C 
ATOM     28  O   UNL A   1      33.942  34.999  27.651  1.00  0.00    -0.246 OA
BRANCH  27  29
ATOM     29  C   UNL A   1      35.053  33.020  28.319  1.00  0.00     0.060 A 
ATOM     30  C   UNL A   1      34.836  31.710  28.767  1.00  0.00     0.016 A 
ATOM     31  C   UNL A   1      36.338  33.566  28.325  1.00  0.00     0.016 A 
ATOM     32  C   UNL A   1      35.896  30.956  29.265  1.00  0.00     0.010 A 
ATOM     33  C   UNL A   1      37.401  32.811  28.836  1.00  0.00     0.010 A 
ATOM     34  C   UNL A   1      37.179  31.516  29.338  1.00  0.00    -0.014 A 
BRANCH  34  35
ATOM     35  C   UNL A   1      38.255  30.796  30.063  1.00  0.00     0.031 A 
ATOM     36  C   UNL A   1      38.506  31.125  31.508  1.00  0.00     0.074 A 
ATOM     37  C   UNL A   1      38.985  29.849  29.448  1.00  0.00     0.049 A 
ATOM     38  N   UNL A   1      39.418  30.657  32.321  1.00  0.00    -0.248 NA
ATOM     39  C   UNL A   1      37.608  32.118  32.119  1.00  0.00     0.031 C 
ATOM     40  C   UNL A   1      38.813  29.418  28.062  1.00  0.00     0.029 A 
ATOM     41  N   UNL A   1      40.026  29.086  29.913  1.00  0.00    -0.354 N 
ATOM     42  C   UNL A   1      39.211  31.302  33.533  1.00  0.00     0.074 A 
ATOM     43  C   UNL A   1      38.102  32.213  33.346  1.00  0.00     0.031 C 
ATOM     44  C   UNL A   1      39.732  28.477  27.782  1.00  0.00     0.029 A 
ATOM     45  C   UNL A   1      40.573  28.263  28.959  1.00  0.00     0.049 A 
ATOM     46  H   UNL A   1      40.352  29.126  30.841  1.00  0.00     0.167 HD
ATOM     47  C   UNL A   1      39.880  31.142  34.699  1.00  0.00     0.037 A 
ATOM     48  C   UNL A   1      41.645  27.450  29.024  1.00  0.00     0.037 A 
ATOM     49  C   UNL A   1      40.977  30.229  34.887  1.00  0.00     0.049 A 
ATOM     50  C   UNL A   1      42.409  27.334  30.318  1.00  0.00     0.074 A 
ATOM     51  C   UNL A   1      41.698  29.973  36.041  1.00  0.00     0.029 A 
ATOM     52  N   UNL A   1      41.513  29.426  33.893  1.00  0.00    -0.354 N 
ATOM     53  N   UNL A   1      42.185  27.922  31.468  1.00  0.00    -0.248 NA
ATOM     54  C   UNL A   1      43.576  26.439  30.323  1.00  0.00     0.031 C 
ATOM     55  C   UNL A   1      42.703  29.051  35.732  1.00  0.00     0.029 A 
ATOM     56  C   UNL A   1      42.575  28.693  34.399  1.00  0.00     0.049 A 
ATOM     57  H   UNL A   1      41.187  29.381  32.965  1.00  0.00     0.167 HD
ATOM     58  C   UNL A   1      43.160  27.448  32.337  1.00  0.00     0.074 A 
ATOM     59  C   UNL A   1      43.970  26.514  31.586  1.00  0.00     0.031 C 
ATOM     60  C   UNL A   1      43.365  27.759  33.641  1.00  0.00     0.037 A 
BRANCH  47  61
ATOM     61  C   UNL A   1      39.463  31.987  35.865  1.00  0.00     0.064 A 
ATOM     62  C   UNL A   1      40.065  33.226  36.131  1.00  0.00     0.173 A 
ATOM     63  C   UNL A   1      38.407  31.579  36.694  1.00  0.00     0.173 A 
ATOM     64  F   UNL A   1      41.087  33.655  35.375  1.00  0.00    -0.203 F 
ATOM     65  C   UNL A   1      39.635  34.017  37.193  1.00  0.00     0.198 A 
ATOM     66  C   UNL A   1      37.964  32.383  37.740  1.00  0.00     0.198 A 
ATOM     67  F   UNL A   1      37.796  30.404  36.480  1.00  0.00    -0.203 F 
ATOM     68  F   UNL A   1      40.247  35.181  37.449  1.00  0.00    -0.200 F 
ATOM     69  C   UNL A   1      38.580  33.599  37.991  1.00  0.00     0.200 A 
ATOM     70  F   UNL A   1      36.937  31.983  38.502  1.00  0.00    -0.200 F 
ATOM     71  F   UNL A   1      38.160  34.368  39.005  1.00  0.00    -0.200 F 
ENDBRANCH  47  61
BRANCH  48  72
ATOM     72  C   UNL A   1      42.080  26.693  27.821  1.00  0.00     0.064 A 
ATOM     73  C   UNL A   1      41.574  25.416  27.544  1.00  0.00     0.173 A 
ATOM     74  C   UNL A   1      43.040  27.218  26.943  1.00  0.00     0.173 A 
ATOM     75  F   UNL A   1      40.675  24.859  28.369  1.00  0.00    -0.203 F 
ATOM     76  C   UNL A   1      42.026  24.684  26.448  1.00  0.00     0.198 A 
ATOM     77  C   UNL A   1      43.470  26.498  25.830  1.00  0.00     0.198 A 
ATOM     78  F   UNL A   1      43.559  28.434  27.165  1.00  0.00    -0.203 F 
ATOM     79  F   UNL A   1      41.566  23.444  26.237  1.00  0.00    -0.200 F 
ATOM     80  C   UNL A   1      42.971  25.228  25.589  1.00  0.00     0.200 A 
ATOM     81  F   UNL A   1      44.375  27.031  24.999  1.00  0.00    -0.200 F 
ATOM     82  F   UNL A   1      43.408  24.523  24.537  1.00  0.00    -0.200 F 
ENDBRANCH  48  72
BRANCH  60  83
ATOM     83  C   UNL A   1      44.487  27.057  34.351  1.00  0.00     0.064 A 
ATOM     84  C   UNL A   1      45.787  27.583  34.371  1.00  0.00     0.173 A 
ATOM     85  C   UNL A   1      44.246  25.870  35.058  1.00  0.00     0.173 A 
ATOM     86  F   UNL A   1      46.071  28.708  33.699  1.00  0.00    -0.203 F 
ATOM     87  C   UNL A   1      46.810  26.932  35.056  1.00  0.00     0.198 A 
ATOM     88  C   UNL A   1      45.265  25.238  35.766  1.00  0.00     0.198 A 
ATOM     89  F   UNL A   1      43.017  25.331  35.077  1.00  0.00    -0.203 F 
ATOM     90  F   UNL A   1      48.055  27.428  35.026  1.00  0.00    -0.200 F 
ATOM     91  C   UNL A   1      46.548  25.765  35.759  1.00  0.00     0.200 A 
ATOM     92  F   UNL A   1      45.005  24.119  36.455  1.00  0.00    -0.200 F 
ATOM     93  F   UNL A   1      47.532  25.144  36.423  1.00  0.00    -0.200 F 
ENDBRANCH  60  83
ENDBRANCH  34  35
ENDBRANCH  27  29
ENDBRANCH  26  27
ENDBRANCH  25  26
ENDBRANCH  24  25
ENDBRANCH  23  24
ENDBRANCH   1  23
TORSDOF 19
ENDMDL
MODEL 3
REMARK VINA RESULT:     -10.9      1.560      7.884
REMARK SMILES CCC(CC)Nc1cc(C)c(N)c(C(=O)OCCOCCOC(=O)c2ccc(-c3c4nc(c(-c5c(F)c(F)c(F)c(F)c5F)c5ccc([nH]5)c(-c5c(F)c(F)c(F)c(F)c5F)c5nc(c(-c6c(F)c(F)c(F)c(F)c6F)c6ccc3[nH]6)C=C5)C=C4)cc2)c1
REMARK SMILES IDX 18 1 17 2 16 3 14 4 15 5 13 6 7 7 8 8 88 9 9 10 10 11 11 12
REMARK SMILES IDX 6 13 3 15 2 16 1 17 4 18 5 19 12 20 19 23 20 24 21 25 22 26
REMARK SMILES IDX 23 27 24 28 25 29 26 30 87 31 27 32 86 33 28 34 29 35 30 36
REMARK SMILES IDX 80 37 31 38 85 39 79 40 81 41 32 42 84 43 78 44 77 45 33 47
REMARK SMILES IDX 65 48 45 49 64 50 46 51 49 52 63 53 82 54 47 55 48 56 62 58
REMARK SMILES IDX 83 59 50 60 34 61 35 62 43 63 36 64 37 65 41 66 44 67 38 68
REMARK SMILES IDX 39 69 42 70 40 71 66 72 67 73 75 74 68 75 69 76 73 77 76 78
REMARK SMILES IDX 70 79 71 80 74 81 72 82 51 83 52 84 60 85 53 86 54 87 58 88
REMARK SMILES IDX 61 89 55 90 56 91 59 92 57 93
REMARK H PARENT 6 14 12 21 12 22 81 46 49 57
REMARK Flexibility Score: inf
ROOT
ATOM      1  C   UNL A   1      32.882  28.860  23.147  1.00  0.00     0.202 C 
ENDROOT
BRANCH   1   2
ATOM      2  C   UNL A   1      32.199  27.591  22.629  1.00  0.00     0.261 C 
BRANCH   2   3
ATOM      3  O   UNL A   1      32.741  26.417  23.257  1.00  0.00    -0.460 OA
BRANCH   3   4
ATOM      4  C   UNL A   1      33.220  25.482  22.396  1.00  0.00     0.340 C 
ATOM      5  O   UNL A   1      33.384  25.630  21.194  1.00  0.00    -0.246 OA
BRANCH   4   6
ATOM      6  C   UNL A   1      33.682  24.279  23.134  1.00  0.00     0.085 A 
ATOM      7  C   UNL A   1      35.472  23.041  24.244  1.00  0.00     0.035 A 
ATOM      8  C   UNL A   1      34.537  22.042  24.527  1.00  0.00     0.031 A 
ATOM      9  C   UNL A   1      35.021  24.170  23.550  1.00  0.00     0.043 A 
ATOM     10  C   UNL A   1      33.190  22.127  24.116  1.00  0.00    -0.025 A 
ATOM     11  C   UNL A   1      32.261  20.989  24.444  1.00  0.00     0.047 C 
ATOM     12  C   UNL A   1      32.750  23.252  23.400  1.00  0.00     0.049 A 
BRANCH   7  13
ATOM     13  N   UNL A   1      36.815  22.934  24.555  1.00  0.00    -0.382 N 
ATOM     14  H   UNL A   1      37.428  23.580  24.133  1.00  0.00     0.160 HD
BRANCH  13  15
ATOM     15  C   UNL A   1      37.404  21.944  25.457  1.00  0.00     0.078 C 
BRANCH  15  16
ATOM     16  C   UNL A   1      37.781  20.702  24.625  1.00  0.00     0.021 C 
ATOM     17  C   UNL A   1      36.951  19.472  24.965  1.00  0.00     0.006 C 
ENDBRANCH  15  16
BRANCH  15  18
ATOM     18  C   UNL A   1      38.572  22.568  26.242  1.00  0.00     0.021 C 
ATOM     19  C   UNL A   1      38.496  24.080  26.419  1.00  0.00     0.006 C 
ENDBRANCH  15  18
ENDBRANCH  13  15
ENDBRANCH   7  13
BRANCH  12  20
ATOM     20  N   UNL A   1      31.483  23.253  22.807  1.00  0.00    -0.398 N 
ATOM     21  H   UNL A   1      31.272  22.608  22.094  1.00  0.00     0.156 HD
ATOM     22  H   UNL A   1      30.802  23.900  23.102  1.00  0.00     0.156 HD
ENDBRANCH  12  20
ENDBRANCH   4   6
ENDBRANCH   3   4
ENDBRANCH   2   3
ENDBRANCH   1   2
BRANCH   1  23
ATOM     23  O   UNL A   1      33.152  28.895  24.549  1.00  0.00    -0.374 OA
BRANCH  23  24
ATOM     24  C   UNL A   1      32.031  29.097  25.415  1.00  0.00     0.202 C 
BRANCH  24  25
ATOM     25  C   UNL A   1      31.837  30.528  25.930  1.00  0.00     0.261 C 
BRANCH  25  26
ATOM     26  O   UNL A   1      32.413  30.705  27.240  1.00  0.00    -0.460 OA
BRANCH  26  27
ATOM     27  C   UNL A   1      33.247  31.762  27.363  1.00  0.00     0.338 C 
ATOM     28  O   UNL A   1      32.965  32.950  27.265  1.00  0.00    -0.246 OA
BRANCH  27  29
ATOM     29  C   UNL A   1      34.573  31.304  27.818  1.00  0.00     0.060 A 
ATOM     30  C   UNL A   1      34.723  29.942  28.105  1.00  0.00     0.016 A 
ATOM     31  C   UNL A   1      35.632  32.192  28.022  1.00  0.00     0.016 A 
ATOM     32  C   UNL A   1      35.919  29.467  28.639  1.00  0.00     0.010 A 
ATOM     33  C   UNL A   1      36.829  31.716  28.569  1.00  0.00     0.010 A 
ATOM     34  C   UNL A   1      36.966  30.358  28.910  1.00  0.00    -0.014 A 
BRANCH  34  35
ATOM     35  C   UNL A   1      38.149  29.891  29.674  1.00  0.00     0.031 A 
ATOM     36  C   UNL A   1      38.380  30.427  31.059  1.00  0.00     0.074 A 
ATOM     37  C   UNL A   1      38.995  28.987  29.149  1.00  0.00     0.049 A 
ATOM     38  N   UNL A   1      39.368  30.195  31.886  1.00  0.00    -0.248 NA
ATOM     39  C   UNL A   1      37.362  31.352  31.582  1.00  0.00     0.031 C 
ATOM     40  C   UNL A   1      38.859  28.369  27.831  1.00  0.00     0.029 A 
ATOM     41  N   UNL A   1      40.145  28.441  29.661  1.00  0.00    -0.354 N 
ATOM     42  C   UNL A   1      39.094  30.948  33.021  1.00  0.00     0.074 A 
ATOM     43  C   UNL A   1      37.862  31.664  32.769  1.00  0.00     0.031 C 
ATOM     44  C   UNL A   1      39.897  27.539  27.630  1.00  0.00     0.029 A 
ATOM     45  C   UNL A   1      40.785  27.591  28.791  1.00  0.00     0.049 A 
ATOM     46  H   UNL A   1      40.481  28.639  30.564  1.00  0.00     0.167 HD
ATOM     47  C   UNL A   1      39.804  31.028  34.171  1.00  0.00     0.037 A 
ATOM     48  C   UNL A   1      41.964  26.951  28.911  1.00  0.00     0.037 A 
ATOM     49  C   UNL A   1      41.025  30.308  34.424  1.00  0.00     0.049 A 
ATOM     50  C   UNL A   1      42.764  27.104  30.180  1.00  0.00     0.074 A 
ATOM     51  C   UNL A   1      41.799  30.300  35.572  1.00  0.00     0.029 A 
ATOM     52  N   UNL A   1      41.650  29.472  33.513  1.00  0.00    -0.354 N 
ATOM     53  N   UNL A   1      42.481  27.792  31.260  1.00  0.00    -0.248 NA
ATOM     54  C   UNL A   1      44.047  26.389  30.247  1.00  0.00     0.031 C 
ATOM     55  C   UNL A   1      42.919  29.497  35.336  1.00  0.00     0.029 A 
ATOM     56  C   UNL A   1      42.817  28.964  34.062  1.00  0.00     0.049 A 
ATOM     57  H   UNL A   1      41.315  29.269  32.609  1.00  0.00     0.167 HD
ATOM     58  C   UNL A   1      43.531  27.569  32.141  1.00  0.00     0.074 A 
ATOM     59  C   UNL A   1      44.452  26.673  31.476  1.00  0.00     0.031 C 
ATOM     60  C   UNL A   1      43.717  28.064  33.390  1.00  0.00     0.037 A 
BRANCH  47  61
ATOM     61  C   UNL A   1      39.294  31.944  35.243  1.00  0.00     0.064 A 
ATOM     62  C   UNL A   1      38.518  31.468  36.311  1.00  0.00     0.173 A 
ATOM     63  C   UNL A   1      39.632  33.305  35.233  1.00  0.00     0.173 A 
ATOM     64  F   UNL A   1      38.157  30.177  36.359  1.00  0.00    -0.203 F 
ATOM     65  C   UNL A   1      38.088  32.325  37.320  1.00  0.00     0.198 A 
ATOM     66  C   UNL A   1      39.222  34.154  36.257  1.00  0.00     0.198 A 
ATOM     67  F   UNL A   1      40.374  33.809  34.235  1.00  0.00    -0.203 F 
ATOM     68  F   UNL A   1      37.321  31.856  38.313  1.00  0.00    -0.200 F 
ATOM     69  C   UNL A   1      38.448  33.665  37.297  1.00  0.00     0.200 A 
ATOM     70  F   UNL A   1      39.580  35.445  36.238  1.00  0.00    -0.200 F 
ATOM     71  F   UNL A   1      38.043  34.486  38.276  1.00  0.00    -0.200 F 
ENDBRANCH  47  61
BRANCH  48  72
ATOM     72  C   UNL A   1      42.478  26.121  27.791  1.00  0.00     0.064 A 
ATOM     73  C   UNL A   1      43.436  26.619  26.898  1.00  0.00     0.173 A 
ATOM     74  C   UNL A   1      41.994  24.822  27.570  1.00  0.00     0.173 A 
ATOM     75  F   UNL A   1      43.910  27.865  27.051  1.00  0.00    -0.203 F 
ATOM     76  C   UNL A   1      43.875  25.860  25.814  1.00  0.00     0.198 A 
ATOM     77  C   UNL A   1      42.455  24.053  26.504  1.00  0.00     0.198 A 
ATOM     78  F   UNL A   1      41.074  24.300  28.393  1.00  0.00    -0.203 F 
ATOM     79  F   UNL A   1      44.750  26.381  24.945  1.00  0.00    -0.200 F 
ATOM     80  C   UNL A   1      43.386  24.576  25.621  1.00  0.00     0.200 A 
ATOM     81  F   UNL A   1      41.987  22.810  26.327  1.00  0.00    -0.200 F 
ATOM     82  F   UNL A   1      43.805  23.848  24.577  1.00  0.00    -0.200 F 
ENDBRANCH  48  72
BRANCH  60  83
ATOM     83  C   UNL A   1      44.942  27.619  34.135  1.00  0.00     0.064 A 
ATOM     84  C   UNL A   1      46.148  28.332  34.059  1.00  0.00     0.173 A 
ATOM     85  C   UNL A   1      44.895  26.494  34.972  1.00  0.00     0.173 A 
ATOM     86  F   UNL A   1      46.249  29.406  33.262  1.00  0.00    -0.203 F 
ATOM     87  C   UNL A   1      47.268  27.920  34.776  1.00  0.00     0.198 A 
ATOM     88  C   UNL A   1      46.008  26.102  35.710  1.00  0.00     0.198 A 
ATOM     89  F   UNL A   1      43.762  25.783  35.086  1.00  0.00    -0.203 F 
ATOM     90  F   UNL A   1      48.423  28.589  34.655  1.00  0.00    -0.200 F 
ATOM     91  C   UNL A   1      47.196  26.810  35.607  1.00  0.00     0.200 A 
ATOM     92  F   UNL A   1      45.931  25.039  36.522  1.00  0.00    -0.200 F 
ATOM     93  F   UNL A   1      48.272  26.420  36.303  1.00  0.00    -0.200 F 
ENDBRANCH  60  83
ENDBRANCH  34  35
ENDBRANCH  27  29
ENDBRANCH  26  27
ENDBRANCH  25  26
ENDBRANCH  24  25
ENDBRANCH  23  24
ENDBRANCH   1  23
TORSDOF 19
ENDMDL
