MODEL 1
REMARK VINA RESULT:     -12.1      0.000      0.000
REMARK SMILES CC(C)Oc1ccc([C@@H]2CC(=O)Nc3c(C(=O)OCCOCCOC(=O)c4ccc(-c5c6nc(c(-c7c(F)c(F)c(F)c(F)c7F)c7ccc([nH]7)c(-c7c(F)c(F)c(F)c(F)c7F)c7nc(c(-c8c(F)c(F)c(F)c(F)c8F)c8ccc5[nH]8)C=C7)C=C6)cc4)nsc32)cc1
REMARK SMILES IDX 20 1 19 2 18 3 16 4 17 5 15 6 9 7 10 8 92 9 11 10 14 11
REMARK SMILES IDX 91 12 12 13 13 14 90 15 8 17 5 18 6 19 94 20 7 21 93 22 4 23
REMARK SMILES IDX 2 24 1 25 3 26 21 27 22 28 23 29 24 30 25 31 26 32 27 33
REMARK SMILES IDX 28 34 89 35 29 36 88 37 30 38 31 39 32 40 82 41 33 42 87 43
REMARK SMILES IDX 81 44 83 45 34 46 86 47 80 48 79 49 35 51 67 52 47 53 66 54
REMARK SMILES IDX 48 55 51 56 65 57 84 58 49 59 50 60 64 62 85 63 52 64 36 65
REMARK SMILES IDX 37 66 45 67 38 68 39 69 43 70 46 71 40 72 41 73 44 74 42 75
REMARK SMILES IDX 68 76 69 77 77 78 70 79 71 80 75 81 78 82 72 83 73 84 76 85
REMARK SMILES IDX 74 86 53 87 54 88 62 89 55 90 56 91 60 92 63 93 57 94 58 95
REMARK SMILES IDX 61 96 59 97
REMARK H PARENT 13 16 83 50 51 61
REMARK Flexibility Score: inf
ROOT
ATOM      1  C   UNL A   1      35.692  22.227  24.591  1.00  0.00     0.202 C 
ENDROOT
BRANCH   1   2
ATOM      2  C   UNL A   1      34.893  21.113  25.265  1.00  0.00     0.261 C 
BRANCH   2   3
ATOM      3  O   UNL A   1      34.130  20.361  24.308  1.00  0.00    -0.458 OA
BRANCH   3   4
ATOM      4  C   UNL A   1      32.773  20.396  24.510  1.00  0.00     0.360 C 
ATOM      5  O   UNL A   1      32.120  19.452  24.930  1.00  0.00    -0.244 OA
BRANCH   4   6
ATOM      6  C   UNL A   1      32.208  21.729  24.259  1.00  0.00     0.185 A 
ATOM      7  C   UNL A   1      30.535  24.884  25.383  1.00  0.00     0.073 C 
ATOM      8  C   UNL A   1      30.186  24.430  26.815  1.00  0.00     0.114 C 
ATOM      9  C   UNL A   1      31.169  23.752  24.637  1.00  0.00     0.058 A 
ATOM     10  C   UNL A   1      29.856  22.949  26.965  1.00  0.00     0.225 C 
ATOM     11  C   UNL A   1      31.288  22.460  25.087  1.00  0.00     0.091 A 
ATOM     12  S   UNL A   1      31.896  23.875  23.107  1.00  0.00    -0.038 S 
ATOM     13  O   UNL A   1      29.063  22.542  27.813  1.00  0.00    -0.275 OA
ATOM     14  N   UNL A   1      30.593  22.066  26.213  1.00  0.00    -0.323 N 
ATOM     15  N   UNL A   1      32.573  22.371  23.137  1.00  0.00    -0.183 NA
ATOM     16  H   UNL A   1      30.627  21.121  26.488  1.00  0.00     0.170 HD
BRANCH   7  17
ATOM     17  C   UNL A   1      31.489  26.077  25.423  1.00  0.00    -0.039 A 
ATOM     18  C   UNL A   1      33.094  28.369  25.745  1.00  0.00     0.119 A 
ATOM     19  C   UNL A   1      33.595  27.102  26.053  1.00  0.00     0.047 A 
ATOM     20  C   UNL A   1      31.821  28.484  25.209  1.00  0.00     0.047 A 
ATOM     21  C   UNL A   1      32.798  25.959  25.902  1.00  0.00     0.008 A 
ATOM     22  C   UNL A   1      31.022  27.355  25.062  1.00  0.00     0.008 A 
BRANCH  18  23
ATOM     23  O   UNL A   1      33.943  29.429  25.882  1.00  0.00    -0.491 OA
BRANCH  23  24
ATOM     24  C   UNL A   1      34.329  29.850  27.204  1.00  0.00     0.167 C 
ATOM     25  C   UNL A   1      35.822  29.735  27.504  1.00  0.00     0.052 C 
ATOM     26  C   UNL A   1      33.759  31.209  27.605  1.00  0.00     0.052 C 
ENDBRANCH  23  24
ENDBRANCH  18  23
ENDBRANCH   7  17
ENDBRANCH   4   6
ENDBRANCH   3   4
ENDBRANCH   2   3
ENDBRANCH   1   2
BRANCH   1  27
ATOM     27  O   UNL A   1      37.047  22.411  25.000  1.00  0.00    -0.374 OA
BRANCH  27  28
ATOM     28  C   UNL A   1      37.943  21.307  25.054  1.00  0.00     0.202 C 
BRANCH  28  29
ATOM     29  C   UNL A   1      39.049  21.326  26.097  1.00  0.00     0.261 C 
BRANCH  29  30
ATOM     30  O   UNL A   1      39.519  22.640  26.361  1.00  0.00    -0.460 OA
BRANCH  30  31
ATOM     31  C   UNL A   1      40.869  22.709  26.458  1.00  0.00     0.338 C 
ATOM     32  O   UNL A   1      41.652  21.785  26.550  1.00  0.00    -0.246 OA
BRANCH  31  33
ATOM     33  C   UNL A   1      41.248  24.113  26.634  1.00  0.00     0.060 A 
ATOM     34  C   UNL A   1      42.310  24.351  27.508  1.00  0.00     0.016 A 
ATOM     35  C   UNL A   1      40.372  25.127  26.221  1.00  0.00     0.016 A 
ATOM     36  C   UNL A   1      42.360  25.566  28.149  1.00  0.00     0.010 A 
ATOM     37  C   UNL A   1      40.408  26.328  26.879  1.00  0.00     0.010 A 
ATOM     38  C   UNL A   1      41.350  26.498  27.889  1.00  0.00    -0.014 A 
BRANCH  38  39
ATOM     39  C   UNL A   1      41.390  27.750  28.606  1.00  0.00     0.031 A 
ATOM     40  C   UNL A   1      42.569  28.559  28.230  1.00  0.00     0.074 A 
ATOM     41  C   UNL A   1      40.402  28.139  29.431  1.00  0.00     0.049 A 
ATOM     42  N   UNL A   1      43.570  28.866  28.982  1.00  0.00    -0.248 NA
ATOM     43  C   UNL A   1      42.759  28.888  26.807  1.00  0.00     0.031 C 
ATOM     44  C   UNL A   1      39.105  27.502  29.661  1.00  0.00     0.029 A 
ATOM     45  N   UNL A   1      40.323  29.270  30.181  1.00  0.00    -0.354 N 
ATOM     46  C   UNL A   1      44.422  29.609  28.176  1.00  0.00     0.074 A 
ATOM     47  C   UNL A   1      43.983  29.411  26.822  1.00  0.00     0.031 C 
ATOM     48  C   UNL A   1      38.291  28.371  30.305  1.00  0.00     0.029 A 
ATOM     49  C   UNL A   1      39.042  29.571  30.629  1.00  0.00     0.049 A 
ATOM     50  H   UNL A   1      41.106  29.828  30.389  1.00  0.00     0.167 HD
ATOM     51  C   UNL A   1      45.227  30.557  28.725  1.00  0.00     0.037 A 
ATOM     52  C   UNL A   1      38.645  30.767  31.137  1.00  0.00     0.037 A 
ATOM     53  C   UNL A   1      45.411  30.320  30.135  1.00  0.00     0.049 A 
ATOM     54  C   UNL A   1      39.873  31.494  31.565  1.00  0.00     0.074 A 
ATOM     55  C   UNL A   1      45.912  29.266  30.876  1.00  0.00     0.029 A 
ATOM     56  N   UNL A   1      44.685  31.084  31.017  1.00  0.00    -0.354 N 
ATOM     57  N   UNL A   1      40.604  31.129  32.583  1.00  0.00    -0.248 NA
ATOM     58  C   UNL A   1      40.555  32.311  30.570  1.00  0.00     0.031 C 
ATOM     59  C   UNL A   1      45.075  29.189  32.027  1.00  0.00     0.029 A 
ATOM     60  C   UNL A   1      44.164  30.243  31.966  1.00  0.00     0.049 A 
ATOM     61  H   UNL A   1      44.562  32.060  30.974  1.00  0.00     0.167 HD
ATOM     62  C   UNL A   1      41.911  31.277  32.145  1.00  0.00     0.074 A 
ATOM     63  C   UNL A   1      41.822  32.075  30.925  1.00  0.00     0.031 C 
ATOM     64  C   UNL A   1      42.911  30.486  32.637  1.00  0.00     0.037 A 
BRANCH  51  65
ATOM     65  C   UNL A   1      45.477  31.903  28.087  1.00  0.00     0.064 A 
ATOM     66  C   UNL A   1      44.370  32.730  27.816  1.00  0.00     0.173 A 
ATOM     67  C   UNL A   1      46.683  32.273  27.450  1.00  0.00     0.173 A 
ATOM     68  F   UNL A   1      43.172  32.469  28.361  1.00  0.00    -0.203 F 
ATOM     69  C   UNL A   1      44.443  33.779  26.898  1.00  0.00     0.198 A 
ATOM     70  C   UNL A   1      46.764  33.354  26.577  1.00  0.00     0.198 A 
ATOM     71  F   UNL A   1      47.803  31.550  27.543  1.00  0.00    -0.203 F 
ATOM     72  F   UNL A   1      43.330  34.446  26.565  1.00  0.00    -0.200 F 
ATOM     73  C   UNL A   1      45.637  34.083  26.271  1.00  0.00     0.200 A 
ATOM     74  F   UNL A   1      47.928  33.620  25.968  1.00  0.00    -0.200 F 
ATOM     75  F   UNL A   1      45.692  35.042  25.338  1.00  0.00    -0.200 F 
ENDBRANCH  51  65
BRANCH  52  76
ATOM     76  C   UNL A   1      37.331  31.442  30.987  1.00  0.00     0.064 A 
ATOM     77  C   UNL A   1      36.460  31.588  32.081  1.00  0.00     0.173 A 
ATOM     78  C   UNL A   1      37.014  32.195  29.838  1.00  0.00     0.173 A 
ATOM     79  F   UNL A   1      36.708  30.949  33.233  1.00  0.00    -0.203 F 
ATOM     80  C   UNL A   1      35.355  32.448  32.033  1.00  0.00     0.198 A 
ATOM     81  C   UNL A   1      35.908  33.044  29.789  1.00  0.00     0.198 A 
ATOM     82  F   UNL A   1      37.821  32.197  28.770  1.00  0.00    -0.203 F 
ATOM     83  F   UNL A   1      34.582  32.606  33.118  1.00  0.00    -0.200 F 
ATOM     84  C   UNL A   1      35.085  33.182  30.890  1.00  0.00     0.200 A 
ATOM     85  F   UNL A   1      35.681  33.775  28.688  1.00  0.00    -0.200 F 
ATOM     86  F   UNL A   1      34.063  34.048  30.863  1.00  0.00    -0.200 F 
ENDBRANCH  52  76
BRANCH  64  87
ATOM     87  C   UNL A   1      42.607  29.631  33.835  1.00  0.00     0.064 A 
ATOM     88  C   UNL A   1      41.988  28.371  33.771  1.00  0.00     0.173 A 
ATOM     89  C   UNL A   1      43.103  30.042  35.080  1.00  0.00     0.173 A 
ATOM     90  F   UNL A   1      41.584  27.859  32.601  1.00  0.00    -0.203 F 
ATOM     91  C   UNL A   1      41.831  27.584  34.910  1.00  0.00     0.198 A 
ATOM     92  C   UNL A   1      42.981  29.236  36.209  1.00  0.00     0.198 A 
ATOM     93  F   UNL A   1      43.756  31.209  35.191  1.00  0.00    -0.203 F 
ATOM     94  F   UNL A   1      41.222  26.391  34.825  1.00  0.00    -0.200 F 
ATOM     95  C   UNL A   1      42.334  28.014  36.126  1.00  0.00     0.200 A 
ATOM     96  F   UNL A   1      43.519  29.633  37.370  1.00  0.00    -0.200 F 
ATOM     97  F   UNL A   1      42.222  27.239  37.214  1.00  0.00    -0.200 F 
ENDBRANCH  64  87
ENDBRANCH  38  39
ENDBRANCH  31  33
ENDBRANCH  30  31
ENDBRANCH  29  30
ENDBRANCH  28  29
ENDBRANCH  27  28
ENDBRANCH   1  27
TORSDOF 17
ENDMDL
MODEL 2
REMARK VINA RESULT:     -12.0      1.579      2.255
REMARK SMILES CC(C)Oc1ccc([C@@H]2CC(=O)Nc3c(C(=O)OCCOCCOC(=O)c4ccc(-c5c6nc(c(-c7c(F)c(F)c(F)c(F)c7F)c7ccc([nH]7)c(-c7c(F)c(F)c(F)c(F)c7F)c7nc(c(-c8c(F)c(F)c(F)c(F)c8F)c8ccc5[nH]8)C=C7)C=C6)cc4)nsc32)cc1
REMARK SMILES IDX 20 1 19 2 18 3 16 4 17 5 15 6 9 7 10 8 92 9 11 10 14 11
REMARK SMILES IDX 91 12 12 13 13 14 90 15 8 17 5 18 6 19 94 20 7 21 93 22 4 23
REMARK SMILES IDX 2 24 1 25 3 26 21 27 22 28 23 29 24 30 25 31 26 32 27 33
REMARK SMILES IDX 28 34 89 35 29 36 88 37 30 38 31 39 32 40 82 41 33 42 87 43
REMARK SMILES IDX 81 44 83 45 34 46 86 47 80 48 79 49 35 51 67 52 47 53 66 54
REMARK SMILES IDX 48 55 51 56 65 57 84 58 49 59 50 60 64 62 85 63 52 64 36 65
REMARK SMILES IDX 37 66 45 67 38 68 39 69 43 70 46 71 40 72 41 73 44 74 42 75
REMARK SMILES IDX 68 76 69 77 77 78 70 79 71 80 75 81 78 82 72 83 73 84 76 85
REMARK SMILES IDX 74 86 53 87 54 88 62 89 55 90 56 91 60 92 63 93 57 94 58 95
REMARK SMILES IDX 61 96 59 97
REMARK H PARENT 13 16 83 50 51 61
REMARK Flexibility Score: inf
ROOT
ATOM      1  C   UNL A   1      37.406  21.269  25.164  1.00  0.00     0.202 C 
ENDROOT
BRANCH   1   2
ATOM      2  C   UNL A   1      35.913  21.597  25.160  1.00  0.00     0.261 C 
BRANCH   2   3
ATOM      3  O   UNL A   1      35.684  23.003  24.971  1.00  0.00    -0.458 OA
BRANCH   3   4
ATOM      4  C   UNL A   1      35.402  23.363  23.678  1.00  0.00     0.360 C 
ATOM      5  O   UNL A   1      36.212  23.308  22.762  1.00  0.00    -0.244 OA
BRANCH   4   6
ATOM      6  C   UNL A   1      33.992  23.729  23.496  1.00  0.00     0.185 A 
ATOM      7  C   UNL A   1      30.665  24.852  24.797  1.00  0.00     0.073 C 
ATOM      8  C   UNL A   1      30.984  24.731  26.302  1.00  0.00     0.114 C 
ATOM      9  C   UNL A   1      31.835  24.374  23.996  1.00  0.00     0.058 A 
ATOM     10  C   UNL A   1      31.936  23.600  26.674  1.00  0.00     0.225 C 
ATOM     11  C   UNL A   1      32.962  23.772  24.499  1.00  0.00     0.091 A 
ATOM     12  S   UNL A   1      31.994  24.529  22.311  1.00  0.00    -0.038 S 
ATOM     13  O   UNL A   1      31.865  23.020  27.757  1.00  0.00    -0.275 OA
ATOM     14  N   UNL A   1      32.978  23.351  25.814  1.00  0.00    -0.323 N 
ATOM     15  N   UNL A   1      33.579  24.071  22.265  1.00  0.00    -0.183 NA
ATOM     16  H   UNL A   1      33.762  22.856  26.147  1.00  0.00     0.170 HD
BRANCH   7  17
ATOM     17  C   UNL A   1      30.350  26.304  24.439  1.00  0.00    -0.039 A 
ATOM     18  C   UNL A   1      29.977  28.954  23.559  1.00  0.00     0.119 A 
ATOM     19  C   UNL A   1      29.015  27.975  23.296  1.00  0.00     0.047 A 
ATOM     20  C   UNL A   1      31.087  28.625  24.322  1.00  0.00     0.047 A 
ATOM     21  C   UNL A   1      29.199  26.654  23.724  1.00  0.00     0.008 A 
ATOM     22  C   UNL A   1      31.280  27.315  24.746  1.00  0.00     0.008 A 
BRANCH  18  23
ATOM     23  O   UNL A   1      29.709  30.225  23.142  1.00  0.00    -0.491 OA
BRANCH  23  24
ATOM     24  C   UNL A   1      28.389  30.539  22.662  1.00  0.00     0.167 C 
ATOM     25  C   UNL A   1      27.589  31.486  23.556  1.00  0.00     0.052 C 
ATOM     26  C   UNL A   1      28.356  30.961  21.194  1.00  0.00     0.052 C 
ENDBRANCH  23  24
ENDBRANCH  18  23
ENDBRANCH   7  17
ENDBRANCH   4   6
ENDBRANCH   3   4
ENDBRANCH   2   3
ENDBRANCH   1   2
BRANCH   1  27
ATOM     27  O   UNL A   1      38.273  22.138  25.891  1.00  0.00    -0.374 OA
BRANCH  27  28
ATOM     28  C   UNL A   1      39.576  21.711  26.270  1.00  0.00     0.202 C 
BRANCH  28  29
ATOM     29  C   UNL A   1      40.327  22.521  27.313  1.00  0.00     0.261 C 
BRANCH  29  30
ATOM     30  O   UNL A   1      41.735  22.368  27.205  1.00  0.00    -0.460 OA
BRANCH  30  31
ATOM     31  C   UNL A   1      42.247  22.947  26.093  1.00  0.00     0.338 C 
ATOM     32  O   UNL A   1      42.616  22.396  25.075  1.00  0.00    -0.246 OA
BRANCH  31  33
ATOM     33  C   UNL A   1      42.477  24.366  26.375  1.00  0.00     0.060 A 
ATOM     34  C   UNL A   1      43.320  24.644  27.452  1.00  0.00     0.016 A 
ATOM     35  C   UNL A   1      41.629  25.333  25.814  1.00  0.00     0.016 A 
ATOM     36  C   UNL A   1      43.149  25.833  28.117  1.00  0.00     0.010 A 
ATOM     37  C   UNL A   1      41.442  26.508  26.493  1.00  0.00     0.010 A 
ATOM     38  C   UNL A   1      42.145  26.704  27.678  1.00  0.00    -0.014 A 
BRANCH  38  39
ATOM     39  C   UNL A   1      41.947  27.928  28.416  1.00  0.00     0.031 A 
ATOM     40  C   UNL A   1      43.051  28.886  28.196  1.00  0.00     0.074 A 
ATOM     41  C   UNL A   1      40.830  28.167  29.126  1.00  0.00     0.049 A 
ATOM     42  N   UNL A   1      43.913  29.288  29.066  1.00  0.00    -0.248 NA
ATOM     43  C   UNL A   1      43.360  29.281  26.811  1.00  0.00     0.031 C 
ATOM     44  C   UNL A   1      39.605  27.370  29.191  1.00  0.00     0.029 A 
ATOM     45  N   UNL A   1      40.525  29.256  29.881  1.00  0.00    -0.354 N 
ATOM     46  C   UNL A   1      44.752  30.155  28.378  1.00  0.00     0.074 A 
ATOM     47  C   UNL A   1      44.500  29.948  26.979  1.00  0.00     0.031 C 
ATOM     48  C   UNL A   1      38.621  28.112  29.750  1.00  0.00     0.029 A 
ATOM     49  C   UNL A   1      39.174  29.384  30.181  1.00  0.00     0.049 A 
ATOM     50  H   UNL A   1      41.204  29.898  30.189  1.00  0.00     0.167 HD
ATOM     51  C   UNL A   1      45.365  31.176  29.034  1.00  0.00     0.037 A 
ATOM     52  C   UNL A   1      38.575  30.505  30.659  1.00  0.00     0.037 A 
ATOM     53  C   UNL A   1      45.414  30.918  30.452  1.00  0.00     0.049 A 
ATOM     54  C   UNL A   1      39.646  31.363  31.241  1.00  0.00     0.074 A 
ATOM     55  C   UNL A   1      45.955  29.910  31.229  1.00  0.00     0.029 A 
ATOM     56  N   UNL A   1      44.503  31.560  31.256  1.00  0.00    -0.354 N 
ATOM     57  N   UNL A   1      40.295  31.057  32.331  1.00  0.00    -0.248 NA
ATOM     58  C   UNL A   1      40.330  32.288  30.347  1.00  0.00     0.031 C 
ATOM     59  C   UNL A   1      45.007  29.695  32.271  1.00  0.00     0.029 A 
ATOM     60  C   UNL A   1      43.985  30.632  32.122  1.00  0.00     0.049 A 
ATOM     61  H   UNL A   1      44.264  32.514  31.216  1.00  0.00     0.167 HD
ATOM     62  C   UNL A   1      41.616  31.378  32.054  1.00  0.00     0.074 A 
ATOM     63  C   UNL A   1      41.567  32.197  30.845  1.00  0.00     0.031 C 
ATOM     64  C   UNL A   1      42.643  30.699  32.645  1.00  0.00     0.037 A 
BRANCH  51  65
ATOM     65  C   UNL A   1      45.516  32.562  28.454  1.00  0.00     0.064 A 
ATOM     66  C   UNL A   1      44.358  33.236  28.021  1.00  0.00     0.173 A 
ATOM     67  C   UNL A   1      46.741  33.115  28.016  1.00  0.00     0.173 A 
ATOM     68  F   UNL A   1      43.140  32.794  28.370  1.00  0.00    -0.203 F 
ATOM     69  C   UNL A   1      44.422  34.311  27.133  1.00  0.00     0.198 A 
ATOM     70  C   UNL A   1      46.801  34.222  27.175  1.00  0.00     0.198 A 
ATOM     71  F   UNL A   1      47.925  32.552  28.277  1.00  0.00    -0.203 F 
ATOM     72  F   UNL A   1      43.290  34.827  26.636  1.00  0.00    -0.200 F 
ATOM     73  C   UNL A   1      45.642  34.797  26.703  1.00  0.00     0.200 A 
ATOM     74  F   UNL A   1      47.995  34.665  26.757  1.00  0.00    -0.200 F 
ATOM     75  F   UNL A   1      45.704  35.781  25.797  1.00  0.00    -0.200 F 
ENDBRANCH  51  65
BRANCH  52  76
ATOM     76  C   UNL A   1      37.214  31.020  30.368  1.00  0.00     0.064 A 
ATOM     77  C   UNL A   1      36.355  31.432  31.402  1.00  0.00     0.173 A 
ATOM     78  C   UNL A   1      36.820  31.371  29.060  1.00  0.00     0.173 A 
ATOM     79  F   UNL A   1      36.671  31.185  32.682  1.00  0.00    -0.203 F 
ATOM     80  C   UNL A   1      35.190  32.167  31.145  1.00  0.00     0.198 A 
ATOM     81  C   UNL A   1      35.655  32.095  28.805  1.00  0.00     0.198 A 
ATOM     82  F   UNL A   1      37.605  31.104  28.008  1.00  0.00    -0.203 F 
ATOM     83  F   UNL A   1      34.429  32.594  32.164  1.00  0.00    -0.200 F 
ATOM     84  C   UNL A   1      34.846  32.505  29.847  1.00  0.00     0.200 A 
ATOM     85  F   UNL A   1      35.355  32.446  27.546  1.00  0.00    -0.200 F 
ATOM     86  F   UNL A   1      33.763  33.256  29.604  1.00  0.00    -0.200 F 
ENDBRANCH  52  76
BRANCH  64  87
ATOM     87  C   UNL A   1      42.313  29.775  33.784  1.00  0.00     0.064 A 
ATOM     88  C   UNL A   1      41.874  28.450  33.626  1.00  0.00     0.173 A 
ATOM     89  C   UNL A   1      42.601  30.206  35.086  1.00  0.00     0.173 A 
ATOM     90  F   UNL A   1      41.680  27.928  32.408  1.00  0.00    -0.203 F 
ATOM     91  C   UNL A   1      41.686  27.614  34.725  1.00  0.00     0.198 A 
ATOM     92  C   UNL A   1      42.453  29.357  36.179  1.00  0.00     0.198 A 
ATOM     93  F   UNL A   1      43.081  31.443  35.294  1.00  0.00    -0.203 F 
ATOM     94  F   UNL A   1      41.251  26.357  34.548  1.00  0.00    -0.200 F 
ATOM     95  C   UNL A   1      41.983  28.066  36.000  1.00  0.00     0.200 A 
ATOM     96  F   UNL A   1      42.794  29.783  37.403  1.00  0.00    -0.200 F 
ATOM     97  F   UNL A   1      41.844  27.250  37.053  1.00  0.00    -0.200 F 
ENDBRANCH  64  87
ENDBRANCH  38  39
ENDBRANCH  31  33
ENDBRANCH  30  31
ENDBRANCH  29  30
ENDBRANCH  28  29
ENDBRANCH  27  28
ENDBRANCH   1  27
TORSDOF 17
ENDMDL
MODEL 3
REMARK VINA RESULT:     -11.9      2.925      8.759
REMARK SMILES CC(C)Oc1ccc([C@@H]2CC(=O)Nc3c(C(=O)OCCOCCOC(=O)c4ccc(-c5c6nc(c(-c7c(F)c(F)c(F)c(F)c7F)c7ccc([nH]7)c(-c7c(F)c(F)c(F)c(F)c7F)c7nc(c(-c8c(F)c(F)c(F)c(F)c8F)c8ccc5[nH]8)C=C7)C=C6)cc4)nsc32)cc1
REMARK SMILES IDX 20 1 19 2 18 3 16 4 17 5 15 6 9 7 10 8 92 9 11 10 14 11
REMARK SMILES IDX 91 12 12 13 13 14 90 15 8 17 5 18 6 19 94 20 7 21 93 22 4 23
REMARK SMILES IDX 2 24 1 25 3 26 21 27 22 28 23 29 24 30 25 31 26 32 27 33
REMARK SMILES IDX 28 34 89 35 29 36 88 37 30 38 31 39 32 40 82 41 33 42 87 43
REMARK SMILES IDX 81 44 83 45 34 46 86 47 80 48 79 49 35 51 67 52 47 53 66 54
REMARK SMILES IDX 48 55 51 56 65 57 84 58 49 59 50 60 64 62 85 63 52 64 36 65
REMARK SMILES IDX 37 66 45 67 38 68 39 69 43 70 46 71 40 72 41 73 44 74 42 75
REMARK SMILES IDX 68 76 69 77 77 78 70 79 71 80 75 81 78 82 72 83 73 84 76 85
REMARK SMILES IDX 74 86 53 87 54 88 62 89 55 90 56 91 60 92 63 93 57 94 58 95
REMARK SMILES IDX 61 96 59 97
REMARK H PARENT 13 16 83 50 51 61
REMARK Flexibility Score: inf
ROOT
ATOM      1  C   UNL A   1      30.736  29.540  24.552  1.00  0.00     0.202 C 
ENDROOT
BRANCH   1   2
ATOM      2  C   UNL A   1      30.762  29.197  23.064  1.00  0.00     0.261 C 
BRANCH   2   3
ATOM      3  O   UNL A   1      31.969  28.506  22.704  1.00  0.00    -0.458 OA
BRANCH   3   4
ATOM      4  C   UNL A   1      31.807  27.163  22.475  1.00  0.00     0.360 C 
ATOM      5  O   UNL A   1      31.271  26.700  21.478  1.00  0.00    -0.244 OA
BRANCH   4   6
ATOM      6  C   UNL A   1      32.440  26.342  23.515  1.00  0.00     0.185 A 
ATOM      7  C   UNL A   1      32.307  23.856  26.312  1.00  0.00     0.073 C 
ATOM      8  C   UNL A   1      30.773  23.814  26.474  1.00  0.00     0.114 C 
ATOM      9  C   UNL A   1      32.675  24.868  25.273  1.00  0.00     0.058 A 
ATOM     10  C   UNL A   1      30.055  25.130  26.196  1.00  0.00     0.225 C 
ATOM     11  C   UNL A   1      31.811  25.742  24.661  1.00  0.00     0.091 A 
ATOM     12  S   UNL A   1      34.233  25.088  24.632  1.00  0.00    -0.038 S 
ATOM     13  O   UNL A   1      29.015  25.438  26.776  1.00  0.00    -0.275 OA
ATOM     14  N   UNL A   1      30.532  25.896  25.160  1.00  0.00    -0.323 N 
ATOM     15  N   UNL A   1      33.757  26.098  23.417  1.00  0.00    -0.183 NA
ATOM     16  H   UNL A   1      29.944  26.576  24.761  1.00  0.00     0.170 HD
BRANCH   7  17
ATOM     17  C   UNL A   1      32.833  22.480  25.906  1.00  0.00    -0.039 A 
ATOM     18  C   UNL A   1      33.882  20.070  24.891  1.00  0.00     0.119 A 
ATOM     19  C   UNL A   1      34.568  20.784  25.877  1.00  0.00     0.047 A 
ATOM     20  C   UNL A   1      32.641  20.520  24.466  1.00  0.00     0.047 A 
ATOM     21  C   UNL A   1      34.055  21.988  26.379  1.00  0.00     0.008 A 
ATOM     22  C   UNL A   1      32.128  21.717  24.956  1.00  0.00     0.008 A 
BRANCH  18  23
ATOM     23  O   UNL A   1      34.426  18.888  24.479  1.00  0.00    -0.491 OA
BRANCH  23  24
ATOM     24  C   UNL A   1      33.554  17.776  24.203  1.00  0.00     0.167 C 
ATOM     25  C   UNL A   1      34.065  16.811  23.134  1.00  0.00     0.052 C 
ATOM     26  C   UNL A   1      33.071  17.051  25.457  1.00  0.00     0.052 C 
ENDBRANCH  23  24
ENDBRANCH  18  23
ENDBRANCH   7  17
ENDBRANCH   4   6
ENDBRANCH   3   4
ENDBRANCH   2   3
ENDBRANCH   1   2
BRANCH   1  27
ATOM     27  O   UNL A   1      31.895  30.157  25.110  1.00  0.00    -0.374 OA
BRANCH  27  28
ATOM     28  C   UNL A   1      32.357  29.792  26.406  1.00  0.00     0.202 C 
BRANCH  28  29
ATOM     29  C   UNL A   1      33.186  30.800  27.187  1.00  0.00     0.261 C 
BRANCH  29  30
ATOM     30  O   UNL A   1      34.571  30.486  27.173  1.00  0.00    -0.460 OA
BRANCH  30  31
ATOM     31  C   UNL A   1      35.334  31.433  27.769  1.00  0.00     0.338 C 
ATOM     32  O   UNL A   1      35.275  32.636  27.612  1.00  0.00    -0.246 OA
BRANCH  31  33
ATOM     33  C   UNL A   1      36.406  30.765  28.510  1.00  0.00     0.060 A 
ATOM     34  C   UNL A   1      37.419  31.594  28.995  1.00  0.00     0.016 A 
ATOM     35  C   UNL A   1      36.552  29.373  28.418  1.00  0.00     0.016 A 
ATOM     36  C   UNL A   1      38.668  31.050  29.177  1.00  0.00     0.010 A 
ATOM     37  C   UNL A   1      37.804  28.837  28.575  1.00  0.00     0.010 A 
ATOM     38  C   UNL A   1      38.856  29.697  28.872  1.00  0.00    -0.014 A 
BRANCH  38  39
ATOM     39  C   UNL A   1      40.184  29.153  29.023  1.00  0.00     0.031 A 
ATOM     40  C   UNL A   1      40.567  29.029  30.446  1.00  0.00     0.074 A 
ATOM     41  C   UNL A   1      40.912  28.729  27.975  1.00  0.00     0.049 A 
ATOM     42  N   UNL A   1      41.491  29.685  31.060  1.00  0.00    -0.248 NA
ATOM     43  C   UNL A   1      39.692  28.243  31.333  1.00  0.00     0.031 C 
ATOM     44  C   UNL A   1      40.503  28.602  26.576  1.00  0.00     0.029 A 
ATOM     45  N   UNL A   1      42.173  28.224  27.971  1.00  0.00    -0.354 N 
ATOM     46  C   UNL A   1      41.450  29.236  32.374  1.00  0.00     0.074 A 
ATOM     47  C   UNL A   1      40.210  28.526  32.527  1.00  0.00     0.031 C 
ATOM     48  C   UNL A   1      41.410  27.846  25.915  1.00  0.00     0.029 A 
ATOM     49  C   UNL A   1      42.510  27.535  26.811  1.00  0.00     0.049 A 
ATOM     50  H   UNL A   1      42.796  28.336  28.725  1.00  0.00     0.167 HD
ATOM     51  C   UNL A   1      42.578  29.238  33.132  1.00  0.00     0.037 A 
ATOM     52  C   UNL A   1      43.574  26.704  26.668  1.00  0.00     0.037 A 
ATOM     53  C   UNL A   1      43.556  30.150  32.593  1.00  0.00     0.049 A 
ATOM     54  C   UNL A   1      44.539  27.031  27.756  1.00  0.00     0.074 A 
ATOM     55  C   UNL A   1      43.564  31.508  32.330  1.00  0.00     0.029 A 
ATOM     56  N   UNL A   1      44.597  29.624  31.867  1.00  0.00    -0.354 N 
ATOM     57  N   UNL A   1      45.218  28.145  27.800  1.00  0.00    -0.248 NA
ATOM     58  C   UNL A   1      44.370  26.354  29.035  1.00  0.00     0.031 C 
ATOM     59  C   UNL A   1      44.283  31.645  31.108  1.00  0.00     0.029 A 
ATOM     60  C   UNL A   1      44.741  30.382  30.734  1.00  0.00     0.049 A 
ATOM     61  H   UNL A   1      45.142  28.842  32.116  1.00  0.00     0.167 HD
ATOM     62  C   UNL A   1      45.168  28.532  29.131  1.00  0.00     0.074 A 
ATOM     63  C   UNL A   1      44.695  27.356  29.857  1.00  0.00     0.031 C 
ATOM     64  C   UNL A   1      45.219  29.852  29.481  1.00  0.00     0.037 A 
BRANCH  51  65
ATOM     65  C   UNL A   1      42.944  28.118  34.076  1.00  0.00     0.064 A 
ATOM     66  C   UNL A   1      43.181  28.431  35.428  1.00  0.00     0.173 A 
ATOM     67  C   UNL A   1      43.377  26.837  33.664  1.00  0.00     0.173 A 
ATOM     68  F   UNL A   1      42.818  29.623  35.926  1.00  0.00    -0.203 F 
ATOM     69  C   UNL A   1      43.891  27.573  36.269  1.00  0.00     0.198 A 
ATOM     70  C   UNL A   1      44.036  25.961  34.522  1.00  0.00     0.198 A 
ATOM     71  F   UNL A   1      43.294  26.416  32.398  1.00  0.00    -0.203 F 
ATOM     72  F   UNL A   1      44.218  27.977  37.503  1.00  0.00    -0.200 F 
ATOM     73  C   UNL A   1      44.327  26.343  35.812  1.00  0.00     0.200 A 
ATOM     74  F   UNL A   1      44.465  24.781  34.053  1.00  0.00    -0.200 F 
ATOM     75  F   UNL A   1      45.069  25.549  36.595  1.00  0.00    -0.200 F 
ENDBRANCH  51  65
BRANCH  52  76
ATOM     76  C   UNL A   1      43.671  25.457  25.868  1.00  0.00     0.064 A 
ATOM     77  C   UNL A   1      44.849  25.126  25.176  1.00  0.00     0.173 A 
ATOM     78  C   UNL A   1      42.710  24.431  25.979  1.00  0.00     0.173 A 
ATOM     79  F   UNL A   1      45.840  26.022  25.061  1.00  0.00    -0.203 F 
ATOM     80  C   UNL A   1      45.059  23.846  24.647  1.00  0.00     0.198 A 
ATOM     81  C   UNL A   1      42.917  23.159  25.445  1.00  0.00     0.198 A 
ATOM     82  F   UNL A   1      41.589  24.610  26.690  1.00  0.00    -0.203 F 
ATOM     83  F   UNL A   1      46.221  23.552  24.047  1.00  0.00    -0.200 F 
ATOM     84  C   UNL A   1      44.096  22.861  24.790  1.00  0.00     0.200 A 
ATOM     85  F   UNL A   1      41.990  22.206  25.623  1.00  0.00    -0.200 F 
ATOM     86  F   UNL A   1      44.319  21.620  24.337  1.00  0.00    -0.200 F 
ENDBRANCH  52  76
BRANCH  64  87
ATOM     87  C   UNL A   1      45.580  30.850  28.417  1.00  0.00     0.064 A 
ATOM     88  C   UNL A   1      44.667  31.388  27.495  1.00  0.00     0.173 A 
ATOM     89  C   UNL A   1      46.872  31.393  28.435  1.00  0.00     0.173 A 
ATOM     90  F   UNL A   1      43.385  30.999  27.486  1.00  0.00    -0.203 F 
ATOM     91  C   UNL A   1      45.045  32.388  26.601  1.00  0.00     0.198 A 
ATOM     92  C   UNL A   1      47.236  32.421  27.569  1.00  0.00     0.198 A 
ATOM     93  F   UNL A   1      47.770  30.961  29.334  1.00  0.00    -0.203 F 
ATOM     94  F   UNL A   1      44.158  32.874  25.719  1.00  0.00    -0.200 F 
ATOM     95  C   UNL A   1      46.327  32.909  26.644  1.00  0.00     0.200 A 
ATOM     96  F   UNL A   1      48.461  32.958  27.654  1.00  0.00    -0.200 F 
ATOM     97  F   UNL A   1      46.681  33.900  25.816  1.00  0.00    -0.200 F 
ENDBRANCH  64  87
ENDBRANCH  38  39
ENDBRANCH  31  33
ENDBRANCH  30  31
ENDBRANCH  29  30
ENDBRANCH  28  29
ENDBRANCH  27  28
ENDBRANCH   1  27
TORSDOF 17
ENDMDL
