MODEL 1
REMARK VINA RESULT:     -10.5      0.000      0.000
REMARK SMILES CC[N@H+](CC(C)(C)C(=O)OCCOCCOC(=O)c1ccc(-c2c3nc(c(-c4c(F)c(F)c(F)c(F)c4F)c4ccc([nH]4)c(-c4c(F)c(F)c(F)c(F)c4F)c4nc(c(-c5c(F)c(F)c(F)c(F)c5F)c5ccc2[nH]5)C=C4)C=C3)cc1)[C@H]1CC[NH2+]C1
REMARK SMILES IDX 12 1 11 2 10 3 8 4 9 5 5 6 6 7 7 8 4 9 3 10 2 12 1 13 82 14
REMARK SMILES IDX 83 15 86 16 84 17 85 18 13 21 14 22 15 23 16 24 17 25 18 26
REMARK SMILES IDX 19 27 20 28 81 29 21 30 80 31 22 32 23 33 24 34 74 35 25 36
REMARK SMILES IDX 79 37 73 38 75 39 26 40 78 41 72 42 71 43 27 45 59 46 39 47
REMARK SMILES IDX 58 48 40 49 43 50 57 51 76 52 41 53 42 54 56 56 77 57 44 58
REMARK SMILES IDX 28 59 29 60 37 61 30 62 31 63 35 64 38 65 32 66 33 67 36 68
REMARK SMILES IDX 34 69 60 70 61 71 69 72 62 73 63 74 67 75 70 76 64 77 65 78
REMARK SMILES IDX 68 79 66 80 45 81 46 82 54 83 47 84 48 85 52 86 55 87 49 88
REMARK SMILES IDX 50 89 53 90 51 91
REMARK H PARENT 3 11 85 19 85 20 75 44 43 55
REMARK Flexibility Score: inf
ROOT
ATOM      1  C   UNL A   1      34.647  23.631  25.634  1.00  0.00     0.202 C 
ENDROOT
BRANCH   1   2
ATOM      2  C   UNL A   1      34.749  24.832  24.678  1.00  0.00     0.261 C 
BRANCH   2   3
ATOM      3  O   UNL A   1      33.768  25.843  24.940  1.00  0.00    -0.463 OA
BRANCH   3   4
ATOM      4  C   UNL A   1      33.409  26.623  23.886  1.00  0.00     0.317 C 
ATOM      5  O   UNL A   1      33.503  26.251  22.723  1.00  0.00    -0.251 OA
BRANCH   4   6
ATOM      6  C   UNL A   1      32.917  28.021  24.315  1.00  0.00     0.111 C 
ATOM      7  C   UNL A   1      33.600  29.036  23.386  1.00  0.00     0.029 C 
ATOM      8  C   UNL A   1      33.409  28.325  25.757  1.00  0.00     0.029 C 
BRANCH   6   9
ATOM      9  C   UNL A   1      31.356  28.211  24.305  1.00  0.00     0.280 C 
BRANCH   9  10
ATOM     10  N   UNL A   1      30.463  27.435  23.392  1.00  0.00    -0.327 N 
ATOM     11  H   UNL A   1      31.002  26.840  22.762  1.00  0.00     0.348 HD
BRANCH  10  12
ATOM     12  C   UNL A   1      29.633  26.496  24.176  1.00  0.00     0.259 C 
ATOM     13  C   UNL A   1      30.033  26.044  25.575  1.00  0.00     0.071 C 
ENDBRANCH  10  12
BRANCH  10  14
ATOM     14  C   UNL A   1      29.727  28.362  22.492  1.00  0.00     0.245 C 
ATOM     15  C   UNL A   1      28.326  28.754  22.971  1.00  0.00     0.132 C 
ATOM     16  C   UNL A   1      30.385  29.691  22.066  1.00  0.00     0.326 C 
ATOM     17  C   UNL A   1      28.093  30.124  22.358  1.00  0.00     0.267 C 
ATOM     18  N   UNL A   1      29.407  30.768  22.282  1.00  0.00    -0.341 N 
ATOM     19  H   UNL A   1      29.609  31.259  23.153  1.00  0.00     0.346 HD
ATOM     20  H   UNL A   1      29.440  31.455  21.529  1.00  0.00     0.346 HD
ENDBRANCH  10  14
ENDBRANCH   9  10
ENDBRANCH   6   9
ENDBRANCH   4   6
ENDBRANCH   3   4
ENDBRANCH   2   3
ENDBRANCH   1   2
BRANCH   1  21
ATOM     21  O   UNL A   1      34.858  22.322  25.121  1.00  0.00    -0.374 OA
BRANCH  21  22
ATOM     22  C   UNL A   1      35.768  21.455  25.793  1.00  0.00     0.202 C 
BRANCH  22  23
ATOM     23  C   UNL A   1      37.032  20.976  25.073  1.00  0.00     0.261 C 
BRANCH  23  24
ATOM     24  O   UNL A   1      38.105  21.931  25.132  1.00  0.00    -0.460 OA
BRANCH  24  25
ATOM     25  C   UNL A   1      39.138  21.553  25.922  1.00  0.00     0.338 C 
ATOM     26  O   UNL A   1      39.758  20.504  25.881  1.00  0.00    -0.246 OA
BRANCH  25  27
ATOM     27  C   UNL A   1      39.584  22.680  26.756  1.00  0.00     0.060 A 
ATOM     28  C   UNL A   1      38.916  23.899  26.585  1.00  0.00     0.016 A 
ATOM     29  C   UNL A   1      40.708  22.590  27.581  1.00  0.00     0.016 A 
ATOM     30  C   UNL A   1      39.407  25.049  27.189  1.00  0.00     0.010 A 
ATOM     31  C   UNL A   1      41.208  23.753  28.179  1.00  0.00     0.010 A 
ATOM     32  C   UNL A   1      40.586  24.992  27.945  1.00  0.00    -0.014 A 
BRANCH  32  33
ATOM     33  C   UNL A   1      41.235  26.273  28.313  1.00  0.00     0.031 A 
ATOM     34  C   UNL A   1      42.631  26.546  27.824  1.00  0.00     0.074 A 
ATOM     35  C   UNL A   1      40.546  27.222  28.969  1.00  0.00     0.049 A 
ATOM     36  N   UNL A   1      43.349  27.637  27.922  1.00  0.00    -0.248 NA
ATOM     37  C   UNL A   1      43.307  25.443  27.121  1.00  0.00     0.031 C 
ATOM     38  C   UNL A   1      39.175  27.083  29.454  1.00  0.00     0.029 A 
ATOM     39  N   UNL A   1      40.902  28.500  29.320  1.00  0.00    -0.354 N 
ATOM     40  C   UNL A   1      44.553  27.354  27.289  1.00  0.00     0.074 A 
ATOM     41  C   UNL A   1      44.487  25.978  26.847  1.00  0.00     0.031 C 
ATOM     42  C   UNL A   1      38.799  28.237  30.033  1.00  0.00     0.029 A 
ATOM     43  C   UNL A   1      39.909  29.186  29.973  1.00  0.00     0.049 A 
ATOM     44  H   UNL A   1      41.785  28.887  29.122  1.00  0.00     0.167 HD
ATOM     45  C   UNL A   1      45.613  28.173  27.083  1.00  0.00     0.037 A 
ATOM     46  C   UNL A   1      39.901  30.439  30.465  1.00  0.00     0.037 A 
ATOM     47  C   UNL A   1      45.674  29.540  27.528  1.00  0.00     0.049 A 
ATOM     48  C   UNL A   1      41.113  31.313  30.267  1.00  0.00     0.074 A 
ATOM     49  C   UNL A   1      46.699  30.456  27.369  1.00  0.00     0.029 A 
ATOM     50  N   UNL A   1      44.665  30.187  28.228  1.00  0.00    -0.354 N 
ATOM     51  N   UNL A   1      42.236  31.047  29.646  1.00  0.00    -0.248 NA
ATOM     52  C   UNL A   1      41.046  32.669  30.828  1.00  0.00     0.031 C 
ATOM     53  C   UNL A   1      46.332  31.641  28.016  1.00  0.00     0.029 A 
ATOM     54  C   UNL A   1      45.053  31.484  28.526  1.00  0.00     0.049 A 
ATOM     55  H   UNL A   1      43.802  29.785  28.475  1.00  0.00     0.167 HD
ATOM     56  C   UNL A   1      42.996  32.208  29.712  1.00  0.00     0.074 A 
ATOM     57  C   UNL A   1      42.196  33.186  30.420  1.00  0.00     0.031 C 
ATOM     58  C   UNL A   1      44.241  32.445  29.228  1.00  0.00     0.037 A 
BRANCH  45  59
ATOM     59  C   UNL A   1      46.801  27.600  26.366  1.00  0.00     0.064 A 
ATOM     60  C   UNL A   1      46.916  27.647  24.968  1.00  0.00     0.173 A 
ATOM     61  C   UNL A   1      47.852  27.017  27.089  1.00  0.00     0.173 A 
ATOM     62  F   UNL A   1      45.931  28.179  24.228  1.00  0.00    -0.203 F 
ATOM     63  C   UNL A   1      48.024  27.108  24.320  1.00  0.00     0.198 A 
ATOM     64  C   UNL A   1      48.973  26.506  26.441  1.00  0.00     0.198 A 
ATOM     65  F   UNL A   1      47.795  26.946  28.428  1.00  0.00    -0.203 F 
ATOM     66  F   UNL A   1      48.090  27.121  22.981  1.00  0.00    -0.200 F 
ATOM     67  C   UNL A   1      49.056  26.545  25.057  1.00  0.00     0.200 A 
ATOM     68  F   UNL A   1      49.973  25.970  27.156  1.00  0.00    -0.200 F 
ATOM     69  F   UNL A   1      50.125  26.031  24.433  1.00  0.00    -0.200 F 
ENDBRANCH  45  59
BRANCH  46  70
ATOM     70  C   UNL A   1      38.703  30.947  31.182  1.00  0.00     0.064 A 
ATOM     71  C   UNL A   1      37.634  31.535  30.490  1.00  0.00     0.173 A 
ATOM     72  C   UNL A   1      38.610  30.868  32.579  1.00  0.00     0.173 A 
ATOM     73  F   UNL A   1      37.686  31.654  29.155  1.00  0.00    -0.203 F 
ATOM     74  C   UNL A   1      36.528  32.041  31.170  1.00  0.00     0.198 A 
ATOM     75  C   UNL A   1      37.491  31.348  33.256  1.00  0.00     0.198 A 
ATOM     76  F   UNL A   1      39.605  30.316  33.288  1.00  0.00    -0.203 F 
ATOM     77  F   UNL A   1      35.543  32.642  30.488  1.00  0.00    -0.200 F 
ATOM     78  C   UNL A   1      36.454  31.942  32.552  1.00  0.00     0.200 A 
ATOM     79  F   UNL A   1      37.418  31.239  34.589  1.00  0.00    -0.200 F 
ATOM     80  F   UNL A   1      35.389  32.427  33.205  1.00  0.00    -0.200 F 
ENDBRANCH  46  70
BRANCH  58  81
ATOM     81  C   UNL A   1      44.795  33.829  29.416  1.00  0.00     0.064 A 
ATOM     82  C   UNL A   1      44.581  34.848  28.475  1.00  0.00     0.173 A 
ATOM     83  C   UNL A   1      45.540  34.144  30.564  1.00  0.00     0.173 A 
ATOM     84  F   UNL A   1      43.885  34.596  27.356  1.00  0.00    -0.203 F 
ATOM     85  C   UNL A   1      45.127  36.116  28.656  1.00  0.00     0.198 A 
ATOM     86  C   UNL A   1      46.056  35.423  30.756  1.00  0.00     0.198 A 
ATOM     87  F   UNL A   1      45.766  33.211  31.500  1.00  0.00    -0.203 F 
ATOM     88  F   UNL A   1      44.963  37.054  27.712  1.00  0.00    -0.200 F 
ATOM     89  C   UNL A   1      45.859  36.404  29.797  1.00  0.00     0.200 A 
ATOM     90  F   UNL A   1      46.749  35.703  31.869  1.00  0.00    -0.200 F 
ATOM     91  F   UNL A   1      46.385  37.625  29.967  1.00  0.00    -0.200 F 
ENDBRANCH  58  81
ENDBRANCH  32  33
ENDBRANCH  25  27
ENDBRANCH  24  25
ENDBRANCH  23  24
ENDBRANCH  22  23
ENDBRANCH  21  22
ENDBRANCH   1  21
TORSDOF 18
ENDMDL
MODEL 2
REMARK VINA RESULT:     -10.4      1.174      2.375
REMARK SMILES CC[N@H+](CC(C)(C)C(=O)OCCOCCOC(=O)c1ccc(-c2c3nc(c(-c4c(F)c(F)c(F)c(F)c4F)c4ccc([nH]4)c(-c4c(F)c(F)c(F)c(F)c4F)c4nc(c(-c5c(F)c(F)c(F)c(F)c5F)c5ccc2[nH]5)C=C4)C=C3)cc1)[C@H]1CC[NH2+]C1
REMARK SMILES IDX 12 1 11 2 10 3 8 4 9 5 5 6 6 7 7 8 4 9 3 10 2 12 1 13 82 14
REMARK SMILES IDX 83 15 86 16 84 17 85 18 13 21 14 22 15 23 16 24 17 25 18 26
REMARK SMILES IDX 19 27 20 28 81 29 21 30 80 31 22 32 23 33 24 34 74 35 25 36
REMARK SMILES IDX 79 37 73 38 75 39 26 40 78 41 72 42 71 43 27 45 59 46 39 47
REMARK SMILES IDX 58 48 40 49 43 50 57 51 76 52 41 53 42 54 56 56 77 57 44 58
REMARK SMILES IDX 28 59 29 60 37 61 30 62 31 63 35 64 38 65 32 66 33 67 36 68
REMARK SMILES IDX 34 69 60 70 61 71 69 72 62 73 63 74 67 75 70 76 64 77 65 78
REMARK SMILES IDX 68 79 66 80 45 81 46 82 54 83 47 84 48 85 52 86 55 87 49 88
REMARK SMILES IDX 50 89 53 90 51 91
REMARK H PARENT 3 11 85 19 85 20 75 44 43 55
REMARK Flexibility Score: inf
ROOT
ATOM      1  C   UNL A   1      34.818  23.423  23.623  1.00  0.00     0.202 C 
ENDROOT
BRANCH   1   2
ATOM      2  C   UNL A   1      33.333  23.320  24.011  1.00  0.00     0.261 C 
BRANCH   2   3
ATOM      3  O   UNL A   1      32.787  24.559  24.480  1.00  0.00    -0.463 OA
BRANCH   3   4
ATOM      4  C   UNL A   1      31.597  24.936  23.944  1.00  0.00     0.317 C 
ATOM      5  O   UNL A   1      31.143  24.441  22.920  1.00  0.00    -0.251 OA
BRANCH   4   6
ATOM      6  C   UNL A   1      30.914  26.069  24.738  1.00  0.00     0.111 C 
ATOM      7  C   UNL A   1      30.588  25.502  26.128  1.00  0.00     0.029 C 
ATOM      8  C   UNL A   1      29.559  26.431  24.067  1.00  0.00     0.029 C 
BRANCH   6   9
ATOM      9  C   UNL A   1      31.746  27.398  24.853  1.00  0.00     0.280 C 
BRANCH   9  10
ATOM     10  N   UNL A   1      33.215  27.399  25.129  1.00  0.00    -0.327 N 
ATOM     11  H   UNL A   1      33.580  26.449  25.204  1.00  0.00     0.348 HD
BRANCH  10  12
ATOM     12  C   UNL A   1      33.942  27.989  23.985  1.00  0.00     0.259 C 
ATOM     13  C   UNL A   1      33.212  28.632  22.812  1.00  0.00     0.071 C 
ENDBRANCH  10  12
BRANCH  10  14
ATOM     14  C   UNL A   1      33.483  28.010  26.457  1.00  0.00     0.245 C 
ATOM     15  C   UNL A   1      34.693  28.948  26.508  1.00  0.00     0.132 C 
ATOM     16  C   UNL A   1      32.358  28.776  27.183  1.00  0.00     0.326 C 
ATOM     17  C   UNL A   1      34.363  29.920  27.627  1.00  0.00     0.267 C 
ATOM     18  N   UNL A   1      32.905  30.068  27.626  1.00  0.00    -0.341 N 
ATOM     19  H   UNL A   1      32.627  30.809  26.983  1.00  0.00     0.346 HD
ATOM     20  H   UNL A   1      32.558  30.320  28.551  1.00  0.00     0.346 HD
ENDBRANCH  10  14
ENDBRANCH   9  10
ENDBRANCH   6   9
ENDBRANCH   4   6
ENDBRANCH   3   4
ENDBRANCH   2   3
ENDBRANCH   1   2
BRANCH   1  21
ATOM     21  O   UNL A   1      35.657  22.289  23.803  1.00  0.00    -0.374 OA
BRANCH  21  22
ATOM     22  C   UNL A   1      35.951  21.851  25.128  1.00  0.00     0.202 C 
BRANCH  22  23
ATOM     23  C   UNL A   1      37.162  20.947  25.377  1.00  0.00     0.261 C 
BRANCH  23  24
ATOM     24  O   UNL A   1      38.415  21.615  25.151  1.00  0.00    -0.460 OA
BRANCH  24  25
ATOM     25  C   UNL A   1      39.379  21.298  26.048  1.00  0.00     0.338 C 
ATOM     26  O   UNL A   1      39.994  20.249  26.136  1.00  0.00    -0.246 OA
BRANCH  25  27
ATOM     27  C   UNL A   1      39.765  22.486  26.827  1.00  0.00     0.060 A 
ATOM     28  C   UNL A   1      39.128  23.690  26.502  1.00  0.00     0.016 A 
ATOM     29  C   UNL A   1      40.811  22.455  27.751  1.00  0.00     0.016 A 
ATOM     30  C   UNL A   1      39.579  24.882  27.055  1.00  0.00     0.010 A 
ATOM     31  C   UNL A   1      41.270  23.659  28.298  1.00  0.00     0.010 A 
ATOM     32  C   UNL A   1      40.686  24.879  27.913  1.00  0.00    -0.014 A 
BRANCH  32  33
ATOM     33  C   UNL A   1      41.316  26.182  28.235  1.00  0.00     0.031 A 
ATOM     34  C   UNL A   1      42.704  26.463  27.727  1.00  0.00     0.074 A 
ATOM     35  C   UNL A   1      40.616  27.140  28.866  1.00  0.00     0.049 A 
ATOM     36  N   UNL A   1      43.404  27.568  27.784  1.00  0.00    -0.248 NA
ATOM     37  C   UNL A   1      43.394  25.349  27.055  1.00  0.00     0.031 C 
ATOM     38  C   UNL A   1      39.251  26.994  29.365  1.00  0.00     0.029 A 
ATOM     39  N   UNL A   1      40.953  28.434  29.173  1.00  0.00    -0.354 N 
ATOM     40  C   UNL A   1      44.608  27.285  27.151  1.00  0.00     0.074 A 
ATOM     41  C   UNL A   1      44.563  25.895  26.754  1.00  0.00     0.031 C 
ATOM     42  C   UNL A   1      38.860  28.159  29.910  1.00  0.00     0.029 A 
ATOM     43  C   UNL A   1      39.953  29.124  29.811  1.00  0.00     0.049 A 
ATOM     44  H   UNL A   1      41.828  28.830  28.956  1.00  0.00     0.167 HD
ATOM     45  C   UNL A   1      45.652  28.115  26.911  1.00  0.00     0.037 A 
ATOM     46  C   UNL A   1      39.927  30.392  30.263  1.00  0.00     0.037 A 
ATOM     47  C   UNL A   1      45.693  29.496  27.312  1.00  0.00     0.049 A 
ATOM     48  C   UNL A   1      41.122  31.280  30.028  1.00  0.00     0.074 A 
ATOM     49  C   UNL A   1      46.701  30.424  27.116  1.00  0.00     0.029 A 
ATOM     50  N   UNL A   1      44.679  30.149  27.998  1.00  0.00    -0.354 N 
ATOM     51  N   UNL A   1      42.245  31.013  29.406  1.00  0.00    -0.248 NA
ATOM     52  C   UNL A   1      41.037  32.652  30.545  1.00  0.00     0.031 C 
ATOM     53  C   UNL A   1      46.318  31.623  27.728  1.00  0.00     0.029 A 
ATOM     54  C   UNL A   1      45.046  31.461  28.252  1.00  0.00     0.049 A 
ATOM     55  H   UNL A   1      43.824  29.740  28.265  1.00  0.00     0.167 HD
ATOM     56  C   UNL A   1      42.986  32.188  29.430  1.00  0.00     0.074 A 
ATOM     57  C   UNL A   1      42.174  33.175  30.113  1.00  0.00     0.031 C 
ATOM     58  C   UNL A   1      44.223  32.430  28.929  1.00  0.00     0.037 A 
BRANCH  45  59
ATOM     59  C   UNL A   1      46.845  27.539  26.204  1.00  0.00     0.064 A 
ATOM     60  C   UNL A   1      46.990  27.621  24.810  1.00  0.00     0.173 A 
ATOM     61  C   UNL A   1      47.869  26.917  26.933  1.00  0.00     0.173 A 
ATOM     62  F   UNL A   1      46.031  28.192  24.064  1.00  0.00    -0.203 F 
ATOM     63  C   UNL A   1      48.102  27.080  24.171  1.00  0.00     0.198 A 
ATOM     64  C   UNL A   1      48.995  26.403  26.294  1.00  0.00     0.198 A 
ATOM     65  F   UNL A   1      47.782  26.812  28.267  1.00  0.00    -0.203 F 
ATOM     66  F   UNL A   1      48.196  27.127  22.835  1.00  0.00    -0.200 F 
ATOM     67  C   UNL A   1      49.108  26.477  24.914  1.00  0.00     0.200 A 
ATOM     68  F   UNL A   1      49.969  25.830  27.015  1.00  0.00    -0.200 F 
ATOM     69  F   UNL A   1      50.180  25.961  24.299  1.00  0.00    -0.200 F 
ENDBRANCH  45  59
BRANCH  46  70
ATOM     70  C   UNL A   1      38.725  30.903  30.973  1.00  0.00     0.064 A 
ATOM     71  C   UNL A   1      38.631  30.856  32.371  1.00  0.00     0.173 A 
ATOM     72  C   UNL A   1      37.639  31.435  30.263  1.00  0.00     0.173 A 
ATOM     73  F   UNL A   1      39.634  30.335  33.093  1.00  0.00    -0.203 F 
ATOM     74  C   UNL A   1      37.488  31.304  33.030  1.00  0.00     0.198 A 
ATOM     75  C   UNL A   1      36.509  31.910  30.925  1.00  0.00     0.198 A 
ATOM     76  F   UNL A   1      37.679  31.502  28.925  1.00  0.00    -0.203 F 
ATOM     77  F   UNL A   1      37.403  31.203  34.364  1.00  0.00    -0.200 F 
ATOM     78  C   UNL A   1      36.430  31.837  32.307  1.00  0.00     0.200 A 
ATOM     79  F   UNL A   1      35.496  32.435  30.223  1.00  0.00    -0.200 F 
ATOM     80  F   UNL A   1      35.332  32.270  32.942  1.00  0.00    -0.200 F 
ENDBRANCH  46  70
BRANCH  58  81
ATOM     81  C   UNL A   1      44.755  33.829  29.068  1.00  0.00     0.064 A 
ATOM     82  C   UNL A   1      44.513  34.814  28.099  1.00  0.00     0.173 A 
ATOM     83  C   UNL A   1      45.506  34.191  30.197  1.00  0.00     0.173 A 
ATOM     84  F   UNL A   1      43.810  34.516  26.996  1.00  0.00    -0.203 F 
ATOM     85  C   UNL A   1      45.039  36.096  28.235  1.00  0.00     0.198 A 
ATOM     86  C   UNL A   1      46.002  35.484  30.345  1.00  0.00     0.198 A 
ATOM     87  F   UNL A   1      45.759  33.291  31.160  1.00  0.00    -0.203 F 
ATOM     88  F   UNL A   1      44.848  37.001  27.265  1.00  0.00    -0.200 F 
ATOM     89  C   UNL A   1      45.778  36.431  29.358  1.00  0.00     0.200 A 
ATOM     90  F   UNL A   1      46.702  35.810  31.440  1.00  0.00    -0.200 F 
ATOM     91  F   UNL A   1      46.284  37.666  29.486  1.00  0.00    -0.200 F 
ENDBRANCH  58  81
ENDBRANCH  32  33
ENDBRANCH  25  27
ENDBRANCH  24  25
ENDBRANCH  23  24
ENDBRANCH  22  23
ENDBRANCH  21  22
ENDBRANCH   1  21
TORSDOF 18
ENDMDL
MODEL 3
REMARK VINA RESULT:     -10.3      1.031      7.719
REMARK SMILES CC[N@H+](CC(C)(C)C(=O)OCCOCCOC(=O)c1ccc(-c2c3nc(c(-c4c(F)c(F)c(F)c(F)c4F)c4ccc([nH]4)c(-c4c(F)c(F)c(F)c(F)c4F)c4nc(c(-c5c(F)c(F)c(F)c(F)c5F)c5ccc2[nH]5)C=C4)C=C3)cc1)[C@H]1CC[NH2+]C1
REMARK SMILES IDX 12 1 11 2 10 3 8 4 9 5 5 6 6 7 7 8 4 9 3 10 2 12 1 13 82 14
REMARK SMILES IDX 83 15 86 16 84 17 85 18 13 21 14 22 15 23 16 24 17 25 18 26
REMARK SMILES IDX 19 27 20 28 81 29 21 30 80 31 22 32 23 33 24 34 74 35 25 36
REMARK SMILES IDX 79 37 73 38 75 39 26 40 78 41 72 42 71 43 27 45 59 46 39 47
REMARK SMILES IDX 58 48 40 49 43 50 57 51 76 52 41 53 42 54 56 56 77 57 44 58
REMARK SMILES IDX 28 59 29 60 37 61 30 62 31 63 35 64 38 65 32 66 33 67 36 68
REMARK SMILES IDX 34 69 60 70 61 71 69 72 62 73 63 74 67 75 70 76 64 77 65 78
REMARK SMILES IDX 68 79 66 80 45 81 46 82 54 83 47 84 48 85 52 86 55 87 49 88
REMARK SMILES IDX 50 89 53 90 51 91
REMARK H PARENT 3 11 85 19 85 20 75 44 43 55
REMARK Flexibility Score: inf
ROOT
ATOM      1  C   UNL A   1      34.343  23.289  25.802  1.00  0.00     0.202 C 
ENDROOT
BRANCH   1   2
ATOM      2  C   UNL A   1      34.368  24.718  25.234  1.00  0.00     0.261 C 
BRANCH   2   3
ATOM      3  O   UNL A   1      33.080  25.346  25.234  1.00  0.00    -0.463 OA
BRANCH   3   4
ATOM      4  C   UNL A   1      32.997  26.553  25.853  1.00  0.00     0.317 C 
ATOM      5  O   UNL A   1      33.967  27.116  26.343  1.00  0.00    -0.251 OA
BRANCH   4   6
ATOM      6  C   UNL A   1      31.556  27.103  25.901  1.00  0.00     0.111 C 
ATOM      7  C   UNL A   1      31.404  27.831  27.246  1.00  0.00     0.029 C 
ATOM      8  C   UNL A   1      30.547  25.921  25.910  1.00  0.00     0.029 C 
BRANCH   6   9
ATOM      9  C   UNL A   1      31.160  28.044  24.705  1.00  0.00     0.280 C 
BRANCH   9  10
ATOM     10  N   UNL A   1      30.371  27.556  23.533  1.00  0.00    -0.327 N 
ATOM     11  H   UNL A   1      29.830  26.723  23.769  1.00  0.00     0.348 HD
BRANCH  10  12
ATOM     12  C   UNL A   1      29.359  28.563  23.152  1.00  0.00     0.259 C 
ATOM     13  C   UNL A   1      29.528  30.041  23.485  1.00  0.00     0.071 C 
ENDBRANCH  10  12
BRANCH  10  14
ATOM     14  C   UNL A   1      31.288  27.111  22.451  1.00  0.00     0.245 C 
ATOM     15  C   UNL A   1      32.698  27.707  22.511  1.00  0.00     0.132 C 
ATOM     16  C   UNL A   1      31.507  25.603  22.212  1.00  0.00     0.326 C 
ATOM     17  C   UNL A   1      33.572  26.662  21.840  1.00  0.00     0.267 C 
ATOM     18  N   UNL A   1      32.956  25.364  22.130  1.00  0.00    -0.341 N 
ATOM     19  H   UNL A   1      33.304  24.999  23.017  1.00  0.00     0.346 HD
ATOM     20  H   UNL A   1      33.179  24.679  21.409  1.00  0.00     0.346 HD
ENDBRANCH  10  14
ENDBRANCH   9  10
ENDBRANCH   6   9
ENDBRANCH   4   6
ENDBRANCH   3   4
ENDBRANCH   2   3
ENDBRANCH   1   2
BRANCH   1  21
ATOM     21  O   UNL A   1      34.728  22.207  24.963  1.00  0.00    -0.374 OA
BRANCH  21  22
ATOM     22  C   UNL A   1      35.370  21.076  25.546  1.00  0.00     0.202 C 
BRANCH  22  23
ATOM     23  C   UNL A   1      36.722  20.606  25.000  1.00  0.00     0.261 C 
BRANCH  23  24
ATOM     24  O   UNL A   1      37.731  21.630  25.049  1.00  0.00    -0.460 OA
BRANCH  24  25
ATOM     25  C   UNL A   1      38.784  21.330  25.845  1.00  0.00     0.338 C 
ATOM     26  O   UNL A   1      39.370  20.265  25.931  1.00  0.00    -0.246 OA
BRANCH  25  27
ATOM     27  C   UNL A   1      39.298  22.547  26.494  1.00  0.00     0.060 A 
ATOM     28  C   UNL A   1      38.706  23.761  26.123  1.00  0.00     0.016 A 
ATOM     29  C   UNL A   1      40.412  22.521  27.335  1.00  0.00     0.016 A 
ATOM     30  C   UNL A   1      39.267  24.960  26.541  1.00  0.00     0.010 A 
ATOM     31  C   UNL A   1      40.982  23.732  27.746  1.00  0.00     0.010 A 
ATOM     32  C   UNL A   1      40.439  24.953  27.310  1.00  0.00    -0.014 A 
BRANCH  32  33
ATOM     33  C   UNL A   1      41.166  26.235  27.477  1.00  0.00     0.031 A 
ATOM     34  C   UNL A   1      40.492  27.362  28.211  1.00  0.00     0.074 A 
ATOM     35  C   UNL A   1      42.446  26.348  27.086  1.00  0.00     0.049 A 
ATOM     36  N   UNL A   1      40.974  28.523  28.577  1.00  0.00    -0.248 NA
ATOM     37  C   UNL A   1      39.087  27.148  28.594  1.00  0.00     0.031 C 
ATOM     38  C   UNL A   1      43.212  25.307  26.403  1.00  0.00     0.029 A 
ATOM     39  N   UNL A   1      43.334  27.384  27.228  1.00  0.00    -0.354 N 
ATOM     40  C   UNL A   1      39.937  29.172  29.236  1.00  0.00     0.074 A 
ATOM     41  C   UNL A   1      38.788  28.295  29.186  1.00  0.00     0.031 C 
ATOM     42  C   UNL A   1      44.462  25.754  26.193  1.00  0.00     0.029 A 
ATOM     43  C   UNL A   1      44.576  27.116  26.711  1.00  0.00     0.049 A 
ATOM     44  H   UNL A   1      43.101  28.237  27.659  1.00  0.00     0.167 HD
ATOM     45  C   UNL A   1      39.947  30.384  29.841  1.00  0.00     0.037 A 
ATOM     46  C   UNL A   1      45.680  27.886  26.664  1.00  0.00     0.037 A 
ATOM     47  C   UNL A   1      41.093  31.254  29.885  1.00  0.00     0.049 A 
ATOM     48  C   UNL A   1      45.649  29.252  27.301  1.00  0.00     0.074 A 
ATOM     49  C   UNL A   1      41.209  32.501  30.474  1.00  0.00     0.029 A 
ATOM     50  N   UNL A   1      42.323  30.967  29.310  1.00  0.00    -0.354 N 
ATOM     51  N   UNL A   1      44.674  29.846  27.944  1.00  0.00    -0.248 NA
ATOM     52  C   UNL A   1      46.882  30.047  27.216  1.00  0.00     0.031 C 
ATOM     53  C   UNL A   1      42.494  32.991  30.211  1.00  0.00     0.029 A 
ATOM     54  C   UNL A   1      43.197  32.024  29.512  1.00  0.00     0.049 A 
ATOM     55  H   UNL A   1      42.542  30.136  28.830  1.00  0.00     0.167 HD
ATOM     56  C   UNL A   1      45.182  31.068  28.368  1.00  0.00     0.074 A 
ATOM     57  C   UNL A   1      46.559  31.120  27.922  1.00  0.00     0.031 C 
ATOM     58  C   UNL A   1      44.567  32.056  29.064  1.00  0.00     0.037 A 
BRANCH  45  59
ATOM     59  C   UNL A   1      38.671  30.849  30.481  1.00  0.00     0.064 A 
ATOM     60  C   UNL A   1      37.630  31.418  29.730  1.00  0.00     0.173 A 
ATOM     61  C   UNL A   1      38.475  30.701  31.862  1.00  0.00     0.173 A 
ATOM     62  F   UNL A   1      37.773  31.597  28.407  1.00  0.00    -0.203 F 
ATOM     63  C   UNL A   1      36.455  31.845  30.341  1.00  0.00     0.198 A 
ATOM     64  C   UNL A   1      37.286  31.102  32.466  1.00  0.00     0.198 A 
ATOM     65  F   UNL A   1      39.436  30.162  32.628  1.00  0.00    -0.203 F 
ATOM     66  F   UNL A   1      35.495  32.431  29.611  1.00  0.00    -0.200 F 
ATOM     67  C   UNL A   1      36.280  31.680  31.707  1.00  0.00     0.200 A 
ATOM     68  F   UNL A   1      37.116  30.932  33.785  1.00  0.00    -0.200 F 
ATOM     69  F   UNL A   1      35.146  32.087  32.294  1.00  0.00    -0.200 F 
ENDBRANCH  45  59
BRANCH  46  70
ATOM     70  C   UNL A   1      46.911  27.380  26.001  1.00  0.00     0.064 A 
ATOM     71  C   UNL A   1      47.907  26.713  26.728  1.00  0.00     0.173 A 
ATOM     72  C   UNL A   1      47.120  27.569  24.628  1.00  0.00     0.173 A 
ATOM     73  F   UNL A   1      47.764  26.528  28.048  1.00  0.00    -0.203 F 
ATOM     74  C   UNL A   1      49.075  26.272  26.109  1.00  0.00     0.198 A 
ATOM     75  C   UNL A   1      48.274  27.101  24.004  1.00  0.00     0.198 A 
ATOM     76  F   UNL A   1      46.198  28.202  23.888  1.00  0.00    -0.203 F 
ATOM     77  F   UNL A   1      50.034  25.681  26.835  1.00  0.00    -0.200 F 
ATOM     78  C   UNL A   1      49.255  26.461  24.746  1.00  0.00     0.200 A 
ATOM     79  F   UNL A   1      48.438  27.275  22.686  1.00  0.00    -0.200 F 
ATOM     80  F   UNL A   1      50.378  26.034  24.150  1.00  0.00    -0.200 F 
ENDBRANCH  46  70
BRANCH  58  81
ATOM     81  C   UNL A   1      45.394  33.258  29.421  1.00  0.00     0.064 A 
ATOM     82  C   UNL A   1      46.137  33.322  30.610  1.00  0.00     0.173 A 
ATOM     83  C   UNL A   1      45.455  34.359  28.551  1.00  0.00     0.173 A 
ATOM     84  F   UNL A   1      46.104  32.302  31.480  1.00  0.00    -0.203 F 
ATOM     85  C   UNL A   1      46.874  34.458  30.933  1.00  0.00     0.198 A 
ATOM     86  C   UNL A   1      46.221  35.479  28.862  1.00  0.00     0.198 A 
ATOM     87  F   UNL A   1      44.773  34.347  27.396  1.00  0.00    -0.203 F 
ATOM     88  F   UNL A   1      47.524  34.521  32.104  1.00  0.00    -0.200 F 
ATOM     89  C   UNL A   1      46.920  35.532  30.058  1.00  0.00     0.200 A 
ATOM     90  F   UNL A   1      46.276  36.509  28.007  1.00  0.00    -0.200 F 
ATOM     91  F   UNL A   1      47.630  36.625  30.373  1.00  0.00    -0.200 F 
ENDBRANCH  58  81
ENDBRANCH  32  33
ENDBRANCH  25  27
ENDBRANCH  24  25
ENDBRANCH  23  24
ENDBRANCH  22  23
ENDBRANCH  21  22
ENDBRANCH   1  21
TORSDOF 18
ENDMDL
