MODEL 1
REMARK VINA RESULT:     -12.0      0.000      0.000
REMARK SMILES Cc1cc2c(=O)c3ccccc3oc2c(C(=O)OCCOCCOC(=O)c2ccc(-c3c4nc(c(-c5c(F)c(F)c(F)c(F)c5F)c5ccc([nH]5)c(-c5c(F)c(F)c(F)c(F)c5F)c5nc(c(-c6c(F)c(F)c(F)c(F)c6F)c6ccc3[nH]6)C=C5)C=C4)cc2)c1C
REMARK SMILES IDX 22 1 21 2 20 3 19 4 18 5 16 6 17 7 15 8 1 9 2 10 3 11 90 12
REMARK SMILES IDX 4 13 91 14 5 15 14 16 6 17 7 18 13 19 8 20 12 21 9 22 11 23
REMARK SMILES IDX 10 24 23 25 24 26 25 27 26 28 27 29 28 30 89 31 29 32 88 33
REMARK SMILES IDX 30 34 31 35 32 36 82 37 33 38 87 39 81 40 83 41 34 42 86 43
REMARK SMILES IDX 80 44 79 45 35 47 67 48 47 49 66 50 48 51 51 52 65 53 84 54
REMARK SMILES IDX 49 55 50 56 64 58 85 59 52 60 36 61 37 62 45 63 38 64 39 65
REMARK SMILES IDX 43 66 46 67 40 68 41 69 44 70 42 71 68 72 69 73 77 74 70 75
REMARK SMILES IDX 71 76 75 77 78 78 72 79 73 80 76 81 74 82 53 83 54 84 62 85
REMARK SMILES IDX 55 86 56 87 60 88 63 89 57 90 58 91 61 92 59 93
REMARK H PARENT 83 46 51 57
REMARK Flexibility Score: inf
ROOT
ATOM      1  C   UNL A   1      31.611  29.070  24.765  1.00  0.00     0.202 C 
ENDROOT
BRANCH   1   2
ATOM      2  O   UNL A   1      31.132  27.827  25.273  1.00  0.00    -0.374 OA
BRANCH   2   3
ATOM      3  C   UNL A   1      31.834  27.227  26.361  1.00  0.00     0.202 C 
BRANCH   3   4
ATOM      4  C   UNL A   1      33.287  26.829  26.107  1.00  0.00     0.261 C 
BRANCH   4   5
ATOM      5  O   UNL A   1      33.400  25.403  25.994  1.00  0.00    -0.460 OA
BRANCH   5   6
ATOM      6  C   UNL A   1      33.793  24.943  24.783  1.00  0.00     0.342 C 
ATOM      7  O   UNL A   1      34.025  25.623  23.798  1.00  0.00    -0.246 OA
BRANCH   6   8
ATOM      8  C   UNL A   1      34.001  23.468  24.817  1.00  0.00     0.106 A 
ATOM      9  C   UNL A   1      32.327  20.127  23.909  1.00  0.00     0.044 C 
ATOM     10  C   UNL A   1      33.328  21.175  24.322  1.00  0.00    -0.046 A 
ATOM     11  C   UNL A   1      34.654  20.767  24.543  1.00  0.00     0.019 A 
ATOM     12  C   UNL A   1      32.983  22.540  24.466  1.00  0.00    -0.030 A 
ATOM     13  C   UNL A   1      35.619  21.682  24.964  1.00  0.00     0.067 A 
ATOM     14  C   UNL A   1      31.548  22.986  24.307  1.00  0.00     0.046 C 
ATOM     15  C   UNL A   1      36.995  21.230  25.226  1.00  0.00     0.200 A 
ATOM     16  C   UNL A   1      35.299  23.022  25.137  1.00  0.00     0.153 A 
ATOM     17  O   UNL A   1      37.345  20.079  25.002  1.00  0.00    -0.288 OA
ATOM     18  C   UNL A   1      37.919  22.219  25.793  1.00  0.00     0.065 A 
ATOM     19  O   UNL A   1      36.188  23.931  25.671  1.00  0.00    -0.455 OA
ATOM     20  C   UNL A   1      39.233  21.869  26.119  1.00  0.00     0.016 A 
ATOM     21  C   UNL A   1      37.444  23.505  26.027  1.00  0.00     0.138 A 
ATOM     22  C   UNL A   1      40.068  22.815  26.714  1.00  0.00     0.001 A 
ATOM     23  C   UNL A   1      38.275  24.442  26.642  1.00  0.00     0.048 A 
ATOM     24  C   UNL A   1      39.585  24.095  26.989  1.00  0.00     0.004 A 
ENDBRANCH   6   8
ENDBRANCH   5   6
ENDBRANCH   4   5
ENDBRANCH   3   4
ENDBRANCH   2   3
ENDBRANCH   1   2
BRANCH   1  25
ATOM     25  C   UNL A   1      31.885  30.193  25.774  1.00  0.00     0.261 C 
BRANCH  25  26
ATOM     26  O   UNL A   1      33.257  30.253  26.200  1.00  0.00    -0.460 OA
BRANCH  26  27
ATOM     27  C   UNL A   1      33.548  31.257  27.063  1.00  0.00     0.338 C 
ATOM     28  O   UNL A   1      32.830  32.191  27.388  1.00  0.00    -0.246 OA
BRANCH  27  29
ATOM     29  C   UNL A   1      34.827  30.963  27.733  1.00  0.00     0.060 A 
ATOM     30  C   UNL A   1      35.751  31.973  28.001  1.00  0.00     0.016 A 
ATOM     31  C   UNL A   1      35.081  29.642  28.127  1.00  0.00     0.016 A 
ATOM     32  C   UNL A   1      36.935  31.658  28.675  1.00  0.00     0.010 A 
ATOM     33  C   UNL A   1      36.264  29.330  28.795  1.00  0.00     0.010 A 
ATOM     34  C   UNL A   1      37.196  30.337  29.085  1.00  0.00    -0.014 A 
BRANCH  34  35
ATOM     35  C   UNL A   1      38.402  30.019  29.889  1.00  0.00     0.031 A 
ATOM     36  C   UNL A   1      38.574  30.562  31.276  1.00  0.00     0.074 A 
ATOM     37  C   UNL A   1      39.362  29.250  29.342  1.00  0.00     0.049 A 
ATOM     38  N   UNL A   1      39.562  30.382  32.117  1.00  0.00    -0.248 NA
ATOM     39  C   UNL A   1      37.499  31.424  31.787  1.00  0.00     0.031 C 
ATOM     40  C   UNL A   1      39.315  28.682  27.995  1.00  0.00     0.029 A 
ATOM     41  N   UNL A   1      40.561  28.816  29.848  1.00  0.00    -0.354 N 
ATOM     42  C   UNL A   1      39.223  31.091  33.260  1.00  0.00     0.074 A 
ATOM     43  C   UNL A   1      37.959  31.746  32.989  1.00  0.00     0.031 C 
ATOM     44  C   UNL A   1      40.423  27.954  27.790  1.00  0.00     0.029 A 
ATOM     45  C   UNL A   1      41.275  28.034  28.974  1.00  0.00     0.049 A 
ATOM     46  H   UNL A   1      40.879  29.041  30.752  1.00  0.00     0.167 HD
ATOM     47  C   UNL A   1      39.896  31.170  34.433  1.00  0.00     0.037 A 
ATOM     48  C   UNL A   1      42.482  27.453  29.107  1.00  0.00     0.037 A 
ATOM     49  C   UNL A   1      41.163  30.530  34.692  1.00  0.00     0.049 A 
ATOM     50  C   UNL A   1      43.239  27.614  30.398  1.00  0.00     0.074 A 
ATOM     51  C   UNL A   1      41.911  30.537  35.857  1.00  0.00     0.029 A 
ATOM     52  N   UNL A   1      41.878  29.780  33.768  1.00  0.00    -0.354 N 
ATOM     53  N   UNL A   1      42.883  28.240  31.493  1.00  0.00    -0.248 NA
ATOM     54  C   UNL A   1      44.562  26.981  30.471  1.00  0.00     0.031 C 
ATOM     55  C   UNL A   1      43.100  29.841  35.623  1.00  0.00     0.029 A 
ATOM     56  C   UNL A   1      43.070  29.344  34.330  1.00  0.00     0.049 A 
ATOM     57  H   UNL A   1      41.582  29.585  32.850  1.00  0.00     0.167 HD
ATOM     58  C   UNL A   1      43.927  28.061  32.392  1.00  0.00     0.074 A 
ATOM     59  C   UNL A   1      44.917  27.242  31.721  1.00  0.00     0.031 C 
ATOM     60  C   UNL A   1      44.055  28.535  33.655  1.00  0.00     0.037 A 
BRANCH  47  61
ATOM     61  C   UNL A   1      39.280  31.973  35.543  1.00  0.00     0.064 A 
ATOM     62  C   UNL A   1      38.452  31.374  36.504  1.00  0.00     0.173 A 
ATOM     63  C   UNL A   1      39.581  33.335  35.695  1.00  0.00     0.173 A 
ATOM     64  F   UNL A   1      38.124  30.077  36.400  1.00  0.00    -0.203 F 
ATOM     65  C   UNL A   1      37.937  32.112  37.568  1.00  0.00     0.198 A 
ATOM     66  C   UNL A   1      39.090  34.062  36.777  1.00  0.00     0.198 A 
ATOM     67  F   UNL A   1      40.373  33.956  34.810  1.00  0.00    -0.203 F 
ATOM     68  F   UNL A   1      37.122  31.525  38.455  1.00  0.00    -0.200 F 
ATOM     69  C   UNL A   1      38.265  33.451  37.710  1.00  0.00     0.200 A 
ATOM     70  F   UNL A   1      39.422  35.353  36.922  1.00  0.00    -0.200 F 
ATOM     71  F   UNL A   1      37.786  34.155  38.745  1.00  0.00    -0.200 F 
ENDBRANCH  47  61
BRANCH  48  72
ATOM     72  C   UNL A   1      43.037  26.644  27.992  1.00  0.00     0.064 A 
ATOM     73  C   UNL A   1      42.883  25.251  27.970  1.00  0.00     0.173 A 
ATOM     74  C   UNL A   1      43.721  27.241  26.923  1.00  0.00     0.173 A 
ATOM     75  F   UNL A   1      42.256  24.631  28.980  1.00  0.00    -0.203 F 
ATOM     76  C   UNL A   1      43.400  24.486  26.926  1.00  0.00     0.198 A 
ATOM     77  C   UNL A   1      44.210  26.479  25.864  1.00  0.00     0.198 A 
ATOM     78  F   UNL A   1      43.895  28.570  26.895  1.00  0.00    -0.203 F 
ATOM     79  F   UNL A   1      43.273  23.152  26.951  1.00  0.00    -0.200 F 
ATOM     80  C   UNL A   1      44.056  25.101  25.871  1.00  0.00     0.200 A 
ATOM     81  F   UNL A   1      44.828  27.080  24.838  1.00  0.00    -0.200 F 
ATOM     82  F   UNL A   1      44.543  24.366  24.861  1.00  0.00    -0.200 F 
ENDBRANCH  48  72
BRANCH  60  83
ATOM     83  C   UNL A   1      45.307  28.174  34.407  1.00  0.00     0.064 A 
ATOM     84  C   UNL A   1      45.395  27.000  35.170  1.00  0.00     0.173 A 
ATOM     85  C   UNL A   1      46.446  28.991  34.331  1.00  0.00     0.173 A 
ATOM     86  F   UNL A   1      44.332  26.190  35.287  1.00  0.00    -0.203 F 
ATOM     87  C   UNL A   1      46.564  26.675  35.855  1.00  0.00     0.198 A 
ATOM     88  C   UNL A   1      47.625  28.643  34.986  1.00  0.00     0.198 A 
ATOM     89  F   UNL A   1      46.423  30.122  33.608  1.00  0.00    -0.203 F 
ATOM     90  F   UNL A   1      46.604  25.577  36.622  1.00  0.00    -0.200 F 
ATOM     91  C   UNL A   1      47.679  27.491  35.755  1.00  0.00     0.200 A 
ATOM     92  F   UNL A   1      48.708  29.425  34.874  1.00  0.00    -0.200 F 
ATOM     93  F   UNL A   1      48.806  27.171  36.406  1.00  0.00    -0.200 F 
ENDBRANCH  60  83
ENDBRANCH  34  35
ENDBRANCH  27  29
ENDBRANCH  26  27
ENDBRANCH  25  26
ENDBRANCH   1  25
TORSDOF 14
ENDMDL
MODEL 2
REMARK VINA RESULT:     -11.7      0.399      7.322
REMARK SMILES Cc1cc2c(=O)c3ccccc3oc2c(C(=O)OCCOCCOC(=O)c2ccc(-c3c4nc(c(-c5c(F)c(F)c(F)c(F)c5F)c5ccc([nH]5)c(-c5c(F)c(F)c(F)c(F)c5F)c5nc(c(-c6c(F)c(F)c(F)c(F)c6F)c6ccc3[nH]6)C=C5)C=C4)cc2)c1C
REMARK SMILES IDX 22 1 21 2 20 3 19 4 18 5 16 6 17 7 15 8 1 9 2 10 3 11 90 12
REMARK SMILES IDX 4 13 91 14 5 15 14 16 6 17 7 18 13 19 8 20 12 21 9 22 11 23
REMARK SMILES IDX 10 24 23 25 24 26 25 27 26 28 27 29 28 30 89 31 29 32 88 33
REMARK SMILES IDX 30 34 31 35 32 36 82 37 33 38 87 39 81 40 83 41 34 42 86 43
REMARK SMILES IDX 80 44 79 45 35 47 67 48 47 49 66 50 48 51 51 52 65 53 84 54
REMARK SMILES IDX 49 55 50 56 64 58 85 59 52 60 36 61 37 62 45 63 38 64 39 65
REMARK SMILES IDX 43 66 46 67 40 68 41 69 44 70 42 71 68 72 69 73 77 74 70 75
REMARK SMILES IDX 71 76 75 77 78 78 72 79 73 80 76 81 74 82 53 83 54 84 62 85
REMARK SMILES IDX 55 86 56 87 60 88 63 89 57 90 58 91 61 92 59 93
REMARK H PARENT 83 46 51 57
REMARK Flexibility Score: inf
ROOT
ATOM      1  C   UNL A   1      31.538  29.049  24.655  1.00  0.00     0.202 C 
ENDROOT
BRANCH   1   2
ATOM      2  O   UNL A   1      30.996  27.840  25.181  1.00  0.00    -0.374 OA
BRANCH   2   3
ATOM      3  C   UNL A   1      31.879  26.936  25.842  1.00  0.00     0.202 C 
BRANCH   3   4
ATOM      4  C   UNL A   1      33.229  26.679  25.174  1.00  0.00     0.261 C 
BRANCH   4   5
ATOM      5  O   UNL A   1      33.604  25.302  25.320  1.00  0.00    -0.460 OA
BRANCH   5   6
ATOM      6  C   UNL A   1      33.976  24.675  24.179  1.00  0.00     0.342 C 
ATOM      7  O   UNL A   1      34.214  25.212  23.111  1.00  0.00    -0.246 OA
BRANCH   6   8
ATOM      8  C   UNL A   1      34.151  23.213  24.409  1.00  0.00     0.106 A 
ATOM      9  C   UNL A   1      32.459  19.808  23.839  1.00  0.00     0.044 C 
ATOM     10  C   UNL A   1      33.458  20.885  24.171  1.00  0.00    -0.046 A 
ATOM     11  C   UNL A   1      34.762  20.491  24.514  1.00  0.00     0.019 A 
ATOM     12  C   UNL A   1      33.134  22.263  24.124  1.00  0.00    -0.030 A 
ATOM     13  C   UNL A   1      35.723  21.438  24.868  1.00  0.00     0.067 A 
ATOM     14  C   UNL A   1      31.719  22.704  23.831  1.00  0.00     0.046 C 
ATOM     15  C   UNL A   1      37.073  21.004  25.260  1.00  0.00     0.200 A 
ATOM     16  C   UNL A   1      35.422  22.793  24.853  1.00  0.00     0.153 A 
ATOM     17  O   UNL A   1      37.411  19.829  25.201  1.00  0.00    -0.288 OA
ATOM     18  C   UNL A   1      37.986  22.044  25.747  1.00  0.00     0.065 A 
ATOM     19  O   UNL A   1      36.300  23.751  25.317  1.00  0.00    -0.455 OA
ATOM     20  C   UNL A   1      39.274  21.720  26.186  1.00  0.00     0.016 A 
ATOM     21  C   UNL A   1      37.526  23.356  25.791  1.00  0.00     0.138 A 
ATOM     22  C   UNL A   1      40.096  22.721  26.702  1.00  0.00     0.001 A 
ATOM     23  C   UNL A   1      38.344  24.352  26.328  1.00  0.00     0.048 A 
ATOM     24  C   UNL A   1      39.626  24.033  26.787  1.00  0.00     0.004 A 
ENDBRANCH   6   8
ENDBRANCH   5   6
ENDBRANCH   4   5
ENDBRANCH   3   4
ENDBRANCH   2   3
ENDBRANCH   1   2
BRANCH   1  25
ATOM     25  C   UNL A   1      31.791  30.201  25.636  1.00  0.00     0.261 C 
BRANCH  25  26
ATOM     26  O   UNL A   1      33.068  30.119  26.292  1.00  0.00    -0.460 OA
BRANCH  26  27
ATOM     27  C   UNL A   1      33.421  31.219  27.002  1.00  0.00     0.338 C 
ATOM     28  O   UNL A   1      32.745  32.212  27.222  1.00  0.00    -0.246 OA
BRANCH  27  29
ATOM     29  C   UNL A   1      34.717  30.974  27.661  1.00  0.00     0.060 A 
ATOM     30  C   UNL A   1      35.597  32.020  27.937  1.00  0.00     0.016 A 
ATOM     31  C   UNL A   1      35.031  29.660  28.037  1.00  0.00     0.016 A 
ATOM     32  C   UNL A   1      36.797  31.749  28.602  1.00  0.00     0.010 A 
ATOM     33  C   UNL A   1      36.230  29.392  28.695  1.00  0.00     0.010 A 
ATOM     34  C   UNL A   1      37.119  30.436  28.993  1.00  0.00    -0.014 A 
BRANCH  34  35
ATOM     35  C   UNL A   1      38.342  30.161  29.786  1.00  0.00     0.031 A 
ATOM     36  C   UNL A   1      39.449  29.313  29.234  1.00  0.00     0.074 A 
ATOM     37  C   UNL A   1      38.437  30.667  31.029  1.00  0.00     0.049 A 
ATOM     38  N   UNL A   1      40.587  28.977  29.789  1.00  0.00    -0.248 NA
ATOM     39  C   UNL A   1      39.254  28.768  27.883  1.00  0.00     0.031 C 
ATOM     40  C   UNL A   1      37.416  31.489  31.680  1.00  0.00     0.029 A 
ATOM     41  N   UNL A   1      39.433  30.566  31.966  1.00  0.00    -0.354 N 
ATOM     42  C   UNL A   1      41.250  28.196  28.854  1.00  0.00     0.074 A 
ATOM     43  C   UNL A   1      40.367  28.067  27.712  1.00  0.00     0.031 C 
ATOM     44  C   UNL A   1      37.849  31.837  32.901  1.00  0.00     0.029 A 
ATOM     45  C   UNL A   1      39.158  31.233  33.135  1.00  0.00     0.049 A 
ATOM     46  H   UNL A   1      40.267  30.063  31.817  1.00  0.00     0.167 HD
ATOM     47  C   UNL A   1      42.490  27.655  28.935  1.00  0.00     0.037 A 
ATOM     48  C   UNL A   1      39.877  31.341  34.268  1.00  0.00     0.037 A 
ATOM     49  C   UNL A   1      43.358  27.772  30.081  1.00  0.00     0.049 A 
ATOM     50  C   UNL A   1      41.222  30.673  34.355  1.00  0.00     0.074 A 
ATOM     51  C   UNL A   1      44.639  27.274  30.247  1.00  0.00     0.029 A 
ATOM     52  N   UNL A   1      43.030  28.421  31.263  1.00  0.00    -0.354 N 
ATOM     53  N   UNL A   1      41.864  29.984  33.444  1.00  0.00    -0.248 NA
ATOM     54  C   UNL A   1      41.943  30.804  35.628  1.00  0.00     0.031 C 
ATOM     55  C   UNL A   1      45.064  27.572  31.545  1.00  0.00     0.029 A 
ATOM     56  C   UNL A   1      44.074  28.310  32.172  1.00  0.00     0.049 A 
ATOM     57  H   UNL A   1      42.182  28.890  31.433  1.00  0.00     0.167 HD
ATOM     58  C   UNL A   1      43.072  29.616  34.024  1.00  0.00     0.074 A 
ATOM     59  C   UNL A   1      43.083  30.184  35.357  1.00  0.00     0.031 C 
ATOM     60  C   UNL A   1      44.076  28.872  33.500  1.00  0.00     0.037 A 
BRANCH  47  61
ATOM     61  C   UNL A   1      42.999  26.886  27.748  1.00  0.00     0.064 A 
ATOM     62  C   UNL A   1      43.693  27.523  26.710  1.00  0.00     0.173 A 
ATOM     63  C   UNL A   1      42.862  25.491  27.687  1.00  0.00     0.173 A 
ATOM     64  F   UNL A   1      43.844  28.856  26.715  1.00  0.00    -0.203 F 
ATOM     65  C   UNL A   1      44.220  26.793  25.645  1.00  0.00     0.198 A 
ATOM     66  C   UNL A   1      43.416  24.761  26.637  1.00  0.00     0.198 A 
ATOM     67  F   UNL A   1      42.213  24.830  28.657  1.00  0.00    -0.203 F 
ATOM     68  F   UNL A   1      44.850  27.429  24.648  1.00  0.00    -0.200 F 
ATOM     69  C   UNL A   1      44.091  25.413  25.615  1.00  0.00     0.200 A 
ATOM     70  F   UNL A   1      43.305  23.426  26.619  1.00  0.00    -0.200 F 
ATOM     71  F   UNL A   1      44.614  24.711  24.601  1.00  0.00    -0.200 F 
ENDBRANCH  47  61
BRANCH  48  72
ATOM     72  C   UNL A   1      39.344  32.138  35.404  1.00  0.00     0.064 A 
ATOM     73  C   UNL A   1      38.543  31.541  36.386  1.00  0.00     0.173 A 
ATOM     74  C   UNL A   1      39.632  33.504  35.538  1.00  0.00     0.173 A 
ATOM     75  F   UNL A   1      38.221  30.242  36.290  1.00  0.00    -0.203 F 
ATOM     76  C   UNL A   1      38.041  32.282  37.454  1.00  0.00     0.198 A 
ATOM     77  C   UNL A   1      39.156  34.238  36.623  1.00  0.00     0.198 A 
ATOM     78  F   UNL A   1      40.395  34.123  34.626  1.00  0.00    -0.203 F 
ATOM     79  F   UNL A   1      37.244  31.695  38.357  1.00  0.00    -0.200 F 
ATOM     80  C   UNL A   1      38.355  33.627  37.576  1.00  0.00     0.200 A 
ATOM     81  F   UNL A   1      39.476  35.533  36.746  1.00  0.00    -0.200 F 
ATOM     82  F   UNL A   1      37.882  34.337  38.610  1.00  0.00    -0.200 F 
ENDBRANCH  48  72
BRANCH  60  83
ATOM     83  C   UNL A   1      45.284  28.633  34.364  1.00  0.00     0.064 A 
ATOM     84  C   UNL A   1      46.366  29.526  34.381  1.00  0.00     0.173 A 
ATOM     85  C   UNL A   1      45.344  27.519  35.217  1.00  0.00     0.173 A 
ATOM     86  F   UNL A   1      46.367  30.600  33.577  1.00  0.00    -0.203 F 
ATOM     87  C   UNL A   1      47.475  29.297  35.193  1.00  0.00     0.198 A 
ATOM     88  C   UNL A   1      46.437  27.313  36.055  1.00  0.00     0.198 A 
ATOM     89  F   UNL A   1      44.333  26.636  35.250  1.00  0.00    -0.203 F 
ATOM     90  F   UNL A   1      48.519  30.135  35.148  1.00  0.00    -0.200 F 
ATOM     91  C   UNL A   1      47.505  28.196  36.035  1.00  0.00     0.200 A 
ATOM     92  F   UNL A   1      46.456  26.258  36.881  1.00  0.00    -0.200 F 
ATOM     93  F   UNL A   1      48.568  27.982  36.823  1.00  0.00    -0.200 F 
ENDBRANCH  60  83
ENDBRANCH  34  35
ENDBRANCH  27  29
ENDBRANCH  26  27
ENDBRANCH  25  26
ENDBRANCH   1  25
TORSDOF 14
ENDMDL
MODEL 3
REMARK VINA RESULT:     -11.7      2.065      7.923
REMARK SMILES Cc1cc2c(=O)c3ccccc3oc2c(C(=O)OCCOCCOC(=O)c2ccc(-c3c4nc(c(-c5c(F)c(F)c(F)c(F)c5F)c5ccc([nH]5)c(-c5c(F)c(F)c(F)c(F)c5F)c5nc(c(-c6c(F)c(F)c(F)c(F)c6F)c6ccc3[nH]6)C=C5)C=C4)cc2)c1C
REMARK SMILES IDX 22 1 21 2 20 3 19 4 18 5 16 6 17 7 15 8 1 9 2 10 3 11 90 12
REMARK SMILES IDX 4 13 91 14 5 15 14 16 6 17 7 18 13 19 8 20 12 21 9 22 11 23
REMARK SMILES IDX 10 24 23 25 24 26 25 27 26 28 27 29 28 30 89 31 29 32 88 33
REMARK SMILES IDX 30 34 31 35 32 36 82 37 33 38 87 39 81 40 83 41 34 42 86 43
REMARK SMILES IDX 80 44 79 45 35 47 67 48 47 49 66 50 48 51 51 52 65 53 84 54
REMARK SMILES IDX 49 55 50 56 64 58 85 59 52 60 36 61 37 62 45 63 38 64 39 65
REMARK SMILES IDX 43 66 46 67 40 68 41 69 44 70 42 71 68 72 69 73 77 74 70 75
REMARK SMILES IDX 71 76 75 77 78 78 72 79 73 80 76 81 74 82 53 83 54 84 62 85
REMARK SMILES IDX 55 86 56 87 60 88 63 89 57 90 58 91 61 92 59 93
REMARK H PARENT 83 46 51 57
REMARK Flexibility Score: inf
ROOT
ATOM      1  C   UNL A   1      32.528  32.304  27.131  1.00  0.00     0.202 C 
ENDROOT
BRANCH   1   2
ATOM      2  O   UNL A   1      33.186  31.225  27.793  1.00  0.00    -0.374 OA
BRANCH   2   3
ATOM      3  C   UNL A   1      34.595  31.084  27.616  1.00  0.00     0.202 C 
BRANCH   3   4
ATOM      4  C   UNL A   1      35.113  29.682  27.299  1.00  0.00     0.261 C 
BRANCH   4   5
ATOM      5  O   UNL A   1      34.452  29.158  26.138  1.00  0.00    -0.460 OA
BRANCH   5   6
ATOM      6  C   UNL A   1      33.428  28.307  26.384  1.00  0.00     0.342 C 
ATOM      7  O   UNL A   1      32.970  28.034  27.481  1.00  0.00    -0.246 OA
BRANCH   6   8
ATOM      8  C   UNL A   1      32.849  27.791  25.113  1.00  0.00     0.106 A 
ATOM      9  C   UNL A   1      30.479  28.732  22.235  1.00  0.00     0.044 C 
ATOM     10  C   UNL A   1      31.502  28.033  23.092  1.00  0.00    -0.046 A 
ATOM     11  C   UNL A   1      32.150  26.908  22.558  1.00  0.00     0.019 A 
ATOM     12  C   UNL A   1      31.841  28.485  24.390  1.00  0.00    -0.030 A 
ATOM     13  C   UNL A   1      33.079  26.194  23.315  1.00  0.00     0.067 A 
ATOM     14  C   UNL A   1      31.102  29.647  25.011  1.00  0.00     0.046 C 
ATOM     15  C   UNL A   1      33.721  24.996  22.753  1.00  0.00     0.200 A 
ATOM     16  C   UNL A   1      33.410  26.603  24.600  1.00  0.00     0.153 A 
ATOM     17  O   UNL A   1      33.529  24.650  21.595  1.00  0.00    -0.288 OA
ATOM     18  C   UNL A   1      34.583  24.223  23.654  1.00  0.00     0.065 A 
ATOM     19  O   UNL A   1      34.225  25.857  25.427  1.00  0.00    -0.455 OA
ATOM     20  C   UNL A   1      35.199  23.044  23.222  1.00  0.00     0.016 A 
ATOM     21  C   UNL A   1      34.747  24.677  24.959  1.00  0.00     0.138 A 
ATOM     22  C   UNL A   1      35.962  22.299  24.121  1.00  0.00     0.001 A 
ATOM     23  C   UNL A   1      35.493  23.917  25.861  1.00  0.00     0.048 A 
ATOM     24  C   UNL A   1      36.097  22.727  25.443  1.00  0.00     0.004 A 
ENDBRANCH   6   8
ENDBRANCH   5   6
ENDBRANCH   4   5
ENDBRANCH   3   4
ENDBRANCH   2   3
ENDBRANCH   1   2
BRANCH   1  25
ATOM     25  C   UNL A   1      33.090  33.716  27.342  1.00  0.00     0.261 C 
BRANCH  25  26
ATOM     26  O   UNL A   1      32.370  34.472  28.332  1.00  0.00    -0.460 OA
BRANCH  26  27
ATOM     27  C   UNL A   1      33.134  35.294  29.094  1.00  0.00     0.338 C 
ATOM     28  O   UNL A   1      32.874  36.434  29.448  1.00  0.00    -0.246 OA
BRANCH  27  29
ATOM     29  C   UNL A   1      34.284  34.536  29.619  1.00  0.00     0.060 A 
ATOM     30  C   UNL A   1      35.572  34.748  29.131  1.00  0.00     0.016 A 
ATOM     31  C   UNL A   1      34.055  33.616  30.651  1.00  0.00     0.016 A 
ATOM     32  C   UNL A   1      36.641  34.039  29.686  1.00  0.00     0.010 A 
ATOM     33  C   UNL A   1      35.122  32.906  31.200  1.00  0.00     0.010 A 
ATOM     34  C   UNL A   1      36.426  33.119  30.730  1.00  0.00    -0.014 A 
BRANCH  34  35
ATOM     35  C   UNL A   1      37.569  32.441  31.388  1.00  0.00     0.031 A 
ATOM     36  C   UNL A   1      38.279  31.298  30.724  1.00  0.00     0.074 A 
ATOM     37  C   UNL A   1      37.951  32.851  32.611  1.00  0.00     0.049 A 
ATOM     38  N   UNL A   1      39.296  30.595  31.155  1.00  0.00    -0.248 NA
ATOM     39  C   UNL A   1      37.779  30.886  29.405  1.00  0.00     0.031 C 
ATOM     40  C   UNL A   1      37.325  33.938  33.364  1.00  0.00     0.029 A 
ATOM     41  N   UNL A   1      38.952  32.405  33.436  1.00  0.00    -0.354 N 
ATOM     42  C   UNL A   1      39.571  29.671  30.158  1.00  0.00     0.074 A 
ATOM     43  C   UNL A   1      38.581  29.869  29.119  1.00  0.00     0.031 C 
ATOM     44  C   UNL A   1      37.971  34.090  34.530  1.00  0.00     0.029 A 
ATOM     45  C   UNL A   1      39.031  33.089  34.624  1.00  0.00     0.049 A 
ATOM     46  H   UNL A   1      39.558  31.665  33.200  1.00  0.00     0.167 HD
ATOM     47  C   UNL A   1      40.569  28.757  30.108  1.00  0.00     0.037 A 
ATOM     48  C   UNL A   1      39.858  32.926  35.674  1.00  0.00     0.037 A 
ATOM     49  C   UNL A   1      41.542  28.552  31.154  1.00  0.00     0.049 A 
ATOM     50  C   UNL A   1      40.916  31.857  35.619  1.00  0.00     0.074 A 
ATOM     51  C   UNL A   1      42.603  27.663  31.183  1.00  0.00     0.029 A 
ATOM     52  N   UNL A   1      41.566  29.236  32.361  1.00  0.00    -0.354 N 
ATOM     53  N   UNL A   1      41.202  31.025  34.647  1.00  0.00    -0.248 NA
ATOM     54  C   UNL A   1      41.768  31.709  36.806  1.00  0.00     0.031 C 
ATOM     55  C   UNL A   1      43.233  27.768  32.427  1.00  0.00     0.029 A 
ATOM     56  C   UNL A   1      42.605  28.767  33.152  1.00  0.00     0.049 A 
ATOM     57  H   UNL A   1      40.938  29.949  32.619  1.00  0.00     0.167 HD
ATOM     58  C   UNL A   1      42.278  30.270  35.095  1.00  0.00     0.074 A 
ATOM     59  C   UNL A   1      42.611  30.763  36.416  1.00  0.00     0.031 C 
ATOM     60  C   UNL A   1      42.927  29.257  34.470  1.00  0.00     0.037 A 
BRANCH  47  61
ATOM     61  C   UNL A   1      40.676  27.901  28.878  1.00  0.00     0.064 A 
ATOM     62  C   UNL A   1      39.932  26.720  28.743  1.00  0.00     0.173 A 
ATOM     63  C   UNL A   1      41.467  28.305  27.790  1.00  0.00     0.173 A 
ATOM     64  F   UNL A   1      39.168  26.284  29.756  1.00  0.00    -0.203 F 
ATOM     65  C   UNL A   1      39.986  25.967  27.572  1.00  0.00     0.198 A 
ATOM     66  C   UNL A   1      41.494  27.566  26.610  1.00  0.00     0.198 A 
ATOM     67  F   UNL A   1      42.193  29.430  27.862  1.00  0.00    -0.203 F 
ATOM     68  F   UNL A   1      39.292  24.824  27.481  1.00  0.00    -0.200 F 
ATOM     69  C   UNL A   1      40.758  26.396  26.503  1.00  0.00     0.200 A 
ATOM     70  F   UNL A   1      42.228  27.992  25.571  1.00  0.00    -0.200 F 
ATOM     71  F   UNL A   1      40.793  25.681  25.370  1.00  0.00    -0.200 F 
ENDBRANCH  47  61
BRANCH  48  72
ATOM     72  C   UNL A   1      39.733  33.817  36.856  1.00  0.00     0.064 A 
ATOM     73  C   UNL A   1      40.400  35.049  36.900  1.00  0.00     0.173 A 
ATOM     74  C   UNL A   1      38.940  33.464  37.958  1.00  0.00     0.173 A 
ATOM     75  F   UNL A   1      41.189  35.420  35.881  1.00  0.00    -0.203 F 
ATOM     76  C   UNL A   1      40.286  35.889  38.006  1.00  0.00     0.198 A 
ATOM     77  C   UNL A   1      38.801  34.320  39.049  1.00  0.00     0.198 A 
ATOM     78  F   UNL A   1      38.280  32.297  37.965  1.00  0.00    -0.203 F 
ATOM     79  F   UNL A   1      40.967  37.043  38.039  1.00  0.00    -0.200 F 
ATOM     80  C   UNL A   1      39.481  35.528  39.075  1.00  0.00     0.200 A 
ATOM     81  F   UNL A   1      38.008  33.974  40.072  1.00  0.00    -0.200 F 
ATOM     82  F   UNL A   1      39.362  36.342  40.133  1.00  0.00    -0.200 F 
ENDBRANCH  48  72
BRANCH  60  83
ATOM     83  C   UNL A   1      44.075  28.616  35.201  1.00  0.00     0.064 A 
ATOM     84  C   UNL A   1      43.890  27.490  36.018  1.00  0.00     0.173 A 
ATOM     85  C   UNL A   1      45.382  29.107  35.051  1.00  0.00     0.173 A 
ATOM     86  F   UNL A   1      42.661  26.988  36.207  1.00  0.00    -0.203 F 
ATOM     87  C   UNL A   1      44.964  26.901  36.683  1.00  0.00     0.198 A 
ATOM     88  C   UNL A   1      46.457  28.492  35.687  1.00  0.00     0.198 A 
ATOM     89  F   UNL A   1      45.619  30.175  34.274  1.00  0.00    -0.203 F 
ATOM     90  F   UNL A   1      44.752  25.862  37.502  1.00  0.00    -0.200 F 
ATOM     91  C   UNL A   1      46.246  27.396  36.510  1.00  0.00     0.200 A 
ATOM     92  F   UNL A   1      47.699  28.962  35.504  1.00  0.00    -0.200 F 
ATOM     93  F   UNL A   1      47.279  26.822  37.142  1.00  0.00    -0.200 F 
ENDBRANCH  60  83
ENDBRANCH  34  35
ENDBRANCH  27  29
ENDBRANCH  26  27
ENDBRANCH  25  26
ENDBRANCH   1  25
TORSDOF 14
ENDMDL
