MODEL 1
REMARK VINA RESULT:     -11.9      0.000      0.000
REMARK SMILES Cc1cc(NC(=O)[C@@H]2CC=CC[C@H]2C(=O)OCCOCCOC(=O)c2ccc(-c3c4nc(c(-c5c(F)c(F)c(F)c(F)c5F)c5ccc([nH]5)c(-c5c(F)c(F)c(F)c(F)c5F)c5nc(c(-c6c(F)c(F)c(F)c(F)c6F)c6ccc3[nH]6)C=C5)C=C4)cc2)no1
REMARK SMILES IDX 19 1 18 2 17 3 16 4 14 5 15 6 13 7 8 8 9 9 10 10 12 11 11 12
REMARK SMILES IDX 6 13 5 14 7 16 4 17 1 18 2 19 3 20 89 21 88 22 20 23 21 24
REMARK SMILES IDX 22 25 23 26 24 27 25 28 26 29 87 30 27 31 86 32 28 33 29 34
REMARK SMILES IDX 30 35 80 36 31 37 85 38 79 39 81 40 32 41 84 42 78 43 77 44
REMARK SMILES IDX 33 46 65 47 45 48 64 49 46 50 49 51 63 52 82 53 47 54 48 55
REMARK SMILES IDX 62 57 83 58 50 59 34 60 35 61 43 62 36 63 37 64 41 65 44 66
REMARK SMILES IDX 38 67 39 68 42 69 40 70 66 71 67 72 75 73 68 74 69 75 73 76
REMARK SMILES IDX 76 77 70 78 71 79 74 80 72 81 51 82 52 83 60 84 53 85 54 86
REMARK SMILES IDX 58 87 61 88 55 89 56 90 59 91 57 92
REMARK H PARENT 5 15 81 45 49 56
REMARK Flexibility Score: inf
ROOT
ATOM      1  O   UNL A   1      35.811  22.789  24.994  1.00  0.00    -0.374 OA
ENDROOT
BRANCH   1   2
ATOM      2  C   UNL A   1      35.725  23.106  23.609  1.00  0.00     0.202 C 
BRANCH   2   3
ATOM      3  C   UNL A   1      34.392  23.668  23.109  1.00  0.00     0.261 C 
BRANCH   3   4
ATOM      4  O   UNL A   1      34.040  24.950  23.659  1.00  0.00    -0.463 OA
BRANCH   4   5
ATOM      5  C   UNL A   1      33.497  25.833  22.777  1.00  0.00     0.310 C 
ATOM      6  O   UNL A   1      33.718  25.829  21.571  1.00  0.00    -0.252 OA
BRANCH   5   7
ATOM      7  C   UNL A   1      32.725  26.954  23.450  1.00  0.00     0.116 C 
ATOM      8  C   UNL A   1      31.823  26.543  24.629  1.00  0.00     0.097 C 
ATOM      9  C   UNL A   1      31.463  27.674  25.626  1.00  0.00     0.041 C 
ATOM     10  C   UNL A   1      32.356  28.873  25.618  1.00  0.00    -0.030 C 
ATOM     11  C   UNL A   1      33.827  27.954  23.842  1.00  0.00     0.043 C 
ATOM     12  C   UNL A   1      33.417  29.001  24.818  1.00  0.00    -0.030 C 
BRANCH   8  13
ATOM     13  C   UNL A   1      30.577  25.737  24.215  1.00  0.00     0.229 C 
ATOM     14  N   UNL A   1      30.294  24.479  24.659  1.00  0.00    -0.308 N 
ATOM     15  H   UNL A   1      29.621  23.987  24.137  1.00  0.00     0.171 HD
ATOM     16  O   UNL A   1      29.825  26.195  23.345  1.00  0.00    -0.274 OA
BRANCH  14  17
ATOM     17  C   UNL A   1      30.820  23.803  25.734  1.00  0.00     0.176 A 
ATOM     18  C   UNL A   1      33.382  22.123  27.733  1.00  0.00     0.091 C 
ATOM     19  C   UNL A   1      32.251  22.715  27.002  1.00  0.00     0.135 A 
ATOM     20  C   UNL A   1      31.989  23.005  25.684  1.00  0.00     0.095 A 
ATOM     21  O   UNL A   1      31.226  23.169  27.768  1.00  0.00    -0.360 OA
ATOM     22  N   UNL A   1      30.339  23.860  26.976  1.00  0.00    -0.062 NA
ENDBRANCH  14  17
ENDBRANCH   8  13
ENDBRANCH   5   7
ENDBRANCH   4   5
ENDBRANCH   3   4
ENDBRANCH   2   3
ENDBRANCH   1   2
BRANCH   1  23
ATOM     23  C   UNL A   1      35.938  21.409  25.343  1.00  0.00     0.202 C 
BRANCH  23  24
ATOM     24  C   UNL A   1      37.272  20.752  24.982  1.00  0.00     0.261 C 
BRANCH  24  25
ATOM     25  O   UNL A   1      38.367  21.679  25.103  1.00  0.00    -0.460 OA
BRANCH  25  26
ATOM     26  C   UNL A   1      39.289  21.370  26.033  1.00  0.00     0.338 C 
ATOM     27  O   UNL A   1      39.852  20.292  26.199  1.00  0.00    -0.246 OA
BRANCH  26  28
ATOM     28  C   UNL A   1      39.688  22.577  26.777  1.00  0.00     0.060 A 
ATOM     29  C   UNL A   1      38.995  23.761  26.497  1.00  0.00     0.016 A 
ATOM     30  C   UNL A   1      40.782  22.583  27.645  1.00  0.00     0.016 A 
ATOM     31  C   UNL A   1      39.442  24.971  27.020  1.00  0.00     0.010 A 
ATOM     32  C   UNL A   1      41.237  23.801  28.164  1.00  0.00     0.010 A 
ATOM     33  C   UNL A   1      40.598  25.005  27.812  1.00  0.00    -0.014 A 
BRANCH  33  34
ATOM     34  C   UNL A   1      41.220  26.317  28.118  1.00  0.00     0.031 A 
ATOM     35  C   UNL A   1      42.625  26.584  27.653  1.00  0.00     0.074 A 
ATOM     36  C   UNL A   1      40.526  27.282  28.745  1.00  0.00     0.049 A 
ATOM     37  N   UNL A   1      43.361  27.659  27.795  1.00  0.00    -0.248 NA
ATOM     38  C   UNL A   1      43.292  25.492  26.926  1.00  0.00     0.031 C 
ATOM     39  C   UNL A   1      39.146  27.164  29.206  1.00  0.00     0.029 A 
ATOM     40  N   UNL A   1      40.893  28.557  29.099  1.00  0.00    -0.354 N 
ATOM     41  C   UNL A   1      44.572  27.371  27.178  1.00  0.00     0.074 A 
ATOM     42  C   UNL A   1      44.487  26.011  26.690  1.00  0.00     0.031 C 
ATOM     43  C   UNL A   1      38.782  28.318  29.791  1.00  0.00     0.029 A 
ATOM     44  C   UNL A   1      39.912  29.245  29.768  1.00  0.00     0.049 A 
ATOM     45  H   UNL A   1      41.776  28.941  28.892  1.00  0.00     0.167 HD
ATOM     46  C   UNL A   1      45.652  28.173  27.020  1.00  0.00     0.037 A 
ATOM     47  C   UNL A   1      39.933  30.476  30.314  1.00  0.00     0.037 A 
ATOM     48  C   UNL A   1      45.737  29.526  27.503  1.00  0.00     0.049 A 
ATOM     49  C   UNL A   1      41.171  31.325  30.187  1.00  0.00     0.074 A 
ATOM     50  C   UNL A   1      46.784  30.424  27.380  1.00  0.00     0.029 A 
ATOM     51  N   UNL A   1      44.738  30.174  28.213  1.00  0.00    -0.354 N 
ATOM     52  N   UNL A   1      42.302  31.055  29.583  1.00  0.00    -0.248 NA
ATOM     53  C   UNL A   1      41.132  32.653  30.818  1.00  0.00     0.031 C 
ATOM     54  C   UNL A   1      46.436  31.597  28.057  1.00  0.00     0.029 A 
ATOM     55  C   UNL A   1      45.153  31.450  28.558  1.00  0.00     0.049 A 
ATOM     56  H   UNL A   1      43.861  29.784  28.439  1.00  0.00     0.167 HD
ATOM     57  C   UNL A   1      43.098  32.184  29.737  1.00  0.00     0.074 A 
ATOM     58  C   UNL A   1      42.315  33.147  30.481  1.00  0.00     0.031 C 
ATOM     59  C   UNL A   1      44.362  32.401  29.298  1.00  0.00     0.037 A 
BRANCH  46  60
ATOM     60  C   UNL A   1      46.843  27.595  26.314  1.00  0.00     0.064 A 
ATOM     61  C   UNL A   1      46.986  27.675  24.920  1.00  0.00     0.173 A 
ATOM     62  C   UNL A   1      47.869  26.973  27.044  1.00  0.00     0.173 A 
ATOM     63  F   UNL A   1      46.028  28.247  24.176  1.00  0.00    -0.203 F 
ATOM     64  C   UNL A   1      48.096  27.129  24.282  1.00  0.00     0.198 A 
ATOM     65  C   UNL A   1      48.991  26.454  26.404  1.00  0.00     0.198 A 
ATOM     66  F   UNL A   1      47.784  26.874  28.379  1.00  0.00    -0.203 F 
ATOM     67  F   UNL A   1      48.189  27.176  22.945  1.00  0.00    -0.200 F 
ATOM     68  C   UNL A   1      49.101  26.526  25.024  1.00  0.00     0.200 A 
ATOM     69  F   UNL A   1      49.965  25.882  27.125  1.00  0.00    -0.200 F 
ATOM     70  F   UNL A   1      50.172  26.005  24.408  1.00  0.00    -0.200 F 
ENDBRANCH  46  60
BRANCH  47  71
ATOM     71  C   UNL A   1      38.739  30.977  31.042  1.00  0.00     0.064 A 
ATOM     72  C   UNL A   1      37.692  31.619  30.366  1.00  0.00     0.173 A 
ATOM     73  C   UNL A   1      38.624  30.828  32.432  1.00  0.00     0.173 A 
ATOM     74  F   UNL A   1      37.769  31.810  29.041  1.00  0.00    -0.203 F 
ATOM     75  C   UNL A   1      36.582  32.104  31.055  1.00  0.00     0.198 A 
ATOM     76  C   UNL A   1      37.502  31.288  33.116  1.00  0.00     0.198 A 
ATOM     77  F   UNL A   1      39.601  30.224  33.125  1.00  0.00    -0.203 F 
ATOM     78  F   UNL A   1      35.614  32.750  30.392  1.00  0.00    -0.200 F 
ATOM     79  C   UNL A   1      36.484  31.932  32.428  1.00  0.00     0.200 A 
ATOM     80  F   UNL A   1      37.407  31.111  34.441  1.00  0.00    -0.200 F 
ATOM     81  F   UNL A   1      35.414  32.392  33.089  1.00  0.00    -0.200 F 
ENDBRANCH  47  71
BRANCH  59  82
ATOM     82  C   UNL A   1      44.972  33.742  29.587  1.00  0.00     0.064 A 
ATOM     83  C   UNL A   1      45.740  33.970  30.738  1.00  0.00     0.173 A 
ATOM     84  C   UNL A   1      44.823  34.802  28.678  1.00  0.00     0.173 A 
ATOM     85  F   UNL A   1      45.901  32.995  31.646  1.00  0.00    -0.203 F 
ATOM     86  C   UNL A   1      46.315  35.215  30.981  1.00  0.00     0.198 A 
ATOM     87  C   UNL A   1      45.423  36.035  28.909  1.00  0.00     0.198 A 
ATOM     88  F   UNL A   1      44.106  34.634  27.557  1.00  0.00    -0.203 F 
ATOM     89  F   UNL A   1      47.008  35.422  32.109  1.00  0.00    -0.200 F 
ATOM     90  C   UNL A   1      46.163  36.243  30.063  1.00  0.00     0.200 A 
ATOM     91  F   UNL A   1      45.287  37.025  28.015  1.00  0.00    -0.200 F 
ATOM     92  F   UNL A   1      46.724  37.438  30.295  1.00  0.00    -0.200 F 
ENDBRANCH  59  82
ENDBRANCH  33  34
ENDBRANCH  26  28
ENDBRANCH  25  26
ENDBRANCH  24  25
ENDBRANCH  23  24
ENDBRANCH   1  23
TORSDOF 16
ENDMDL
MODEL 2
REMARK VINA RESULT:     -11.7      4.507      9.992
REMARK SMILES Cc1cc(NC(=O)[C@@H]2CC=CC[C@H]2C(=O)OCCOCCOC(=O)c2ccc(-c3c4nc(c(-c5c(F)c(F)c(F)c(F)c5F)c5ccc([nH]5)c(-c5c(F)c(F)c(F)c(F)c5F)c5nc(c(-c6c(F)c(F)c(F)c(F)c6F)c6ccc3[nH]6)C=C5)C=C4)cc2)no1
REMARK SMILES IDX 19 1 18 2 17 3 16 4 14 5 15 6 13 7 8 8 9 9 10 10 12 11 11 12
REMARK SMILES IDX 6 13 5 14 7 16 4 17 1 18 2 19 3 20 89 21 88 22 20 23 21 24
REMARK SMILES IDX 22 25 23 26 24 27 25 28 26 29 87 30 27 31 86 32 28 33 29 34
REMARK SMILES IDX 30 35 80 36 31 37 85 38 79 39 81 40 32 41 84 42 78 43 77 44
REMARK SMILES IDX 33 46 65 47 45 48 64 49 46 50 49 51 63 52 82 53 47 54 48 55
REMARK SMILES IDX 62 57 83 58 50 59 34 60 35 61 43 62 36 63 37 64 41 65 44 66
REMARK SMILES IDX 38 67 39 68 42 69 40 70 66 71 67 72 75 73 68 74 69 75 73 76
REMARK SMILES IDX 76 77 70 78 71 79 74 80 72 81 51 82 52 83 60 84 53 85 54 86
REMARK SMILES IDX 58 87 61 88 55 89 56 90 59 91 57 92
REMARK H PARENT 5 15 81 45 49 56
REMARK Flexibility Score: inf
ROOT
ATOM      1  O   UNL A   1      32.451  30.631  26.090  1.00  0.00    -0.374 OA
ENDROOT
BRANCH   1   2
ATOM      2  C   UNL A   1      32.871  29.492  26.832  1.00  0.00     0.202 C 
BRANCH   2   3
ATOM      3  C   UNL A   1      31.773  28.657  27.497  1.00  0.00     0.261 C 
BRANCH   3   4
ATOM      4  O   UNL A   1      31.123  27.719  26.622  1.00  0.00    -0.463 OA
BRANCH   4   5
ATOM      5  C   UNL A   1      31.943  26.811  26.027  1.00  0.00     0.310 C 
ATOM      6  O   UNL A   1      32.920  26.304  26.568  1.00  0.00    -0.252 OA
BRANCH   5   7
ATOM      7  C   UNL A   1      31.649  26.613  24.551  1.00  0.00     0.116 C 
ATOM      8  C   UNL A   1      32.825  26.862  23.586  1.00  0.00     0.097 C 
ATOM      9  C   UNL A   1      32.713  26.181  22.199  1.00  0.00     0.041 C 
ATOM     10  C   UNL A   1      31.766  25.028  22.102  1.00  0.00    -0.030 C 
ATOM     11  C   UNL A   1      31.103  25.175  24.491  1.00  0.00     0.043 C 
ATOM     12  C   UNL A   1      31.042  24.576  23.129  1.00  0.00    -0.030 C 
BRANCH   8  13
ATOM     13  C   UNL A   1      33.227  28.344  23.457  1.00  0.00     0.229 C 
ATOM     14  N   UNL A   1      32.399  29.327  23.000  1.00  0.00    -0.308 N 
ATOM     15  H   UNL A   1      32.842  30.163  22.731  1.00  0.00     0.171 HD
ATOM     16  O   UNL A   1      34.400  28.671  23.675  1.00  0.00    -0.274 OA
BRANCH  14  17
ATOM     17  C   UNL A   1      31.031  29.310  22.862  1.00  0.00     0.176 A 
ATOM     18  C   UNL A   1      27.583  30.440  23.329  1.00  0.00     0.091 C 
ATOM     19  C   UNL A   1      28.914  29.848  23.119  1.00  0.00     0.135 A 
ATOM     20  C   UNL A   1      30.129  29.936  23.757  1.00  0.00     0.095 A 
ATOM     21  O   UNL A   1      29.051  29.086  22.005  1.00  0.00    -0.360 OA
ATOM     22  N   UNL A   1      30.377  28.761  21.838  1.00  0.00    -0.062 NA
ENDBRANCH  14  17
ENDBRANCH   8  13
ENDBRANCH   5   7
ENDBRANCH   4   5
ENDBRANCH   3   4
ENDBRANCH   2   3
ENDBRANCH   1   2
BRANCH   1  23
ATOM     23  C   UNL A   1      31.581  31.556  26.747  1.00  0.00     0.202 C 
BRANCH  23  24
ATOM     24  C   UNL A   1      32.106  32.988  26.874  1.00  0.00     0.261 C 
BRANCH  24  25
ATOM     25  O   UNL A   1      32.695  33.220  28.168  1.00  0.00    -0.460 OA
BRANCH  25  26
ATOM     26  C   UNL A   1      33.790  34.001  28.175  1.00  0.00     0.338 C 
ATOM     27  O   UNL A   1      33.835  35.227  28.122  1.00  0.00    -0.246 OA
BRANCH  26  28
ATOM     28  C   UNL A   1      34.994  33.189  28.422  1.00  0.00     0.060 A 
ATOM     29  C   UNL A   1      34.801  31.884  28.891  1.00  0.00     0.016 A 
ATOM     30  C   UNL A   1      36.281  33.719  28.305  1.00  0.00     0.016 A 
ATOM     31  C   UNL A   1      35.890  31.131  29.324  1.00  0.00     0.010 A 
ATOM     32  C   UNL A   1      37.374  32.965  28.747  1.00  0.00     0.010 A 
ATOM     33  C   UNL A   1      37.176  31.688  29.305  1.00  0.00    -0.014 A 
BRANCH  33  34
ATOM     34  C   UNL A   1      38.270  30.993  30.027  1.00  0.00     0.031 A 
ATOM     35  C   UNL A   1      38.499  31.308  31.481  1.00  0.00     0.074 A 
ATOM     36  C   UNL A   1      39.009  30.048  29.420  1.00  0.00     0.049 A 
ATOM     37  N   UNL A   1      39.384  30.814  32.311  1.00  0.00    -0.248 NA
ATOM     38  C   UNL A   1      37.608  32.314  32.080  1.00  0.00     0.031 C 
ATOM     39  C   UNL A   1      38.857  29.622  28.033  1.00  0.00     0.029 A 
ATOM     40  N   UNL A   1      40.037  29.277  29.901  1.00  0.00    -0.354 N 
ATOM     41  C   UNL A   1      39.155  31.448  33.526  1.00  0.00     0.074 A 
ATOM     42  C   UNL A   1      38.073  32.387  33.318  1.00  0.00     0.031 C 
ATOM     43  C   UNL A   1      39.766  28.668  27.769  1.00  0.00     0.029 A 
ATOM     44  C   UNL A   1      40.579  28.436  28.962  1.00  0.00     0.049 A 
ATOM     45  H   UNL A   1      40.355  29.321  30.833  1.00  0.00     0.167 HD
ATOM     46  C   UNL A   1      39.782  31.256  34.711  1.00  0.00     0.037 A 
ATOM     47  C   UNL A   1      41.624  27.591  29.051  1.00  0.00     0.037 A 
ATOM     48  C   UNL A   1      40.857  30.323  34.920  1.00  0.00     0.049 A 
ATOM     49  C   UNL A   1      42.352  27.445  30.361  1.00  0.00     0.074 A 
ATOM     50  C   UNL A   1      41.547  30.046  36.088  1.00  0.00     0.029 A 
ATOM     51  N   UNL A   1      41.406  29.519  33.932  1.00  0.00    -0.354 N 
ATOM     52  N   UNL A   1      42.116  28.031  31.510  1.00  0.00    -0.248 NA
ATOM     53  C   UNL A   1      43.491  26.516  30.387  1.00  0.00     0.031 C 
ATOM     54  C   UNL A   1      42.545  29.110  35.796  1.00  0.00     0.029 A 
ATOM     55  C   UNL A   1      42.444  28.765  34.457  1.00  0.00     0.049 A 
ATOM     56  H   UNL A   1      41.104  29.488  32.995  1.00  0.00     0.167 HD
ATOM     57  C   UNL A   1      43.056  27.525  32.399  1.00  0.00     0.074 A 
ATOM     58  C   UNL A   1      43.859  26.575  31.660  1.00  0.00     0.031 C 
ATOM     59  C   UNL A   1      43.235  27.821  33.710  1.00  0.00     0.037 A 
BRANCH  46  60
ATOM     60  C   UNL A   1      39.334  32.095  35.872  1.00  0.00     0.064 A 
ATOM     61  C   UNL A   1      38.362  31.644  36.778  1.00  0.00     0.173 A 
ATOM     62  C   UNL A   1      39.903  33.359  36.096  1.00  0.00     0.173 A 
ATOM     63  F   UNL A   1      37.778  30.449  36.601  1.00  0.00    -0.203 F 
ATOM     64  C   UNL A   1      37.957  32.437  37.847  1.00  0.00     0.198 A 
ATOM     65  C   UNL A   1      39.515  34.137  37.183  1.00  0.00     0.198 A 
ATOM     66  F   UNL A   1      40.841  33.836  35.263  1.00  0.00    -0.203 F 
ATOM     67  F   UNL A   1      36.993  32.005  38.673  1.00  0.00    -0.200 F 
ATOM     68  C   UNL A   1      38.538  33.680  38.053  1.00  0.00     0.200 A 
ATOM     69  F   UNL A   1      40.087  35.332  37.386  1.00  0.00    -0.200 F 
ATOM     70  F   UNL A   1      38.150  34.441  39.086  1.00  0.00    -0.200 F 
ENDBRANCH  46  60
BRANCH  47  71
ATOM     71  C   UNL A   1      42.050  26.821  27.854  1.00  0.00     0.064 A 
ATOM     72  C   UNL A   1      41.519  25.554  27.578  1.00  0.00     0.173 A 
ATOM     73  C   UNL A   1      43.005  27.337  26.965  1.00  0.00     0.173 A 
ATOM     74  F   UNL A   1      40.624  25.007  28.414  1.00  0.00    -0.203 F 
ATOM     75  C   UNL A   1      41.936  24.826  26.464  1.00  0.00     0.198 A 
ATOM     76  C   UNL A   1      43.400  26.622  25.838  1.00  0.00     0.198 A 
ATOM     77  F   UNL A   1      43.546  28.544  27.187  1.00  0.00    -0.203 F 
ATOM     78  F   UNL A   1      41.443  23.601  26.245  1.00  0.00    -0.200 F 
ATOM     79  C   UNL A   1      42.870  25.364  25.591  1.00  0.00     0.200 A 
ATOM     80  F   UNL A   1      44.295  27.149  24.991  1.00  0.00    -0.200 F 
ATOM     81  F   UNL A   1      43.265  24.668  24.517  1.00  0.00    -0.200 F 
ENDBRANCH  47  71
BRANCH  59  82
ATOM     82  C   UNL A   1      44.325  27.090  34.440  1.00  0.00     0.064 A 
ATOM     83  C   UNL A   1      45.612  27.632  34.575  1.00  0.00     0.173 A 
ATOM     84  C   UNL A   1      44.067  25.853  35.050  1.00  0.00     0.173 A 
ATOM     85  F   UNL A   1      45.915  28.804  33.999  1.00  0.00    -0.203 F 
ATOM     86  C   UNL A   1      46.606  26.949  35.273  1.00  0.00     0.198 A 
ATOM     87  C   UNL A   1      45.053  25.188  35.771  1.00  0.00     0.198 A 
ATOM     88  F   UNL A   1      42.850  25.295  34.958  1.00  0.00    -0.203 F 
ATOM     89  F   UNL A   1      47.840  27.465  35.352  1.00  0.00    -0.200 F 
ATOM     90  C   UNL A   1      46.324  25.733  35.877  1.00  0.00     0.200 A 
ATOM     91  F   UNL A   1      44.776  24.019  36.365  1.00  0.00    -0.200 F 
ATOM     92  F   UNL A   1      47.280  25.082  36.554  1.00  0.00    -0.200 F 
ENDBRANCH  59  82
ENDBRANCH  33  34
ENDBRANCH  26  28
ENDBRANCH  25  26
ENDBRANCH  24  25
ENDBRANCH  23  24
ENDBRANCH   1  23
TORSDOF 16
ENDMDL
MODEL 3
REMARK VINA RESULT:     -11.6      1.312      2.335
REMARK SMILES Cc1cc(NC(=O)[C@@H]2CC=CC[C@H]2C(=O)OCCOCCOC(=O)c2ccc(-c3c4nc(c(-c5c(F)c(F)c(F)c(F)c5F)c5ccc([nH]5)c(-c5c(F)c(F)c(F)c(F)c5F)c5nc(c(-c6c(F)c(F)c(F)c(F)c6F)c6ccc3[nH]6)C=C5)C=C4)cc2)no1
REMARK SMILES IDX 19 1 18 2 17 3 16 4 14 5 15 6 13 7 8 8 9 9 10 10 12 11 11 12
REMARK SMILES IDX 6 13 5 14 7 16 4 17 1 18 2 19 3 20 89 21 88 22 20 23 21 24
REMARK SMILES IDX 22 25 23 26 24 27 25 28 26 29 87 30 27 31 86 32 28 33 29 34
REMARK SMILES IDX 30 35 80 36 31 37 85 38 79 39 81 40 32 41 84 42 78 43 77 44
REMARK SMILES IDX 33 46 65 47 45 48 64 49 46 50 49 51 63 52 82 53 47 54 48 55
REMARK SMILES IDX 62 57 83 58 50 59 34 60 35 61 43 62 36 63 37 64 41 65 44 66
REMARK SMILES IDX 38 67 39 68 42 69 40 70 66 71 67 72 75 73 68 74 69 75 73 76
REMARK SMILES IDX 76 77 70 78 71 79 74 80 72 81 51 82 52 83 60 84 53 85 54 86
REMARK SMILES IDX 58 87 61 88 55 89 56 90 59 91 57 92
REMARK H PARENT 5 15 81 45 49 56
REMARK Flexibility Score: inf
ROOT
ATOM      1  O   UNL A   1      35.742  21.509  25.747  1.00  0.00    -0.374 OA
ENDROOT
BRANCH   1   2
ATOM      2  C   UNL A   1      34.376  21.557  26.144  1.00  0.00     0.202 C 
BRANCH   2   3
ATOM      3  C   UNL A   1      34.012  22.550  27.250  1.00  0.00     0.261 C 
BRANCH   3   4
ATOM      4  O   UNL A   1      33.072  23.565  26.855  1.00  0.00    -0.463 OA
BRANCH   4   5
ATOM      5  C   UNL A   1      33.481  24.377  25.843  1.00  0.00     0.310 C 
ATOM      6  O   UNL A   1      34.592  24.893  25.777  1.00  0.00    -0.252 OA
BRANCH   5   7
ATOM      7  C   UNL A   1      32.367  24.745  24.880  1.00  0.00     0.116 C 
ATOM      8  C   UNL A   1      31.840  26.190  24.972  1.00  0.00     0.097 C 
ATOM      9  C   UNL A   1      31.121  26.726  23.709  1.00  0.00     0.041 C 
ATOM     10  C   UNL A   1      31.406  26.007  22.430  1.00  0.00    -0.030 C 
ATOM     11  C   UNL A   1      32.962  24.398  23.504  1.00  0.00     0.043 C 
ATOM     12  C   UNL A   1      32.231  24.962  22.336  1.00  0.00    -0.030 C 
BRANCH   8  13
ATOM     13  C   UNL A   1      31.030  26.482  26.250  1.00  0.00     0.229 C 
ATOM     14  N   UNL A   1      31.406  27.375  27.210  1.00  0.00    -0.308 N 
ATOM     15  H   UNL A   1      30.946  27.286  28.075  1.00  0.00     0.171 HD
ATOM     16  O   UNL A   1      30.028  25.800  26.497  1.00  0.00    -0.274 OA
BRANCH  14  17
ATOM     17  C   UNL A   1      32.338  28.383  27.135  1.00  0.00     0.176 A 
ATOM     18  C   UNL A   1      33.727  31.732  27.627  1.00  0.00     0.091 C 
ATOM     19  C   UNL A   1      33.261  30.372  27.311  1.00  0.00     0.135 A 
ATOM     20  C   UNL A   1      32.032  29.764  27.213  1.00  0.00     0.095 A 
ATOM     21  O   UNL A   1      34.232  29.439  27.142  1.00  0.00    -0.360 OA
ATOM     22  N   UNL A   1      33.655  28.195  27.045  1.00  0.00    -0.062 NA
ENDBRANCH  14  17
ENDBRANCH   8  13
ENDBRANCH   5   7
ENDBRANCH   4   5
ENDBRANCH   3   4
ENDBRANCH   2   3
ENDBRANCH   1   2
BRANCH   1  23
ATOM     23  C   UNL A   1      36.175  20.352  25.029  1.00  0.00     0.202 C 
BRANCH  23  24
ATOM     24  C   UNL A   1      37.689  20.142  24.955  1.00  0.00     0.261 C 
BRANCH  24  25
ATOM     25  O   UNL A   1      38.405  21.326  25.352  1.00  0.00    -0.460 OA
BRANCH  25  26
ATOM     26  C   UNL A   1      39.473  21.121  26.144  1.00  0.00     0.338 C 
ATOM     27  O   UNL A   1      40.167  20.110  26.217  1.00  0.00    -0.246 OA
BRANCH  26  28
ATOM     28  C   UNL A   1      39.836  22.365  26.844  1.00  0.00     0.060 A 
ATOM     29  C   UNL A   1      39.130  23.524  26.498  1.00  0.00     0.016 A 
ATOM     30  C   UNL A   1      40.910  22.426  27.735  1.00  0.00     0.016 A 
ATOM     31  C   UNL A   1      39.547  24.762  26.979  1.00  0.00     0.010 A 
ATOM     32  C   UNL A   1      41.333  23.672  28.211  1.00  0.00     0.010 A 
ATOM     33  C   UNL A   1      40.683  24.849  27.794  1.00  0.00    -0.014 A 
BRANCH  33  34
ATOM     34  C   UNL A   1      41.278  26.183  28.057  1.00  0.00     0.031 A 
ATOM     35  C   UNL A   1      42.670  26.471  27.566  1.00  0.00     0.074 A 
ATOM     36  C   UNL A   1      40.569  27.148  28.668  1.00  0.00     0.049 A 
ATOM     37  N   UNL A   1      43.382  27.566  27.670  1.00  0.00    -0.248 NA
ATOM     38  C   UNL A   1      43.354  25.376  26.859  1.00  0.00     0.031 C 
ATOM     39  C   UNL A   1      39.198  27.009  29.150  1.00  0.00     0.029 A 
ATOM     40  N   UNL A   1      40.910  28.440  28.983  1.00  0.00    -0.354 N 
ATOM     41  C   UNL A   1      44.591  27.292  27.044  1.00  0.00     0.074 A 
ATOM     42  C   UNL A   1      44.533  25.918  26.593  1.00  0.00     0.031 C 
ATOM     43  C   UNL A   1      38.814  28.169  29.709  1.00  0.00     0.029 A 
ATOM     44  C   UNL A   1      39.921  29.122  29.647  1.00  0.00     0.049 A 
ATOM     45  H   UNL A   1      41.781  28.839  28.755  1.00  0.00     0.167 HD
ATOM     46  C   UNL A   1      45.649  28.114  26.851  1.00  0.00     0.037 A 
ATOM     47  C   UNL A   1      39.919  30.367  30.160  1.00  0.00     0.037 A 
ATOM     48  C   UNL A   1      45.708  29.481  27.297  1.00  0.00     0.049 A 
ATOM     49  C   UNL A   1      41.134  31.242  29.995  1.00  0.00     0.074 A 
ATOM     50  C   UNL A   1      46.731  30.400  27.136  1.00  0.00     0.029 A 
ATOM     51  N   UNL A   1      44.702  30.124  28.003  1.00  0.00    -0.354 N 
ATOM     52  N   UNL A   1      42.264  30.983  29.383  1.00  0.00    -0.248 NA
ATOM     53  C   UNL A   1      41.071  32.584  30.591  1.00  0.00     0.031 C 
ATOM     54  C   UNL A   1      46.364  31.583  27.787  1.00  0.00     0.029 A 
ATOM     55  C   UNL A   1      45.091  31.418  28.309  1.00  0.00     0.049 A 
ATOM     56  H   UNL A   1      43.839  29.720  28.251  1.00  0.00     0.167 HD
ATOM     57  C   UNL A   1      43.034  32.134  29.496  1.00  0.00     0.074 A 
ATOM     58  C   UNL A   1      42.238  33.097  30.225  1.00  0.00     0.031 C 
ATOM     59  C   UNL A   1      44.287  32.369  29.035  1.00  0.00     0.037 A 
BRANCH  46  60
ATOM     60  C   UNL A   1      46.845  27.546  26.144  1.00  0.00     0.064 A 
ATOM     61  C   UNL A   1      46.990  27.634  24.751  1.00  0.00     0.173 A 
ATOM     62  C   UNL A   1      47.873  26.927  26.873  1.00  0.00     0.173 A 
ATOM     63  F   UNL A   1      46.030  28.204  24.008  1.00  0.00    -0.203 F 
ATOM     64  C   UNL A   1      48.104  27.098  24.112  1.00  0.00     0.198 A 
ATOM     65  C   UNL A   1      48.999  26.417  26.233  1.00  0.00     0.198 A 
ATOM     66  F   UNL A   1      47.786  26.821  28.207  1.00  0.00    -0.203 F 
ATOM     67  F   UNL A   1      48.199  27.152  22.776  1.00  0.00    -0.200 F 
ATOM     68  C   UNL A   1      49.110  26.496  24.853  1.00  0.00     0.200 A 
ATOM     69  F   UNL A   1      49.975  25.847  26.952  1.00  0.00    -0.200 F 
ATOM     70  F   UNL A   1      50.186  25.985  24.237  1.00  0.00    -0.200 F 
ENDBRANCH  46  60
BRANCH  47  71
ATOM     71  C   UNL A   1      38.722  30.859  30.891  1.00  0.00     0.064 A 
ATOM     72  C   UNL A   1      37.666  31.485  30.216  1.00  0.00     0.173 A 
ATOM     73  C   UNL A   1      38.616  30.717  32.283  1.00  0.00     0.173 A 
ATOM     74  F   UNL A   1      37.734  31.669  28.890  1.00  0.00    -0.203 F 
ATOM     75  C   UNL A   1      36.553  31.961  30.908  1.00  0.00     0.198 A 
ATOM     76  C   UNL A   1      37.492  31.167  32.969  1.00  0.00     0.198 A 
ATOM     77  F   UNL A   1      39.603  30.128  32.975  1.00  0.00    -0.203 F 
ATOM     78  F   UNL A   1      35.575  32.592  30.245  1.00  0.00    -0.200 F 
ATOM     79  C   UNL A   1      36.464  31.796  32.282  1.00  0.00     0.200 A 
ATOM     80  F   UNL A   1      37.405  30.997  34.295  1.00  0.00    -0.200 F 
ATOM     81  F   UNL A   1      35.391  32.247  32.945  1.00  0.00    -0.200 F 
ENDBRANCH  47  71
BRANCH  59  82
ATOM     82  C   UNL A   1      44.868  33.732  29.280  1.00  0.00     0.064 A 
ATOM     83  C   UNL A   1      45.648  34.007  30.412  1.00  0.00     0.173 A 
ATOM     84  C   UNL A   1      44.678  34.764  28.348  1.00  0.00     0.173 A 
ATOM     85  F   UNL A   1      45.848  33.060  31.341  1.00  0.00    -0.203 F 
ATOM     86  C   UNL A   1      46.196  35.271  30.614  1.00  0.00     0.198 A 
ATOM     87  C   UNL A   1      45.251  36.018  28.538  1.00  0.00     0.198 A 
ATOM     88  F   UNL A   1      43.947  34.551  27.243  1.00  0.00    -0.203 F 
ATOM     89  F   UNL A   1      46.902  35.524  31.725  1.00  0.00    -0.200 F 
ATOM     90  C   UNL A   1      46.004  36.273  29.674  1.00  0.00     0.200 A 
ATOM     91  F   UNL A   1      45.076  36.980  27.622  1.00  0.00    -0.200 F 
ATOM     92  F   UNL A   1      46.539  37.486  29.867  1.00  0.00    -0.200 F 
ENDBRANCH  59  82
ENDBRANCH  33  34
ENDBRANCH  26  28
ENDBRANCH  25  26
ENDBRANCH  24  25
ENDBRANCH  23  24
ENDBRANCH   1  23
TORSDOF 16
ENDMDL
