MODEL 1
REMARK VINA RESULT:     -11.8      0.000      0.000
REMARK SMILES N#C/C(=C/c1cccc(OC2CCCC2)c1)C(=O)OCCOCCOC(=O)c1ccc(-c2c3nc(c(-c4c(F)c(F)c(F)c(F)c4F)c4ccc([nH]4)c(-c4c(F)c(F)c(F)c(F)c4F)c4nc(c(-c5c(F)c(F)c(F)c(F)c5F)c5ccc2[nH]5)C=C4)C=C3)cc1
REMARK SMILES IDX 21 1 20 2 19 3 17 4 18 5 3 6 4 7 2 8 1 9 5 10 6 11 16 12
REMARK SMILES IDX 7 13 9 14 8 15 10 16 11 17 12 18 15 19 13 20 14 21 22 22
REMARK SMILES IDX 23 23 24 24 25 25 26 26 27 27 28 28 29 29 90 30 30 31 89 32
REMARK SMILES IDX 31 33 32 34 33 35 83 36 34 37 88 38 82 39 84 40 35 41 87 42
REMARK SMILES IDX 81 43 80 44 36 46 68 47 48 48 67 49 49 50 52 51 66 52 85 53
REMARK SMILES IDX 50 54 51 55 65 57 86 58 53 59 37 60 38 61 46 62 39 63 40 64
REMARK SMILES IDX 44 65 47 66 41 67 42 68 45 69 43 70 69 71 70 72 78 73 71 74
REMARK SMILES IDX 72 75 76 76 79 77 73 78 74 79 77 80 75 81 54 82 55 83 63 84
REMARK SMILES IDX 56 85 57 86 61 87 64 88 58 89 59 90 62 91 60 92
REMARK H PARENT 84 45 52 56
REMARK Flexibility Score: inf
ROOT
ATOM      1  C   UNL A   1      33.403  27.599  24.525  1.00  0.00     0.202 C 
ENDROOT
BRANCH   1   2
ATOM      2  C   UNL A   1      32.215  26.863  23.903  1.00  0.00     0.261 C 
BRANCH   2   3
ATOM      3  O   UNL A   1      32.147  25.494  24.339  1.00  0.00    -0.459 OA
BRANCH   3   4
ATOM      4  C   UNL A   1      31.777  24.614  23.375  1.00  0.00     0.348 C 
ATOM      5  O   UNL A   1      30.633  24.258  23.128  1.00  0.00    -0.245 OA
BRANCH   4   6
ATOM      6  C   UNL A   1      32.935  24.200  22.543  1.00  0.00     0.137 C 
ATOM      7  C   UNL A   1      33.757  23.178  22.839  1.00  0.00     0.035 C 
BRANCH   6   8
ATOM      8  C   UNL A   1      32.915  24.887  21.187  1.00  0.00     0.107 C 
ATOM      9  N   UNL A   1      32.899  25.456  20.062  1.00  0.00    -0.192 NA
ENDBRANCH   6   8
BRANCH   7  10
ATOM     10  C   UNL A   1      33.655  22.327  24.039  1.00  0.00    -0.020 A 
ATOM     11  C   UNL A   1      34.296  22.725  25.215  1.00  0.00     0.008 A 
ATOM     12  C   UNL A   1      32.973  21.095  24.020  1.00  0.00     0.054 A 
ATOM     13  C   UNL A   1      34.216  21.930  26.360  1.00  0.00     0.004 A 
ATOM     14  C   UNL A   1      32.841  20.321  25.171  1.00  0.00     0.120 A 
ATOM     15  C   UNL A   1      33.484  20.742  26.337  1.00  0.00     0.046 A 
BRANCH  14  16
ATOM     16  O   UNL A   1      32.155  19.149  25.294  1.00  0.00    -0.490 OA
BRANCH  16  17
ATOM     17  C   UNL A   1      32.499  17.963  24.584  1.00  0.00     0.173 C 
ATOM     18  C   UNL A   1      33.729  18.022  23.680  1.00  0.00     0.045 C 
ATOM     19  C   UNL A   1      32.621  16.689  25.427  1.00  0.00     0.045 C 
ATOM     20  C   UNL A   1      34.115  16.561  23.510  1.00  0.00     0.004 C 
ATOM     21  C   UNL A   1      33.842  15.948  24.879  1.00  0.00     0.004 C 
ENDBRANCH  16  17
ENDBRANCH  14  16
ENDBRANCH   7  10
ENDBRANCH   4   6
ENDBRANCH   3   4
ENDBRANCH   2   3
ENDBRANCH   1   2
BRANCH   1  22
ATOM     22  O   UNL A   1      33.083  28.597  25.488  1.00  0.00    -0.374 OA
BRANCH  22  23
ATOM     23  C   UNL A   1      31.843  29.288  25.349  1.00  0.00     0.202 C 
BRANCH  23  24
ATOM     24  C   UNL A   1      31.767  30.709  25.924  1.00  0.00     0.261 C 
BRANCH  24  25
ATOM     25  O   UNL A   1      32.316  30.827  27.253  1.00  0.00    -0.460 OA
BRANCH  25  26
ATOM     26  C   UNL A   1      33.148  31.881  27.426  1.00  0.00     0.338 C 
ATOM     27  O   UNL A   1      32.851  33.070  27.418  1.00  0.00    -0.246 OA
BRANCH  26  28
ATOM     28  C   UNL A   1      34.523  31.454  27.736  1.00  0.00     0.060 A 
ATOM     29  C   UNL A   1      34.748  30.097  28.002  1.00  0.00     0.016 A 
ATOM     30  C   UNL A   1      35.514  32.401  27.998  1.00  0.00     0.016 A 
ATOM     31  C   UNL A   1      35.948  29.691  28.589  1.00  0.00     0.010 A 
ATOM     32  C   UNL A   1      36.714  31.993  28.593  1.00  0.00     0.010 A 
ATOM     33  C   UNL A   1      36.919  30.643  28.934  1.00  0.00    -0.014 A 
BRANCH  33  34
ATOM     34  C   UNL A   1      38.070  30.252  29.787  1.00  0.00     0.031 A 
ATOM     35  C   UNL A   1      39.092  29.284  29.252  1.00  0.00     0.074 A 
ATOM     36  C   UNL A   1      38.219  30.763  31.021  1.00  0.00     0.049 A 
ATOM     37  N   UNL A   1      40.139  28.765  29.846  1.00  0.00    -0.248 NA
ATOM     38  C   UNL A   1      38.911  28.842  27.860  1.00  0.00     0.031 C 
ATOM     39  C   UNL A   1      37.324  31.734  31.645  1.00  0.00     0.029 A 
ATOM     40  N   UNL A   1      39.179  30.522  31.973  1.00  0.00    -0.354 N 
ATOM     41  C   UNL A   1      40.738  27.938  28.905  1.00  0.00     0.074 A 
ATOM     42  C   UNL A   1      39.927  28.003  27.706  1.00  0.00     0.031 C 
ATOM     43  C   UNL A   1      37.768  31.994  32.888  1.00  0.00     0.029 A 
ATOM     44  C   UNL A   1      38.961  31.189  33.152  1.00  0.00     0.049 A 
ATOM     45  H   UNL A   1      39.949  29.927  31.824  1.00  0.00     0.167 HD
ATOM     46  C   UNL A   1      41.864  27.195  29.023  1.00  0.00     0.037 A 
ATOM     47  C   UNL A   1      39.633  31.137  34.317  1.00  0.00     0.037 A 
ATOM     48  C   UNL A   1      42.678  27.122  30.209  1.00  0.00     0.049 A 
ATOM     49  C   UNL A   1      40.851  30.259  34.445  1.00  0.00     0.074 A 
ATOM     50  C   UNL A   1      43.837  26.394  30.419  1.00  0.00     0.029 A 
ATOM     51  N   UNL A   1      42.413  27.800  31.387  1.00  0.00    -0.354 N 
ATOM     52  N   UNL A   1      41.411  29.485  33.549  1.00  0.00    -0.248 NA
ATOM     53  C   UNL A   1      41.530  30.251  35.749  1.00  0.00     0.031 C 
ATOM     54  C   UNL A   1      44.257  26.609  31.736  1.00  0.00     0.029 A 
ATOM     55  C   UNL A   1      43.378  27.497  32.334  1.00  0.00     0.049 A 
ATOM     56  H   UNL A   1      41.651  28.408  31.531  1.00  0.00     0.167 HD
ATOM     57  C   UNL A   1      42.512  28.912  34.172  1.00  0.00     0.074 A 
ATOM     58  C   UNL A   1      42.552  29.437  35.520  1.00  0.00     0.031 C 
ATOM     59  C   UNL A   1      43.409  28.029  33.670  1.00  0.00     0.037 A 
BRANCH  46  60
ATOM     60  C   UNL A   1      42.284  26.382  27.835  1.00  0.00     0.064 A 
ATOM     61  C   UNL A   1      43.249  26.852  26.933  1.00  0.00     0.173 A 
ATOM     62  C   UNL A   1      41.749  25.103  27.623  1.00  0.00     0.173 A 
ATOM     63  F   UNL A   1      43.779  28.074  27.089  1.00  0.00    -0.203 F 
ATOM     64  C   UNL A   1      43.653  26.075  25.851  1.00  0.00     0.198 A 
ATOM     65  C   UNL A   1      42.170  24.321  26.551  1.00  0.00     0.198 A 
ATOM     66  F   UNL A   1      40.826  24.608  28.462  1.00  0.00    -0.203 F 
ATOM     67  F   UNL A   1      44.554  26.555  24.983  1.00  0.00    -0.200 F 
ATOM     68  C   UNL A   1      43.118  24.809  25.664  1.00  0.00     0.200 A 
ATOM     69  F   UNL A   1      41.658  23.094  26.376  1.00  0.00    -0.200 F 
ATOM     70  F   UNL A   1      43.512  24.060  24.625  1.00  0.00    -0.200 F 
ENDBRANCH  46  60
BRANCH  47  71
ATOM     71  C   UNL A   1      39.155  31.931  35.476  1.00  0.00     0.064 A 
ATOM     72  C   UNL A   1      38.329  31.361  36.453  1.00  0.00     0.173 A 
ATOM     73  C   UNL A   1      39.505  33.281  35.618  1.00  0.00     0.173 A 
ATOM     74  F   UNL A   1      37.946  30.081  36.342  1.00  0.00    -0.203 F 
ATOM     75  C   UNL A   1      37.860  32.117  37.525  1.00  0.00     0.198 A 
ATOM     76  C   UNL A   1      39.053  34.030  36.701  1.00  0.00     0.198 A 
ATOM     77  F   UNL A   1      40.289  33.872  34.704  1.00  0.00    -0.203 F 
ATOM     78  F   UNL A   1      37.038  31.560  38.425  1.00  0.00    -0.200 F 
ATOM     79  C   UNL A   1      38.226  33.449  37.651  1.00  0.00     0.200 A 
ATOM     80  F   UNL A   1      39.414  35.314  36.823  1.00  0.00    -0.200 F 
ATOM     81  F   UNL A   1      37.774  34.175  38.683  1.00  0.00    -0.200 F 
ENDBRANCH  47  71
BRANCH  59  82
ATOM     82  C   UNL A   1      44.524  27.591  34.572  1.00  0.00     0.064 A 
ATOM     83  C   UNL A   1      45.723  28.314  34.657  1.00  0.00     0.173 A 
ATOM     84  C   UNL A   1      44.376  26.464  35.394  1.00  0.00     0.173 A 
ATOM     85  F   UNL A   1      45.917  29.391  33.881  1.00  0.00    -0.203 F 
ATOM     86  C   UNL A   1      46.740  27.913  35.519  1.00  0.00     0.198 A 
ATOM     87  C   UNL A   1      45.387  26.077  36.269  1.00  0.00     0.198 A 
ATOM     88  F   UNL A   1      43.246  25.742  35.353  1.00  0.00    -0.203 F 
ATOM     89  F   UNL A   1      47.892  28.597  35.559  1.00  0.00    -0.200 F 
ATOM     90  C   UNL A   1      46.570  26.798  36.328  1.00  0.00     0.200 A 
ATOM     91  F   UNL A   1      45.218  25.005  37.056  1.00  0.00    -0.200 F 
ATOM     92  F   UNL A   1      47.548  26.416  37.160  1.00  0.00    -0.200 F 
ENDBRANCH  59  82
ENDBRANCH  33  34
ENDBRANCH  26  28
ENDBRANCH  25  26
ENDBRANCH  24  25
ENDBRANCH  23  24
ENDBRANCH  22  23
ENDBRANCH   1  22
TORSDOF 18
ENDMDL
MODEL 2
REMARK VINA RESULT:     -11.7      2.634      8.703
REMARK SMILES N#C/C(=C/c1cccc(OC2CCCC2)c1)C(=O)OCCOCCOC(=O)c1ccc(-c2c3nc(c(-c4c(F)c(F)c(F)c(F)c4F)c4ccc([nH]4)c(-c4c(F)c(F)c(F)c(F)c4F)c4nc(c(-c5c(F)c(F)c(F)c(F)c5F)c5ccc2[nH]5)C=C4)C=C3)cc1
REMARK SMILES IDX 21 1 20 2 19 3 17 4 18 5 3 6 4 7 2 8 1 9 5 10 6 11 16 12
REMARK SMILES IDX 7 13 9 14 8 15 10 16 11 17 12 18 15 19 13 20 14 21 22 22
REMARK SMILES IDX 23 23 24 24 25 25 26 26 27 27 28 28 29 29 90 30 30 31 89 32
REMARK SMILES IDX 31 33 32 34 33 35 83 36 34 37 88 38 82 39 84 40 35 41 87 42
REMARK SMILES IDX 81 43 80 44 36 46 68 47 48 48 67 49 49 50 52 51 66 52 85 53
REMARK SMILES IDX 50 54 51 55 65 57 86 58 53 59 37 60 38 61 46 62 39 63 40 64
REMARK SMILES IDX 44 65 47 66 41 67 42 68 45 69 43 70 69 71 70 72 78 73 71 74
REMARK SMILES IDX 72 75 76 76 79 77 73 78 74 79 77 80 75 81 54 82 55 83 63 84
REMARK SMILES IDX 56 85 57 86 61 87 64 88 58 89 59 90 62 91 60 92
REMARK H PARENT 84 45 52 56
REMARK Flexibility Score: inf
ROOT
ATOM      1  C   UNL A   1      31.739  29.440  26.575  1.00  0.00     0.202 C 
ENDROOT
BRANCH   1   2
ATOM      2  C   UNL A   1      31.859  28.313  27.600  1.00  0.00     0.261 C 
BRANCH   2   3
ATOM      3  O   UNL A   1      31.099  27.155  27.213  1.00  0.00    -0.459 OA
BRANCH   3   4
ATOM      4  C   UNL A   1      31.788  26.248  26.477  1.00  0.00     0.348 C 
ATOM      5  O   UNL A   1      33.004  26.196  26.357  1.00  0.00    -0.245 OA
BRANCH   4   6
ATOM      6  C   UNL A   1      30.888  25.214  25.905  1.00  0.00     0.137 C 
ATOM      7  C   UNL A   1      30.210  25.351  24.752  1.00  0.00     0.035 C 
BRANCH   6   8
ATOM      8  C   UNL A   1      31.040  23.886  26.629  1.00  0.00     0.107 C 
ATOM      9  N   UNL A   1      31.165  22.785  27.230  1.00  0.00    -0.192 NA
ENDBRANCH   6   8
BRANCH   7  10
ATOM     10  C   UNL A   1      30.233  26.548  23.891  1.00  0.00    -0.020 A 
ATOM     11  C   UNL A   1      31.456  27.020  23.408  1.00  0.00     0.008 A 
ATOM     12  C   UNL A   1      29.059  27.263  23.583  1.00  0.00     0.054 A 
ATOM     13  C   UNL A   1      31.497  28.154  22.596  1.00  0.00     0.004 A 
ATOM     14  C   UNL A   1      29.083  28.364  22.729  1.00  0.00     0.120 A 
ATOM     15  C   UNL A   1      30.316  28.813  22.252  1.00  0.00     0.046 A 
BRANCH  14  16
ATOM     16  O   UNL A   1      28.012  29.095  22.307  1.00  0.00    -0.490 OA
BRANCH  16  17
ATOM     17  C   UNL A   1      27.847  30.480  22.596  1.00  0.00     0.173 C 
ATOM     18  C   UNL A   1      28.752  31.081  23.670  1.00  0.00     0.045 C 
ATOM     19  C   UNL A   1      27.888  31.426  21.392  1.00  0.00     0.045 C 
ATOM     20  C   UNL A   1      28.711  32.572  23.374  1.00  0.00     0.004 C 
ATOM     21  C   UNL A   1      28.692  32.644  21.852  1.00  0.00     0.004 C 
ENDBRANCH  16  17
ENDBRANCH  14  16
ENDBRANCH   7  10
ENDBRANCH   4   6
ENDBRANCH   3   4
ENDBRANCH   2   3
ENDBRANCH   1   2
BRANCH   1  22
ATOM     22  O   UNL A   1      32.172  30.726  27.009  1.00  0.00    -0.374 OA
BRANCH  22  23
ATOM     23  C   UNL A   1      31.473  31.868  26.518  1.00  0.00     0.202 C 
BRANCH  23  24
ATOM     24  C   UNL A   1      32.011  33.245  26.930  1.00  0.00     0.261 C 
BRANCH  24  25
ATOM     25  O   UNL A   1      32.807  33.221  28.134  1.00  0.00    -0.460 OA
BRANCH  25  26
ATOM     26  C   UNL A   1      33.965  33.918  28.055  1.00  0.00     0.338 C 
ATOM     27  O   UNL A   1      34.094  35.130  27.922  1.00  0.00    -0.246 OA
BRANCH  26  28
ATOM     28  C   UNL A   1      35.143  33.055  28.247  1.00  0.00     0.060 A 
ATOM     29  C   UNL A   1      34.931  31.729  28.645  1.00  0.00     0.016 A 
ATOM     30  C   UNL A   1      36.425  33.607  28.271  1.00  0.00     0.016 A 
ATOM     31  C   UNL A   1      35.997  30.967  29.127  1.00  0.00     0.010 A 
ATOM     32  C   UNL A   1      37.491  32.843  28.763  1.00  0.00     0.010 A 
ATOM     33  C   UNL A   1      37.274  31.536  29.236  1.00  0.00    -0.014 A 
BRANCH  33  34
ATOM     34  C   UNL A   1      38.341  30.823  29.985  1.00  0.00     0.031 A 
ATOM     35  C   UNL A   1      38.573  31.154  31.435  1.00  0.00     0.074 A 
ATOM     36  C   UNL A   1      39.087  29.877  29.390  1.00  0.00     0.049 A 
ATOM     37  N   UNL A   1      39.485  30.696  32.259  1.00  0.00    -0.248 NA
ATOM     38  C   UNL A   1      37.655  32.132  32.040  1.00  0.00     0.031 C 
ATOM     39  C   UNL A   1      38.942  29.435  28.005  1.00  0.00     0.029 A 
ATOM     40  N   UNL A   1      40.126  29.125  29.881  1.00  0.00    -0.354 N 
ATOM     41  C   UNL A   1      39.251  31.329  33.473  1.00  0.00     0.074 A 
ATOM     42  C   UNL A   1      38.128  32.221  33.276  1.00  0.00     0.031 C 
ATOM     43  C   UNL A   1      39.874  28.499  27.751  1.00  0.00     0.029 A 
ATOM     44  C   UNL A   1      40.693  28.297  28.946  1.00  0.00     0.049 A 
ATOM     45  H   UNL A   1      40.435  29.176  30.814  1.00  0.00     0.167 HD
ATOM     46  C   UNL A   1      39.908  31.177  34.648  1.00  0.00     0.037 A 
ATOM     47  C   UNL A   1      41.765  27.487  29.038  1.00  0.00     0.037 A 
ATOM     48  C   UNL A   1      41.026  30.294  34.855  1.00  0.00     0.049 A 
ATOM     49  C   UNL A   1      42.515  27.376  30.339  1.00  0.00     0.074 A 
ATOM     50  C   UNL A   1      41.753  30.076  36.013  1.00  0.00     0.029 A 
ATOM     51  N   UNL A   1      41.580  29.484  33.877  1.00  0.00    -0.354 N 
ATOM     52  N   UNL A   1      42.285  27.975  31.481  1.00  0.00    -0.248 NA
ATOM     53  C   UNL A   1      43.677  26.476  30.361  1.00  0.00     0.031 C 
ATOM     54  C   UNL A   1      42.768  29.156  35.727  1.00  0.00     0.029 A 
ATOM     55  C   UNL A   1      42.650  28.777  34.401  1.00  0.00     0.049 A 
ATOM     56  H   UNL A   1      41.261  29.421  32.947  1.00  0.00     0.167 HD
ATOM     57  C   UNL A   1      43.257  27.514  32.359  1.00  0.00     0.074 A 
ATOM     58  C   UNL A   1      44.074  26.574  31.623  1.00  0.00     0.031 C 
ATOM     59  C   UNL A   1      43.454  27.841  33.659  1.00  0.00     0.037 A 
BRANCH  46  60
ATOM     60  C   UNL A   1      39.441  31.999  35.811  1.00  0.00     0.064 A 
ATOM     61  C   UNL A   1      39.933  33.293  36.036  1.00  0.00     0.173 A 
ATOM     62  C   UNL A   1      38.459  31.506  36.683  1.00  0.00     0.173 A 
ATOM     63  F   UNL A   1      40.881  33.802  35.235  1.00  0.00    -0.203 F 
ATOM     64  C   UNL A   1      39.469  34.058  37.102  1.00  0.00     0.198 A 
ATOM     65  C   UNL A   1      37.983  32.281  37.736  1.00  0.00     0.198 A 
ATOM     66  F   UNL A   1      37.954  30.275  36.506  1.00  0.00    -0.203 F 
ATOM     67  F   UNL A   1      39.974  35.281  37.317  1.00  0.00    -0.200 F 
ATOM     68  C   UNL A   1      38.491  33.555  37.947  1.00  0.00     0.200 A 
ATOM     69  F   UNL A   1      37.032  31.797  38.547  1.00  0.00    -0.200 F 
ATOM     70  F   UNL A   1      38.041  34.295  38.970  1.00  0.00    -0.200 F 
ENDBRANCH  46  60
BRANCH  47  71
ATOM     71  C   UNL A   1      42.211  26.722  27.846  1.00  0.00     0.064 A 
ATOM     72  C   UNL A   1      43.179  27.239  26.976  1.00  0.00     0.173 A 
ATOM     73  C   UNL A   1      41.663  25.467  27.549  1.00  0.00     0.173 A 
ATOM     74  F   UNL A   1      43.709  28.449  27.206  1.00  0.00    -0.203 F 
ATOM     75  C   UNL A   1      43.576  26.531  25.844  1.00  0.00     0.198 A 
ATOM     76  C   UNL A   1      42.076  24.750  26.429  1.00  0.00     0.198 A 
ATOM     77  F   UNL A   1      40.728  24.935  28.350  1.00  0.00    -0.203 F 
ATOM     78  F   UNL A   1      44.475  27.063  25.005  1.00  0.00    -0.200 F 
ATOM     79  C   UNL A   1      43.028  25.285  25.574  1.00  0.00     0.200 A 
ATOM     80  F   UNL A   1      41.548  23.545  26.175  1.00  0.00    -0.200 F 
ATOM     81  F   UNL A   1      43.410  24.605  24.484  1.00  0.00    -0.200 F 
ENDBRANCH  47  71
BRANCH  59  82
ATOM     82  C   UNL A   1      44.581  27.163  34.378  1.00  0.00     0.064 A 
ATOM     83  C   UNL A   1      44.411  25.913  34.991  1.00  0.00     0.173 A 
ATOM     84  C   UNL A   1      45.856  27.747  34.416  1.00  0.00     0.173 A 
ATOM     85  F   UNL A   1      43.207  25.321  34.992  1.00  0.00    -0.203 F 
ATOM     86  C   UNL A   1      45.474  25.281  35.632  1.00  0.00     0.198 A 
ATOM     87  C   UNL A   1      46.920  27.102  35.040  1.00  0.00     0.198 A 
ATOM     88  F   UNL A   1      46.071  28.940  33.840  1.00  0.00    -0.203 F 
ATOM     89  F   UNL A   1      45.281  24.103  36.242  1.00  0.00    -0.200 F 
ATOM     90  C   UNL A   1      46.728  25.873  35.652  1.00  0.00     0.200 A 
ATOM     91  F   UNL A   1      48.134  27.672  35.052  1.00  0.00    -0.200 F 
ATOM     92  F   UNL A   1      47.750  25.261  36.265  1.00  0.00    -0.200 F 
ENDBRANCH  59  82
ENDBRANCH  33  34
ENDBRANCH  26  28
ENDBRANCH  25  26
ENDBRANCH  24  25
ENDBRANCH  23  24
ENDBRANCH  22  23
ENDBRANCH   1  22
TORSDOF 18
ENDMDL
MODEL 3
REMARK VINA RESULT:     -11.5      2.123      4.642
REMARK SMILES N#C/C(=C/c1cccc(OC2CCCC2)c1)C(=O)OCCOCCOC(=O)c1ccc(-c2c3nc(c(-c4c(F)c(F)c(F)c(F)c4F)c4ccc([nH]4)c(-c4c(F)c(F)c(F)c(F)c4F)c4nc(c(-c5c(F)c(F)c(F)c(F)c5F)c5ccc2[nH]5)C=C4)C=C3)cc1
REMARK SMILES IDX 21 1 20 2 19 3 17 4 18 5 3 6 4 7 2 8 1 9 5 10 6 11 16 12
REMARK SMILES IDX 7 13 9 14 8 15 10 16 11 17 12 18 15 19 13 20 14 21 22 22
REMARK SMILES IDX 23 23 24 24 25 25 26 26 27 27 28 28 29 29 90 30 30 31 89 32
REMARK SMILES IDX 31 33 32 34 33 35 83 36 34 37 88 38 82 39 84 40 35 41 87 42
REMARK SMILES IDX 81 43 80 44 36 46 68 47 48 48 67 49 49 50 52 51 66 52 85 53
REMARK SMILES IDX 50 54 51 55 65 57 86 58 53 59 37 60 38 61 46 62 39 63 40 64
REMARK SMILES IDX 44 65 47 66 41 67 42 68 45 69 43 70 69 71 70 72 78 73 71 74
REMARK SMILES IDX 72 75 76 76 79 77 73 78 74 79 77 80 75 81 54 82 55 83 63 84
REMARK SMILES IDX 56 85 57 86 61 87 64 88 58 89 59 90 62 91 60 92
REMARK H PARENT 84 45 52 56
REMARK Flexibility Score: inf
ROOT
ATOM      1  C   UNL A   1      32.296  28.304  27.195  1.00  0.00     0.202 C 
ENDROOT
BRANCH   1   2
ATOM      2  C   UNL A   1      31.255  27.359  26.594  1.00  0.00     0.261 C 
BRANCH   2   3
ATOM      3  O   UNL A   1      31.689  25.988  26.637  1.00  0.00    -0.459 OA
BRANCH   3   4
ATOM      4  C   UNL A   1      30.844  25.110  26.041  1.00  0.00     0.348 C 
ATOM      5  O   UNL A   1      29.635  25.042  26.220  1.00  0.00    -0.245 OA
BRANCH   4   6
ATOM      6  C   UNL A   1      31.543  24.288  25.022  1.00  0.00     0.137 C 
ATOM      7  C   UNL A   1      32.040  24.768  23.869  1.00  0.00     0.035 C 
BRANCH   6   8
ATOM      8  C   UNL A   1      31.873  22.904  25.558  1.00  0.00     0.107 C 
ATOM      9  N   UNL A   1      32.146  21.756  26.003  1.00  0.00    -0.192 NA
ENDBRANCH   6   8
BRANCH   7  10
ATOM     10  C   UNL A   1      31.949  26.171  23.424  1.00  0.00    -0.020 A 
ATOM     11  C   UNL A   1      33.101  26.962  23.420  1.00  0.00     0.008 A 
ATOM     12  C   UNL A   1      30.722  26.755  23.053  1.00  0.00     0.054 A 
ATOM     13  C   UNL A   1      33.034  28.294  23.007  1.00  0.00     0.004 A 
ATOM     14  C   UNL A   1      30.654  28.067  22.589  1.00  0.00     0.120 A 
ATOM     15  C   UNL A   1      31.819  28.836  22.586  1.00  0.00     0.046 A 
BRANCH  14  16
ATOM     16  O   UNL A   1      29.543  28.719  22.143  1.00  0.00    -0.490 OA
BRANCH  16  17
ATOM     17  C   UNL A   1      29.389  30.135  22.205  1.00  0.00     0.173 C 
ATOM     18  C   UNL A   1      28.554  30.795  21.109  1.00  0.00     0.045 C 
ATOM     19  C   UNL A   1      28.899  30.697  23.544  1.00  0.00     0.045 C 
ATOM     20  C   UNL A   1      28.156  32.128  21.722  1.00  0.00     0.004 C 
ATOM     21  C   UNL A   1      27.897  31.796  23.186  1.00  0.00     0.004 C 
ENDBRANCH  16  17
ENDBRANCH  14  16
ENDBRANCH   7  10
ENDBRANCH   4   6
ENDBRANCH   3   4
ENDBRANCH   2   3
ENDBRANCH   1   2
BRANCH   1  22
ATOM     22  O   UNL A   1      31.835  29.608  27.530  1.00  0.00    -0.374 OA
BRANCH  22  23
ATOM     23  C   UNL A   1      31.689  30.558  26.475  1.00  0.00     0.202 C 
BRANCH  23  24
ATOM     24  C   UNL A   1      31.573  32.034  26.877  1.00  0.00     0.261 C 
BRANCH  24  25
ATOM     25  O   UNL A   1      32.777  32.796  26.642  1.00  0.00    -0.460 OA
BRANCH  25  26
ATOM     26  C   UNL A   1      33.359  33.287  27.761  1.00  0.00     0.338 C 
ATOM     27  O   UNL A   1      32.895  34.116  28.536  1.00  0.00    -0.246 OA
BRANCH  26  28
ATOM     28  C   UNL A   1      34.648  32.635  28.044  1.00  0.00     0.060 A 
ATOM     29  C   UNL A   1      34.636  31.289  28.430  1.00  0.00     0.016 A 
ATOM     30  C   UNL A   1      35.813  33.396  28.163  1.00  0.00     0.016 A 
ATOM     31  C   UNL A   1      35.777  30.715  28.994  1.00  0.00     0.010 A 
ATOM     32  C   UNL A   1      36.953  32.820  28.736  1.00  0.00     0.010 A 
ATOM     33  C   UNL A   1      36.927  31.491  29.196  1.00  0.00    -0.014 A 
BRANCH  33  34
ATOM     34  C   UNL A   1      38.040  30.964  30.026  1.00  0.00     0.031 A 
ATOM     35  C   UNL A   1      39.003  29.973  29.429  1.00  0.00     0.074 A 
ATOM     36  C   UNL A   1      38.207  31.373  31.296  1.00  0.00     0.049 A 
ATOM     37  N   UNL A   1      40.008  29.345  29.990  1.00  0.00    -0.248 NA
ATOM     38  C   UNL A   1      38.811  29.646  28.007  1.00  0.00     0.031 C 
ATOM     39  C   UNL A   1      37.370  32.352  31.984  1.00  0.00     0.029 A 
ATOM     40  N   UNL A   1      39.138  30.999  32.235  1.00  0.00    -0.354 N 
ATOM     41  C   UNL A   1      40.563  28.551  28.995  1.00  0.00     0.074 A 
ATOM     42  C   UNL A   1      39.772  28.757  27.799  1.00  0.00     0.031 C 
ATOM     43  C   UNL A   1      37.815  32.490  33.246  1.00  0.00     0.029 A 
ATOM     44  C   UNL A   1      38.950  31.591  33.458  1.00  0.00     0.049 A 
ATOM     45  H   UNL A   1      39.870  30.368  32.047  1.00  0.00     0.167 HD
ATOM     46  C   UNL A   1      41.637  27.729  29.067  1.00  0.00     0.037 A 
ATOM     47  C   UNL A   1      39.603  31.410  34.621  1.00  0.00     0.037 A 
ATOM     48  C   UNL A   1      42.430  27.516  30.249  1.00  0.00     0.049 A 
ATOM     49  C   UNL A   1      40.760  30.448  34.692  1.00  0.00     0.074 A 
ATOM     50  C   UNL A   1      43.537  26.701  30.413  1.00  0.00     0.029 A 
ATOM     51  N   UNL A   1      42.196  28.122  31.473  1.00  0.00    -0.354 N 
ATOM     52  N   UNL A   1      41.279  29.706  33.745  1.00  0.00    -0.248 NA
ATOM     53  C   UNL A   1      41.422  30.299  35.997  1.00  0.00     0.031 C 
ATOM     54  C   UNL A   1      43.954  26.790  31.745  1.00  0.00     0.029 A 
ATOM     55  C   UNL A   1      43.128  27.687  32.401  1.00  0.00     0.049 A 
ATOM     56  H   UNL A   1      41.474  28.766  31.656  1.00  0.00     0.167 HD
ATOM     57  C   UNL A   1      42.333  29.018  34.332  1.00  0.00     0.074 A 
ATOM     58  C   UNL A   1      42.391  29.439  35.715  1.00  0.00     0.031 C 
ATOM     59  C   UNL A   1      43.178  28.117  33.773  1.00  0.00     0.037 A 
BRANCH  46  60
ATOM     60  C   UNL A   1      42.018  26.980  27.825  1.00  0.00     0.064 A 
ATOM     61  C   UNL A   1      42.917  27.519  26.893  1.00  0.00     0.173 A 
ATOM     62  C   UNL A   1      41.513  25.693  27.587  1.00  0.00     0.173 A 
ATOM     63  F   UNL A   1      43.416  28.750  27.073  1.00  0.00    -0.203 F 
ATOM     64  C   UNL A   1      43.286  26.800  25.760  1.00  0.00     0.198 A 
ATOM     65  C   UNL A   1      41.900  24.970  26.462  1.00  0.00     0.198 A 
ATOM     66  F   UNL A   1      40.653  25.133  28.452  1.00  0.00    -0.203 F 
ATOM     67  F   UNL A   1      44.124  27.345  24.866  1.00  0.00    -0.200 F 
ATOM     68  C   UNL A   1      42.782  25.525  25.548  1.00  0.00     0.200 A 
ATOM     69  F   UNL A   1      41.419  23.734  26.263  1.00  0.00    -0.200 F 
ATOM     70  F   UNL A   1      43.143  24.833  24.458  1.00  0.00    -0.200 F 
ENDBRANCH  46  60
BRANCH  47  71
ATOM     71  C   UNL A   1      39.164  32.147  35.832  1.00  0.00     0.064 A 
ATOM     72  C   UNL A   1      39.648  33.430  36.114  1.00  0.00     0.173 A 
ATOM     73  C   UNL A   1      38.263  31.571  36.739  1.00  0.00     0.173 A 
ATOM     74  F   UNL A   1      40.534  34.008  35.290  1.00  0.00    -0.203 F 
ATOM     75  C   UNL A   1      39.255  34.108  37.266  1.00  0.00     0.198 A 
ATOM     76  C   UNL A   1      37.854  32.257  37.879  1.00  0.00     0.198 A 
ATOM     77  F   UNL A   1      37.778  30.341  36.514  1.00  0.00    -0.203 F 
ATOM     78  F   UNL A   1      39.762  35.319  37.534  1.00  0.00    -0.200 F 
ATOM     79  C   UNL A   1      38.354  33.523  38.144  1.00  0.00     0.200 A 
ATOM     80  F   UNL A   1      36.980  31.692  38.721  1.00  0.00    -0.200 F 
ATOM     81  F   UNL A   1      37.977  34.176  39.253  1.00  0.00    -0.200 F 
ENDBRANCH  47  71
BRANCH  59  82
ATOM     82  C   UNL A   1      44.251  27.542  34.649  1.00  0.00     0.064 A 
ATOM     83  C   UNL A   1      44.060  26.340  35.345  1.00  0.00     0.173 A 
ATOM     84  C   UNL A   1      45.498  28.175  34.757  1.00  0.00     0.173 A 
ATOM     85  F   UNL A   1      42.880  25.705  35.284  1.00  0.00    -0.203 F 
ATOM     86  C   UNL A   1      45.075  25.802  36.133  1.00  0.00     0.198 A 
ATOM     87  C   UNL A   1      46.516  27.623  35.529  1.00  0.00     0.198 A 
ATOM     88  F   UNL A   1      45.731  29.325  34.106  1.00  0.00    -0.203 F 
ATOM     89  F   UNL A   1      44.860  24.670  36.819  1.00  0.00    -0.200 F 
ATOM     90  C   UNL A   1      46.303  26.441  36.221  1.00  0.00     0.200 A 
ATOM     91  F   UNL A   1      47.705  28.237  35.606  1.00  0.00    -0.200 F 
ATOM     92  F   UNL A   1      47.279  25.919  36.976  1.00  0.00    -0.200 F 
ENDBRANCH  59  82
ENDBRANCH  33  34
ENDBRANCH  26  28
ENDBRANCH  25  26
ENDBRANCH  24  25
ENDBRANCH  23  24
ENDBRANCH  22  23
ENDBRANCH   1  22
TORSDOF 18
ENDMDL
