MODEL 1
REMARK VINA RESULT:     -11.6      0.000      0.000
REMARK SMILES C[C@@H](C(=O)OCCOCCOC(=O)c1ccc(-c2c3nc(c(-c4c(F)c(F)c(F)c(F)c4F)c4ccc([nH]4)c(-c4c(F)c(F)c(F)c(F)c4F)c4nc(c(-c5c(F)c(F)c(F)c(F)c5F)c5ccc2[nH]5)C=C4)C=C3)cc1)c1ccc(C[C@H]2CCC[C@H]2O)cc1
REMARK SMILES IDX 7 1 6 2 5 3 3 4 4 5 2 6 1 7 77 8 78 9 89 10 79 11 88 12
REMARK SMILES IDX 80 13 81 14 82 15 83 16 86 17 84 18 85 19 87 20 8 22 9 23
REMARK SMILES IDX 10 24 11 25 12 26 13 27 14 28 15 29 76 30 16 31 75 32 17 33
REMARK SMILES IDX 18 34 19 35 69 36 20 37 74 38 68 39 70 40 21 41 73 42 67 43
REMARK SMILES IDX 66 44 22 46 54 47 34 48 53 49 35 50 38 51 52 52 71 53 36 54
REMARK SMILES IDX 37 55 51 57 72 58 39 59 23 60 24 61 32 62 25 63 26 64 30 65
REMARK SMILES IDX 33 66 27 67 28 68 31 69 29 70 55 71 56 72 64 73 57 74 58 75
REMARK SMILES IDX 62 76 65 77 59 78 60 79 63 80 61 81 40 82 41 83 49 84 42 85
REMARK SMILES IDX 43 86 47 87 50 88 44 89 45 90 48 91 46 92
REMARK H PARENT 87 21 70 45 38 56
REMARK Flexibility Score: inf
ROOT
ATOM      1  C   UNL A   1      33.922  27.581  25.705  1.00  0.00     0.202 C 
ENDROOT
BRANCH   1   2
ATOM      2  C   UNL A   1      33.293  26.195  25.859  1.00  0.00     0.261 C 
BRANCH   2   3
ATOM      3  O   UNL A   1      33.594  25.381  24.711  1.00  0.00    -0.463 OA
BRANCH   3   4
ATOM      4  C   UNL A   1      32.698  24.395  24.438  1.00  0.00     0.313 C 
ATOM      5  O   UNL A   1      32.471  23.451  25.189  1.00  0.00    -0.252 OA
BRANCH   4   6
ATOM      6  C   UNL A   1      31.965  24.605  23.102  1.00  0.00     0.126 C 
ATOM      7  C   UNL A   1      32.891  24.648  21.881  1.00  0.00     0.025 C 
BRANCH   6   8
ATOM      8  C   UNL A   1      31.010  25.791  23.215  1.00  0.00    -0.034 A 
ATOM      9  C   UNL A   1      29.821  25.760  23.954  1.00  0.00     0.005 A 
ATOM     10  C   UNL A   1      31.287  26.946  22.464  1.00  0.00     0.005 A 
ATOM     11  C   UNL A   1      28.908  26.818  23.886  1.00  0.00     0.004 A 
ATOM     12  C   UNL A   1      30.369  27.995  22.388  1.00  0.00     0.004 A 
ATOM     13  C   UNL A   1      29.146  27.920  23.060  1.00  0.00    -0.048 A 
BRANCH  13  14
ATOM     14  C   UNL A   1      28.098  28.989  22.862  1.00  0.00     0.041 C 
BRANCH  14  15
ATOM     15  C   UNL A   1      28.580  30.393  22.448  1.00  0.00     0.022 C 
ATOM     16  C   UNL A   1      28.092  30.917  21.087  1.00  0.00     0.007 C 
ATOM     17  C   UNL A   1      28.318  31.554  23.419  1.00  0.00     0.117 C 
ATOM     18  C   UNL A   1      28.083  32.445  21.198  1.00  0.00     0.003 C 
ATOM     19  C   UNL A   1      28.656  32.776  22.572  1.00  0.00     0.032 C 
BRANCH  17  20
ATOM     20  O   UNL A   1      26.974  31.655  23.861  1.00  0.00    -0.393 OA
ATOM     21  H   UNL A   1      26.614  30.765  24.005  1.00  0.00     0.210 HD
ENDBRANCH  17  20
ENDBRANCH  14  15
ENDBRANCH  13  14
ENDBRANCH   6   8
ENDBRANCH   4   6
ENDBRANCH   3   4
ENDBRANCH   2   3
ENDBRANCH   1   2
BRANCH   1  22
ATOM     22  O   UNL A   1      33.169  28.519  24.935  1.00  0.00    -0.374 OA
BRANCH  22  23
ATOM     23  C   UNL A   1      31.936  28.979  25.488  1.00  0.00     0.202 C 
BRANCH  23  24
ATOM     24  C   UNL A   1      31.896  30.454  25.908  1.00  0.00     0.261 C 
BRANCH  24  25
ATOM     25  O   UNL A   1      32.434  30.663  27.228  1.00  0.00    -0.460 OA
BRANCH  25  26
ATOM     26  C   UNL A   1      33.215  31.760  27.354  1.00  0.00     0.338 C 
ATOM     27  O   UNL A   1      32.880  32.931  27.229  1.00  0.00    -0.246 OA
BRANCH  26  28
ATOM     28  C   UNL A   1      34.556  31.386  27.842  1.00  0.00     0.060 A 
ATOM     29  C   UNL A   1      34.772  30.040  28.162  1.00  0.00     0.016 A 
ATOM     30  C   UNL A   1      35.555  32.337  28.068  1.00  0.00     0.016 A 
ATOM     31  C   UNL A   1      35.967  29.645  28.758  1.00  0.00     0.010 A 
ATOM     32  C   UNL A   1      36.752  31.938  28.675  1.00  0.00     0.010 A 
ATOM     33  C   UNL A   1      36.949  30.598  29.056  1.00  0.00    -0.014 A 
BRANCH  33  34
ATOM     34  C   UNL A   1      38.105  30.209  29.901  1.00  0.00     0.031 A 
ATOM     35  C   UNL A   1      39.123  29.250  29.350  1.00  0.00     0.074 A 
ATOM     36  C   UNL A   1      38.273  30.737  31.126  1.00  0.00     0.049 A 
ATOM     37  N   UNL A   1      40.207  28.773  29.908  1.00  0.00    -0.248 NA
ATOM     38  C   UNL A   1      38.889  28.763  27.980  1.00  0.00     0.031 C 
ATOM     39  C   UNL A   1      37.380  31.707  31.756  1.00  0.00     0.029 A 
ATOM     40  N   UNL A   1      39.258  30.528  32.060  1.00  0.00    -0.354 N 
ATOM     41  C   UNL A   1      40.781  27.931  28.964  1.00  0.00     0.074 A 
ATOM     42  C   UNL A   1      39.912  27.938  27.806  1.00  0.00     0.031 C 
ATOM     43  C   UNL A   1      37.856  32.005  32.978  1.00  0.00     0.029 A 
ATOM     44  C   UNL A   1      39.070  31.229  33.225  1.00  0.00     0.049 A 
ATOM     45  H   UNL A   1      40.028  29.932  31.908  1.00  0.00     0.167 HD
ATOM     46  C   UNL A   1      41.932  27.224  29.050  1.00  0.00     0.037 A 
ATOM     47  C   UNL A   1      39.788  31.229  34.365  1.00  0.00     0.037 A 
ATOM     48  C   UNL A   1      42.800  27.220  30.197  1.00  0.00     0.049 A 
ATOM     49  C   UNL A   1      41.029  30.380  34.460  1.00  0.00     0.074 A 
ATOM     50  C   UNL A   1      44.002  26.555  30.370  1.00  0.00     0.029 A 
ATOM     51  N   UNL A   1      42.555  27.913  31.373  1.00  0.00    -0.354 N 
ATOM     52  N   UNL A   1      41.579  29.611  33.552  1.00  0.00    -0.248 NA
ATOM     53  C   UNL A   1      41.751  30.402  35.740  1.00  0.00     0.031 C 
ATOM     54  C   UNL A   1      44.460  26.807  31.667  1.00  0.00     0.029 A 
ATOM     55  C   UNL A   1      43.568  27.668  32.286  1.00  0.00     0.049 A 
ATOM     56  H   UNL A   1      41.775  28.492  31.536  1.00  0.00     0.167 HD
ATOM     57  C   UNL A   1      42.721  29.082  34.138  1.00  0.00     0.074 A 
ATOM     58  C   UNL A   1      42.793  29.626  35.478  1.00  0.00     0.031 C 
ATOM     59  C   UNL A   1      43.631  28.224  33.613  1.00  0.00     0.037 A 
BRANCH  46  60
ATOM     60  C   UNL A   1      42.311  26.372  27.875  1.00  0.00     0.064 A 
ATOM     61  C   UNL A   1      41.758  25.097  27.680  1.00  0.00     0.173 A 
ATOM     62  C   UNL A   1      43.212  26.852  26.913  1.00  0.00     0.173 A 
ATOM     63  F   UNL A   1      40.902  24.588  28.579  1.00  0.00    -0.203 F 
ATOM     64  C   UNL A   1      42.111  24.326  26.575  1.00  0.00     0.198 A 
ATOM     65  C   UNL A   1      43.542  26.089  25.797  1.00  0.00     0.198 A 
ATOM     66  F   UNL A   1      43.765  28.065  27.052  1.00  0.00    -0.203 F 
ATOM     67  F   UNL A   1      41.601  23.095  26.430  1.00  0.00    -0.200 F 
ATOM     68  C   UNL A   1      42.996  24.825  25.632  1.00  0.00     0.200 A 
ATOM     69  F   UNL A   1      44.390  26.576  24.880  1.00  0.00    -0.200 F 
ATOM     70  F   UNL A   1      43.329  24.084  24.566  1.00  0.00    -0.200 F 
ENDBRANCH  46  60
BRANCH  47  71
ATOM     71  C   UNL A   1      39.349  32.056  35.518  1.00  0.00     0.064 A 
ATOM     72  C   UNL A   1      39.806  33.371  35.682  1.00  0.00     0.173 A 
ATOM     73  C   UNL A   1      38.480  31.541  36.492  1.00  0.00     0.173 A 
ATOM     74  F   UNL A   1      40.660  33.898  34.793  1.00  0.00    -0.203 F 
ATOM     75  C   UNL A   1      39.424  34.134  36.784  1.00  0.00     0.198 A 
ATOM     76  C   UNL A   1      38.077  32.313  37.579  1.00  0.00     0.198 A 
ATOM     77  F   UNL A   1      38.018  30.287  36.383  1.00  0.00    -0.203 F 
ATOM     78  F   UNL A   1      39.912  35.371  36.941  1.00  0.00    -0.200 F 
ATOM     79  C   UNL A   1      38.556  33.606  37.729  1.00  0.00     0.200 A 
ATOM     80  F   UNL A   1      37.232  31.802  38.484  1.00  0.00    -0.200 F 
ATOM     81  F   UNL A   1      38.188  34.339  38.788  1.00  0.00    -0.200 F 
ENDBRANCH  47  71
BRANCH  59  82
ATOM     82  C   UNL A   1      44.800  27.845  34.474  1.00  0.00     0.064 A 
ATOM     83  C   UNL A   1      45.963  28.626  34.522  1.00  0.00     0.173 A 
ATOM     84  C   UNL A   1      44.738  26.707  35.294  1.00  0.00     0.173 A 
ATOM     85  F   UNL A   1      46.077  29.715  33.746  1.00  0.00    -0.203 F 
ATOM     86  C   UNL A   1      47.031  28.271  35.344  1.00  0.00     0.198 A 
ATOM     87  C   UNL A   1      45.795  26.371  36.134  1.00  0.00     0.198 A 
ATOM     88  F   UNL A   1      43.644  25.930  35.290  1.00  0.00    -0.203 F 
ATOM     89  F   UNL A   1      48.150  29.009  35.342  1.00  0.00    -0.200 F 
ATOM     90  C   UNL A   1      46.943  27.149  36.153  1.00  0.00     0.200 A 
ATOM     91  F   UNL A   1      45.704  25.293  36.926  1.00  0.00    -0.200 F 
ATOM     92  F   UNL A   1      47.968  26.813  36.949  1.00  0.00    -0.200 F 
ENDBRANCH  59  82
ENDBRANCH  33  34
ENDBRANCH  26  28
ENDBRANCH  25  26
ENDBRANCH  24  25
ENDBRANCH  23  24
ENDBRANCH  22  23
ENDBRANCH   1  22
TORSDOF 18
ENDMDL
MODEL 2
REMARK VINA RESULT:     -11.5      0.391      7.310
REMARK SMILES C[C@@H](C(=O)OCCOCCOC(=O)c1ccc(-c2c3nc(c(-c4c(F)c(F)c(F)c(F)c4F)c4ccc([nH]4)c(-c4c(F)c(F)c(F)c(F)c4F)c4nc(c(-c5c(F)c(F)c(F)c(F)c5F)c5ccc2[nH]5)C=C4)C=C3)cc1)c1ccc(C[C@H]2CCC[C@H]2O)cc1
REMARK SMILES IDX 7 1 6 2 5 3 3 4 4 5 2 6 1 7 77 8 78 9 89 10 79 11 88 12
REMARK SMILES IDX 80 13 81 14 82 15 83 16 86 17 84 18 85 19 87 20 8 22 9 23
REMARK SMILES IDX 10 24 11 25 12 26 13 27 14 28 15 29 76 30 16 31 75 32 17 33
REMARK SMILES IDX 18 34 19 35 69 36 20 37 74 38 68 39 70 40 21 41 73 42 67 43
REMARK SMILES IDX 66 44 22 46 54 47 34 48 53 49 35 50 38 51 52 52 71 53 36 54
REMARK SMILES IDX 37 55 51 57 72 58 39 59 23 60 24 61 32 62 25 63 26 64 30 65
REMARK SMILES IDX 33 66 27 67 28 68 31 69 29 70 55 71 56 72 64 73 57 74 58 75
REMARK SMILES IDX 62 76 65 77 59 78 60 79 63 80 61 81 40 82 41 83 49 84 42 85
REMARK SMILES IDX 43 86 47 87 50 88 44 89 45 90 48 91 46 92
REMARK H PARENT 87 21 70 45 38 56
REMARK Flexibility Score: inf
ROOT
ATOM      1  C   UNL A   1      33.893  27.631  25.717  1.00  0.00     0.202 C 
ENDROOT
BRANCH   1   2
ATOM      2  C   UNL A   1      33.179  26.280  25.621  1.00  0.00     0.261 C 
BRANCH   2   3
ATOM      3  O   UNL A   1      33.668  25.540  24.488  1.00  0.00    -0.463 OA
BRANCH   3   4
ATOM      4  C   UNL A   1      32.956  24.429  24.160  1.00  0.00     0.313 C 
ATOM      5  O   UNL A   1      32.971  23.390  24.814  1.00  0.00    -0.252 OA
BRANCH   4   6
ATOM      6  C   UNL A   1      32.094  24.620  22.901  1.00  0.00     0.126 C 
ATOM      7  C   UNL A   1      32.898  24.688  21.597  1.00  0.00     0.025 C 
BRANCH   6   8
ATOM      8  C   UNL A   1      31.124  25.781  23.108  1.00  0.00    -0.034 A 
ATOM      9  C   UNL A   1      29.954  25.686  23.873  1.00  0.00     0.005 A 
ATOM     10  C   UNL A   1      31.363  26.983  22.420  1.00  0.00     0.005 A 
ATOM     11  C   UNL A   1      29.023  26.730  23.891  1.00  0.00     0.004 A 
ATOM     12  C   UNL A   1      30.427  28.019  22.430  1.00  0.00     0.004 A 
ATOM     13  C   UNL A   1      29.223  27.883  23.126  1.00  0.00    -0.048 A 
BRANCH  13  14
ATOM     14  C   UNL A   1      28.153  28.944  23.018  1.00  0.00     0.041 C 
BRANCH  14  15
ATOM     15  C   UNL A   1      28.585  30.348  22.550  1.00  0.00     0.022 C 
ATOM     16  C   UNL A   1      28.102  30.791  21.160  1.00  0.00     0.007 C 
ATOM     17  C   UNL A   1      28.257  31.538  23.465  1.00  0.00     0.117 C 
ATOM     18  C   UNL A   1      28.028  32.321  21.202  1.00  0.00     0.003 C 
ATOM     19  C   UNL A   1      28.561  32.735  22.570  1.00  0.00     0.032 C 
BRANCH  17  20
ATOM     20  O   UNL A   1      26.902  31.601  23.879  1.00  0.00    -0.393 OA
ATOM     21  H   UNL A   1      26.826  32.194  24.642  1.00  0.00     0.210 HD
ENDBRANCH  17  20
ENDBRANCH  14  15
ENDBRANCH  13  14
ENDBRANCH   6   8
ENDBRANCH   4   6
ENDBRANCH   3   4
ENDBRANCH   2   3
ENDBRANCH   1   2
BRANCH   1  22
ATOM     22  O   UNL A   1      33.264  28.712  25.028  1.00  0.00    -0.374 OA
BRANCH  22  23
ATOM     23  C   UNL A   1      32.006  29.163  25.527  1.00  0.00     0.202 C 
BRANCH  23  24
ATOM     24  C   UNL A   1      31.949  30.628  25.982  1.00  0.00     0.261 C 
BRANCH  24  25
ATOM     25  O   UNL A   1      32.434  30.803  27.327  1.00  0.00    -0.460 OA
BRANCH  25  26
ATOM     26  C   UNL A   1      33.275  31.850  27.492  1.00  0.00     0.338 C 
ATOM     27  O   UNL A   1      32.992  33.041  27.479  1.00  0.00    -0.246 OA
BRANCH  26  28
ATOM     28  C   UNL A   1      34.621  31.378  27.870  1.00  0.00     0.060 A 
ATOM     29  C   UNL A   1      34.753  30.030  28.225  1.00  0.00     0.016 A 
ATOM     30  C   UNL A   1      35.712  32.246  27.962  1.00  0.00     0.016 A 
ATOM     31  C   UNL A   1      35.963  29.554  28.724  1.00  0.00     0.010 A 
ATOM     32  C   UNL A   1      36.925  31.766  28.473  1.00  0.00     0.010 A 
ATOM     33  C   UNL A   1      37.044  30.427  28.890  1.00  0.00    -0.014 A 
BRANCH  33  34
ATOM     34  C   UNL A   1      38.239  29.969  29.641  1.00  0.00     0.031 A 
ATOM     35  C   UNL A   1      38.465  30.478  31.038  1.00  0.00     0.074 A 
ATOM     36  C   UNL A   1      39.090  29.076  29.105  1.00  0.00     0.049 A 
ATOM     37  N   UNL A   1      39.437  30.213  31.874  1.00  0.00    -0.248 NA
ATOM     38  C   UNL A   1      37.456  31.411  31.565  1.00  0.00     0.031 C 
ATOM     39  C   UNL A   1      38.959  28.477  27.779  1.00  0.00     0.029 A 
ATOM     40  N   UNL A   1      40.235  28.517  29.616  1.00  0.00    -0.354 N 
ATOM     41  C   UNL A   1      39.159  30.946  33.021  1.00  0.00     0.074 A 
ATOM     42  C   UNL A   1      37.944  31.690  32.765  1.00  0.00     0.031 C 
ATOM     43  C   UNL A   1      39.989  27.637  27.577  1.00  0.00     0.029 A 
ATOM     44  C   UNL A   1      40.864  27.659  28.749  1.00  0.00     0.049 A 
ATOM     45  H   UNL A   1      40.573  28.712  30.521  1.00  0.00     0.167 HD
ATOM     46  C   UNL A   1      39.849  30.988  34.184  1.00  0.00     0.037 A 
ATOM     47  C   UNL A   1      42.022  26.984  28.881  1.00  0.00     0.037 A 
ATOM     48  C   UNL A   1      41.054  30.245  34.443  1.00  0.00     0.049 A 
ATOM     49  C   UNL A   1      42.808  27.101  30.162  1.00  0.00     0.074 A 
ATOM     50  C   UNL A   1      41.812  30.203  35.601  1.00  0.00     0.029 A 
ATOM     51  N   UNL A   1      41.681  29.417  33.525  1.00  0.00    -0.354 N 
ATOM     52  N   UNL A   1      42.522  27.773  31.251  1.00  0.00    -0.248 NA
ATOM     53  C   UNL A   1      44.077  26.363  30.232  1.00  0.00     0.031 C 
ATOM     54  C   UNL A   1      42.923  29.387  35.367  1.00  0.00     0.029 A 
ATOM     55  C   UNL A   1      42.832  28.882  34.080  1.00  0.00     0.049 A 
ATOM     56  H   UNL A   1      41.358  29.237  32.612  1.00  0.00     0.167 HD
ATOM     57  C   UNL A   1      43.556  27.517  32.141  1.00  0.00     0.074 A 
ATOM     58  C   UNL A   1      44.472  26.619  31.471  1.00  0.00     0.031 C 
ATOM     59  C   UNL A   1      43.731  27.982  33.403  1.00  0.00     0.037 A 
BRANCH  46  60
ATOM     60  C   UNL A   1      39.329  31.889  35.266  1.00  0.00     0.064 A 
ATOM     61  C   UNL A   1      39.630  33.259  35.292  1.00  0.00     0.173 A 
ATOM     62  C   UNL A   1      38.490  31.381  36.269  1.00  0.00     0.173 A 
ATOM     63  F   UNL A   1      40.439  33.790  34.363  1.00  0.00    -0.203 F 
ATOM     64  C   UNL A   1      39.126  34.083  36.295  1.00  0.00     0.198 A 
ATOM     65  C   UNL A   1      37.968  32.212  37.255  1.00  0.00     0.198 A 
ATOM     66  F   UNL A   1      38.171  30.079  36.287  1.00  0.00    -0.203 F 
ATOM     67  F   UNL A   1      39.459  35.381  36.324  1.00  0.00    -0.200 F 
ATOM     68  C   UNL A   1      38.291  33.560  37.272  1.00  0.00     0.200 A 
ATOM     69  F   UNL A   1      37.153  31.708  38.192  1.00  0.00    -0.200 F 
ATOM     70  F   UNL A   1      37.802  34.356  38.232  1.00  0.00    -0.200 F 
ENDBRANCH  46  60
BRANCH  47  71
ATOM     71  C   UNL A   1      42.520  26.138  27.766  1.00  0.00     0.064 A 
ATOM     72  C   UNL A   1      43.418  26.647  26.817  1.00  0.00     0.173 A 
ATOM     73  C   UNL A   1      42.091  24.811  27.613  1.00  0.00     0.173 A 
ATOM     74  F   UNL A   1      43.835  27.918  26.904  1.00  0.00    -0.203 F 
ATOM     75  C   UNL A   1      43.856  25.864  25.749  1.00  0.00     0.198 A 
ATOM     76  C   UNL A   1      42.550  24.022  26.561  1.00  0.00     0.198 A 
ATOM     77  F   UNL A   1      41.229  24.280  28.492  1.00  0.00    -0.203 F 
ATOM     78  F   UNL A   1      44.678  26.389  24.832  1.00  0.00    -0.200 F 
ATOM     79  C   UNL A   1      43.426  24.552  25.625  1.00  0.00     0.200 A 
ATOM     80  F   UNL A   1      42.139  22.752  26.450  1.00  0.00    -0.200 F 
ATOM     81  F   UNL A   1      43.847  23.800  24.599  1.00  0.00    -0.200 F 
ENDBRANCH  47  71
BRANCH  59  82
ATOM     82  C   UNL A   1      44.938  27.504  34.155  1.00  0.00     0.064 A 
ATOM     83  C   UNL A   1      46.147  28.214  34.133  1.00  0.00     0.173 A 
ATOM     84  C   UNL A   1      44.871  26.344  34.942  1.00  0.00     0.173 A 
ATOM     85  F   UNL A   1      46.267  29.321  33.385  1.00  0.00    -0.203 F 
ATOM     86  C   UNL A   1      47.252  27.768  34.855  1.00  0.00     0.198 A 
ATOM     87  C   UNL A   1      45.968  25.916  35.684  1.00  0.00     0.198 A 
ATOM     88  F   UNL A   1      43.734  25.633  35.003  1.00  0.00    -0.203 F 
ATOM     89  F   UNL A   1      48.411  28.438  34.786  1.00  0.00    -0.200 F 
ATOM     90  C   UNL A   1      47.159  26.625  35.635  1.00  0.00     0.200 A 
ATOM     91  F   UNL A   1      45.873  24.819  36.447  1.00  0.00    -0.200 F 
ATOM     92  F   UNL A   1      48.221  26.200  36.334  1.00  0.00    -0.200 F 
ENDBRANCH  59  82
ENDBRANCH  33  34
ENDBRANCH  26  28
ENDBRANCH  25  26
ENDBRANCH  24  25
ENDBRANCH  23  24
ENDBRANCH  22  23
ENDBRANCH   1  22
TORSDOF 18
ENDMDL
MODEL 3
REMARK VINA RESULT:     -11.3      4.041      6.420
REMARK SMILES C[C@@H](C(=O)OCCOCCOC(=O)c1ccc(-c2c3nc(c(-c4c(F)c(F)c(F)c(F)c4F)c4ccc([nH]4)c(-c4c(F)c(F)c(F)c(F)c4F)c4nc(c(-c5c(F)c(F)c(F)c(F)c5F)c5ccc2[nH]5)C=C4)C=C3)cc1)c1ccc(C[C@H]2CCC[C@H]2O)cc1
REMARK SMILES IDX 7 1 6 2 5 3 3 4 4 5 2 6 1 7 77 8 78 9 89 10 79 11 88 12
REMARK SMILES IDX 80 13 81 14 82 15 83 16 86 17 84 18 85 19 87 20 8 22 9 23
REMARK SMILES IDX 10 24 11 25 12 26 13 27 14 28 15 29 76 30 16 31 75 32 17 33
REMARK SMILES IDX 18 34 19 35 69 36 20 37 74 38 68 39 70 40 21 41 73 42 67 43
REMARK SMILES IDX 66 44 22 46 54 47 34 48 53 49 35 50 38 51 52 52 71 53 36 54
REMARK SMILES IDX 37 55 51 57 72 58 39 59 23 60 24 61 32 62 25 63 26 64 30 65
REMARK SMILES IDX 33 66 27 67 28 68 31 69 29 70 55 71 56 72 64 73 57 74 58 75
REMARK SMILES IDX 62 76 65 77 59 78 60 79 63 80 61 81 40 82 41 83 49 84 42 85
REMARK SMILES IDX 43 86 47 87 50 88 44 89 45 90 48 91 46 92
REMARK H PARENT 87 21 70 45 38 56
REMARK Flexibility Score: inf
ROOT
ATOM      1  C   UNL A   1      33.388  21.697  26.769  1.00  0.00     0.202 C 
ENDROOT
BRANCH   1   2
ATOM      2  C   UNL A   1      32.978  23.152  26.532  1.00  0.00     0.261 C 
BRANCH   2   3
ATOM      3  O   UNL A   1      32.412  23.301  25.217  1.00  0.00    -0.463 OA
BRANCH   3   4
ATOM      4  C   UNL A   1      32.759  24.436  24.553  1.00  0.00     0.313 C 
ATOM      5  O   UNL A   1      33.599  25.235  24.957  1.00  0.00    -0.252 OA
BRANCH   4   6
ATOM      6  C   UNL A   1      32.016  24.598  23.216  1.00  0.00     0.126 C 
ATOM      7  C   UNL A   1      32.935  24.629  21.989  1.00  0.00     0.025 C 
BRANCH   6   8
ATOM      8  C   UNL A   1      31.038  25.768  23.304  1.00  0.00    -0.034 A 
ATOM      9  C   UNL A   1      29.808  25.701  23.971  1.00  0.00     0.005 A 
ATOM     10  C   UNL A   1      31.341  26.947  22.601  1.00  0.00     0.005 A 
ATOM     11  C   UNL A   1      28.885  26.748  23.878  1.00  0.00     0.004 A 
ATOM     12  C   UNL A   1      30.413  27.985  22.499  1.00  0.00     0.004 A 
ATOM     13  C   UNL A   1      29.154  27.875  23.096  1.00  0.00    -0.048 A 
BRANCH  13  14
ATOM     14  C   UNL A   1      28.103  28.935  22.865  1.00  0.00     0.041 C 
BRANCH  14  15
ATOM     15  C   UNL A   1      28.585  30.340  22.453  1.00  0.00     0.022 C 
ATOM     16  C   UNL A   1      28.110  30.858  21.085  1.00  0.00     0.007 C 
ATOM     17  C   UNL A   1      28.309  31.502  23.418  1.00  0.00     0.117 C 
ATOM     18  C   UNL A   1      28.094  32.387  21.192  1.00  0.00     0.003 C 
ATOM     19  C   UNL A   1      28.652  32.723  22.572  1.00  0.00     0.032 C 
BRANCH  17  20
ATOM     20  O   UNL A   1      26.960  31.599  23.845  1.00  0.00    -0.393 OA
ATOM     21  H   UNL A   1      26.733  32.531  23.987  1.00  0.00     0.210 HD
ENDBRANCH  17  20
ENDBRANCH  14  15
ENDBRANCH  13  14
ENDBRANCH   6   8
ENDBRANCH   4   6
ENDBRANCH   3   4
ENDBRANCH   2   3
ENDBRANCH   1   2
BRANCH   1  22
ATOM     22  O   UNL A   1      34.794  21.454  26.830  1.00  0.00    -0.374 OA
BRANCH  22  23
ATOM     23  C   UNL A   1      35.588  21.929  25.743  1.00  0.00     0.202 C 
BRANCH  23  24
ATOM     24  C   UNL A   1      36.728  21.007  25.290  1.00  0.00     0.261 C 
BRANCH  24  25
ATOM     25  O   UNL A   1      37.950  21.729  25.044  1.00  0.00    -0.460 OA
BRANCH  25  26
ATOM     26  C   UNL A   1      38.961  21.433  25.894  1.00  0.00     0.338 C 
ATOM     27  O   UNL A   1      39.540  20.361  26.018  1.00  0.00    -0.246 OA
BRANCH  26  28
ATOM     28  C   UNL A   1      39.430  22.650  26.584  1.00  0.00     0.060 A 
ATOM     29  C   UNL A   1      38.827  23.863  26.228  1.00  0.00     0.016 A 
ATOM     30  C   UNL A   1      40.491  22.626  27.492  1.00  0.00     0.016 A 
ATOM     31  C   UNL A   1      39.316  25.064  26.738  1.00  0.00     0.010 A 
ATOM     32  C   UNL A   1      40.987  23.835  27.995  1.00  0.00     0.010 A 
ATOM     33  C   UNL A   1      40.425  25.061  27.592  1.00  0.00    -0.014 A 
BRANCH  33  34
ATOM     34  C   UNL A   1      41.082  26.347  27.934  1.00  0.00     0.031 A 
ATOM     35  C   UNL A   1      42.509  26.573  27.516  1.00  0.00     0.074 A 
ATOM     36  C   UNL A   1      40.404  27.321  28.566  1.00  0.00     0.049 A 
ATOM     37  N   UNL A   1      43.278  27.615  27.707  1.00  0.00    -0.248 NA
ATOM     38  C   UNL A   1      43.157  25.474  26.781  1.00  0.00     0.031 C 
ATOM     39  C   UNL A   1      39.007  27.241  28.986  1.00  0.00     0.029 A 
ATOM     40  N   UNL A   1      40.806  28.572  28.966  1.00  0.00    -0.354 N 
ATOM     41  C   UNL A   1      44.497  27.298  27.121  1.00  0.00     0.074 A 
ATOM     42  C   UNL A   1      44.377  25.956  26.592  1.00  0.00     0.031 C 
ATOM     43  C   UNL A   1      38.669  28.392  29.591  1.00  0.00     0.029 A 
ATOM     44  C   UNL A   1      39.831  29.279  29.624  1.00  0.00     0.049 A 
ATOM     45  H   UNL A   1      41.708  28.929  28.796  1.00  0.00     0.167 HD
ATOM     46  C   UNL A   1      45.611  28.060  27.024  1.00  0.00     0.037 A 
ATOM     47  C   UNL A   1      39.879  30.496  30.201  1.00  0.00     0.037 A 
ATOM     48  C   UNL A   1      45.731  29.396  27.544  1.00  0.00     0.049 A 
ATOM     49  C   UNL A   1      41.154  31.297  30.139  1.00  0.00     0.074 A 
ATOM     50  C   UNL A   1      46.812  30.258  27.473  1.00  0.00     0.029 A 
ATOM     51  N   UNL A   1      44.733  30.063  28.239  1.00  0.00    -0.354 N 
ATOM     52  N   UNL A   1      42.291  31.001  29.556  1.00  0.00    -0.248 NA
ATOM     53  C   UNL A   1      41.150  32.603  30.812  1.00  0.00     0.031 C 
ATOM     54  C   UNL A   1      46.485  31.428  28.166  1.00  0.00     0.029 A 
ATOM     55  C   UNL A   1      45.184  31.315  28.627  1.00  0.00     0.049 A 
ATOM     56  H   UNL A   1      43.838  29.701  28.430  1.00  0.00     0.167 HD
ATOM     57  C   UNL A   1      43.125  32.091  29.769  1.00  0.00     0.074 A 
ATOM     58  C   UNL A   1      42.360  33.061  30.524  1.00  0.00     0.031 C 
ATOM     59  C   UNL A   1      44.408  32.274  29.371  1.00  0.00     0.037 A 
BRANCH  46  60
ATOM     60  C   UNL A   1      46.807  27.456  26.347  1.00  0.00     0.064 A 
ATOM     61  C   UNL A   1      46.990  27.546  24.959  1.00  0.00     0.173 A 
ATOM     62  C   UNL A   1      47.798  26.811  27.102  1.00  0.00     0.173 A 
ATOM     63  F   UNL A   1      46.064  28.141  24.193  1.00  0.00    -0.203 F 
ATOM     64  C   UNL A   1      48.113  26.992  24.350  1.00  0.00     0.198 A 
ATOM     65  C   UNL A   1      48.931  26.282  26.492  1.00  0.00     0.198 A 
ATOM     66  F   UNL A   1      47.670  26.702  28.432  1.00  0.00    -0.203 F 
ATOM     67  F   UNL A   1      48.250  27.053  23.018  1.00  0.00    -0.200 F 
ATOM     68  C   UNL A   1      49.085  26.367  25.117  1.00  0.00     0.200 A 
ATOM     69  F   UNL A   1      49.874  25.687  27.235  1.00  0.00    -0.200 F 
ATOM     70  F   UNL A   1      50.168  25.840  24.529  1.00  0.00    -0.200 F 
ENDBRANCH  46  60
BRANCH  47  71
ATOM     71  C   UNL A   1      38.683  31.034  30.899  1.00  0.00     0.064 A 
ATOM     72  C   UNL A   1      37.698  31.747  30.202  1.00  0.00     0.173 A 
ATOM     73  C   UNL A   1      38.512  30.865  32.281  1.00  0.00     0.173 A 
ATOM     74  F   UNL A   1      37.832  31.959  28.885  1.00  0.00    -0.203 F 
ATOM     75  C   UNL A   1      36.595  32.284  30.863  1.00  0.00     0.198 A 
ATOM     76  C   UNL A   1      37.395  31.379  32.937  1.00  0.00     0.198 A 
ATOM     77  F   UNL A   1      39.428  30.194  32.994  1.00  0.00    -0.203 F 
ATOM     78  F   UNL A   1      35.692  33.000  30.182  1.00  0.00    -0.200 F 
ATOM     79  C   UNL A   1      36.442  32.095  32.229  1.00  0.00     0.200 A 
ATOM     80  F   UNL A   1      37.248  31.186  34.254  1.00  0.00    -0.200 F 
ATOM     81  F   UNL A   1      35.381  32.611  32.864  1.00  0.00    -0.200 F 
ENDBRANCH  47  71
BRANCH  59  82
ATOM     82  C   UNL A   1      45.058  33.582  29.715  1.00  0.00     0.064 A 
ATOM     83  C   UNL A   1      45.794  33.751  30.896  1.00  0.00     0.173 A 
ATOM     84  C   UNL A   1      44.980  34.667  28.828  1.00  0.00     0.173 A 
ATOM     85  F   UNL A   1      45.886  32.748  31.783  1.00  0.00    -0.203 F 
ATOM     86  C   UNL A   1      46.410  34.965  31.189  1.00  0.00     0.198 A 
ATOM     87  C   UNL A   1      45.619  35.871  29.110  1.00  0.00     0.198 A 
ATOM     88  F   UNL A   1      44.294  34.555  27.680  1.00  0.00    -0.203 F 
ATOM     89  F   UNL A   1      47.072  35.118  32.344  1.00  0.00    -0.200 F 
ATOM     90  C   UNL A   1      46.328  36.021  30.293  1.00  0.00     0.200 A 
ATOM     91  F   UNL A   1      45.550  36.886  28.238  1.00  0.00    -0.200 F 
ATOM     92  F   UNL A   1      46.927  37.187  30.573  1.00  0.00    -0.200 F 
ENDBRANCH  59  82
ENDBRANCH  33  34
ENDBRANCH  26  28
ENDBRANCH  25  26
ENDBRANCH  24  25
ENDBRANCH  23  24
ENDBRANCH  22  23
ENDBRANCH   1  22
TORSDOF 18
ENDMDL
