MODEL 1
REMARK VINA RESULT:     -12.1      0.000      0.000
REMARK SMILES CC1=C2C(=O)CC(C)(C)CC2=N[C@@H]1C(=O)OCCOCCOC(=O)c1ccc(-c2c3nc(c(-c4c(F)c(F)c(F)c(F)c4F)c4ccc([nH]4)c(-c4c(F)c(F)c(F)c(F)c4F)c4nc(c(-c5c(F)c(F)c(F)c(F)c5F)c5ccc2[nH]5)C=C4)C=C3)cc1
REMARK SMILES IDX 20 1 19 2 18 3 17 4 16 5 14 6 15 7 13 8 1 9 2 10 3 11 4 12
REMARK SMILES IDX 11 13 12 14 5 15 6 16 10 17 7 18 8 19 9 20 21 21 22 22 23 23
REMARK SMILES IDX 24 24 25 25 26 26 87 27 27 28 86 29 28 30 29 31 30 32 80 33
REMARK SMILES IDX 31 34 85 35 79 36 81 37 32 38 84 39 78 40 77 41 33 43 65 44
REMARK SMILES IDX 45 45 64 46 46 47 49 48 63 49 82 50 47 51 48 52 62 54 83 55
REMARK SMILES IDX 50 56 34 57 35 58 43 59 36 60 37 61 41 62 44 63 38 64 39 65
REMARK SMILES IDX 42 66 40 67 66 68 67 69 75 70 68 71 69 72 73 73 76 74 70 75
REMARK SMILES IDX 71 76 74 77 72 78 51 79 52 80 60 81 53 82 54 83 58 84 61 85
REMARK SMILES IDX 55 86 56 87 59 88 57 89
REMARK H PARENT 81 42 49 53
REMARK Flexibility Score: inf
ROOT
ATOM      1  C   UNL A   1      42.074  20.460  26.481  1.00  0.00     0.202 C 
ENDROOT
BRANCH   1   2
ATOM      2  O   UNL A   1      41.016  21.188  25.875  1.00  0.00    -0.374 OA
BRANCH   2   3
ATOM      3  C   UNL A   1      39.743  21.349  26.499  1.00  0.00     0.202 C 
BRANCH   3   4
ATOM      4  C   UNL A   1      38.812  22.486  26.083  1.00  0.00     0.261 C 
BRANCH   4   5
ATOM      5  O   UNL A   1      37.856  22.105  25.085  1.00  0.00    -0.461 OA
BRANCH   5   6
ATOM      6  C   UNL A   1      36.594  21.983  25.576  1.00  0.00     0.335 C 
ATOM      7  O   UNL A   1      35.980  20.922  25.647  1.00  0.00    -0.249 OA
BRANCH   6   8
ATOM      8  C   UNL A   1      35.968  23.346  25.935  1.00  0.00     0.242 C 
ATOM      9  C   UNL A   1      34.219  22.473  27.743  1.00  0.00     0.043 C 
ATOM     10  C   UNL A   1      34.563  23.246  26.516  1.00  0.00    -0.025 C 
ATOM     11  C   UNL A   1      33.671  23.718  25.638  1.00  0.00     0.040 C 
ATOM     12  C   UNL A   1      32.207  23.714  25.539  1.00  0.00     0.165 C 
ATOM     13  C   UNL A   1      34.490  23.631  24.447  1.00  0.00     0.048 C 
ATOM     14  N   UNL A   1      35.756  23.913  24.562  1.00  0.00    -0.269 NA
ATOM     15  O   UNL A   1      31.521  24.394  26.298  1.00  0.00    -0.294 OA
ATOM     16  C   UNL A   1      31.616  22.914  24.383  1.00  0.00     0.088 C 
ATOM     17  C   UNL A   1      33.914  22.900  23.271  1.00  0.00     0.063 C 
ATOM     18  C   UNL A   1      32.673  22.026  23.674  1.00  0.00    -0.023 C 
ATOM     19  C   UNL A   1      32.960  20.812  24.602  1.00  0.00     0.012 C 
ATOM     20  C   UNL A   1      32.127  21.418  22.372  1.00  0.00     0.012 C 
ENDBRANCH   6   8
ENDBRANCH   5   6
ENDBRANCH   4   5
ENDBRANCH   3   4
ENDBRANCH   2   3
ENDBRANCH   1   2
BRANCH   1  21
ATOM     21  C   UNL A   1      42.813  19.382  25.708  1.00  0.00     0.261 C 
BRANCH  21  22
ATOM     22  O   UNL A   1      44.194  19.658  25.588  1.00  0.00    -0.460 OA
BRANCH  22  23
ATOM     23  C   UNL A   1      44.514  20.126  24.358  1.00  0.00     0.338 C 
ATOM     24  O   UNL A   1      44.585  19.492  23.324  1.00  0.00    -0.246 OA
BRANCH  23  25
ATOM     25  C   UNL A   1      44.970  21.512  24.490  1.00  0.00     0.060 A 
ATOM     26  C   UNL A   1      45.807  21.720  25.585  1.00  0.00     0.016 A 
ATOM     27  C   UNL A   1      44.209  22.536  23.909  1.00  0.00     0.016 A 
ATOM     28  C   UNL A   1      45.611  22.863  26.312  1.00  0.00     0.010 A 
ATOM     29  C   UNL A   1      44.010  23.676  24.642  1.00  0.00     0.010 A 
ATOM     30  C   UNL A   1      44.630  23.765  25.883  1.00  0.00    -0.014 A 
BRANCH  30  31
ATOM     31  C   UNL A   1      44.385  24.912  26.720  1.00  0.00     0.031 A 
ATOM     32  C   UNL A   1      45.464  25.908  26.571  1.00  0.00     0.074 A 
ATOM     33  C   UNL A   1      43.282  25.048  27.475  1.00  0.00     0.049 A 
ATOM     34  N   UNL A   1      46.373  26.210  27.434  1.00  0.00    -0.248 NA
ATOM     35  C   UNL A   1      45.708  26.444  25.221  1.00  0.00     0.031 C 
ATOM     36  C   UNL A   1      42.068  24.229  27.496  1.00  0.00     0.029 A 
ATOM     37  N   UNL A   1      42.991  26.046  28.349  1.00  0.00    -0.354 N 
ATOM     38  C   UNL A   1      47.183  27.140  26.800  1.00  0.00     0.074 A 
ATOM     39  C   UNL A   1      46.870  27.071  25.399  1.00  0.00     0.031 C 
ATOM     40  C   UNL A   1      41.092  24.900  28.156  1.00  0.00     0.029 A 
ATOM     41  C   UNL A   1      41.650  26.119  28.711  1.00  0.00     0.049 A 
ATOM     42  H   UNL A   1      43.672  26.665  28.698  1.00  0.00     0.167 HD
ATOM     43  C   UNL A   1      47.818  28.101  27.523  1.00  0.00     0.037 A 
ATOM     44  C   UNL A   1      41.078  27.188  29.325  1.00  0.00     0.037 A 
ATOM     45  C   UNL A   1      47.937  27.707  28.906  1.00  0.00     0.049 A 
ATOM     46  C   UNL A   1      42.184  27.968  29.954  1.00  0.00     0.074 A 
ATOM     47  C   UNL A   1      48.537  26.645  29.556  1.00  0.00     0.029 A 
ATOM     48  N   UNL A   1      47.042  28.236  29.805  1.00  0.00    -0.354 N 
ATOM     49  N   UNL A   1      42.886  27.532  30.964  1.00  0.00    -0.248 NA
ATOM     50  C   UNL A   1      42.829  28.988  29.134  1.00  0.00     0.031 C 
ATOM     51  C   UNL A   1      47.633  26.293  30.602  1.00  0.00     0.029 A 
ATOM     52  C   UNL A   1      46.578  27.204  30.581  1.00  0.00     0.049 A 
ATOM     53  H   UNL A   1      46.782  29.182  29.879  1.00  0.00     0.167 HD
ATOM     54  C   UNL A   1      44.192  27.893  30.666  1.00  0.00     0.074 A 
ATOM     55  C   UNL A   1      44.090  28.829  29.547  1.00  0.00     0.031 C 
ATOM     56  C   UNL A   1      45.251  27.175  31.145  1.00  0.00     0.037 A 
BRANCH  43  57
ATOM     57  C   UNL A   1      47.916  29.536  27.070  1.00  0.00     0.064 A 
ATOM     58  C   UNL A   1      49.156  30.192  27.188  1.00  0.00     0.173 A 
ATOM     59  C   UNL A   1      46.805  30.379  26.828  1.00  0.00     0.173 A 
ATOM     60  F   UNL A   1      50.277  29.494  27.424  1.00  0.00    -0.203 F 
ATOM     61  C   UNL A   1      49.256  31.584  27.170  1.00  0.00     0.198 A 
ATOM     62  C   UNL A   1      46.918  31.763  26.757  1.00  0.00     0.198 A 
ATOM     63  F   UNL A   1      45.550  29.926  26.764  1.00  0.00    -0.203 F 
ATOM     64  F   UNL A   1      50.435  32.166  27.429  1.00  0.00    -0.200 F 
ATOM     65  C   UNL A   1      48.137  32.369  26.967  1.00  0.00     0.200 A 
ATOM     66  F   UNL A   1      45.817  32.503  26.575  1.00  0.00    -0.200 F 
ATOM     67  F   UNL A   1      48.218  33.704  27.020  1.00  0.00    -0.200 F 
ENDBRANCH  43  57
BRANCH  44  68
ATOM     68  C   UNL A   1      39.737  27.780  29.088  1.00  0.00     0.064 A 
ATOM     69  C   UNL A   1      38.822  27.937  30.144  1.00  0.00     0.173 A 
ATOM     70  C   UNL A   1      39.438  28.470  27.897  1.00  0.00     0.173 A 
ATOM     71  F   UNL A   1      39.052  27.352  31.328  1.00  0.00    -0.203 F 
ATOM     72  C   UNL A   1      37.695  28.758  30.025  1.00  0.00     0.198 A 
ATOM     73  C   UNL A   1      38.311  29.285  27.778  1.00  0.00     0.198 A 
ATOM     74  F   UNL A   1      40.282  28.449  26.857  1.00  0.00    -0.203 F 
ATOM     75  F   UNL A   1      36.881  28.935  31.075  1.00  0.00    -0.200 F 
ATOM     76  C   UNL A   1      37.447  29.442  28.847  1.00  0.00     0.200 A 
ATOM     77  F   UNL A   1      38.104  29.971  26.645  1.00  0.00    -0.200 F 
ATOM     78  F   UNL A   1      36.407  30.281  28.753  1.00  0.00    -0.200 F 
ENDBRANCH  44  68
BRANCH  56  79
ATOM     79  C   UNL A   1      44.980  26.123  32.182  1.00  0.00     0.064 A 
ATOM     80  C   UNL A   1      44.913  26.375  33.564  1.00  0.00     0.173 A 
ATOM     81  C   UNL A   1      44.612  24.844  31.742  1.00  0.00     0.173 A 
ATOM     82  F   UNL A   1      45.152  27.600  34.052  1.00  0.00    -0.203 F 
ATOM     83  C   UNL A   1      44.531  25.379  34.463  1.00  0.00     0.198 A 
ATOM     84  C   UNL A   1      44.197  23.864  32.637  1.00  0.00     0.198 A 
ATOM     85  F   UNL A   1      44.605  24.564  30.430  1.00  0.00    -0.203 F 
ATOM     86  F   UNL A   1      44.481  25.642  35.777  1.00  0.00    -0.200 F 
ATOM     87  C   UNL A   1      44.166  24.127  33.997  1.00  0.00     0.200 A 
ATOM     88  F   UNL A   1      43.795  22.671  32.175  1.00  0.00    -0.200 F 
ATOM     89  F   UNL A   1      43.754  23.183  34.853  1.00  0.00    -0.200 F 
ENDBRANCH  56  79
ENDBRANCH  30  31
ENDBRANCH  23  25
ENDBRANCH  22  23
ENDBRANCH  21  22
ENDBRANCH   1  21
TORSDOF 14
ENDMDL
MODEL 2
REMARK VINA RESULT:     -11.7      5.227     10.513
REMARK SMILES CC1=C2C(=O)CC(C)(C)CC2=N[C@@H]1C(=O)OCCOCCOC(=O)c1ccc(-c2c3nc(c(-c4c(F)c(F)c(F)c(F)c4F)c4ccc([nH]4)c(-c4c(F)c(F)c(F)c(F)c4F)c4nc(c(-c5c(F)c(F)c(F)c(F)c5F)c5ccc2[nH]5)C=C4)C=C3)cc1
REMARK SMILES IDX 20 1 19 2 18 3 17 4 16 5 14 6 15 7 13 8 1 9 2 10 3 11 4 12
REMARK SMILES IDX 11 13 12 14 5 15 6 16 10 17 7 18 8 19 9 20 21 21 22 22 23 23
REMARK SMILES IDX 24 24 25 25 26 26 87 27 27 28 86 29 28 30 29 31 30 32 80 33
REMARK SMILES IDX 31 34 85 35 79 36 81 37 32 38 84 39 78 40 77 41 33 43 65 44
REMARK SMILES IDX 45 45 64 46 46 47 49 48 63 49 82 50 47 51 48 52 62 54 83 55
REMARK SMILES IDX 50 56 34 57 35 58 43 59 36 60 37 61 41 62 44 63 38 64 39 65
REMARK SMILES IDX 42 66 40 67 66 68 67 69 75 70 68 71 69 72 73 73 76 74 70 75
REMARK SMILES IDX 71 76 74 77 72 78 51 79 52 80 60 81 53 82 54 83 58 84 61 85
REMARK SMILES IDX 55 86 56 87 59 88 57 89
REMARK H PARENT 81 42 49 53
REMARK Flexibility Score: inf
ROOT
ATOM      1  C   UNL A   1      34.645  34.194  29.145  1.00  0.00     0.202 C 
ENDROOT
BRANCH   1   2
ATOM      2  O   UNL A   1      34.493  33.376  27.993  1.00  0.00    -0.374 OA
BRANCH   2   3
ATOM      3  C   UNL A   1      33.664  32.215  27.985  1.00  0.00     0.202 C 
BRANCH   3   4
ATOM      4  C   UNL A   1      34.231  30.859  27.568  1.00  0.00     0.261 C 
BRANCH   4   5
ATOM      5  O   UNL A   1      33.222  29.866  27.338  1.00  0.00    -0.461 OA
BRANCH   5   6
ATOM      6  C   UNL A   1      33.083  29.542  26.025  1.00  0.00     0.335 C 
ATOM      7  O   UNL A   1      32.265  30.058  25.269  1.00  0.00    -0.249 OA
BRANCH   6   8
ATOM      8  C   UNL A   1      33.995  28.370  25.609  1.00  0.00     0.242 C 
ATOM      9  C   UNL A   1      34.192  28.969  23.022  1.00  0.00     0.043 C 
ATOM     10  C   UNL A   1      33.906  28.014  24.130  1.00  0.00    -0.025 C 
ATOM     11  C   UNL A   1      33.293  26.835  23.980  1.00  0.00     0.040 C 
ATOM     12  C   UNL A   1      32.759  26.077  22.841  1.00  0.00     0.165 C 
ATOM     13  C   UNL A   1      32.645  26.774  25.273  1.00  0.00     0.048 C 
ATOM     14  N   UNL A   1      33.301  27.233  26.300  1.00  0.00    -0.269 NA
ATOM     15  O   UNL A   1      33.511  25.566  22.016  1.00  0.00    -0.294 OA
ATOM     16  C   UNL A   1      31.248  25.879  22.819  1.00  0.00     0.088 C 
ATOM     17  C   UNL A   1      31.166  26.522  25.288  1.00  0.00     0.063 C 
ATOM     18  C   UNL A   1      30.518  26.750  23.875  1.00  0.00    -0.023 C 
ATOM     19  C   UNL A   1      30.513  28.213  23.350  1.00  0.00     0.012 C 
ATOM     20  C   UNL A   1      29.036  26.364  24.009  1.00  0.00     0.012 C 
ENDBRANCH   6   8
ENDBRANCH   5   6
ENDBRANCH   4   5
ENDBRANCH   3   4
ENDBRANCH   2   3
ENDBRANCH   1   2
BRANCH   1  21
ATOM     21  C   UNL A   1      33.446  34.895  29.759  1.00  0.00     0.261 C 
BRANCH  21  22
ATOM     22  O   UNL A   1      33.795  35.662  30.893  1.00  0.00    -0.460 OA
BRANCH  22  23
ATOM     23  C   UNL A   1      33.295  35.137  32.037  1.00  0.00     0.338 C 
ATOM     24  O   UNL A   1      32.190  35.316  32.508  1.00  0.00    -0.246 OA
BRANCH  23  25
ATOM     25  C   UNL A   1      34.379  34.456  32.750  1.00  0.00     0.060 A 
ATOM     26  C   UNL A   1      35.556  35.200  32.814  1.00  0.00     0.016 A 
ATOM     27  C   UNL A   1      34.357  33.058  32.845  1.00  0.00     0.016 A 
ATOM     28  C   UNL A   1      36.731  34.527  32.618  1.00  0.00     0.010 A 
ATOM     29  C   UNL A   1      35.533  32.387  32.642  1.00  0.00     0.010 A 
ATOM     30  C   UNL A   1      36.680  33.141  32.420  1.00  0.00    -0.014 A 
BRANCH  30  31
ATOM     31  C   UNL A   1      37.923  32.476  32.124  1.00  0.00     0.031 A 
ATOM     32  C   UNL A   1      38.745  32.338  33.343  1.00  0.00     0.074 A 
ATOM     33  C   UNL A   1      38.232  32.005  30.904  1.00  0.00     0.049 A 
ATOM     34  N   UNL A   1      39.832  32.972  33.627  1.00  0.00    -0.248 NA
ATOM     35  C   UNL A   1      38.158  31.602  34.475  1.00  0.00     0.031 C 
ATOM     36  C   UNL A   1      37.385  31.889  29.716  1.00  0.00     0.029 A 
ATOM     37  N   UNL A   1      39.398  31.434  30.505  1.00  0.00    -0.354 N 
ATOM     38  C   UNL A   1      40.179  32.546  34.901  1.00  0.00     0.074 A 
ATOM     39  C   UNL A   1      39.018  31.899  35.449  1.00  0.00     0.031 C 
ATOM     40  C   UNL A   1      37.990  31.072  28.818  1.00  0.00     0.029 A 
ATOM     41  C   UNL A   1      39.309  30.724  29.312  1.00  0.00     0.049 A 
ATOM     42  H   UNL A   1      40.235  31.517  31.016  1.00  0.00     0.167 HD
ATOM     43  C   UNL A   1      41.485  32.491  35.273  1.00  0.00     0.037 A 
ATOM     44  C   UNL A   1      40.245  29.842  28.873  1.00  0.00     0.037 A 
ATOM     45  C   UNL A   1      42.291  33.351  34.440  1.00  0.00     0.049 A 
ATOM     46  C   UNL A   1      41.512  30.160  29.595  1.00  0.00     0.074 A 
ATOM     47  C   UNL A   1      42.294  34.707  34.175  1.00  0.00     0.029 A 
ATOM     48  N   UNL A   1      43.008  32.772  33.421  1.00  0.00    -0.354 N 
ATOM     49  N   UNL A   1      42.192  31.257  29.402  1.00  0.00    -0.248 NA
ATOM     50  C   UNL A   1      41.729  29.505  30.880  1.00  0.00     0.031 C 
ATOM     51  C   UNL A   1      42.575  34.812  32.781  1.00  0.00     0.029 A 
ATOM     52  C   UNL A   1      42.806  33.526  32.293  1.00  0.00     0.049 A 
ATOM     53  H   UNL A   1      43.566  31.963  33.488  1.00  0.00     0.167 HD
ATOM     54  C   UNL A   1      42.582  31.657  30.672  1.00  0.00     0.074 A 
ATOM     55  C   UNL A   1      42.308  30.513  31.539  1.00  0.00     0.031 C 
ATOM     56  C   UNL A   1      42.807  32.972  30.961  1.00  0.00     0.037 A 
BRANCH  43  57
ATOM     57  C   UNL A   1      42.063  31.348  36.069  1.00  0.00     0.064 A 
ATOM     58  C   UNL A   1      42.945  31.646  37.125  1.00  0.00     0.173 A 
ATOM     59  C   UNL A   1      42.046  29.994  35.658  1.00  0.00     0.173 A 
ATOM     60  F   UNL A   1      43.049  32.900  37.593  1.00  0.00    -0.203 F 
ATOM     61  C   UNL A   1      43.813  30.689  37.651  1.00  0.00     0.198 A 
ATOM     62  C   UNL A   1      42.875  29.031  36.223  1.00  0.00     0.198 A 
ATOM     63  F   UNL A   1      41.322  29.558  34.624  1.00  0.00    -0.203 F 
ATOM     64  F   UNL A   1      44.733  31.054  38.555  1.00  0.00    -0.200 F 
ATOM     65  C   UNL A   1      43.786  29.385  37.193  1.00  0.00     0.200 A 
ATOM     66  F   UNL A   1      42.841  27.778  35.751  1.00  0.00    -0.200 F 
ATOM     67  F   UNL A   1      44.665  28.482  37.645  1.00  0.00    -0.200 F 
ENDBRANCH  43  57
BRANCH  44  68
ATOM     68  C   UNL A   1      40.037  28.540  28.191  1.00  0.00     0.064 A 
ATOM     69  C   UNL A   1      40.696  28.244  26.985  1.00  0.00     0.173 A 
ATOM     70  C   UNL A   1      39.428  27.453  28.851  1.00  0.00     0.173 A 
ATOM     71  F   UNL A   1      41.340  29.209  26.315  1.00  0.00    -0.203 F 
ATOM     72  C   UNL A   1      40.769  26.938  26.487  1.00  0.00     0.198 A 
ATOM     73  C   UNL A   1      39.498  26.152  28.351  1.00  0.00     0.198 A 
ATOM     74  F   UNL A   1      38.840  27.613  30.044  1.00  0.00    -0.203 F 
ATOM     75  F   UNL A   1      41.462  26.685  25.368  1.00  0.00    -0.200 F 
ATOM     76  C   UNL A   1      40.180  25.891  27.177  1.00  0.00     0.200 A 
ATOM     77  F   UNL A   1      38.957  25.143  29.048  1.00  0.00    -0.200 F 
ATOM     78  F   UNL A   1      40.306  24.632  26.738  1.00  0.00    -0.200 F 
ENDBRANCH  44  68
BRANCH  56  79
ATOM     79  C   UNL A   1      42.841  33.951  29.822  1.00  0.00     0.064 A 
ATOM     80  C   UNL A   1      43.978  34.208  29.036  1.00  0.00     0.173 A 
ATOM     81  C   UNL A   1      41.630  34.525  29.412  1.00  0.00     0.173 A 
ATOM     82  F   UNL A   1      45.149  33.615  29.304  1.00  0.00    -0.203 F 
ATOM     83  C   UNL A   1      43.907  35.033  27.913  1.00  0.00     0.198 A 
ATOM     84  C   UNL A   1      41.555  35.317  28.271  1.00  0.00     0.198 A 
ATOM     85  F   UNL A   1      40.503  34.270  30.094  1.00  0.00    -0.203 F 
ATOM     86  F   UNL A   1      45.007  35.268  27.181  1.00  0.00    -0.200 F 
ATOM     87  C   UNL A   1      42.695  35.580  27.528  1.00  0.00     0.200 A 
ATOM     88  F   UNL A   1      40.370  35.801  27.875  1.00  0.00    -0.200 F 
ATOM     89  F   UNL A   1      42.616  36.334  26.424  1.00  0.00    -0.200 F 
ENDBRANCH  56  79
ENDBRANCH  30  31
ENDBRANCH  23  25
ENDBRANCH  22  23
ENDBRANCH  21  22
ENDBRANCH   1  21
TORSDOF 14
ENDMDL
MODEL 3
REMARK VINA RESULT:     -11.6      5.136     10.931
REMARK SMILES CC1=C2C(=O)CC(C)(C)CC2=N[C@@H]1C(=O)OCCOCCOC(=O)c1ccc(-c2c3nc(c(-c4c(F)c(F)c(F)c(F)c4F)c4ccc([nH]4)c(-c4c(F)c(F)c(F)c(F)c4F)c4nc(c(-c5c(F)c(F)c(F)c(F)c5F)c5ccc2[nH]5)C=C4)C=C3)cc1
REMARK SMILES IDX 20 1 19 2 18 3 17 4 16 5 14 6 15 7 13 8 1 9 2 10 3 11 4 12
REMARK SMILES IDX 11 13 12 14 5 15 6 16 10 17 7 18 8 19 9 20 21 21 22 22 23 23
REMARK SMILES IDX 24 24 25 25 26 26 87 27 27 28 86 29 28 30 29 31 30 32 80 33
REMARK SMILES IDX 31 34 85 35 79 36 81 37 32 38 84 39 78 40 77 41 33 43 65 44
REMARK SMILES IDX 45 45 64 46 46 47 49 48 63 49 82 50 47 51 48 52 62 54 83 55
REMARK SMILES IDX 50 56 34 57 35 58 43 59 36 60 37 61 41 62 44 63 38 64 39 65
REMARK SMILES IDX 42 66 40 67 66 68 67 69 75 70 68 71 69 72 73 73 76 74 70 75
REMARK SMILES IDX 71 76 74 77 72 78 51 79 52 80 60 81 53 82 54 83 58 84 61 85
REMARK SMILES IDX 55 86 56 87 59 88 57 89
REMARK H PARENT 81 42 49 53
REMARK Flexibility Score: inf
ROOT
ATOM      1  C   UNL A   1      34.247  34.085  29.283  1.00  0.00     0.202 C 
ENDROOT
BRANCH   1   2
ATOM      2  O   UNL A   1      33.869  35.372  29.750  1.00  0.00    -0.374 OA
BRANCH   2   3
ATOM      3  C   UNL A   1      32.918  35.557  30.796  1.00  0.00     0.202 C 
BRANCH   3   4
ATOM      4  C   UNL A   1      33.351  35.496  32.260  1.00  0.00     0.261 C 
BRANCH   4   5
ATOM      5  O   UNL A   1      33.458  34.160  32.768  1.00  0.00    -0.461 OA
BRANCH   5   6
ATOM      6  C   UNL A   1      34.739  33.709  32.813  1.00  0.00     0.335 C 
ATOM      7  O   UNL A   1      35.056  32.523  32.776  1.00  0.00    -0.249 OA
BRANCH   6   8
ATOM      8  C   UNL A   1      35.756  34.848  33.028  1.00  0.00     0.242 C 
ATOM      9  C   UNL A   1      37.352  34.299  30.968  1.00  0.00     0.043 C 
ATOM     10  C   UNL A   1      37.125  34.577  32.415  1.00  0.00    -0.025 C 
ATOM     11  C   UNL A   1      38.026  34.368  33.380  1.00  0.00     0.040 C 
ATOM     12  C   UNL A   1      39.413  33.890  33.424  1.00  0.00     0.165 C 
ATOM     13  C   UNL A   1      37.106  34.058  34.455  1.00  0.00     0.048 C 
ATOM     14  N   UNL A   1      35.988  34.724  34.506  1.00  0.00    -0.269 NA
ATOM     15  O   UNL A   1      40.331  34.581  32.992  1.00  0.00    -0.294 OA
ATOM     16  C   UNL A   1      39.640  32.557  34.128  1.00  0.00     0.088 C 
ATOM     17  C   UNL A   1      37.336  32.780  35.207  1.00  0.00     0.063 C 
ATOM     18  C   UNL A   1      38.312  31.817  34.441  1.00  0.00    -0.023 C 
ATOM     19  C   UNL A   1      37.784  31.224  33.105  1.00  0.00     0.012 C 
ATOM     20  C   UNL A   1      38.537  30.605  35.359  1.00  0.00     0.012 C 
ENDBRANCH   6   8
ENDBRANCH   5   6
ENDBRANCH   4   5
ENDBRANCH   3   4
ENDBRANCH   2   3
ENDBRANCH   1   2
BRANCH   1  21
ATOM     21  C   UNL A   1      34.757  33.895  27.865  1.00  0.00     0.261 C 
BRANCH  21  22
ATOM     22  O   UNL A   1      35.847  32.998  27.802  1.00  0.00    -0.460 OA
BRANCH  22  23
ATOM     23  C   UNL A   1      35.446  31.705  27.843  1.00  0.00     0.338 C 
ATOM     24  O   UNL A   1      34.485  31.215  27.286  1.00  0.00    -0.246 OA
BRANCH  23  25
ATOM     25  C   UNL A   1      36.249  31.000  28.845  1.00  0.00     0.060 A 
ATOM     26  C   UNL A   1      37.336  31.739  29.309  1.00  0.00     0.016 A 
ATOM     27  C   UNL A   1      36.210  29.599  28.884  1.00  0.00     0.016 A 
ATOM     28  C   UNL A   1      38.517  31.071  29.481  1.00  0.00     0.010 A 
ATOM     29  C   UNL A   1      37.395  28.933  29.050  1.00  0.00     0.010 A 
ATOM     30  C   UNL A   1      38.546  29.693  29.233  1.00  0.00    -0.014 A 
BRANCH  30  31
ATOM     31  C   UNL A   1      39.824  29.036  29.333  1.00  0.00     0.031 A 
ATOM     32  C   UNL A   1      40.213  28.860  30.746  1.00  0.00     0.074 A 
ATOM     33  C   UNL A   1      40.512  28.602  28.263  1.00  0.00     0.049 A 
ATOM     34  N   UNL A   1      41.145  29.484  31.382  1.00  0.00    -0.248 NA
ATOM     35  C   UNL A   1      39.300  28.091  31.608  1.00  0.00     0.031 C 
ATOM     36  C   UNL A   1      40.092  28.523  26.862  1.00  0.00     0.029 A 
ATOM     37  N   UNL A   1      41.749  28.042  28.242  1.00  0.00    -0.354 N 
ATOM     38  C   UNL A   1      41.069  29.019  32.687  1.00  0.00     0.074 A 
ATOM     39  C   UNL A   1      39.799  28.357  32.814  1.00  0.00     0.031 C 
ATOM     40  C   UNL A   1      40.960  27.733  26.183  1.00  0.00     0.029 A 
ATOM     41  C   UNL A   1      42.054  27.370  27.064  1.00  0.00     0.049 A 
ATOM     42  H   UNL A   1      42.377  28.109  28.997  1.00  0.00     0.167 HD
ATOM     43  C   UNL A   1      42.187  28.952  33.456  1.00  0.00     0.037 A 
ATOM     44  C   UNL A   1      43.089  26.501  26.923  1.00  0.00     0.037 A 
ATOM     45  C   UNL A   1      43.210  29.836  32.952  1.00  0.00     0.049 A 
ATOM     46  C   UNL A   1      44.055  26.795  28.022  1.00  0.00     0.074 A 
ATOM     47  C   UNL A   1      43.285  31.200  32.742  1.00  0.00     0.029 A 
ATOM     48  N   UNL A   1      44.221  29.288  32.200  1.00  0.00    -0.354 N 
ATOM     49  N   UNL A   1      44.751  27.897  28.090  1.00  0.00    -0.248 NA
ATOM     50  C   UNL A   1      43.854  26.101  29.289  1.00  0.00     0.031 C 
ATOM     51  C   UNL A   1      43.998  31.346  31.515  1.00  0.00     0.029 A 
ATOM     52  C   UNL A   1      44.385  30.076  31.090  1.00  0.00     0.049 A 
ATOM     53  H   UNL A   1      44.735  28.476  32.419  1.00  0.00     0.167 HD
ATOM     54  C   UNL A   1      44.710  28.257  29.429  1.00  0.00     0.074 A 
ATOM     55  C   UNL A   1      44.181  27.087  30.128  1.00  0.00     0.031 C 
ATOM     56  C   UNL A   1      44.818  29.563  29.813  1.00  0.00     0.037 A 
BRANCH  43  57
ATOM     57  C   UNL A   1      42.489  27.784  34.363  1.00  0.00     0.064 A 
ATOM     58  C   UNL A   1      43.049  26.624  33.795  1.00  0.00     0.173 A 
ATOM     59  C   UNL A   1      41.975  27.630  35.672  1.00  0.00     0.173 A 
ATOM     60  F   UNL A   1      43.562  26.650  32.555  1.00  0.00    -0.203 F 
ATOM     61  C   UNL A   1      43.002  25.390  34.445  1.00  0.00     0.198 A 
ATOM     62  C   UNL A   1      41.979  26.409  36.338  1.00  0.00     0.198 A 
ATOM     63  F   UNL A   1      41.345  28.611  36.324  1.00  0.00    -0.203 F 
ATOM     64  F   UNL A   1      43.419  24.288  33.807  1.00  0.00    -0.200 F 
ATOM     65  C   UNL A   1      42.457  25.281  35.711  1.00  0.00     0.200 A 
ATOM     66  F   UNL A   1      41.431  26.326  37.558  1.00  0.00    -0.200 F 
ATOM     67  F   UNL A   1      42.346  24.088  36.308  1.00  0.00    -0.200 F 
ENDBRANCH  43  57
BRANCH  44  68
ATOM     68  C   UNL A   1      43.123  25.219  26.173  1.00  0.00     0.064 A 
ATOM     69  C   UNL A   1      44.202  24.906  25.329  1.00  0.00     0.173 A 
ATOM     70  C   UNL A   1      42.253  24.158  26.492  1.00  0.00     0.173 A 
ATOM     71  F   UNL A   1      45.104  25.846  25.011  1.00  0.00    -0.203 F 
ATOM     72  C   UNL A   1      44.417  23.605  24.861  1.00  0.00     0.198 A 
ATOM     73  C   UNL A   1      42.466  22.861  26.020  1.00  0.00     0.198 A 
ATOM     74  F   UNL A   1      41.237  24.332  27.348  1.00  0.00    -0.203 F 
ATOM     75  F   UNL A   1      45.495  23.331  24.112  1.00  0.00    -0.200 F 
ATOM     76  C   UNL A   1      43.556  22.580  25.217  1.00  0.00     0.200 A 
ATOM     77  F   UNL A   1      41.646  21.872  26.404  1.00  0.00    -0.200 F 
ATOM     78  F   UNL A   1      43.797  21.322  24.825  1.00  0.00    -0.200 F 
ENDBRANCH  44  68
BRANCH  56  79
ATOM     79  C   UNL A   1      45.206  30.576  28.774  1.00  0.00     0.064 A 
ATOM     80  C   UNL A   1      44.299  31.191  27.893  1.00  0.00     0.173 A 
ATOM     81  C   UNL A   1      46.522  31.058  28.786  1.00  0.00     0.173 A 
ATOM     82  F   UNL A   1      43.002  30.855  27.895  1.00  0.00    -0.203 F 
ATOM     83  C   UNL A   1      44.705  32.217  27.039  1.00  0.00     0.198 A 
ATOM     84  C   UNL A   1      46.915  32.106  27.960  1.00  0.00     0.198 A 
ATOM     85  F   UNL A   1      47.416  30.545  29.645  1.00  0.00    -0.203 F 
ATOM     86  F   UNL A   1      43.822  32.785  26.203  1.00  0.00    -0.200 F 
ATOM     87  C   UNL A   1      46.010  32.678  27.080  1.00  0.00     0.200 A 
ATOM     88  F   UNL A   1      48.165  32.582  28.040  1.00  0.00    -0.200 F 
ATOM     89  F   UNL A   1      46.391  33.694  26.294  1.00  0.00    -0.200 F 
ENDBRANCH  56  79
ENDBRANCH  30  31
ENDBRANCH  23  25
ENDBRANCH  22  23
ENDBRANCH  21  22
ENDBRANCH   1  21
TORSDOF 14
ENDMDL
