MODEL 1
REMARK VINA RESULT:     -10.7      0.000      0.000
REMARK SMILES O=C(COc1cccc(C(=O)OCCOCCOC(=O)c2ccc(-c3c4nc(c(-c5c(F)c(F)c(F)c(F)c5F)c5ccc([nH]5)c(-c5c(F)c(F)c(F)c(F)c5F)c5nc(c(-c6c(F)c(F)c(F)c(F)c6F)c6ccc3[nH]6)C=C5)C=C4)cc2)c1)NCCc1cccs1
REMARK SMILES IDX 13 1 12 2 10 3 11 4 9 5 5 6 6 7 84 8 7 9 8 10 4 11 3 12 2 13
REMARK SMILES IDX 1 14 85 15 86 17 87 18 88 19 89 20 92 21 90 22 91 23 14 24
REMARK SMILES IDX 15 25 16 26 17 27 18 28 19 29 20 30 21 31 22 32 83 33 23 34
REMARK SMILES IDX 82 35 24 36 25 37 26 38 76 39 27 40 81 41 75 42 77 43 28 44
REMARK SMILES IDX 80 45 74 46 73 47 29 49 61 50 41 51 60 52 42 53 45 54 59 55
REMARK SMILES IDX 78 56 43 57 44 58 58 60 79 61 46 62 30 63 31 64 39 65 32 66
REMARK SMILES IDX 33 67 37 68 40 69 34 70 35 71 38 72 36 73 62 74 63 75 71 76
REMARK SMILES IDX 64 77 65 78 69 79 72 80 66 81 67 82 70 83 68 84 47 85 48 86
REMARK SMILES IDX 56 87 49 88 50 89 54 90 57 91 51 92 52 93 55 94 53 95
REMARK H PARENT 85 16 77 48 45 59
REMARK Flexibility Score: inf
ROOT
ATOM      1  C   UNL A   1      42.509  18.917  26.218  1.00  0.00     0.261 C 
ENDROOT
BRANCH   1   2
ATOM      2  O   UNL A   1      41.594  19.940  26.648  1.00  0.00    -0.460 OA
BRANCH   2   3
ATOM      3  C   UNL A   1      40.346  19.876  26.124  1.00  0.00     0.338 C 
ATOM      4  O   UNL A   1      39.764  18.876  25.734  1.00  0.00    -0.246 OA
BRANCH   3   5
ATOM      5  C   UNL A   1      39.690  21.201  26.255  1.00  0.00     0.063 A 
ATOM      6  C   UNL A   1      37.870  22.735  25.803  1.00  0.00     0.120 A 
ATOM      7  C   UNL A   1      38.629  23.775  26.350  1.00  0.00     0.046 A 
ATOM      8  C   UNL A   1      38.403  21.446  25.753  1.00  0.00     0.062 A 
ATOM      9  C   UNL A   1      39.900  23.529  26.871  1.00  0.00     0.005 A 
ATOM     10  C   UNL A   1      40.431  22.242  26.825  1.00  0.00     0.016 A 
BRANCH   6  11
ATOM     11  O   UNL A   1      36.663  23.108  25.274  1.00  0.00    -0.484 OA
BRANCH  11  12
ATOM     12  C   UNL A   1      35.503  22.656  25.970  1.00  0.00     0.329 C 
BRANCH  12  13
ATOM     13  C   UNL A   1      34.342  22.196  25.084  1.00  0.00     0.257 C 
ATOM     14  O   UNL A   1      34.092  22.721  24.003  1.00  0.00    -0.271 OA
ATOM     15  N   UNL A   1      33.612  21.154  25.608  1.00  0.00    -0.353 N 
ATOM     16  H   UNL A   1      33.910  20.745  26.452  1.00  0.00     0.163 HD
BRANCH  15  17
ATOM     17  C   UNL A   1      32.420  20.636  24.964  1.00  0.00     0.121 C 
BRANCH  17  18
ATOM     18  C   UNL A   1      32.724  19.818  23.705  1.00  0.00     0.068 C 
BRANCH  18  19
ATOM     19  C   UNL A   1      33.054  18.385  24.033  1.00  0.00     0.006 A 
ATOM     20  C   UNL A   1      33.763  17.480  23.269  1.00  0.00     0.015 A 
ATOM     21  S   UNL A   1      32.534  17.676  25.502  1.00  0.00    -0.149 S 
ATOM     22  C   UNL A   1      33.922  16.223  23.921  1.00  0.00     0.012 A 
ATOM     23  C   UNL A   1      33.308  16.199  25.152  1.00  0.00     0.065 A 
ENDBRANCH  18  19
ENDBRANCH  17  18
ENDBRANCH  15  17
ENDBRANCH  12  13
ENDBRANCH  11  12
ENDBRANCH   6  11
ENDBRANCH   3   5
ENDBRANCH   2   3
ENDBRANCH   1   2
BRANCH   1  24
ATOM     24  C   UNL A   1      43.607  19.521  25.338  1.00  0.00     0.202 C 
BRANCH  24  25
ATOM     25  O   UNL A   1      43.435  20.899  25.003  1.00  0.00    -0.374 OA
BRANCH  25  26
ATOM     26  C   UNL A   1      44.626  21.636  24.722  1.00  0.00     0.202 C 
BRANCH  26  27
ATOM     27  C   UNL A   1      44.433  22.932  23.924  1.00  0.00     0.261 C 
BRANCH  27  28
ATOM     28  O   UNL A   1      43.951  24.009  24.747  1.00  0.00    -0.460 OA
BRANCH  28  29
ATOM     29  C   UNL A   1      44.892  24.901  25.138  1.00  0.00     0.338 C 
ATOM     30  O   UNL A   1      45.925  25.201  24.558  1.00  0.00    -0.246 OA
BRANCH  29  31
ATOM     31  C   UNL A   1      44.415  25.605  26.341  1.00  0.00     0.060 A 
ATOM     32  C   UNL A   1      43.393  25.029  27.105  1.00  0.00     0.016 A 
ATOM     33  C   UNL A   1      44.940  26.846  26.690  1.00  0.00     0.016 A 
ATOM     34  C   UNL A   1      42.881  25.703  28.217  1.00  0.00     0.010 A 
ATOM     35  C   UNL A   1      44.426  27.512  27.803  1.00  0.00     0.010 A 
ATOM     36  C   UNL A   1      43.382  26.963  28.564  1.00  0.00    -0.014 A 
BRANCH  36  37
ATOM     37  C   UNL A   1      42.767  27.786  29.639  1.00  0.00     0.031 A 
ATOM     38  C   UNL A   1      43.404  27.800  31.005  1.00  0.00     0.074 A 
ATOM     39  C   UNL A   1      41.620  28.459  29.429  1.00  0.00     0.049 A 
ATOM     40  N   UNL A   1      42.984  28.353  32.116  1.00  0.00    -0.248 NA
ATOM     41  C   UNL A   1      44.671  27.065  31.144  1.00  0.00     0.031 C 
ATOM     42  C   UNL A   1      40.882  28.503  28.169  1.00  0.00     0.029 A 
ATOM     43  N   UNL A   1      40.862  29.218  30.288  1.00  0.00    -0.354 N 
ATOM     44  C   UNL A   1      43.921  28.011  33.083  1.00  0.00     0.074 A 
ATOM     45  C   UNL A   1      44.901  27.161  32.444  1.00  0.00     0.031 C 
ATOM     46  C   UNL A   1      39.779  29.254  28.334  1.00  0.00     0.029 A 
ATOM     47  C   UNL A   1      39.715  29.716  29.720  1.00  0.00     0.049 A 
ATOM     48  H   UNL A   1      41.117  29.390  31.223  1.00  0.00     0.167 HD
ATOM     49  C   UNL A   1      43.974  28.387  34.384  1.00  0.00     0.037 A 
ATOM     50  C   UNL A   1      38.721  30.448  30.261  1.00  0.00     0.037 A 
ATOM     51  C   UNL A   1      43.017  29.256  35.015  1.00  0.00     0.049 A 
ATOM     52  C   UNL A   1      38.795  30.847  31.713  1.00  0.00     0.074 A 
ATOM     53  C   UNL A   1      43.020  29.748  36.308  1.00  0.00     0.029 A 
ATOM     54  N   UNL A   1      41.882  29.760  34.398  1.00  0.00    -0.354 N 
ATOM     55  N   UNL A   1      39.720  30.575  32.602  1.00  0.00    -0.248 NA
ATOM     56  C   UNL A   1      37.688  31.659  32.237  1.00  0.00     0.031 C 
ATOM     57  C   UNL A   1      41.861  30.509  36.489  1.00  0.00     0.029 A 
ATOM     58  C   UNL A   1      41.165  30.539  35.291  1.00  0.00     0.049 A 
ATOM     59  H   UNL A   1      41.624  29.589  33.462  1.00  0.00     0.167 HD
ATOM     60  C   UNL A   1      39.325  31.208  33.773  1.00  0.00     0.074 A 
ATOM     61  C   UNL A   1      38.081  31.889  33.481  1.00  0.00     0.031 C 
ATOM     62  C   UNL A   1      39.937  31.225  34.983  1.00  0.00     0.037 A 
BRANCH  49  63
ATOM     63  C   UNL A   1      45.108  27.859  35.215  1.00  0.00     0.064 A 
ATOM     64  C   UNL A   1      44.979  26.691  35.982  1.00  0.00     0.173 A 
ATOM     65  C   UNL A   1      46.351  28.511  35.219  1.00  0.00     0.173 A 
ATOM     66  F   UNL A   1      43.809  26.035  36.023  1.00  0.00    -0.203 F 
ATOM     67  C   UNL A   1      46.040  26.215  36.748  1.00  0.00     0.198 A 
ATOM     68  C   UNL A   1      47.420  28.012  35.958  1.00  0.00     0.198 A 
ATOM     69  F   UNL A   1      46.532  29.626  34.497  1.00  0.00    -0.203 F 
ATOM     70  F   UNL A   1      45.875  25.129  37.517  1.00  0.00    -0.200 F 
ATOM     71  C   UNL A   1      47.262  26.870  36.729  1.00  0.00     0.200 A 
ATOM     72  F   UNL A   1      48.604  28.638  35.927  1.00  0.00    -0.200 F 
ATOM     73  F   UNL A   1      48.284  26.407  37.461  1.00  0.00    -0.200 F 
ENDBRANCH  49  63
BRANCH  50  74
ATOM     74  C   UNL A   1      37.568  30.872  29.422  1.00  0.00     0.064 A 
ATOM     75  C   UNL A   1      37.448  32.199  28.983  1.00  0.00     0.173 A 
ATOM     76  C   UNL A   1      36.553  29.973  29.063  1.00  0.00     0.173 A 
ATOM     77  F   UNL A   1      38.379  33.103  29.322  1.00  0.00    -0.203 F 
ATOM     78  C   UNL A   1      36.347  32.615  28.236  1.00  0.00     0.198 A 
ATOM     79  C   UNL A   1      35.467  30.383  28.291  1.00  0.00     0.198 A 
ATOM     80  F   UNL A   1      36.619  28.694  29.461  1.00  0.00    -0.203 F 
ATOM     81  F   UNL A   1      36.232  33.901  27.876  1.00  0.00    -0.200 F 
ATOM     82  C   UNL A   1      35.361  31.705  27.886  1.00  0.00     0.200 A 
ATOM     83  F   UNL A   1      34.520  29.500  27.948  1.00  0.00    -0.200 F 
ATOM     84  F   UNL A   1      34.302  32.105  27.169  1.00  0.00    -0.200 F 
ENDBRANCH  50  74
BRANCH  62  85
ATOM     85  C   UNL A   1      39.303  32.041  36.075  1.00  0.00     0.064 A 
ATOM     86  C   UNL A   1      38.339  31.500  36.938  1.00  0.00     0.173 A 
ATOM     87  C   UNL A   1      39.711  33.365  36.295  1.00  0.00     0.173 A 
ATOM     88  F   UNL A   1      37.906  30.241  36.762  1.00  0.00    -0.203 F 
ATOM     89  C   UNL A   1      37.791  32.261  37.967  1.00  0.00     0.198 A 
ATOM     90  C   UNL A   1      39.183  34.114  37.344  1.00  0.00     0.198 A 
ATOM     91  F   UNL A   1      40.636  33.930  35.505  1.00  0.00    -0.203 F 
ATOM     92  F   UNL A   1      36.839  31.737  38.751  1.00  0.00    -0.200 F 
ATOM     93  C   UNL A   1      38.220  33.563  38.175  1.00  0.00     0.200 A 
ATOM     94  F   UNL A   1      39.612  35.367  37.554  1.00  0.00    -0.200 F 
ATOM     95  F   UNL A   1      37.700  34.291  39.173  1.00  0.00    -0.200 F 
ENDBRANCH  62  85
ENDBRANCH  36  37
ENDBRANCH  29  31
ENDBRANCH  28  29
ENDBRANCH  27  28
ENDBRANCH  26  27
ENDBRANCH  25  26
ENDBRANCH  24  25
ENDBRANCH   1  24
TORSDOF 20
ENDMDL
MODEL 2
REMARK VINA RESULT:     -10.7      5.619     10.944
REMARK SMILES O=C(COc1cccc(C(=O)OCCOCCOC(=O)c2ccc(-c3c4nc(c(-c5c(F)c(F)c(F)c(F)c5F)c5ccc([nH]5)c(-c5c(F)c(F)c(F)c(F)c5F)c5nc(c(-c6c(F)c(F)c(F)c(F)c6F)c6ccc3[nH]6)C=C5)C=C4)cc2)c1)NCCc1cccs1
REMARK SMILES IDX 13 1 12 2 10 3 11 4 9 5 5 6 6 7 84 8 7 9 8 10 4 11 3 12 2 13
REMARK SMILES IDX 1 14 85 15 86 17 87 18 88 19 89 20 92 21 90 22 91 23 14 24
REMARK SMILES IDX 15 25 16 26 17 27 18 28 19 29 20 30 21 31 22 32 83 33 23 34
REMARK SMILES IDX 82 35 24 36 25 37 26 38 76 39 27 40 81 41 75 42 77 43 28 44
REMARK SMILES IDX 80 45 74 46 73 47 29 49 61 50 41 51 60 52 42 53 45 54 59 55
REMARK SMILES IDX 78 56 43 57 44 58 58 60 79 61 46 62 30 63 31 64 39 65 32 66
REMARK SMILES IDX 33 67 37 68 40 69 34 70 35 71 38 72 36 73 62 74 63 75 71 76
REMARK SMILES IDX 64 77 65 78 69 79 72 80 66 81 67 82 70 83 68 84 47 85 48 86
REMARK SMILES IDX 56 87 49 88 50 89 54 90 57 91 51 92 52 93 55 94 53 95
REMARK H PARENT 85 16 77 48 45 59
REMARK Flexibility Score: inf
ROOT
ATOM      1  C   UNL A   1      34.505  32.023  27.885  1.00  0.00     0.261 C 
ENDROOT
BRANCH   1   2
ATOM      2  O   UNL A   1      33.610  30.898  27.897  1.00  0.00    -0.460 OA
BRANCH   2   3
ATOM      3  C   UNL A   1      32.526  30.993  27.089  1.00  0.00     0.338 C 
ATOM      4  O   UNL A   1      31.953  32.017  26.750  1.00  0.00    -0.246 OA
BRANCH   3   5
ATOM      5  C   UNL A   1      32.227  29.661  26.510  1.00  0.00     0.063 A 
ATOM      6  C   UNL A   1      31.870  28.187  24.620  1.00  0.00     0.120 A 
ATOM      7  C   UNL A   1      31.436  27.189  25.498  1.00  0.00     0.046 A 
ATOM      8  C   UNL A   1      32.264  29.427  25.127  1.00  0.00     0.062 A 
ATOM      9  C   UNL A   1      31.421  27.411  26.875  1.00  0.00     0.005 A 
ATOM     10  C   UNL A   1      31.817  28.646  27.382  1.00  0.00     0.016 A 
BRANCH   6  11
ATOM     11  O   UNL A   1      31.788  27.871  23.290  1.00  0.00    -0.484 OA
BRANCH  11  12
ATOM     12  C   UNL A   1      33.025  27.641  22.619  1.00  0.00     0.329 C 
BRANCH  12  13
ATOM     13  C   UNL A   1      33.307  26.184  22.240  1.00  0.00     0.257 C 
ATOM     14  O   UNL A   1      33.382  25.812  21.073  1.00  0.00    -0.271 OA
ATOM     15  N   UNL A   1      33.463  25.342  23.317  1.00  0.00    -0.353 N 
ATOM     16  H   UNL A   1      33.450  25.725  24.223  1.00  0.00     0.163 HD
BRANCH  15  17
ATOM     17  C   UNL A   1      33.647  23.911  23.167  1.00  0.00     0.121 C 
BRANCH  17  18
ATOM     18  C   UNL A   1      34.112  23.226  24.455  1.00  0.00     0.068 C 
BRANCH  18  19
ATOM     19  C   UNL A   1      33.909  21.734  24.403  1.00  0.00     0.006 A 
ATOM     20  C   UNL A   1      34.735  20.745  24.899  1.00  0.00     0.015 A 
ATOM     21  S   UNL A   1      32.524  21.060  23.654  1.00  0.00    -0.149 S 
ATOM     22  C   UNL A   1      34.196  19.440  24.710  1.00  0.00     0.012 A 
ATOM     23  C   UNL A   1      32.988  19.470  24.053  1.00  0.00     0.065 A 
ENDBRANCH  18  19
ENDBRANCH  17  18
ENDBRANCH  15  17
ENDBRANCH  12  13
ENDBRANCH  11  12
ENDBRANCH   6  11
ENDBRANCH   3   5
ENDBRANCH   2   3
ENDBRANCH   1   2
BRANCH   1  24
ATOM     24  C   UNL A   1      33.976  33.133  28.798  1.00  0.00     0.202 C 
BRANCH  24  25
ATOM     25  O   UNL A   1      34.947  33.736  29.655  1.00  0.00    -0.374 OA
BRANCH  25  26
ATOM     26  C   UNL A   1      34.440  34.437  30.792  1.00  0.00     0.202 C 
BRANCH  26  27
ATOM     27  C   UNL A   1      34.309  33.611  32.078  1.00  0.00     0.261 C 
BRANCH  27  28
ATOM     28  O   UNL A   1      34.958  32.332  31.969  1.00  0.00    -0.460 OA
BRANCH  28  29
ATOM     29  C   UNL A   1      35.987  32.132  32.827  1.00  0.00     0.338 C 
ATOM     30  O   UNL A   1      36.009  32.342  34.031  1.00  0.00    -0.246 OA
BRANCH  29  31
ATOM     31  C   UNL A   1      37.086  31.461  32.111  1.00  0.00     0.060 A 
ATOM     32  C   UNL A   1      38.093  30.830  32.851  1.00  0.00     0.016 A 
ATOM     33  C   UNL A   1      37.149  31.492  30.720  1.00  0.00     0.016 A 
ATOM     34  C   UNL A   1      39.179  30.238  32.200  1.00  0.00     0.010 A 
ATOM     35  C   UNL A   1      38.234  30.896  30.077  1.00  0.00     0.010 A 
ATOM     36  C   UNL A   1      39.267  30.283  30.803  1.00  0.00    -0.014 A 
BRANCH  36  37
ATOM     37  C   UNL A   1      40.473  29.808  30.075  1.00  0.00     0.031 A 
ATOM     38  C   UNL A   1      41.592  30.779  29.801  1.00  0.00     0.074 A 
ATOM     39  C   UNL A   1      40.548  28.551  29.600  1.00  0.00     0.049 A 
ATOM     40  N   UNL A   1      42.682  30.619  29.093  1.00  0.00    -0.248 NA
ATOM     41  C   UNL A   1      41.448  32.124  30.380  1.00  0.00     0.031 C 
ATOM     42  C   UNL A   1      39.524  27.521  29.763  1.00  0.00     0.029 A 
ATOM     43  N   UNL A   1      41.528  27.935  28.858  1.00  0.00    -0.354 N 
ATOM     44  C   UNL A   1      43.334  31.846  29.123  1.00  0.00     0.074 A 
ATOM     45  C   UNL A   1      42.495  32.754  29.873  1.00  0.00     0.031 C 
ATOM     46  C   UNL A   1      39.932  26.398  29.144  1.00  0.00     0.029 A 
ATOM     47  C   UNL A   1      41.228  26.640  28.514  1.00  0.00     0.049 A 
ATOM     48  H   UNL A   1      42.367  28.380  28.600  1.00  0.00     0.167 HD
ATOM     49  C   UNL A   1      44.535  32.182  28.592  1.00  0.00     0.037 A 
ATOM     50  C   UNL A   1      41.915  25.756  27.762  1.00  0.00     0.037 A 
ATOM     51  C   UNL A   1      45.385  31.272  27.871  1.00  0.00     0.049 A 
ATOM     52  C   UNL A   1      43.244  26.155  27.172  1.00  0.00     0.074 A 
ATOM     53  C   UNL A   1      46.648  31.499  27.353  1.00  0.00     0.029 A 
ATOM     54  N   UNL A   1      45.055  29.961  27.564  1.00  0.00    -0.354 N 
ATOM     55  N   UNL A   1      43.884  27.296  27.264  1.00  0.00    -0.248 NA
ATOM     56  C   UNL A   1      43.950  25.140  26.377  1.00  0.00     0.031 C 
ATOM     57  C   UNL A   1      47.062  30.340  26.688  1.00  0.00     0.029 A 
ATOM     58  C   UNL A   1      46.082  29.373  26.843  1.00  0.00     0.049 A 
ATOM     59  H   UNL A   1      44.216  29.513  27.821  1.00  0.00     0.167 HD
ATOM     60  C   UNL A   1      45.076  27.125  26.571  1.00  0.00     0.074 A 
ATOM     61  C   UNL A   1      45.078  25.766  26.073  1.00  0.00     0.031 C 
ATOM     62  C   UNL A   1      46.078  28.013  26.366  1.00  0.00     0.037 A 
BRANCH  49  63
ATOM     63  C   UNL A   1      45.002  33.598  28.772  1.00  0.00     0.064 A 
ATOM     64  C   UNL A   1      45.782  33.982  29.874  1.00  0.00     0.173 A 
ATOM     65  C   UNL A   1      44.694  34.577  27.815  1.00  0.00     0.173 A 
ATOM     66  F   UNL A   1      46.096  33.088  30.824  1.00  0.00    -0.203 F 
ATOM     67  C   UNL A   1      46.207  35.299  30.027  1.00  0.00     0.198 A 
ATOM     68  C   UNL A   1      45.150  35.884  27.954  1.00  0.00     0.198 A 
ATOM     69  F   UNL A   1      43.958  34.263  26.739  1.00  0.00    -0.203 F 
ATOM     70  F   UNL A   1      46.903  35.654  31.116  1.00  0.00    -0.200 F 
ATOM     71  C   UNL A   1      45.898  36.248  29.064  1.00  0.00     0.200 A 
ATOM     72  F   UNL A   1      44.864  36.796  27.014  1.00  0.00    -0.200 F 
ATOM     73  F   UNL A   1      46.314  37.513  29.209  1.00  0.00    -0.200 F 
ENDBRANCH  49  63
BRANCH  50  74
ATOM     74  C   UNL A   1      41.369  24.392  27.533  1.00  0.00     0.064 A 
ATOM     75  C   UNL A   1      41.943  23.274  28.154  1.00  0.00     0.173 A 
ATOM     76  C   UNL A   1      40.283  24.173  26.672  1.00  0.00     0.173 A 
ATOM     77  F   UNL A   1      43.000  23.428  28.965  1.00  0.00    -0.203 F 
ATOM     78  C   UNL A   1      41.467  21.987  27.908  1.00  0.00     0.198 A 
ATOM     79  C   UNL A   1      39.789  22.888  26.449  1.00  0.00     0.198 A 
ATOM     80  F   UNL A   1      39.701  25.207  26.049  1.00  0.00    -0.203 F 
ATOM     81  F   UNL A   1      42.069  20.932  28.475  1.00  0.00    -0.200 F 
ATOM     82  C   UNL A   1      40.386  21.796  27.060  1.00  0.00     0.200 A 
ATOM     83  F   UNL A   1      38.740  22.708  25.636  1.00  0.00    -0.200 F 
ATOM     84  F   UNL A   1      39.929  20.559  26.823  1.00  0.00    -0.200 F 
ENDBRANCH  50  74
BRANCH  62  85
ATOM     85  C   UNL A   1      47.289  27.539  25.611  1.00  0.00     0.064 A 
ATOM     86  C   UNL A   1      47.394  27.681  24.220  1.00  0.00     0.173 A 
ATOM     87  C   UNL A   1      48.380  26.987  26.299  1.00  0.00     0.173 A 
ATOM     88  F   UNL A   1      46.374  28.191  23.514  1.00  0.00    -0.203 F 
ATOM     89  C   UNL A   1      48.540  27.267  23.543  1.00  0.00     0.198 A 
ATOM     90  C   UNL A   1      49.536  26.604  25.624  1.00  0.00     0.198 A 
ATOM     91  F   UNL A   1      48.336  26.837  27.632  1.00  0.00    -0.203 F 
ATOM     92  F   UNL A   1      48.601  27.372  22.208  1.00  0.00    -0.200 F 
ATOM     93  C   UNL A   1      49.612  26.739  24.246  1.00  0.00     0.200 A 
ATOM     94  F   UNL A   1      50.577  26.109  26.307  1.00  0.00    -0.200 F 
ATOM     95  F   UNL A   1      50.718  26.353  23.595  1.00  0.00    -0.200 F 
ENDBRANCH  62  85
ENDBRANCH  36  37
ENDBRANCH  29  31
ENDBRANCH  28  29
ENDBRANCH  27  28
ENDBRANCH  26  27
ENDBRANCH  25  26
ENDBRANCH  24  25
ENDBRANCH   1  24
TORSDOF 20
ENDMDL
MODEL 3
REMARK VINA RESULT:     -10.2      4.783      8.989
REMARK SMILES O=C(COc1cccc(C(=O)OCCOCCOC(=O)c2ccc(-c3c4nc(c(-c5c(F)c(F)c(F)c(F)c5F)c5ccc([nH]5)c(-c5c(F)c(F)c(F)c(F)c5F)c5nc(c(-c6c(F)c(F)c(F)c(F)c6F)c6ccc3[nH]6)C=C5)C=C4)cc2)c1)NCCc1cccs1
REMARK SMILES IDX 13 1 12 2 10 3 11 4 9 5 5 6 6 7 84 8 7 9 8 10 4 11 3 12 2 13
REMARK SMILES IDX 1 14 85 15 86 17 87 18 88 19 89 20 92 21 90 22 91 23 14 24
REMARK SMILES IDX 15 25 16 26 17 27 18 28 19 29 20 30 21 31 22 32 83 33 23 34
REMARK SMILES IDX 82 35 24 36 25 37 26 38 76 39 27 40 81 41 75 42 77 43 28 44
REMARK SMILES IDX 80 45 74 46 73 47 29 49 61 50 41 51 60 52 42 53 45 54 59 55
REMARK SMILES IDX 78 56 43 57 44 58 58 60 79 61 46 62 30 63 31 64 39 65 32 66
REMARK SMILES IDX 33 67 37 68 40 69 34 70 35 71 38 72 36 73 62 74 63 75 71 76
REMARK SMILES IDX 64 77 65 78 69 79 72 80 66 81 67 82 70 83 68 84 47 85 48 86
REMARK SMILES IDX 56 87 49 88 50 89 54 90 57 91 51 92 52 93 55 94 53 95
REMARK H PARENT 85 16 77 48 45 59
REMARK Flexibility Score: inf
ROOT
ATOM      1  C   UNL A   1      32.160  20.667  24.839  1.00  0.00     0.261 C 
ENDROOT
BRANCH   1   2
ATOM      2  O   UNL A   1      32.311  22.072  24.575  1.00  0.00    -0.460 OA
BRANCH   2   3
ATOM      3  C   UNL A   1      31.664  22.907  25.424  1.00  0.00     0.338 C 
ATOM      4  O   UNL A   1      30.676  22.650  26.095  1.00  0.00    -0.246 OA
BRANCH   3   5
ATOM      5  C   UNL A   1      32.445  24.160  25.572  1.00  0.00     0.063 A 
ATOM      6  C   UNL A   1      32.637  26.496  26.185  1.00  0.00     0.120 A 
ATOM      7  C   UNL A   1      33.909  26.530  25.606  1.00  0.00     0.046 A 
ATOM      8  C   UNL A   1      31.902  25.308  26.166  1.00  0.00     0.062 A 
ATOM      9  C   UNL A   1      34.461  25.382  25.035  1.00  0.00     0.005 A 
ATOM     10  C   UNL A   1      33.731  24.197  25.019  1.00  0.00     0.016 A 
BRANCH   6  11
ATOM     11  O   UNL A   1      32.181  27.695  26.664  1.00  0.00    -0.484 OA
BRANCH  11  12
ATOM     12  C   UNL A   1      33.124  28.490  27.379  1.00  0.00     0.329 C 
BRANCH  12  13
ATOM     13  C   UNL A   1      32.944  30.005  27.245  1.00  0.00     0.257 C 
ATOM     14  O   UNL A   1      32.079  30.503  26.531  1.00  0.00    -0.271 OA
ATOM     15  N   UNL A   1      33.835  30.746  27.987  1.00  0.00    -0.353 N 
ATOM     16  H   UNL A   1      34.461  30.275  28.583  1.00  0.00     0.163 HD
BRANCH  15  17
ATOM     17  C   UNL A   1      33.886  32.194  27.925  1.00  0.00     0.121 C 
BRANCH  17  18
ATOM     18  C   UNL A   1      34.548  32.825  29.153  1.00  0.00     0.068 C 
BRANCH  18  19
ATOM     19  C   UNL A   1      34.008  34.204  29.436  1.00  0.00     0.006 A 
ATOM     20  C   UNL A   1      33.539  35.135  28.531  1.00  0.00     0.015 A 
ATOM     21  S   UNL A   1      33.921  34.804  31.037  1.00  0.00    -0.149 S 
ATOM     22  C   UNL A   1      33.059  36.317  29.165  1.00  0.00     0.012 A 
ATOM     23  C   UNL A   1      33.200  36.263  30.533  1.00  0.00     0.065 A 
ENDBRANCH  18  19
ENDBRANCH  17  18
ENDBRANCH  15  17
ENDBRANCH  12  13
ENDBRANCH  11  12
ENDBRANCH   6  11
ENDBRANCH   3   5
ENDBRANCH   2   3
ENDBRANCH   1   2
BRANCH   1  24
ATOM     24  C   UNL A   1      33.485  20.070  25.322  1.00  0.00     0.202 C 
BRANCH  24  25
ATOM     25  O   UNL A   1      34.651  20.532  24.637  1.00  0.00    -0.374 OA
BRANCH  25  26
ATOM     26  C   UNL A   1      35.692  21.073  25.452  1.00  0.00     0.202 C 
BRANCH  26  27
ATOM     27  C   UNL A   1      37.123  20.739  25.011  1.00  0.00     0.261 C 
BRANCH  27  28
ATOM     28  O   UNL A   1      38.033  21.826  25.255  1.00  0.00    -0.460 OA
BRANCH  28  29
ATOM     29  C   UNL A   1      39.079  21.531  26.063  1.00  0.00     0.338 C 
ATOM     30  O   UNL A   1      39.606  20.442  26.237  1.00  0.00    -0.246 OA
BRANCH  29  31
ATOM     31  C   UNL A   1      39.621  22.781  26.624  1.00  0.00     0.060 A 
ATOM     32  C   UNL A   1      39.117  24.005  26.166  1.00  0.00     0.016 A 
ATOM     33  C   UNL A   1      40.650  22.749  27.561  1.00  0.00     0.016 A 
ATOM     34  C   UNL A   1      39.654  25.206  26.636  1.00  0.00     0.010 A 
ATOM     35  C   UNL A   1      41.179  23.953  28.028  1.00  0.00     0.010 A 
ATOM     36  C   UNL A   1      40.706  25.189  27.560  1.00  0.00    -0.014 A 
BRANCH  36  37
ATOM     37  C   UNL A   1      41.414  26.431  27.971  1.00  0.00     0.031 A 
ATOM     38  C   UNL A   1      42.831  26.652  27.508  1.00  0.00     0.074 A 
ATOM     39  C   UNL A   1      40.834  27.319  28.800  1.00  0.00     0.049 A 
ATOM     40  N   UNL A   1      43.675  27.600  27.830  1.00  0.00    -0.248 NA
ATOM     41  C   UNL A   1      43.380  25.651  26.580  1.00  0.00     0.031 C 
ATOM     42  C   UNL A   1      39.484  27.211  29.348  1.00  0.00     0.029 A 
ATOM     43  N   UNL A   1      41.325  28.482  29.344  1.00  0.00    -0.354 N 
ATOM     44  C   UNL A   1      44.856  27.293  27.165  1.00  0.00     0.074 A 
ATOM     45  C   UNL A   1      44.638  26.046  26.465  1.00  0.00     0.031 C 
ATOM     46  C   UNL A   1      39.252  28.267  30.148  1.00  0.00     0.029 A 
ATOM     47  C   UNL A   1      40.447  29.107  30.195  1.00  0.00     0.049 A 
ATOM     48  H   UNL A   1      42.222  28.834  29.143  1.00  0.00     0.167 HD
ATOM     49  C   UNL A   1      46.014  27.996  27.123  1.00  0.00     0.037 A 
ATOM     50  C   UNL A   1      40.597  30.223  30.937  1.00  0.00     0.037 A 
ATOM     51  C   UNL A   1      46.223  29.252  27.794  1.00  0.00     0.049 A 
ATOM     52  C   UNL A   1      41.897  30.984  30.882  1.00  0.00     0.074 A 
ATOM     53  C   UNL A   1      47.336  30.074  27.758  1.00  0.00     0.029 A 
ATOM     54  N   UNL A   1      45.299  29.865  28.626  1.00  0.00    -0.354 N 
ATOM     55  N   UNL A   1      42.984  30.722  30.197  1.00  0.00    -0.248 NA
ATOM     56  C   UNL A   1      41.990  32.201  31.703  1.00  0.00     0.031 C 
ATOM     57  C   UNL A   1      47.106  31.159  28.609  1.00  0.00     0.029 A 
ATOM     58  C   UNL A   1      45.826  31.044  29.128  1.00  0.00     0.049 A 
ATOM     59  H   UNL A   1      44.401  29.514  28.830  1.00  0.00     0.167 HD
ATOM     60  C   UNL A   1      43.872  31.754  30.475  1.00  0.00     0.074 A 
ATOM     61  C   UNL A   1      43.194  32.654  31.384  1.00  0.00     0.031 C 
ATOM     62  C   UNL A   1      45.135  31.940  30.020  1.00  0.00     0.037 A 
BRANCH  49  63
ATOM     63  C   UNL A   1      47.146  27.423  26.320  1.00  0.00     0.064 A 
ATOM     64  C   UNL A   1      47.313  27.724  24.960  1.00  0.00     0.173 A 
ATOM     65  C   UNL A   1      48.096  26.587  26.927  1.00  0.00     0.173 A 
ATOM     66  F   UNL A   1      46.426  28.509  24.328  1.00  0.00    -0.203 F 
ATOM     67  C   UNL A   1      48.368  27.183  24.229  1.00  0.00     0.198 A 
ATOM     68  C   UNL A   1      49.169  26.077  26.201  1.00  0.00     0.198 A 
ATOM     69  F   UNL A   1      47.990  26.272  28.226  1.00  0.00    -0.203 F 
ATOM     70  F   UNL A   1      48.473  27.441  22.918  1.00  0.00    -0.200 F 
ATOM     71  C   UNL A   1      49.300  26.367  24.852  1.00  0.00     0.200 A 
ATOM     72  F   UNL A   1      50.078  25.300  26.809  1.00  0.00    -0.200 F 
ATOM     73  F   UNL A   1      50.319  25.854  24.150  1.00  0.00    -0.200 F 
ENDBRANCH  49  63
BRANCH  50  74
ATOM     74  C   UNL A   1      39.478  30.704  31.790  1.00  0.00     0.064 A 
ATOM     75  C   UNL A   1      38.567  31.657  31.311  1.00  0.00     0.173 A 
ATOM     76  C   UNL A   1      39.309  30.245  33.105  1.00  0.00     0.173 A 
ATOM     77  F   UNL A   1      38.702  32.147  30.070  1.00  0.00    -0.203 F 
ATOM     78  C   UNL A   1      37.544  32.148  32.120  1.00  0.00     0.198 A 
ATOM     79  C   UNL A   1      38.268  30.715  33.904  1.00  0.00     0.198 A 
ATOM     80  F   UNL A   1      40.156  29.338  33.612  1.00  0.00    -0.203 F 
ATOM     81  F   UNL A   1      36.721  33.097  31.654  1.00  0.00    -0.200 F 
ATOM     82  C   UNL A   1      37.392  31.672  33.415  1.00  0.00     0.200 A 
ATOM     83  F   UNL A   1      38.119  30.247  35.150  1.00  0.00    -0.200 F 
ATOM     84  F   UNL A   1      36.409  32.145  34.192  1.00  0.00    -0.200 F 
ENDBRANCH  50  74
BRANCH  62  85
ATOM     85  C   UNL A   1      45.858  33.185  30.452  1.00  0.00     0.064 A 
ATOM     86  C   UNL A   1      46.751  33.183  31.533  1.00  0.00     0.173 A 
ATOM     87  C   UNL A   1      45.696  34.381  29.737  1.00  0.00     0.173 A 
ATOM     88  F   UNL A   1      46.932  32.068  32.258  1.00  0.00    -0.203 F 
ATOM     89  C   UNL A   1      47.438  34.339  31.896  1.00  0.00     0.198 A 
ATOM     90  C   UNL A   1      46.409  35.526  30.082  1.00  0.00     0.198 A 
ATOM     91  F   UNL A   1      44.861  34.436  28.688  1.00  0.00    -0.203 F 
ATOM     92  F   UNL A   1      48.253  34.325  32.960  1.00  0.00    -0.200 F 
ATOM     93  C   UNL A   1      47.274  35.506  31.164  1.00  0.00     0.200 A 
ATOM     94  F   UNL A   1      46.260  36.648  29.363  1.00  0.00    -0.200 F 
ATOM     95  F   UNL A   1      47.946  36.614  31.507  1.00  0.00    -0.200 F 
ENDBRANCH  62  85
ENDBRANCH  36  37
ENDBRANCH  29  31
ENDBRANCH  28  29
ENDBRANCH  27  28
ENDBRANCH  26  27
ENDBRANCH  25  26
ENDBRANCH  24  25
ENDBRANCH   1  24
TORSDOF 20
ENDMDL
