MODEL 1
REMARK VINA RESULT:     -10.0      0.000      0.000
REMARK SMILES CCC1(CC)C[NH+]([C@H](CCS(C)(=O)=O)C(=O)OCCOCCOC(=O)c2ccc(-c3c4nc(c(-c5c(F)c(F)c(F)c(F)c5F)c5ccc([nH]5)c(-c5c(F)c(F)c(F)c(F)c5F)c5nc(c(-c6c(F)c(F)c(F)c(F)c6F)c6ccc3[nH]6)C=C5)C=C4)cc2)C1
REMARK SMILES IDX 19 1 18 2 17 3 15 4 16 5 8 6 7 7 3 8 6 9 89 10 2 12 1 13
REMARK SMILES IDX 4 14 5 15 9 16 10 17 11 18 12 19 13 20 14 21 20 22 21 23
REMARK SMILES IDX 22 24 23 25 24 26 25 27 26 28 27 29 88 30 28 31 87 32 29 33
REMARK SMILES IDX 30 34 31 35 81 36 32 37 86 38 80 39 82 40 33 41 85 42 79 43
REMARK SMILES IDX 78 44 34 46 66 47 46 48 65 49 47 50 50 51 64 52 83 53 48 54
REMARK SMILES IDX 49 55 63 57 84 58 51 59 35 60 36 61 44 62 37 63 38 64 42 65
REMARK SMILES IDX 45 66 39 67 40 68 43 69 41 70 67 71 68 72 76 73 69 74 70 75
REMARK SMILES IDX 74 76 77 77 71 78 72 79 75 80 73 81 52 82 53 83 61 84 54 85
REMARK SMILES IDX 55 86 59 87 62 88 56 89 57 90 60 91 58 92
REMARK H PARENT 7 11 82 45 50 56
REMARK Flexibility Score: inf
ROOT
ATOM      1  C   UNL A   1      33.069  29.270  26.242  1.00  0.00     0.202 C 
ENDROOT
BRANCH   1   2
ATOM      2  C   UNL A   1      31.759  28.505  26.464  1.00  0.00     0.261 C 
BRANCH   2   3
ATOM      3  O   UNL A   1      31.402  27.691  25.329  1.00  0.00    -0.459 OA
BRANCH   3   4
ATOM      4  C   UNL A   1      30.637  26.587  25.598  1.00  0.00     0.365 C 
ATOM      5  O   UNL A   1      30.578  26.037  26.693  1.00  0.00    -0.245 OA
BRANCH   4   6
ATOM      6  C   UNL A   1      29.827  26.123  24.358  1.00  0.00     0.296 C 
BRANCH   6   7
ATOM      7  N   UNL A   1      30.410  24.852  23.922  1.00  0.00    -0.322 N 
ATOM      8  C   UNL A   1      32.146  23.655  23.878  1.00  0.00     0.068 C 
ATOM      9  C   UNL A   1      31.038  24.010  24.934  1.00  0.00     0.275 C 
ATOM     10  C   UNL A   1      31.643  24.938  23.142  1.00  0.00     0.275 C 
ATOM     11  H   UNL A   1      29.557  24.512  23.477  1.00  0.00     0.348 HD
BRANCH   8  12
ATOM     12  C   UNL A   1      33.550  23.755  24.495  1.00  0.00     0.015 C 
ATOM     13  C   UNL A   1      34.643  23.750  23.433  1.00  0.00     0.005 C 
ENDBRANCH   8  12
BRANCH   8  14
ATOM     14  C   UNL A   1      31.908  22.405  23.008  1.00  0.00     0.015 C 
ATOM     15  C   UNL A   1      32.292  21.121  23.740  1.00  0.00     0.005 C 
ENDBRANCH   8  14
ENDBRANCH   6   7
BRANCH   6  16
ATOM     16  C   UNL A   1      29.593  27.341  23.417  1.00  0.00     0.094 C 
BRANCH  16  17
ATOM     17  C   UNL A   1      28.197  27.903  23.172  1.00  0.00     0.143 C 
BRANCH  17  18
ATOM     18  S   UNL A   1      28.071  29.652  22.807  1.00  0.00     0.147 S 
ATOM     19  C   UNL A   1      29.524  30.363  23.535  1.00  0.00     0.158 C 
ATOM     20  O   UNL A   1      28.200  29.795  21.370  1.00  0.00    -0.229 OA
ATOM     21  O   UNL A   1      26.931  30.218  23.497  1.00  0.00    -0.229 OA
ENDBRANCH  17  18
ENDBRANCH  16  17
ENDBRANCH   6  16
ENDBRANCH   4   6
ENDBRANCH   3   4
ENDBRANCH   2   3
ENDBRANCH   1   2
BRANCH   1  22
ATOM     22  O   UNL A   1      33.009  30.688  26.389  1.00  0.00    -0.374 OA
BRANCH  22  23
ATOM     23  C   UNL A   1      31.775  31.243  26.830  1.00  0.00     0.202 C 
BRANCH  23  24
ATOM     24  C   UNL A   1      31.691  32.773  26.846  1.00  0.00     0.261 C 
BRANCH  24  25
ATOM     25  O   UNL A   1      32.993  33.388  26.880  1.00  0.00    -0.460 OA
BRANCH  25  26
ATOM     26  C   UNL A   1      33.369  33.841  28.100  1.00  0.00     0.338 C 
ATOM     27  O   UNL A   1      32.739  34.582  28.844  1.00  0.00    -0.246 OA
BRANCH  26  28
ATOM     28  C   UNL A   1      34.626  33.197  28.521  1.00  0.00     0.060 A 
ATOM     29  C   UNL A   1      34.541  31.924  29.099  1.00  0.00     0.016 A 
ATOM     30  C   UNL A   1      35.852  33.860  28.440  1.00  0.00     0.016 A 
ATOM     31  C   UNL A   1      35.675  31.326  29.646  1.00  0.00     0.010 A 
ATOM     32  C   UNL A   1      36.988  33.263  28.997  1.00  0.00     0.010 A 
ATOM     33  C   UNL A   1      36.897  32.011  29.633  1.00  0.00    -0.014 A 
BRANCH  33  34
ATOM     34  C   UNL A   1      38.045  31.493  30.416  1.00  0.00     0.031 A 
ATOM     35  C   UNL A   1      38.944  30.462  29.790  1.00  0.00     0.074 A 
ATOM     36  C   UNL A   1      38.288  31.936  31.661  1.00  0.00     0.049 A 
ATOM     37  N   UNL A   1      39.939  29.796  30.317  1.00  0.00    -0.248 NA
ATOM     38  C   UNL A   1      38.679  30.135  28.380  1.00  0.00     0.031 C 
ATOM     39  C   UNL A   1      37.524  32.970  32.354  1.00  0.00     0.029 A 
ATOM     40  N   UNL A   1      39.245  31.555  32.569  1.00  0.00    -0.354 N 
ATOM     41  C   UNL A   1      40.411  28.965  29.310  1.00  0.00     0.074 A 
ATOM     42  C   UNL A   1      39.580  29.193  28.147  1.00  0.00     0.031 C 
ATOM     43  C   UNL A   1      38.027  33.128  33.589  1.00  0.00     0.029 A 
ATOM     44  C   UNL A   1      39.124  32.180  33.785  1.00  0.00     0.049 A 
ATOM     45  H   UNL A   1      39.949  30.897  32.368  1.00  0.00     0.167 HD
ATOM     46  C   UNL A   1      41.447  28.093  29.351  1.00  0.00     0.037 A 
ATOM     47  C   UNL A   1      39.802  31.985  34.934  1.00  0.00     0.037 A 
ATOM     48  C   UNL A   1      42.274  27.874  30.508  1.00  0.00     0.049 A 
ATOM     49  C   UNL A   1      40.902  30.955  34.977  1.00  0.00     0.074 A 
ATOM     50  C   UNL A   1      43.355  27.021  30.646  1.00  0.00     0.029 A 
ATOM     51  N   UNL A   1      42.107  28.511  31.728  1.00  0.00    -0.354 N 
ATOM     52  N   UNL A   1      41.346  30.178  34.021  1.00  0.00    -0.248 NA
ATOM     53  C   UNL A   1      41.592  30.776  36.263  1.00  0.00     0.031 C 
ATOM     54  C   UNL A   1      43.814  27.107  31.965  1.00  0.00     0.029 A 
ATOM     55  C   UNL A   1      43.052  28.053  32.633  1.00  0.00     0.049 A 
ATOM     56  H   UNL A   1      41.420  29.188  31.923  1.00  0.00     0.167 HD
ATOM     57  C   UNL A   1      42.388  29.444  34.576  1.00  0.00     0.074 A 
ATOM     58  C   UNL A   1      42.512  29.872  35.954  1.00  0.00     0.031 C 
ATOM     59  C   UNL A   1      43.172  28.503  33.995  1.00  0.00     0.037 A 
BRANCH  46  60
ATOM     60  C   UNL A   1      41.725  27.289  28.116  1.00  0.00     0.064 A 
ATOM     61  C   UNL A   1      41.080  26.069  27.868  1.00  0.00     0.173 A 
ATOM     62  C   UNL A   1      42.625  27.764  27.149  1.00  0.00     0.173 A 
ATOM     63  F   UNL A   1      40.223  25.563  28.769  1.00  0.00    -0.203 F 
ATOM     64  C   UNL A   1      41.342  25.342  26.709  1.00  0.00     0.198 A 
ATOM     65  C   UNL A   1      42.863  27.049  25.979  1.00  0.00     0.198 A 
ATOM     66  F   UNL A   1      43.265  28.928  27.336  1.00  0.00    -0.203 F 
ATOM     67  F   UNL A   1      40.748  24.157  26.514  1.00  0.00    -0.200 F 
ATOM     68  C   UNL A   1      42.228  25.836  25.763  1.00  0.00     0.200 A 
ATOM     69  F   UNL A   1      43.711  27.533  25.060  1.00  0.00    -0.200 F 
ATOM     70  F   UNL A   1      42.473  25.139  24.645  1.00  0.00    -0.200 F 
ENDBRANCH  46  60
BRANCH  47  71
ATOM     71  C   UNL A   1      39.448  32.768  36.145  1.00  0.00     0.064 A 
ATOM     72  C   UNL A   1      40.095  33.976  36.441  1.00  0.00     0.173 A 
ATOM     73  C   UNL A   1      38.466  32.318  37.040  1.00  0.00     0.173 A 
ATOM     74  F   UNL A   1      41.059  34.433  35.629  1.00  0.00    -0.203 F 
ATOM     75  C   UNL A   1      39.785  34.695  37.594  1.00  0.00     0.198 A 
ATOM     76  C   UNL A   1      38.137  33.051  38.178  1.00  0.00     0.198 A 
ATOM     77  F   UNL A   1      37.819  31.167  36.804  1.00  0.00    -0.203 F 
ATOM     78  F   UNL A   1      40.450  35.823  37.876  1.00  0.00    -0.200 F 
ATOM     79  C   UNL A   1      38.802  34.235  38.458  1.00  0.00     0.200 A 
ATOM     80  F   UNL A   1      37.179  32.610  39.004  1.00  0.00    -0.200 F 
ATOM     81  F   UNL A   1      38.502  34.928  39.565  1.00  0.00    -0.200 F 
ENDBRANCH  47  71
BRANCH  59  82
ATOM     82  C   UNL A   1      44.270  27.907  34.827  1.00  0.00     0.064 A 
ATOM     83  C   UNL A   1      45.546  28.485  34.890  1.00  0.00     0.173 A 
ATOM     84  C   UNL A   1      44.022  26.774  35.619  1.00  0.00     0.173 A 
ATOM     85  F   UNL A   1      45.837  29.560  34.142  1.00  0.00    -0.203 F 
ATOM     86  C   UNL A   1      46.539  27.939  35.698  1.00  0.00     0.198 A 
ATOM     87  C   UNL A   1      45.009  26.248  36.447  1.00  0.00     0.198 A 
ATOM     88  F   UNL A   1      42.816  26.188  35.600  1.00  0.00    -0.203 F 
ATOM     89  F   UNL A   1      47.763  28.484  35.714  1.00  0.00    -0.200 F 
ATOM     90  C   UNL A   1      46.268  26.827  36.483  1.00  0.00     0.200 A 
ATOM     91  F   UNL A   1      44.739  25.182  37.214  1.00  0.00    -0.200 F 
ATOM     92  F   UNL A   1      47.222  26.311  37.269  1.00  0.00    -0.200 F 
ENDBRANCH  59  82
ENDBRANCH  33  34
ENDBRANCH  26  28
ENDBRANCH  25  26
ENDBRANCH  24  25
ENDBRANCH  23  24
ENDBRANCH  22  23
ENDBRANCH   1  22
TORSDOF 20
ENDMDL
MODEL 2
REMARK VINA RESULT:      -9.9      5.780      9.719
REMARK SMILES CCC1(CC)C[NH+]([C@H](CCS(C)(=O)=O)C(=O)OCCOCCOC(=O)c2ccc(-c3c4nc(c(-c5c(F)c(F)c(F)c(F)c5F)c5ccc([nH]5)c(-c5c(F)c(F)c(F)c(F)c5F)c5nc(c(-c6c(F)c(F)c(F)c(F)c6F)c6ccc3[nH]6)C=C5)C=C4)cc2)C1
REMARK SMILES IDX 19 1 18 2 17 3 15 4 16 5 8 6 7 7 3 8 6 9 89 10 2 12 1 13
REMARK SMILES IDX 4 14 5 15 9 16 10 17 11 18 12 19 13 20 14 21 20 22 21 23
REMARK SMILES IDX 22 24 23 25 24 26 25 27 26 28 27 29 88 30 28 31 87 32 29 33
REMARK SMILES IDX 30 34 31 35 81 36 32 37 86 38 80 39 82 40 33 41 85 42 79 43
REMARK SMILES IDX 78 44 34 46 66 47 46 48 65 49 47 50 50 51 64 52 83 53 48 54
REMARK SMILES IDX 49 55 63 57 84 58 51 59 35 60 36 61 44 62 37 63 38 64 42 65
REMARK SMILES IDX 45 66 39 67 40 68 43 69 41 70 67 71 68 72 76 73 69 74 70 75
REMARK SMILES IDX 74 76 77 77 71 78 72 79 75 80 73 81 52 82 53 83 61 84 54 85
REMARK SMILES IDX 55 86 59 87 62 88 56 89 57 90 60 91 58 92
REMARK H PARENT 7 11 82 45 50 56
REMARK Flexibility Score: inf
ROOT
ATOM      1  C   UNL A   1      38.147  21.828  25.375  1.00  0.00     0.202 C 
ENDROOT
BRANCH   1   2
ATOM      2  C   UNL A   1      37.032  22.753  25.874  1.00  0.00     0.261 C 
BRANCH   2   3
ATOM      3  O   UNL A   1      36.618  23.703  24.870  1.00  0.00    -0.459 OA
BRANCH   3   4
ATOM      4  C   UNL A   1      35.870  23.200  23.840  1.00  0.00     0.365 C 
ATOM      5  O   UNL A   1      36.316  22.929  22.730  1.00  0.00    -0.245 OA
BRANCH   4   6
ATOM      6  C   UNL A   1      34.387  22.986  24.246  1.00  0.00     0.296 C 
BRANCH   6   7
ATOM      7  N   UNL A   1      33.955  24.207  24.933  1.00  0.00    -0.322 N 
ATOM      8  C   UNL A   1      32.359  25.543  25.273  1.00  0.00     0.068 C 
ATOM      9  C   UNL A   1      32.783  24.123  25.795  1.00  0.00     0.275 C 
ATOM     10  C   UNL A   1      33.342  25.238  24.098  1.00  0.00     0.275 C 
ATOM     11  H   UNL A   1      34.860  24.387  25.369  1.00  0.00     0.348 HD
BRANCH   8  12
ATOM     12  C   UNL A   1      30.869  25.574  24.900  1.00  0.00     0.015 C 
ATOM     13  C   UNL A   1      30.599  26.475  23.701  1.00  0.00     0.005 C 
ENDBRANCH   8  12
BRANCH   8  14
ATOM     14  C   UNL A   1      32.849  26.760  26.084  1.00  0.00     0.015 C 
ATOM     15  C   UNL A   1      31.717  27.408  26.878  1.00  0.00     0.005 C 
ENDBRANCH   8  14
ENDBRANCH   6   7
BRANCH   6  16
ATOM     16  C   UNL A   1      34.220  21.554  24.832  1.00  0.00     0.094 C 
BRANCH  16  17
ATOM     17  C   UNL A   1      32.934  20.758  24.637  1.00  0.00     0.143 C 
BRANCH  17  18
ATOM     18  S   UNL A   1      33.080  18.974  24.557  1.00  0.00     0.147 S 
ATOM     19  C   UNL A   1      32.530  18.558  22.923  1.00  0.00     0.158 C 
ATOM     20  O   UNL A   1      34.494  18.662  24.624  1.00  0.00    -0.229 OA
ATOM     21  O   UNL A   1      32.153  18.362  25.485  1.00  0.00    -0.229 OA
ENDBRANCH  17  18
ENDBRANCH  16  17
ENDBRANCH   6  16
ENDBRANCH   4   6
ENDBRANCH   3   4
ENDBRANCH   2   3
ENDBRANCH   1   2
BRANCH   1  22
ATOM     22  O   UNL A   1      37.748  20.530  24.939  1.00  0.00    -0.374 OA
BRANCH  22  23
ATOM     23  C   UNL A   1      38.532  19.427  25.383  1.00  0.00     0.202 C 
BRANCH  23  24
ATOM     24  C   UNL A   1      39.872  19.775  26.038  1.00  0.00     0.261 C 
BRANCH  24  25
ATOM     25  O   UNL A   1      40.984  19.149  25.370  1.00  0.00    -0.460 OA
BRANCH  25  26
ATOM     26  C   UNL A   1      42.099  19.025  26.127  1.00  0.00     0.338 C 
ATOM     27  O   UNL A   1      42.642  17.988  26.487  1.00  0.00    -0.246 OA
BRANCH  26  28
ATOM     28  C   UNL A   1      42.707  20.347  26.365  1.00  0.00     0.060 A 
ATOM     29  C   UNL A   1      42.528  20.926  27.627  1.00  0.00     0.016 A 
ATOM     30  C   UNL A   1      43.359  21.047  25.347  1.00  0.00     0.016 A 
ATOM     31  C   UNL A   1      42.956  22.232  27.865  1.00  0.00     0.010 A 
ATOM     32  C   UNL A   1      43.779  22.360  25.584  1.00  0.00     0.010 A 
ATOM     33  C   UNL A   1      43.548  22.969  26.832  1.00  0.00    -0.014 A 
BRANCH  33  34
ATOM     34  C   UNL A   1      43.787  24.423  27.000  1.00  0.00     0.031 A 
ATOM     35  C   UNL A   1      45.164  24.967  26.733  1.00  0.00     0.074 A 
ATOM     36  C   UNL A   1      42.797  25.247  27.382  1.00  0.00     0.049 A 
ATOM     37  N   UNL A   1      45.630  26.176  26.912  1.00  0.00    -0.248 NA
ATOM     38  C   UNL A   1      46.148  24.015  26.194  1.00  0.00     0.031 C 
ATOM     39  C   UNL A   1      41.412  24.849  27.618  1.00  0.00     0.029 A 
ATOM     40  N   UNL A   1      42.814  26.592  27.651  1.00  0.00    -0.354 N 
ATOM     41  C   UNL A   1      46.961  26.129  26.520  1.00  0.00     0.074 A 
ATOM     42  C   UNL A   1      47.236  24.767  26.115  1.00  0.00     0.031 C 
ATOM     43  C   UNL A   1      40.713  25.923  28.020  1.00  0.00     0.029 A 
ATOM     44  C   UNL A   1      41.611  27.075  28.103  1.00  0.00     0.049 A 
ATOM     45  H   UNL A   1      43.612  27.157  27.533  1.00  0.00     0.167 HD
ATOM     46  C   UNL A   1      47.871  27.132  26.497  1.00  0.00     0.037 A 
ATOM     47  C   UNL A   1      41.283  28.299  28.563  1.00  0.00     0.037 A 
ATOM     48  C   UNL A   1      47.591  28.486  26.896  1.00  0.00     0.049 A 
ATOM     49  C   UNL A   1      42.332  29.381  28.598  1.00  0.00     0.074 A 
ATOM     50  C   UNL A   1      48.442  29.578  26.898  1.00  0.00     0.029 A 
ATOM     51  N   UNL A   1      46.366  28.932  27.368  1.00  0.00    -0.354 N 
ATOM     52  N   UNL A   1      43.586  29.331  28.222  1.00  0.00    -0.248 NA
ATOM     53  C   UNL A   1      41.918  30.689  29.126  1.00  0.00     0.031 C 
ATOM     54  C   UNL A   1      47.744  30.674  27.416  1.00  0.00     0.029 A 
ATOM     55  C   UNL A   1      46.443  30.278  27.687  1.00  0.00     0.049 A 
ATOM     56  H   UNL A   1      45.560  28.375  27.462  1.00  0.00     0.167 HD
ATOM     57  C   UNL A   1      44.101  30.604  28.433  1.00  0.00     0.074 A 
ATOM     58  C   UNL A   1      43.022  31.407  28.969  1.00  0.00     0.031 C 
ATOM     59  C   UNL A   1      45.354  31.067  28.202  1.00  0.00     0.037 A 
BRANCH  46  60
ATOM     60  C   UNL A   1      49.263  26.796  26.053  1.00  0.00     0.064 A 
ATOM     61  C   UNL A   1      49.683  26.988  24.730  1.00  0.00     0.173 A 
ATOM     62  C   UNL A   1      50.202  26.307  26.975  1.00  0.00     0.173 A 
ATOM     63  F   UNL A   1      48.820  27.439  23.806  1.00  0.00    -0.203 F 
ATOM     64  C   UNL A   1      50.984  26.682  24.339  1.00  0.00     0.198 A 
ATOM     65  C   UNL A   1      51.509  26.028  26.588  1.00  0.00     0.198 A 
ATOM     66  F   UNL A   1      49.852  26.108  28.255  1.00  0.00    -0.203 F 
ATOM     67  F   UNL A   1      51.351  26.832  23.059  1.00  0.00    -0.200 F 
ATOM     68  C   UNL A   1      51.898  26.208  25.269  1.00  0.00     0.200 A 
ATOM     69  F   UNL A   1      52.393  25.581  27.491  1.00  0.00    -0.200 F 
ATOM     70  F   UNL A   1      53.151  25.921  24.894  1.00  0.00    -0.200 F 
ENDBRANCH  46  60
BRANCH  47  71
ATOM     71  C   UNL A   1      39.903  28.564  29.045  1.00  0.00     0.064 A 
ATOM     72  C   UNL A   1      38.922  29.076  28.185  1.00  0.00     0.173 A 
ATOM     73  C   UNL A   1      39.541  28.325  30.379  1.00  0.00     0.173 A 
ATOM     74  F   UNL A   1      39.228  29.345  26.907  1.00  0.00    -0.203 F 
ATOM     75  C   UNL A   1      37.636  29.355  28.645  1.00  0.00     0.198 A 
ATOM     76  C   UNL A   1      38.248  28.578  30.831  1.00  0.00     0.198 A 
ATOM     77  F   UNL A   1      40.444  27.839  31.243  1.00  0.00    -0.203 F 
ATOM     78  F   UNL A   1      36.730  29.885  27.813  1.00  0.00    -0.200 F 
ATOM     79  C   UNL A   1      37.299  29.099  29.966  1.00  0.00     0.200 A 
ATOM     80  F   UNL A   1      37.924  28.319  32.105  1.00  0.00    -0.200 F 
ATOM     81  F   UNL A   1      36.062  29.364  30.407  1.00  0.00    -0.200 F 
ENDBRANCH  47  71
BRANCH  59  82
ATOM     82  C   UNL A   1      45.618  32.519  28.474  1.00  0.00     0.064 A 
ATOM     83  C   UNL A   1      45.346  33.510  27.520  1.00  0.00     0.173 A 
ATOM     84  C   UNL A   1      46.095  32.928  29.729  1.00  0.00     0.173 A 
ATOM     85  F   UNL A   1      44.902  33.169  26.301  1.00  0.00    -0.203 F 
ATOM     86  C   UNL A   1      45.560  34.856  27.806  1.00  0.00     0.198 A 
ATOM     87  C   UNL A   1      46.282  34.276  30.020  1.00  0.00     0.198 A 
ATOM     88  F   UNL A   1      46.363  32.020  30.678  1.00  0.00    -0.203 F 
ATOM     89  F   UNL A   1      45.330  35.784  26.866  1.00  0.00    -0.200 F 
ATOM     90  C   UNL A   1      46.019  35.238  29.058  1.00  0.00     0.200 A 
ATOM     91  F   UNL A   1      46.712  34.643  31.236  1.00  0.00    -0.200 F 
ATOM     92  F   UNL A   1      46.213  36.535  29.335  1.00  0.00    -0.200 F 
ENDBRANCH  59  82
ENDBRANCH  33  34
ENDBRANCH  26  28
ENDBRANCH  25  26
ENDBRANCH  24  25
ENDBRANCH  23  24
ENDBRANCH  22  23
ENDBRANCH   1  22
TORSDOF 20
ENDMDL
MODEL 3
REMARK VINA RESULT:      -9.9      5.451      9.364
REMARK SMILES CCC1(CC)C[NH+]([C@H](CCS(C)(=O)=O)C(=O)OCCOCCOC(=O)c2ccc(-c3c4nc(c(-c5c(F)c(F)c(F)c(F)c5F)c5ccc([nH]5)c(-c5c(F)c(F)c(F)c(F)c5F)c5nc(c(-c6c(F)c(F)c(F)c(F)c6F)c6ccc3[nH]6)C=C5)C=C4)cc2)C1
REMARK SMILES IDX 19 1 18 2 17 3 15 4 16 5 8 6 7 7 3 8 6 9 89 10 2 12 1 13
REMARK SMILES IDX 4 14 5 15 9 16 10 17 11 18 12 19 13 20 14 21 20 22 21 23
REMARK SMILES IDX 22 24 23 25 24 26 25 27 26 28 27 29 88 30 28 31 87 32 29 33
REMARK SMILES IDX 30 34 31 35 81 36 32 37 86 38 80 39 82 40 33 41 85 42 79 43
REMARK SMILES IDX 78 44 34 46 66 47 46 48 65 49 47 50 50 51 64 52 83 53 48 54
REMARK SMILES IDX 49 55 63 57 84 58 51 59 35 60 36 61 44 62 37 63 38 64 42 65
REMARK SMILES IDX 45 66 39 67 40 68 43 69 41 70 67 71 68 72 76 73 69 74 70 75
REMARK SMILES IDX 74 76 77 77 71 78 72 79 75 80 73 81 52 82 53 83 61 84 54 85
REMARK SMILES IDX 55 86 59 87 62 88 56 89 57 90 60 91 58 92
REMARK H PARENT 7 11 82 45 50 56
REMARK Flexibility Score: inf
ROOT
ATOM      1  C   UNL A   1      37.525  21.449  24.999  1.00  0.00     0.202 C 
ENDROOT
BRANCH   1   2
ATOM      2  C   UNL A   1      36.918  22.401  23.962  1.00  0.00     0.261 C 
BRANCH   2   3
ATOM      3  O   UNL A   1      35.764  23.100  24.470  1.00  0.00    -0.459 OA
BRANCH   3   4
ATOM      4  C   UNL A   1      34.576  22.833  23.845  1.00  0.00     0.365 C 
ATOM      5  O   UNL A   1      34.301  23.184  22.703  1.00  0.00    -0.245 OA
BRANCH   4   6
ATOM      6  C   UNL A   1      33.618  22.005  24.744  1.00  0.00     0.296 C 
BRANCH   6   7
ATOM      7  N   UNL A   1      33.536  20.666  24.156  1.00  0.00    -0.322 N 
ATOM      8  C   UNL A   1      33.151  18.624  24.518  1.00  0.00     0.068 C 
ATOM      9  C   UNL A   1      32.291  19.925  24.324  1.00  0.00     0.275 C 
ATOM     10  C   UNL A   1      34.317  19.620  24.813  1.00  0.00     0.275 C 
ATOM     11  H   UNL A   1      33.791  20.967  23.215  1.00  0.00     0.348 HD
BRANCH   8  12
ATOM     12  C   UNL A   1      32.656  17.808  25.724  1.00  0.00     0.015 C 
ATOM     13  C   UNL A   1      32.853  16.311  25.520  1.00  0.00     0.005 C 
ENDBRANCH   8  12
BRANCH   8  14
ATOM     14  C   UNL A   1      33.456  17.793  23.256  1.00  0.00     0.015 C 
ATOM     15  C   UNL A   1      32.329  17.882  22.229  1.00  0.00     0.005 C 
ENDBRANCH   8  14
ENDBRANCH   6   7
BRANCH   6  16
ATOM     16  C   UNL A   1      32.378  22.874  25.104  1.00  0.00     0.094 C 
BRANCH  16  17
ATOM     17  C   UNL A   1      32.462  24.395  25.170  1.00  0.00     0.143 C 
BRANCH  17  18
ATOM     18  S   UNL A   1      31.007  25.272  25.737  1.00  0.00     0.147 S 
ATOM     19  C   UNL A   1      31.642  26.752  26.479  1.00  0.00     0.158 C 
ATOM     20  O   UNL A   1      30.266  25.671  24.556  1.00  0.00    -0.229 OA
ATOM     21  O   UNL A   1      30.355  24.518  26.787  1.00  0.00    -0.229 OA
ENDBRANCH  17  18
ENDBRANCH  16  17
ENDBRANCH   6  16
ENDBRANCH   4   6
ENDBRANCH   3   4
ENDBRANCH   2   3
ENDBRANCH   1   2
BRANCH   1  22
ATOM     22  O   UNL A   1      37.771  20.112  24.566  1.00  0.00    -0.374 OA
BRANCH  22  23
ATOM     23  C   UNL A   1      38.669  19.332  25.349  1.00  0.00     0.202 C 
BRANCH  23  24
ATOM     24  C   UNL A   1      39.808  20.099  26.030  1.00  0.00     0.261 C 
BRANCH  24  25
ATOM     25  O   UNL A   1      40.713  19.223  26.728  1.00  0.00    -0.460 OA
BRANCH  25  26
ATOM     26  C   UNL A   1      41.978  19.221  26.245  1.00  0.00     0.338 C 
ATOM     27  O   UNL A   1      42.531  18.330  25.612  1.00  0.00    -0.246 OA
BRANCH  26  28
ATOM     28  C   UNL A   1      42.608  20.537  26.452  1.00  0.00     0.060 A 
ATOM     29  C   UNL A   1      42.626  21.052  27.754  1.00  0.00     0.016 A 
ATOM     30  C   UNL A   1      43.088  21.295  25.381  1.00  0.00     0.016 A 
ATOM     31  C   UNL A   1      43.078  22.350  27.988  1.00  0.00     0.010 A 
ATOM     32  C   UNL A   1      43.533  22.600  25.616  1.00  0.00     0.010 A 
ATOM     33  C   UNL A   1      43.496  23.144  26.913  1.00  0.00    -0.014 A 
BRANCH  33  34
ATOM     34  C   UNL A   1      43.751  24.591  27.115  1.00  0.00     0.031 A 
ATOM     35  C   UNL A   1      45.133  25.128  26.860  1.00  0.00     0.074 A 
ATOM     36  C   UNL A   1      42.769  25.417  27.517  1.00  0.00     0.049 A 
ATOM     37  N   UNL A   1      45.611  26.328  27.067  1.00  0.00    -0.248 NA
ATOM     38  C   UNL A   1      46.107  24.178  26.299  1.00  0.00     0.031 C 
ATOM     39  C   UNL A   1      41.380  25.027  27.744  1.00  0.00     0.029 A 
ATOM     40  N   UNL A   1      42.800  26.755  27.817  1.00  0.00    -0.354 N 
ATOM     41  C   UNL A   1      46.941  26.275  26.673  1.00  0.00     0.074 A 
ATOM     42  C   UNL A   1      47.203  24.921  26.237  1.00  0.00     0.031 C 
ATOM     43  C   UNL A   1      40.692  26.100  28.171  1.00  0.00     0.029 A 
ATOM     44  C   UNL A   1      41.602  27.240  28.281  1.00  0.00     0.049 A 
ATOM     45  H   UNL A   1      43.603  27.314  27.712  1.00  0.00     0.167 HD
ATOM     46  C   UNL A   1      47.862  27.270  26.674  1.00  0.00     0.037 A 
ATOM     47  C   UNL A   1      41.286  28.456  28.769  1.00  0.00     0.037 A 
ATOM     48  C   UNL A   1      47.596  28.617  27.104  1.00  0.00     0.049 A 
ATOM     49  C   UNL A   1      42.347  29.525  28.829  1.00  0.00     0.074 A 
ATOM     50  C   UNL A   1      48.458  29.700  27.131  1.00  0.00     0.029 A 
ATOM     51  N   UNL A   1      46.375  29.064  27.587  1.00  0.00    -0.354 N 
ATOM     52  N   UNL A   1      43.600  29.472  28.451  1.00  0.00    -0.248 NA
ATOM     53  C   UNL A   1      41.947  30.826  29.388  1.00  0.00     0.031 C 
ATOM     54  C   UNL A   1      47.771  30.791  27.675  1.00  0.00     0.029 A 
ATOM     55  C   UNL A   1      46.467  30.402  27.937  1.00  0.00     0.049 A 
ATOM     56  H   UNL A   1      45.564  28.513  27.669  1.00  0.00     0.167 HD
ATOM     57  C   UNL A   1      44.128  30.734  28.692  1.00  0.00     0.074 A 
ATOM     58  C   UNL A   1      43.057  31.536  29.246  1.00  0.00     0.031 C 
ATOM     59  C   UNL A   1      45.386  31.189  28.470  1.00  0.00     0.037 A 
BRANCH  46  60
ATOM     60  C   UNL A   1      49.250  26.930  26.221  1.00  0.00     0.064 A 
ATOM     61  C   UNL A   1      49.651  27.084  24.887  1.00  0.00     0.173 A 
ATOM     62  C   UNL A   1      50.205  26.477  27.145  1.00  0.00     0.173 A 
ATOM     63  F   UNL A   1      48.771  27.499  23.961  1.00  0.00    -0.203 F 
ATOM     64  C   UNL A   1      50.949  26.774  24.488  1.00  0.00     0.198 A 
ATOM     65  C   UNL A   1      51.509  26.195  26.749  1.00  0.00     0.198 A 
ATOM     66  F   UNL A   1      49.874  26.316  28.435  1.00  0.00    -0.203 F 
ATOM     67  F   UNL A   1      51.297  26.886  23.198  1.00  0.00    -0.200 F 
ATOM     68  C   UNL A   1      51.879  26.337  25.420  1.00  0.00     0.200 A 
ATOM     69  F   UNL A   1      52.408  25.784  27.653  1.00  0.00    -0.200 F 
ATOM     70  F   UNL A   1      53.129  26.047  25.036  1.00  0.00    -0.200 F 
ENDBRANCH  46  60
BRANCH  47  71
ATOM     71  C   UNL A   1      39.910  28.724  29.258  1.00  0.00     0.064 A 
ATOM     72  C   UNL A   1      39.539  28.426  30.576  1.00  0.00     0.173 A 
ATOM     73  C   UNL A   1      38.932  29.270  28.413  1.00  0.00     0.173 A 
ATOM     74  F   UNL A   1      40.432  27.879  31.414  1.00  0.00    -0.203 F 
ATOM     75  C   UNL A   1      38.240  28.649  31.027  1.00  0.00     0.198 A 
ATOM     76  C   UNL A   1      37.640  29.518  28.871  1.00  0.00     0.198 A 
ATOM     77  F   UNL A   1      39.235  29.569  27.141  1.00  0.00    -0.203 F 
ATOM     78  F   UNL A   1      37.900  28.315  32.278  1.00  0.00    -0.200 F 
ATOM     79  C   UNL A   1      37.293  29.201  30.175  1.00  0.00     0.200 A 
ATOM     80  F   UNL A   1      36.733  30.061  28.049  1.00  0.00    -0.200 F 
ATOM     81  F   UNL A   1      36.044  29.418  30.609  1.00  0.00    -0.200 F 
ENDBRANCH  47  71
BRANCH  59  82
ATOM     82  C   UNL A   1      45.665  32.632  28.776  1.00  0.00     0.064 A 
ATOM     83  C   UNL A   1      46.082  33.050  30.047  1.00  0.00     0.173 A 
ATOM     84  C   UNL A   1      45.569  33.601  27.764  1.00  0.00     0.173 A 
ATOM     85  F   UNL A   1      46.175  32.166  31.052  1.00  0.00    -0.203 F 
ATOM     86  C   UNL A   1      46.374  34.388  30.300  1.00  0.00     0.198 A 
ATOM     87  C   UNL A   1      45.889  34.932  28.013  1.00  0.00     0.198 A 
ATOM     88  F   UNL A   1      45.182  33.251  26.528  1.00  0.00    -0.203 F 
ATOM     89  F   UNL A   1      46.733  34.772  31.533  1.00  0.00    -0.200 F 
ATOM     90  C   UNL A   1      46.286  35.326  29.281  1.00  0.00     0.200 A 
ATOM     91  F   UNL A   1      45.816  35.833  27.023  1.00  0.00    -0.200 F 
ATOM     92  F   UNL A   1      46.579  36.610  29.524  1.00  0.00    -0.200 F 
ENDBRANCH  59  82
ENDBRANCH  33  34
ENDBRANCH  26  28
ENDBRANCH  25  26
ENDBRANCH  24  25
ENDBRANCH  23  24
ENDBRANCH  22  23
ENDBRANCH   1  22
TORSDOF 20
ENDMDL
