MODEL 1
REMARK VINA RESULT:     -11.0      0.000      0.000
REMARK SMILES C[NH2+][C@@]1(C(=O)OCCOCCOC(=O)c2ccc(-c3c4nc(c(-c5c(F)c(F)c(F)c(F)c5F)c5ccc([nH]5)c(-c5c(F)c(F)c(F)c(F)c5F)c5nc(c(-c6c(F)c(F)c(F)c(F)c6F)c6ccc3[nH]6)C=C5)C=C4)cc2)CC[C@H](SC2CCOCC2)C1
REMARK SMILES IDX 9 1 8 2 7 3 6 4 4 5 5 6 3 7 78 8 88 9 79 10 80 11 2 12 1 13
REMARK SMILES IDX 81 16 82 17 83 18 87 19 84 20 86 21 85 22 10 23 11 24 12 25
REMARK SMILES IDX 13 26 14 27 15 28 16 29 77 30 17 31 76 32 18 33 19 34 20 35
REMARK SMILES IDX 70 36 21 37 75 38 69 39 71 40 22 41 74 42 68 43 67 44 23 46
REMARK SMILES IDX 55 47 35 48 54 49 36 50 39 51 53 52 72 53 37 54 38 55 52 57
REMARK SMILES IDX 73 58 40 59 24 60 25 61 33 62 26 63 27 64 31 65 34 66 28 67
REMARK SMILES IDX 29 68 32 69 30 70 56 71 57 72 65 73 58 74 59 75 63 76 66 77
REMARK SMILES IDX 60 78 61 79 64 80 62 81 41 82 42 83 50 84 43 85 44 86 48 87
REMARK SMILES IDX 51 88 45 89 46 90 49 91 47 92
REMARK H PARENT 2 14 2 15 71 45 39 56
REMARK Flexibility Score: inf
ROOT
ATOM      1  O   UNL A   1      37.413  21.290  25.178  1.00  0.00    -0.374 OA
ENDROOT
BRANCH   1   2
ATOM      2  C   UNL A   1      36.826  22.034  24.110  1.00  0.00     0.202 C 
BRANCH   2   3
ATOM      3  C   UNL A   1      36.627  23.528  24.360  1.00  0.00     0.261 C 
BRANCH   3   4
ATOM      4  O   UNL A   1      35.542  23.736  25.272  1.00  0.00    -0.459 OA
BRANCH   4   5
ATOM      5  C   UNL A   1      34.298  23.578  24.759  1.00  0.00     0.368 C 
ATOM      6  O   UNL A   1      34.046  23.604  23.557  1.00  0.00    -0.245 OA
BRANCH   5   7
ATOM      7  C   UNL A   1      33.212  23.371  25.863  1.00  0.00     0.195 C 
ATOM      8  C   UNL A   1      33.842  22.533  26.983  1.00  0.00     0.082 C 
ATOM      9  C   UNL A   1      32.026  22.462  25.465  1.00  0.00     0.095 C 
ATOM     10  C   UNL A   1      33.841  21.125  26.384  1.00  0.00     0.022 C 
ATOM     11  C   UNL A   1      32.509  21.006  25.635  1.00  0.00     0.054 C 
BRANCH   7  12
ATOM     12  N   UNL A   1      32.642  24.670  26.312  1.00  0.00    -0.335 N 
ATOM     13  C   UNL A   1      31.492  25.140  25.548  1.00  0.00     0.331 C 
ATOM     14  H   UNL A   1      32.356  24.569  27.285  1.00  0.00     0.347 HD
ATOM     15  H   UNL A   1      33.378  25.365  26.174  1.00  0.00     0.347 HD
ENDBRANCH   7  12
BRANCH  11  16
ATOM     16  S   UNL A   1      32.571  20.206  23.988  1.00  0.00    -0.155 SA
BRANCH  16  17
ATOM     17  C   UNL A   1      33.291  18.552  24.292  1.00  0.00     0.051 C 
ATOM     18  C   UNL A   1      33.435  17.673  23.052  1.00  0.00     0.043 C 
ATOM     19  C   UNL A   1      32.591  17.809  25.427  1.00  0.00     0.043 C 
ATOM     20  C   UNL A   1      34.083  16.350  23.447  1.00  0.00     0.161 C 
ATOM     21  C   UNL A   1      33.295  16.485  25.681  1.00  0.00     0.161 C 
ATOM     22  O   UNL A   1      33.335  15.711  24.484  1.00  0.00    -0.381 OA
ENDBRANCH  16  17
ENDBRANCH  11  16
ENDBRANCH   5   7
ENDBRANCH   4   5
ENDBRANCH   3   4
ENDBRANCH   2   3
ENDBRANCH   1   2
BRANCH   1  23
ATOM     23  C   UNL A   1      37.816  19.946  24.904  1.00  0.00     0.202 C 
BRANCH  23  24
ATOM     24  C   UNL A   1      39.087  19.456  25.613  1.00  0.00     0.261 C 
BRANCH  24  25
ATOM     25  O   UNL A   1      40.099  20.473  25.724  1.00  0.00    -0.460 OA
BRANCH  25  26
ATOM     26  C   UNL A   1      40.767  20.491  26.902  1.00  0.00     0.338 C 
ATOM     27  O   UNL A   1      41.293  19.541  27.473  1.00  0.00    -0.246 OA
BRANCH  26  28
ATOM     28  C   UNL A   1      40.943  21.871  27.386  1.00  0.00     0.060 A 
ATOM     29  C   UNL A   1      40.333  22.896  26.650  1.00  0.00     0.016 A 
ATOM     30  C   UNL A   1      41.781  22.175  28.459  1.00  0.00     0.016 A 
ATOM     31  C   UNL A   1      40.595  24.231  26.955  1.00  0.00     0.010 A 
ATOM     32  C   UNL A   1      42.051  23.517  28.761  1.00  0.00     0.010 A 
ATOM     33  C   UNL A   1      41.490  24.548  27.988  1.00  0.00    -0.014 A 
BRANCH  33  34
ATOM     34  C   UNL A   1      41.950  25.951  28.142  1.00  0.00     0.031 A 
ATOM     35  C   UNL A   1      43.276  26.353  27.554  1.00  0.00     0.074 A 
ATOM     36  C   UNL A   1      41.179  26.870  28.750  1.00  0.00     0.049 A 
ATOM     37  N   UNL A   1      43.874  27.517  27.569  1.00  0.00    -0.248 NA
ATOM     38  C   UNL A   1      44.027  25.299  26.854  1.00  0.00     0.031 C 
ATOM     39  C   UNL A   1      39.857  26.619  29.319  1.00  0.00     0.029 A 
ATOM     40  N   UNL A   1      41.403  28.204  28.986  1.00  0.00    -0.354 N 
ATOM     41  C   UNL A   1      45.069  27.336  26.884  1.00  0.00     0.074 A 
ATOM     42  C   UNL A   1      45.127  25.944  26.494  1.00  0.00     0.031 C 
ATOM     43  C   UNL A   1      39.387  27.764  29.844  1.00  0.00     0.029 A 
ATOM     44  C   UNL A   1      40.386  28.820  29.672  1.00  0.00     0.049 A 
ATOM     45  H   UNL A   1      42.215  28.675  28.691  1.00  0.00     0.167 HD
ATOM     46  C   UNL A   1      46.028  28.249  26.598  1.00  0.00     0.037 A 
ATOM     47  C   UNL A   1      40.281  30.086  30.121  1.00  0.00     0.037 A 
ATOM     48  C   UNL A   1      45.972  29.635  26.979  1.00  0.00     0.049 A 
ATOM     49  C   UNL A   1      41.393  31.067  29.849  1.00  0.00     0.074 A 
ATOM     50  C   UNL A   1      46.889  30.640  26.719  1.00  0.00     0.029 A 
ATOM     51  N   UNL A   1      44.944  30.211  27.709  1.00  0.00    -0.354 N 
ATOM     52  N   UNL A   1      42.508  30.891  29.181  1.00  0.00    -0.248 NA
ATOM     53  C   UNL A   1      41.230  32.424  30.391  1.00  0.00     0.031 C 
ATOM     54  C   UNL A   1      46.436  31.814  27.331  1.00  0.00     0.029 A 
ATOM     55  C   UNL A   1      45.215  31.552  27.931  1.00  0.00     0.049 A 
ATOM     56  H   UNL A   1      44.140  29.739  28.022  1.00  0.00     0.167 HD
ATOM     57  C   UNL A   1      43.163  32.117  29.200  1.00  0.00     0.074 A 
ATOM     58  C   UNL A   1      42.316  33.032  29.935  1.00  0.00     0.031 C 
ATOM     59  C   UNL A   1      44.358  32.454  28.656  1.00  0.00     0.037 A 
BRANCH  46  60
ATOM     60  C   UNL A   1      47.237  27.770  25.850  1.00  0.00     0.064 A 
ATOM     61  C   UNL A   1      47.259  27.707  24.449  1.00  0.00     0.173 A 
ATOM     62  C   UNL A   1      48.400  27.403  26.543  1.00  0.00     0.173 A 
ATOM     63  F   UNL A   1      46.167  28.035  23.741  1.00  0.00    -0.203 F 
ATOM     64  C   UNL A   1      48.394  27.271  23.770  1.00  0.00     0.198 A 
ATOM     65  C   UNL A   1      49.541  26.992  25.861  1.00  0.00     0.198 A 
ATOM     66  F   UNL A   1      48.431  27.450  27.884  1.00  0.00    -0.203 F 
ATOM     67  F   UNL A   1      48.380  27.179  22.433  1.00  0.00    -0.200 F 
ATOM     68  C   UNL A   1      49.536  26.921  24.475  1.00  0.00     0.200 A 
ATOM     69  F   UNL A   1      50.648  26.664  26.543  1.00  0.00    -0.200 F 
ATOM     70  F   UNL A   1      50.630  26.507  23.821  1.00  0.00    -0.200 F 
ENDBRANCH  46  60
BRANCH  47  71
ATOM     71  C   UNL A   1      39.079  30.503  30.889  1.00  0.00     0.064 A 
ATOM     72  C   UNL A   1      37.984  31.105  30.254  1.00  0.00     0.173 A 
ATOM     73  C   UNL A   1      39.013  30.329  32.280  1.00  0.00     0.173 A 
ATOM     74  F   UNL A   1      38.013  31.317  28.930  1.00  0.00    -0.203 F 
ATOM     75  C   UNL A   1      36.877  31.532  30.982  1.00  0.00     0.198 A 
ATOM     76  C   UNL A   1      37.893  30.732  33.003  1.00  0.00     0.198 A 
ATOM     77  F   UNL A   1      40.035  29.758  32.935  1.00  0.00    -0.203 F 
ATOM     78  F   UNL A   1      35.863  32.146  30.357  1.00  0.00    -0.200 F 
ATOM     79  C   UNL A   1      36.829  31.341  32.355  1.00  0.00     0.200 A 
ATOM     80  F   UNL A   1      37.847  30.535  34.328  1.00  0.00    -0.200 F 
ATOM     81  F   UNL A   1      35.762  31.751  33.055  1.00  0.00    -0.200 F 
ENDBRANCH  47  71
BRANCH  59  82
ATOM     82  C   UNL A   1      44.810  33.878  28.805  1.00  0.00     0.064 A 
ATOM     83  C   UNL A   1      44.455  34.864  27.874  1.00  0.00     0.173 A 
ATOM     84  C   UNL A   1      45.569  34.269  29.918  1.00  0.00     0.173 A 
ATOM     85  F   UNL A   1      43.741  34.538  26.785  1.00  0.00    -0.203 F 
ATOM     86  C   UNL A   1      44.862  36.186  28.040  1.00  0.00     0.198 A 
ATOM     87  C   UNL A   1      45.951  35.596  30.096  1.00  0.00     0.198 A 
ATOM     88  F   UNL A   1      45.929  33.367  30.843  1.00  0.00    -0.203 F 
ATOM     89  F   UNL A   1      44.546  37.103  27.114  1.00  0.00    -0.200 F 
ATOM     90  C   UNL A   1      45.602  36.552  29.153  1.00  0.00     0.200 A 
ATOM     91  F   UNL A   1      46.656  35.951  31.179  1.00  0.00    -0.200 F 
ATOM     92  F   UNL A   1      45.986  37.826  29.315  1.00  0.00    -0.200 F 
ENDBRANCH  59  82
ENDBRANCH  33  34
ENDBRANCH  26  28
ENDBRANCH  25  26
ENDBRANCH  24  25
ENDBRANCH  23  24
ENDBRANCH   1  23
TORSDOF 17
ENDMDL
MODEL 2
REMARK VINA RESULT:     -10.8      1.816      3.686
REMARK SMILES C[NH2+][C@@]1(C(=O)OCCOCCOC(=O)c2ccc(-c3c4nc(c(-c5c(F)c(F)c(F)c(F)c5F)c5ccc([nH]5)c(-c5c(F)c(F)c(F)c(F)c5F)c5nc(c(-c6c(F)c(F)c(F)c(F)c6F)c6ccc3[nH]6)C=C5)C=C4)cc2)CC[C@H](SC2CCOCC2)C1
REMARK SMILES IDX 9 1 8 2 7 3 6 4 4 5 5 6 3 7 78 8 88 9 79 10 80 11 2 12 1 13
REMARK SMILES IDX 81 16 82 17 83 18 87 19 84 20 86 21 85 22 10 23 11 24 12 25
REMARK SMILES IDX 13 26 14 27 15 28 16 29 77 30 17 31 76 32 18 33 19 34 20 35
REMARK SMILES IDX 70 36 21 37 75 38 69 39 71 40 22 41 74 42 68 43 67 44 23 46
REMARK SMILES IDX 55 47 35 48 54 49 36 50 39 51 53 52 72 53 37 54 38 55 52 57
REMARK SMILES IDX 73 58 40 59 24 60 25 61 33 62 26 63 27 64 31 65 34 66 28 67
REMARK SMILES IDX 29 68 32 69 30 70 56 71 57 72 65 73 58 74 59 75 63 76 66 77
REMARK SMILES IDX 60 78 61 79 64 80 62 81 41 82 42 83 50 84 43 85 44 86 48 87
REMARK SMILES IDX 51 88 45 89 46 90 49 91 47 92
REMARK H PARENT 2 14 2 15 71 45 39 56
REMARK Flexibility Score: inf
ROOT
ATOM      1  O   UNL A   1      34.635  21.194  25.574  1.00  0.00    -0.374 OA
ENDROOT
BRANCH   1   2
ATOM      2  C   UNL A   1      34.785  21.839  26.839  1.00  0.00     0.202 C 
BRANCH   2   3
ATOM      3  C   UNL A   1      33.525  22.484  27.418  1.00  0.00     0.261 C 
BRANCH   3   4
ATOM      4  O   UNL A   1      33.237  23.706  26.729  1.00  0.00    -0.459 OA
BRANCH   4   5
ATOM      5  C   UNL A   1      31.998  23.804  26.188  1.00  0.00     0.368 C 
ATOM      6  O   UNL A   1      30.998  24.127  26.825  1.00  0.00    -0.245 OA
BRANCH   5   7
ATOM      7  C   UNL A   1      31.975  23.451  24.666  1.00  0.00     0.195 C 
ATOM      8  C   UNL A   1      33.226  24.067  24.027  1.00  0.00     0.082 C 
ATOM      9  C   UNL A   1      30.866  24.145  23.841  1.00  0.00     0.095 C 
ATOM     10  C   UNL A   1      32.854  25.548  23.931  1.00  0.00     0.022 C 
ATOM     11  C   UNL A   1      31.376  25.568  23.526  1.00  0.00     0.054 C 
BRANCH   7  12
ATOM     12  N   UNL A   1      31.833  21.985  24.453  1.00  0.00    -0.335 N 
ATOM     13  C   UNL A   1      32.169  21.518  23.113  1.00  0.00     0.331 C 
ATOM     14  H   UNL A   1      32.443  21.510  25.117  1.00  0.00     0.347 HD
ATOM     15  H   UNL A   1      30.843  21.774  24.587  1.00  0.00     0.347 HD
ENDBRANCH   7  12
BRANCH  11  16
ATOM     16  S   UNL A   1      30.312  26.783  24.391  1.00  0.00    -0.155 SA
BRANCH  16  17
ATOM     17  C   UNL A   1      31.468  27.816  25.362  1.00  0.00     0.051 C 
ATOM     18  C   UNL A   1      31.403  27.610  26.874  1.00  0.00     0.043 C 
ATOM     19  C   UNL A   1      31.380  29.295  24.995  1.00  0.00     0.043 C 
ATOM     20  C   UNL A   1      32.443  28.499  27.547  1.00  0.00     0.161 C 
ATOM     21  C   UNL A   1      32.426  30.078  25.776  1.00  0.00     0.161 C 
ATOM     22  O   UNL A   1      32.256  29.865  27.176  1.00  0.00    -0.381 OA
ENDBRANCH  16  17
ENDBRANCH  11  16
ENDBRANCH   5   7
ENDBRANCH   4   5
ENDBRANCH   3   4
ENDBRANCH   2   3
ENDBRANCH   1   2
BRANCH   1  23
ATOM     23  C   UNL A   1      35.769  21.181  24.702  1.00  0.00     0.202 C 
BRANCH  23  24
ATOM     24  C   UNL A   1      37.058  20.566  25.266  1.00  0.00     0.261 C 
BRANCH  24  25
ATOM     25  O   UNL A   1      38.205  21.423  25.115  1.00  0.00    -0.460 OA
BRANCH  25  26
ATOM     26  C   UNL A   1      39.219  21.180  25.980  1.00  0.00     0.338 C 
ATOM     27  O   UNL A   1      39.835  20.130  26.126  1.00  0.00    -0.246 OA
BRANCH  26  28
ATOM     28  C   UNL A   1      39.637  22.418  26.660  1.00  0.00     0.060 A 
ATOM     29  C   UNL A   1      38.971  23.601  26.315  1.00  0.00     0.016 A 
ATOM     30  C   UNL A   1      40.731  22.451  27.524  1.00  0.00     0.016 A 
ATOM     31  C   UNL A   1      39.425  24.829  26.795  1.00  0.00     0.010 A 
ATOM     32  C   UNL A   1      41.193  23.685  28.002  1.00  0.00     0.010 A 
ATOM     33  C   UNL A   1      40.566  24.880  27.609  1.00  0.00    -0.014 A 
BRANCH  33  34
ATOM     34  C   UNL A   1      41.181  26.197  27.910  1.00  0.00     0.031 A 
ATOM     35  C   UNL A   1      42.587  26.468  27.445  1.00  0.00     0.074 A 
ATOM     36  C   UNL A   1      40.486  27.159  28.542  1.00  0.00     0.049 A 
ATOM     37  N   UNL A   1      43.321  27.542  27.597  1.00  0.00    -0.248 NA
ATOM     38  C   UNL A   1      43.253  25.383  26.709  1.00  0.00     0.031 C 
ATOM     39  C   UNL A   1      39.105  27.038  29.002  1.00  0.00     0.029 A 
ATOM     40  N   UNL A   1      40.854  28.431  28.904  1.00  0.00    -0.354 N 
ATOM     41  C   UNL A   1      44.532  27.261  26.978  1.00  0.00     0.074 A 
ATOM     42  C   UNL A   1      44.448  25.907  26.476  1.00  0.00     0.031 C 
ATOM     43  C   UNL A   1      38.741  28.191  29.590  1.00  0.00     0.029 A 
ATOM     44  C   UNL A   1      39.871  29.119  29.572  1.00  0.00     0.049 A 
ATOM     45  H   UNL A   1      41.738  28.815  28.703  1.00  0.00     0.167 HD
ATOM     46  C   UNL A   1      45.615  28.063  26.832  1.00  0.00     0.037 A 
ATOM     47  C   UNL A   1      39.890  30.351  30.118  1.00  0.00     0.037 A 
ATOM     48  C   UNL A   1      45.701  29.412  27.323  1.00  0.00     0.049 A 
ATOM     49  C   UNL A   1      41.131  31.199  30.002  1.00  0.00     0.074 A 
ATOM     50  C   UNL A   1      46.751  30.308  27.209  1.00  0.00     0.029 A 
ATOM     51  N   UNL A   1      44.699  30.059  28.031  1.00  0.00    -0.354 N 
ATOM     52  N   UNL A   1      42.262  30.933  29.395  1.00  0.00    -0.248 NA
ATOM     53  C   UNL A   1      41.095  32.521  30.645  1.00  0.00     0.031 C 
ATOM     54  C   UNL A   1      46.401  31.481  27.886  1.00  0.00     0.029 A 
ATOM     55  C   UNL A   1      45.116  31.333  28.382  1.00  0.00     0.049 A 
ATOM     56  H   UNL A   1      43.822  29.671  28.251  1.00  0.00     0.167 HD
ATOM     57  C   UNL A   1      43.059  32.059  29.559  1.00  0.00     0.074 A 
ATOM     58  C   UNL A   1      42.278  33.017  30.312  1.00  0.00     0.031 C 
ATOM     59  C   UNL A   1      44.324  32.280  29.124  1.00  0.00     0.037 A 
BRANCH  46  60
ATOM     60  C   UNL A   1      46.808  27.490  26.125  1.00  0.00     0.064 A 
ATOM     61  C   UNL A   1      46.969  27.608  24.737  1.00  0.00     0.173 A 
ATOM     62  C   UNL A   1      47.820  26.846  26.853  1.00  0.00     0.173 A 
ATOM     63  F   UNL A   1      46.022  28.204  23.996  1.00  0.00    -0.203 F 
ATOM     64  C   UNL A   1      48.089  27.081  24.099  1.00  0.00     0.198 A 
ATOM     65  C   UNL A   1      48.951  26.343  26.215  1.00  0.00     0.198 A 
ATOM     66  F   UNL A   1      47.715  26.711  28.184  1.00  0.00    -0.203 F 
ATOM     67  F   UNL A   1      48.204  27.168  22.767  1.00  0.00    -0.200 F 
ATOM     68  C   UNL A   1      49.082  26.455  24.839  1.00  0.00     0.200 A 
ATOM     69  F   UNL A   1      49.914  25.748  26.933  1.00  0.00    -0.200 F 
ATOM     70  F   UNL A   1      50.163  25.954  24.225  1.00  0.00    -0.200 F 
ENDBRANCH  46  60
BRANCH  47  71
ATOM     71  C   UNL A   1      38.694  30.860  30.840  1.00  0.00     0.064 A 
ATOM     72  C   UNL A   1      37.643  31.484  30.153  1.00  0.00     0.173 A 
ATOM     73  C   UNL A   1      38.591  30.752  32.234  1.00  0.00     0.173 A 
ATOM     74  F   UNL A   1      37.710  31.634  28.822  1.00  0.00    -0.203 F 
ATOM     75  C   UNL A   1      36.543  31.996  30.837  1.00  0.00     0.198 A 
ATOM     76  C   UNL A   1      37.478  31.242  32.913  1.00  0.00     0.198 A 
ATOM     77  F   UNL A   1      39.569  30.163  32.937  1.00  0.00    -0.203 F 
ATOM     78  F   UNL A   1      35.574  32.630  30.162  1.00  0.00    -0.200 F 
ATOM     79  C   UNL A   1      36.458  31.870  32.215  1.00  0.00     0.200 A 
ATOM     80  F   UNL A   1      37.394  31.107  34.244  1.00  0.00    -0.200 F 
ATOM     81  F   UNL A   1      35.398  32.362  32.872  1.00  0.00    -0.200 F 
ENDBRANCH  47  71
BRANCH  59  82
ATOM     82  C   UNL A   1      44.935  33.619  29.421  1.00  0.00     0.064 A 
ATOM     83  C   UNL A   1      44.765  34.713  28.560  1.00  0.00     0.173 A 
ATOM     84  C   UNL A   1      45.660  33.822  30.605  1.00  0.00     0.173 A 
ATOM     85  F   UNL A   1      44.092  34.566  27.408  1.00  0.00    -0.203 F 
ATOM     86  C   UNL A   1      45.318  35.955  28.862  1.00  0.00     0.198 A 
ATOM     87  C   UNL A   1      46.188  35.072  30.918  1.00  0.00     0.198 A 
ATOM     88  F   UNL A   1      45.845  32.811  31.467  1.00  0.00    -0.203 F 
ATOM     89  F   UNL A   1      45.179  36.975  28.004  1.00  0.00    -0.200 F 
ATOM     90  C   UNL A   1      46.022  36.135  30.044  1.00  0.00     0.200 A 
ATOM     91  F   UNL A   1      46.857  35.248  32.066  1.00  0.00    -0.200 F 
ATOM     92  F   UNL A   1      46.546  37.333  30.337  1.00  0.00    -0.200 F 
ENDBRANCH  59  82
ENDBRANCH  33  34
ENDBRANCH  26  28
ENDBRANCH  25  26
ENDBRANCH  24  25
ENDBRANCH  23  24
ENDBRANCH   1  23
TORSDOF 17
ENDMDL
MODEL 3
REMARK VINA RESULT:     -10.7      4.860     10.420
REMARK SMILES C[NH2+][C@@]1(C(=O)OCCOCCOC(=O)c2ccc(-c3c4nc(c(-c5c(F)c(F)c(F)c(F)c5F)c5ccc([nH]5)c(-c5c(F)c(F)c(F)c(F)c5F)c5nc(c(-c6c(F)c(F)c(F)c(F)c6F)c6ccc3[nH]6)C=C5)C=C4)cc2)CC[C@H](SC2CCOCC2)C1
REMARK SMILES IDX 9 1 8 2 7 3 6 4 4 5 5 6 3 7 78 8 88 9 79 10 80 11 2 12 1 13
REMARK SMILES IDX 81 16 82 17 83 18 87 19 84 20 86 21 85 22 10 23 11 24 12 25
REMARK SMILES IDX 13 26 14 27 15 28 16 29 77 30 17 31 76 32 18 33 19 34 20 35
REMARK SMILES IDX 70 36 21 37 75 38 69 39 71 40 22 41 74 42 68 43 67 44 23 46
REMARK SMILES IDX 55 47 35 48 54 49 36 50 39 51 53 52 72 53 37 54 38 55 52 57
REMARK SMILES IDX 73 58 40 59 24 60 25 61 33 62 26 63 27 64 31 65 34 66 28 67
REMARK SMILES IDX 29 68 32 69 30 70 56 71 57 72 65 73 58 74 59 75 63 76 66 77
REMARK SMILES IDX 60 78 61 79 64 80 62 81 41 82 42 83 50 84 43 85 44 86 48 87
REMARK SMILES IDX 51 88 45 89 46 90 49 91 47 92
REMARK H PARENT 2 14 2 15 71 45 39 56
REMARK Flexibility Score: inf
ROOT
ATOM      1  O   UNL A   1      32.675  28.867  26.157  1.00  0.00    -0.374 OA
ENDROOT
BRANCH   1   2
ATOM      2  C   UNL A   1      33.853  28.366  25.524  1.00  0.00     0.202 C 
BRANCH   2   3
ATOM      3  C   UNL A   1      33.753  26.961  24.933  1.00  0.00     0.261 C 
BRANCH   3   4
ATOM      4  O   UNL A   1      33.118  26.078  25.864  1.00  0.00    -0.459 OA
BRANCH   4   5
ATOM      5  C   UNL A   1      32.725  24.878  25.372  1.00  0.00     0.368 C 
ATOM      6  O   UNL A   1      33.493  24.062  24.868  1.00  0.00    -0.245 OA
BRANCH   5   7
ATOM      7  C   UNL A   1      31.186  24.646  25.504  1.00  0.00     0.195 C 
ATOM      8  C   UNL A   1      30.776  23.627  24.433  1.00  0.00     0.082 C 
ATOM      9  C   UNL A   1      30.297  25.847  25.104  1.00  0.00     0.095 C 
ATOM     10  C   UNL A   1      30.779  24.469  23.155  1.00  0.00     0.022 C 
ATOM     11  C   UNL A   1      30.191  25.824  23.564  1.00  0.00     0.054 C 
BRANCH   7  12
ATOM     12  N   UNL A   1      30.813  24.264  26.892  1.00  0.00    -0.335 N 
ATOM     13  C   UNL A   1      30.090  23.003  27.016  1.00  0.00     0.331 C 
ATOM     14  H   UNL A   1      31.670  24.192  27.440  1.00  0.00     0.347 HD
ATOM     15  H   UNL A   1      30.177  24.989  27.225  1.00  0.00     0.347 HD
ENDBRANCH   7  12
BRANCH  11  16
ATOM     16  S   UNL A   1      31.028  27.309  22.891  1.00  0.00    -0.155 SA
BRANCH  16  17
ATOM     17  C   UNL A   1      29.778  28.642  22.991  1.00  0.00     0.051 C 
ATOM     18  C   UNL A   1      28.327  28.171  22.924  1.00  0.00     0.043 C 
ATOM     19  C   UNL A   1      30.046  29.771  22.000  1.00  0.00     0.043 C 
ATOM     20  C   UNL A   1      27.402  29.376  23.060  1.00  0.00     0.161 C 
ATOM     21  C   UNL A   1      29.023  30.879  22.200  1.00  0.00     0.161 C 
ATOM     22  O   UNL A   1      27.702  30.358  22.068  1.00  0.00    -0.381 OA
ENDBRANCH  16  17
ENDBRANCH  11  16
ENDBRANCH   5   7
ENDBRANCH   4   5
ENDBRANCH   3   4
ENDBRANCH   2   3
ENDBRANCH   1   2
BRANCH   1  23
ATOM     23  C   UNL A   1      32.041  30.005  25.565  1.00  0.00     0.202 C 
BRANCH  23  24
ATOM     24  C   UNL A   1      31.875  31.239  26.464  1.00  0.00     0.261 C 
BRANCH  24  25
ATOM     25  O   UNL A   1      32.729  31.212  27.622  1.00  0.00    -0.460 OA
BRANCH  25  26
ATOM     26  C   UNL A   1      33.625  32.225  27.696  1.00  0.00     0.338 C 
ATOM     27  O   UNL A   1      33.393  33.428  27.634  1.00  0.00    -0.246 OA
BRANCH  26  28
ATOM     28  C   UNL A   1      34.965  31.717  28.033  1.00  0.00     0.060 A 
ATOM     29  C   UNL A   1      35.089  30.347  28.300  1.00  0.00     0.016 A 
ATOM     30  C   UNL A   1      36.056  32.570  28.204  1.00  0.00     0.016 A 
ATOM     31  C   UNL A   1      36.290  29.831  28.784  1.00  0.00     0.010 A 
ATOM     32  C   UNL A   1      37.262  32.054  28.698  1.00  0.00     0.010 A 
ATOM     33  C   UNL A   1      37.372  30.691  29.025  1.00  0.00    -0.014 A 
BRANCH  33  34
ATOM     34  C   UNL A   1      38.552  30.179  29.767  1.00  0.00     0.031 A 
ATOM     35  C   UNL A   1      38.781  30.640  31.180  1.00  0.00     0.074 A 
ATOM     36  C   UNL A   1      39.381  29.278  29.211  1.00  0.00     0.049 A 
ATOM     37  N   UNL A   1      39.742  30.327  32.012  1.00  0.00    -0.248 NA
ATOM     38  C   UNL A   1      37.793  31.581  31.730  1.00  0.00     0.031 C 
ATOM     39  C   UNL A   1      39.243  28.718  27.869  1.00  0.00     0.029 A 
ATOM     40  N   UNL A   1      40.507  28.675  29.716  1.00  0.00    -0.354 N 
ATOM     41  C   UNL A   1      39.475  31.031  33.180  1.00  0.00     0.074 A 
ATOM     42  C   UNL A   1      38.281  31.812  32.940  1.00  0.00     0.031 C 
ATOM     43  C   UNL A   1      40.250  27.853  27.654  1.00  0.00     0.029 A 
ATOM     44  C   UNL A   1      41.117  27.821  28.831  1.00  0.00     0.049 A 
ATOM     45  H   UNL A   1      40.845  28.838  30.626  1.00  0.00     0.167 HD
ATOM     46  C   UNL A   1      40.158  31.020  34.350  1.00  0.00     0.037 A 
ATOM     47  C   UNL A   1      42.254  27.107  28.955  1.00  0.00     0.037 A 
ATOM     48  C   UNL A   1      41.342  30.241  34.595  1.00  0.00     0.049 A 
ATOM     49  C   UNL A   1      43.033  27.165  30.244  1.00  0.00     0.074 A 
ATOM     50  C   UNL A   1      42.093  30.152  35.755  1.00  0.00     0.029 A 
ATOM     51  N   UNL A   1      41.953  29.419  33.660  1.00  0.00    -0.354 N 
ATOM     52  N   UNL A   1      42.760  27.815  31.349  1.00  0.00    -0.248 NA
ATOM     53  C   UNL A   1      44.279  26.386  30.303  1.00  0.00     0.031 C 
ATOM     54  C   UNL A   1      43.184  29.312  35.506  1.00  0.00     0.029 A 
ATOM     55  C   UNL A   1      43.086  28.840  34.208  1.00  0.00     0.049 A 
ATOM     56  H   UNL A   1      41.629  29.269  32.743  1.00  0.00     0.167 HD
ATOM     57  C   UNL A   1      43.781  27.504  32.239  1.00  0.00     0.074 A 
ATOM     58  C   UNL A   1      44.673  26.596  31.551  1.00  0.00     0.031 C 
ATOM     59  C   UNL A   1      43.961  27.931  33.513  1.00  0.00     0.037 A 
BRANCH  46  60
ATOM     60  C   UNL A   1      39.649  31.899  35.455  1.00  0.00     0.064 A 
ATOM     61  C   UNL A   1      40.098  33.218  35.612  1.00  0.00     0.173 A 
ATOM     62  C   UNL A   1      38.675  31.425  36.345  1.00  0.00     0.173 A 
ATOM     63  F   UNL A   1      41.039  33.713  34.793  1.00  0.00    -0.203 F 
ATOM     64  C   UNL A   1      39.606  34.024  36.636  1.00  0.00     0.198 A 
ATOM     65  C   UNL A   1      38.166  32.241  37.352  1.00  0.00     0.198 A 
ATOM     66  F   UNL A   1      38.210  30.170  36.235  1.00  0.00    -0.203 F 
ATOM     67  F   UNL A   1      40.078  35.268  36.794  1.00  0.00    -0.200 F 
ATOM     68  C   UNL A   1      38.636  33.537  37.500  1.00  0.00     0.200 A 
ATOM     69  F   UNL A   1      37.222  31.773  38.180  1.00  0.00    -0.200 F 
ATOM     70  F   UNL A   1      38.159  34.316  38.482  1.00  0.00    -0.200 F 
ENDBRANCH  46  60
BRANCH  47  71
ATOM     71  C   UNL A   1      42.736  26.279  27.819  1.00  0.00     0.064 A 
ATOM     72  C   UNL A   1      42.357  24.936  27.687  1.00  0.00     0.173 A 
ATOM     73  C   UNL A   1      43.606  26.810  26.855  1.00  0.00     0.173 A 
ATOM     74  F   UNL A   1      41.548  24.377  28.600  1.00  0.00    -0.203 F 
ATOM     75  C   UNL A   1      42.842  24.151  26.644  1.00  0.00     0.198 A 
ATOM     76  C   UNL A   1      44.070  26.031  25.798  1.00  0.00     0.198 A 
ATOM     77  F   UNL A   1      43.998  28.090  26.936  1.00  0.00    -0.203 F 
ATOM     78  F   UNL A   1      42.501  22.857  26.567  1.00  0.00    -0.200 F 
ATOM     79  C   UNL A   1      43.694  24.700  25.697  1.00  0.00     0.200 A 
ATOM     80  F   UNL A   1      44.884  26.568  24.879  1.00  0.00    -0.200 F 
ATOM     81  F   UNL A   1      44.161  23.944  24.693  1.00  0.00    -0.200 F 
ENDBRANCH  47  71
BRANCH  59  82
ATOM     82  C   UNL A   1      45.149  27.399  34.261  1.00  0.00     0.064 A 
ATOM     83  C   UNL A   1      46.373  28.083  34.280  1.00  0.00     0.173 A 
ATOM     84  C   UNL A   1      45.048  26.213  35.005  1.00  0.00     0.173 A 
ATOM     85  F   UNL A   1      46.524  29.214  33.574  1.00  0.00    -0.203 F 
ATOM     86  C   UNL A   1      47.459  27.589  34.999  1.00  0.00     0.198 A 
ATOM     87  C   UNL A   1      46.127  25.736  35.744  1.00  0.00     0.198 A 
ATOM     88  F   UNL A   1      43.898  25.524  35.026  1.00  0.00    -0.203 F 
ATOM     89  F   UNL A   1      48.632  28.238  34.969  1.00  0.00    -0.200 F 
ATOM     90  C   UNL A   1      47.333  26.421  35.736  1.00  0.00     0.200 A 
ATOM     91  F   UNL A   1      46.000  24.614  36.466  1.00  0.00    -0.200 F 
ATOM     92  F   UNL A   1      48.376  25.951  36.433  1.00  0.00    -0.200 F 
ENDBRANCH  59  82
ENDBRANCH  33  34
ENDBRANCH  26  28
ENDBRANCH  25  26
ENDBRANCH  24  25
ENDBRANCH  23  24
ENDBRANCH   1  23
TORSDOF 17
ENDMDL
