MODEL 1
REMARK VINA RESULT:     -11.4      0.000      0.000
REMARK SMILES O=C(OCCOCCOC(=O)[C@H]1C[C@H]2CCCC[C@@H]2[N@@H+]1Cc1ccno1)c1ccc(-c2c3nc(c(-c4c(F)c(F)c(F)c(F)c4F)c4ccc([nH]4)c(-c4c(F)c(F)c(F)c(F)c4F)c4nc(c(-c5c(F)c(F)c(F)c(F)c5F)c5ccc2[nH]5)C=C4)C=C3)cc1
REMARK SMILES IDX 6 1 5 2 4 3 3 4 2 5 1 6 27 7 28 8 89 9 29 10 88 11 30 12
REMARK SMILES IDX 31 13 32 14 82 15 33 16 87 17 81 18 83 19 34 20 86 21 80 22
REMARK SMILES IDX 79 23 35 25 67 26 47 27 66 28 48 29 51 30 65 31 84 32 49 33
REMARK SMILES IDX 50 34 64 36 85 37 52 38 36 39 37 40 45 41 38 42 39 43 43 44
REMARK SMILES IDX 46 45 40 46 41 47 44 48 42 49 68 50 69 51 77 52 70 53 71 54
REMARK SMILES IDX 75 55 78 56 72 57 73 58 76 59 74 60 53 61 54 62 62 63 55 64
REMARK SMILES IDX 56 65 60 66 63 67 57 68 58 69 61 70 59 71 7 72 8 73 9 74
REMARK SMILES IDX 10 75 11 76 12 77 13 78 20 79 14 80 19 81 15 83 18 84 16 85
REMARK SMILES IDX 17 86 21 87 22 88 23 89 26 90 24 91 25 92
REMARK H PARENT 83 24 51 35 20 82
REMARK Flexibility Score: inf
ROOT
ATOM      1  O   UNL A   1      35.129  22.553  25.613  1.00  0.00    -0.374 OA
ENDROOT
BRANCH   1   2
ATOM      2  C   UNL A   1      35.812  22.213  24.402  1.00  0.00     0.202 C 
BRANCH   2   3
ATOM      3  C   UNL A   1      36.968  21.217  24.532  1.00  0.00     0.261 C 
BRANCH   3   4
ATOM      4  O   UNL A   1      37.599  21.352  25.816  1.00  0.00    -0.460 OA
BRANCH   4   5
ATOM      5  C   UNL A   1      38.918  21.470  26.093  1.00  0.00     0.338 C 
ATOM      6  O   UNL A   1      39.651  20.500  25.909  1.00  0.00    -0.246 OA
BRANCH   5   7
ATOM      7  C   UNL A   1      39.541  22.728  26.605  1.00  0.00     0.060 A 
ATOM      8  C   UNL A   1      39.146  24.014  26.240  1.00  0.00     0.016 A 
ATOM      9  C   UNL A   1      40.545  22.601  27.581  1.00  0.00     0.016 A 
ATOM     10  C   UNL A   1      39.769  25.136  26.747  1.00  0.00     0.010 A 
ATOM     11  C   UNL A   1      41.146  23.732  28.144  1.00  0.00     0.010 A 
ATOM     12  C   UNL A   1      40.765  25.002  27.708  1.00  0.00    -0.014 A 
BRANCH  12  13
ATOM     13  C   UNL A   1      41.417  26.247  28.138  1.00  0.00     0.031 A 
ATOM     14  C   UNL A   1      42.809  26.516  27.665  1.00  0.00     0.074 A 
ATOM     15  C   UNL A   1      40.665  27.195  28.725  1.00  0.00     0.049 A 
ATOM     16  N   UNL A   1      43.548  27.576  27.838  1.00  0.00    -0.248 NA
ATOM     17  C   UNL A   1      43.444  25.460  26.857  1.00  0.00     0.031 C 
ATOM     18  C   UNL A   1      39.247  27.044  29.071  1.00  0.00     0.029 A 
ATOM     19  N   UNL A   1      40.956  28.484  29.070  1.00  0.00    -0.354 N 
ATOM     20  C   UNL A   1      44.736  27.313  27.172  1.00  0.00     0.074 A 
ATOM     21  C   UNL A   1      44.627  25.994  26.594  1.00  0.00     0.031 C 
ATOM     22  C   UNL A   1      38.784  28.213  29.539  1.00  0.00     0.029 A 
ATOM     23  C   UNL A   1      39.884  29.167  29.593  1.00  0.00     0.049 A 
ATOM     24  H   UNL A   1      41.848  28.886  28.955  1.00  0.00     0.167 HD
ATOM     25  C   UNL A   1      45.820  28.113  27.066  1.00  0.00     0.037 A 
ATOM     26  C   UNL A   1      39.822  30.418  30.083  1.00  0.00     0.037 A 
ATOM     27  C   UNL A   1      45.899  29.415  27.670  1.00  0.00     0.049 A 
ATOM     28  C   UNL A   1      41.080  31.243  30.047  1.00  0.00     0.074 A 
ATOM     29  C   UNL A   1      46.978  30.273  27.752  1.00  0.00     0.029 A 
ATOM     30  N   UNL A   1      44.830  30.046  28.296  1.00  0.00    -0.354 N 
ATOM     31  N   UNL A   1      42.244  30.949  29.516  1.00  0.00    -0.248 NA
ATOM     32  C   UNL A   1      41.026  32.559  30.691  1.00  0.00     0.031 C 
ATOM     33  C   UNL A   1      46.571  31.411  28.458  1.00  0.00     0.029 A 
ATOM     34  C   UNL A   1      45.226  31.281  28.777  1.00  0.00     0.049 A 
ATOM     35  H   UNL A   1      43.926  29.670  28.384  1.00  0.00     0.167 HD
ATOM     36  C   UNL A   1      43.062  32.040  29.763  1.00  0.00     0.074 A 
ATOM     37  C   UNL A   1      42.247  33.018  30.456  1.00  0.00     0.031 C 
ATOM     38  C   UNL A   1      44.373  32.218  29.466  1.00  0.00     0.037 A 
BRANCH  25  39
ATOM     39  C   UNL A   1      47.007  27.558  26.342  1.00  0.00     0.064 A 
ATOM     40  C   UNL A   1      48.025  26.863  27.012  1.00  0.00     0.173 A 
ATOM     41  C   UNL A   1      47.148  27.757  24.960  1.00  0.00     0.173 A 
ATOM     42  F   UNL A   1      47.954  26.677  28.340  1.00  0.00    -0.203 F 
ATOM     43  C   UNL A   1      49.149  26.406  26.329  1.00  0.00     0.198 A 
ATOM     44  C   UNL A   1      48.263  27.280  24.277  1.00  0.00     0.198 A 
ATOM     45  F   UNL A   1      46.210  28.429  24.276  1.00  0.00    -0.203 F 
ATOM     46  F   UNL A   1      50.134  25.789  26.997  1.00  0.00    -0.200 F 
ATOM     47  C   UNL A   1      49.265  26.611  24.962  1.00  0.00     0.200 A 
ATOM     48  F   UNL A   1      48.375  27.483  22.956  1.00  0.00    -0.200 F 
ATOM     49  F   UNL A   1      50.352  26.180  24.307  1.00  0.00    -0.200 F 
ENDBRANCH  25  39
BRANCH  26  50
ATOM     50  C   UNL A   1      38.569  30.925  30.705  1.00  0.00     0.064 A 
ATOM     51  C   UNL A   1      37.550  31.509  29.942  1.00  0.00     0.173 A 
ATOM     52  C   UNL A   1      38.379  30.861  32.096  1.00  0.00     0.173 A 
ATOM     53  F   UNL A   1      37.687  31.619  28.613  1.00  0.00    -0.203 F 
ATOM     54  C   UNL A   1      36.405  32.030  30.544  1.00  0.00     0.198 A 
ATOM     55  C   UNL A   1      37.220  31.349  32.694  1.00  0.00     0.198 A 
ATOM     56  F   UNL A   1      39.323  30.319  32.880  1.00  0.00    -0.203 F 
ATOM     57  F   UNL A   1      35.473  32.637  29.797  1.00  0.00    -0.200 F 
ATOM     58  C   UNL A   1      36.238  31.944  31.920  1.00  0.00     0.200 A 
ATOM     59  F   UNL A   1      37.060  31.251  34.021  1.00  0.00    -0.200 F 
ATOM     60  F   UNL A   1      35.139  32.448  32.497  1.00  0.00    -0.200 F 
ENDBRANCH  26  50
BRANCH  38  61
ATOM     61  C   UNL A   1      44.983  33.517  29.889  1.00  0.00     0.064 A 
ATOM     62  C   UNL A   1      44.960  34.639  29.049  1.00  0.00     0.173 A 
ATOM     63  C   UNL A   1      45.570  33.647  31.156  1.00  0.00     0.173 A 
ATOM     64  F   UNL A   1      44.423  34.554  27.822  1.00  0.00    -0.203 F 
ATOM     65  C   UNL A   1      45.532  35.842  29.452  1.00  0.00     0.198 A 
ATOM     66  C   UNL A   1      46.115  34.859  31.566  1.00  0.00     0.198 A 
ATOM     67  F   UNL A   1      45.608  32.601  31.994  1.00  0.00    -0.203 F 
ATOM     68  F   UNL A   1      45.546  36.888  28.615  1.00  0.00    -0.200 F 
ATOM     69  C   UNL A   1      46.103  35.951  30.711  1.00  0.00     0.200 A 
ATOM     70  F   UNL A   1      46.656  34.968  32.786  1.00  0.00    -0.200 F 
ATOM     71  F   UNL A   1      46.651  37.111  31.098  1.00  0.00    -0.200 F 
ENDBRANCH  38  61
ENDBRANCH  12  13
ENDBRANCH   5   7
ENDBRANCH   4   5
ENDBRANCH   3   4
ENDBRANCH   2   3
ENDBRANCH   1   2
BRANCH   1  72
ATOM     72  C   UNL A   1      34.238  21.558  26.136  1.00  0.00     0.202 C 
BRANCH  72  73
ATOM     73  C   UNL A   1      33.263  22.202  27.128  1.00  0.00     0.261 C 
BRANCH  73  74
ATOM     74  O   UNL A   1      33.009  23.541  26.686  1.00  0.00    -0.459 OA
BRANCH  74  75
ATOM     75  C   UNL A   1      31.700  23.915  26.755  1.00  0.00     0.365 C 
ATOM     76  O   UNL A   1      30.855  23.365  27.458  1.00  0.00    -0.245 OA
BRANCH  75  77
ATOM     77  C   UNL A   1      31.411  25.141  25.878  1.00  0.00     0.296 C 
ATOM     78  C   UNL A   1      30.660  26.290  26.592  1.00  0.00     0.087 C 
ATOM     79  N   UNL A   1      32.696  25.717  25.405  1.00  0.00    -0.314 N 
ATOM     80  C   UNL A   1      31.554  27.501  26.436  1.00  0.00     0.054 C 
ATOM     81  C   UNL A   1      32.929  26.873  26.272  1.00  0.00     0.188 C 
ATOM     82  H   UNL A   1      33.500  25.098  25.507  1.00  0.00     0.349 HD
ATOM     83  C   UNL A   1      31.535  28.518  27.566  1.00  0.00     0.010 C 
ATOM     84  C   UNL A   1      33.977  27.924  25.933  1.00  0.00     0.065 C 
ATOM     85  C   UNL A   1      32.581  29.599  27.277  1.00  0.00     0.001 C 
ATOM     86  C   UNL A   1      33.975  29.007  27.024  1.00  0.00     0.006 C 
BRANCH  79  87
ATOM     87  C   UNL A   1      32.760  25.873  23.946  1.00  0.00     0.342 C 
BRANCH  87  88
ATOM     88  C   UNL A   1      32.874  24.632  23.130  1.00  0.00     0.190 A 
ATOM     89  C   UNL A   1      32.400  23.346  23.257  1.00  0.00     0.075 A 
ATOM     90  O   UNL A   1      33.590  24.723  21.972  1.00  0.00    -0.355 OA
ATOM     91  C   UNL A   1      32.922  22.674  22.139  1.00  0.00     0.158 A 
ATOM     92  N   UNL A   1      33.638  23.483  21.358  1.00  0.00    -0.088 NA
ENDBRANCH  87  88
ENDBRANCH  79  87
ENDBRANCH  75  77
ENDBRANCH  74  75
ENDBRANCH  73  74
ENDBRANCH  72  73
ENDBRANCH   1  72
TORSDOF 16
ENDMDL
MODEL 2
REMARK VINA RESULT:     -11.4      0.628      2.042
REMARK SMILES O=C(OCCOCCOC(=O)[C@H]1C[C@H]2CCCC[C@@H]2[N@@H+]1Cc1ccno1)c1ccc(-c2c3nc(c(-c4c(F)c(F)c(F)c(F)c4F)c4ccc([nH]4)c(-c4c(F)c(F)c(F)c(F)c4F)c4nc(c(-c5c(F)c(F)c(F)c(F)c5F)c5ccc2[nH]5)C=C4)C=C3)cc1
REMARK SMILES IDX 6 1 5 2 4 3 3 4 2 5 1 6 27 7 28 8 89 9 29 10 88 11 30 12
REMARK SMILES IDX 31 13 32 14 82 15 33 16 87 17 81 18 83 19 34 20 86 21 80 22
REMARK SMILES IDX 79 23 35 25 67 26 47 27 66 28 48 29 51 30 65 31 84 32 49 33
REMARK SMILES IDX 50 34 64 36 85 37 52 38 36 39 37 40 45 41 38 42 39 43 43 44
REMARK SMILES IDX 46 45 40 46 41 47 44 48 42 49 68 50 69 51 77 52 70 53 71 54
REMARK SMILES IDX 75 55 78 56 72 57 73 58 76 59 74 60 53 61 54 62 62 63 55 64
REMARK SMILES IDX 56 65 60 66 63 67 57 68 58 69 61 70 59 71 7 72 8 73 9 74
REMARK SMILES IDX 10 75 11 76 12 77 13 78 20 79 14 80 19 81 15 83 18 84 16 85
REMARK SMILES IDX 17 86 21 87 22 88 23 89 26 90 24 91 25 92
REMARK H PARENT 83 24 51 35 20 82
REMARK Flexibility Score: inf
ROOT
ATOM      1  O   UNL A   1      36.085  22.570  25.733  1.00  0.00    -0.374 OA
ENDROOT
BRANCH   1   2
ATOM      2  C   UNL A   1      36.769  22.073  24.579  1.00  0.00     0.202 C 
BRANCH   2   3
ATOM      3  C   UNL A   1      37.713  20.889  24.806  1.00  0.00     0.261 C 
BRANCH   3   4
ATOM      4  O   UNL A   1      38.311  20.973  26.110  1.00  0.00    -0.460 OA
BRANCH   4   5
ATOM      5  C   UNL A   1      39.610  21.184  26.424  1.00  0.00     0.338 C 
ATOM      6  O   UNL A   1      40.402  20.248  26.330  1.00  0.00    -0.246 OA
BRANCH   5   7
ATOM      7  C   UNL A   1      40.143  22.506  26.873  1.00  0.00     0.060 A 
ATOM      8  C   UNL A   1      39.683  23.741  26.421  1.00  0.00     0.016 A 
ATOM      9  C   UNL A   1      41.125  22.499  27.878  1.00  0.00     0.016 A 
ATOM     10  C   UNL A   1      40.223  24.928  26.873  1.00  0.00     0.010 A 
ATOM     11  C   UNL A   1      41.643  23.696  28.385  1.00  0.00     0.010 A 
ATOM     12  C   UNL A   1      41.199  24.912  27.864  1.00  0.00    -0.014 A 
BRANCH  12  13
ATOM     13  C   UNL A   1      41.764  26.217  28.232  1.00  0.00     0.031 A 
ATOM     14  C   UNL A   1      43.135  26.558  27.743  1.00  0.00     0.074 A 
ATOM     15  C   UNL A   1      40.948  27.139  28.775  1.00  0.00     0.049 A 
ATOM     16  N   UNL A   1      43.800  27.674  27.864  1.00  0.00    -0.248 NA
ATOM     17  C   UNL A   1      43.842  25.511  26.985  1.00  0.00     0.031 C 
ATOM     18  C   UNL A   1      39.544  26.908  29.131  1.00  0.00     0.029 A 
ATOM     19  N   UNL A   1      41.151  28.460  29.057  1.00  0.00    -0.354 N 
ATOM     20  C   UNL A   1      45.003  27.460  27.208  1.00  0.00     0.074 A 
ATOM     21  C   UNL A   1      44.985  26.111  26.694  1.00  0.00     0.031 C 
ATOM     22  C   UNL A   1      39.001  28.064  29.544  1.00  0.00     0.029 A 
ATOM     23  C   UNL A   1      40.034  29.092  29.549  1.00  0.00     0.049 A 
ATOM     24  H   UNL A   1      42.013  28.916  28.921  1.00  0.00     0.167 HD
ATOM     25  C   UNL A   1      46.030  28.327  27.061  1.00  0.00     0.037 A 
ATOM     26  C   UNL A   1      39.886  30.358  29.979  1.00  0.00     0.037 A 
ATOM     27  C   UNL A   1      46.019  29.659  27.602  1.00  0.00     0.049 A 
ATOM     28  C   UNL A   1      41.084  31.264  29.901  1.00  0.00     0.074 A 
ATOM     29  C   UNL A   1      47.037  30.591  27.641  1.00  0.00     0.029 A 
ATOM     30  N   UNL A   1      44.909  30.244  28.201  1.00  0.00    -0.354 N 
ATOM     31  N   UNL A   1      42.267  31.026  29.382  1.00  0.00    -0.248 NA
ATOM     32  C   UNL A   1      40.940  32.602  30.482  1.00  0.00     0.031 C 
ATOM     33  C   UNL A   1      46.553  31.731  28.293  1.00  0.00     0.029 A 
ATOM     34  C   UNL A   1      45.219  31.525  28.621  1.00  0.00     0.049 A 
ATOM     35  H   UNL A   1      44.032  29.812  28.309  1.00  0.00     0.167 HD
ATOM     36  C   UNL A   1      43.008  32.180  29.575  1.00  0.00     0.074 A 
ATOM     37  C   UNL A   1      42.127  33.133  30.222  1.00  0.00     0.031 C 
ATOM     38  C   UNL A   1      44.304  32.433  29.266  1.00  0.00     0.037 A 
BRANCH  25  39
ATOM     39  C   UNL A   1      47.253  27.820  26.362  1.00  0.00     0.064 A 
ATOM     40  C   UNL A   1      47.342  27.780  24.962  1.00  0.00     0.173 A 
ATOM     41  C   UNL A   1      48.338  27.330  27.103  1.00  0.00     0.173 A 
ATOM     42  F   UNL A   1      46.315  28.204  24.208  1.00  0.00    -0.203 F 
ATOM     43  C   UNL A   1      48.464  27.249  24.332  1.00  0.00     0.198 A 
ATOM     44  C   UNL A   1      49.467  26.819  26.469  1.00  0.00     0.198 A 
ATOM     45  F   UNL A   1      48.296  27.332  28.443  1.00  0.00    -0.203 F 
ATOM     46  F   UNL A   1      48.508  27.172  22.994  1.00  0.00    -0.200 F 
ATOM     47  C   UNL A   1      49.527  26.773  25.085  1.00  0.00     0.200 A 
ATOM     48  F   UNL A   1      50.492  26.357  27.199  1.00  0.00    -0.200 F 
ATOM     49  F   UNL A   1      50.603  26.254  24.478  1.00  0.00    -0.200 F 
ENDBRANCH  25  39
BRANCH  26  50
ATOM     50  C   UNL A   1      38.600  30.807  30.579  1.00  0.00     0.064 A 
ATOM     51  C   UNL A   1      38.402  30.833  31.966  1.00  0.00     0.173 A 
ATOM     52  C   UNL A   1      37.523  31.195  29.765  1.00  0.00     0.173 A 
ATOM     53  F   UNL A   1      39.387  30.450  32.791  1.00  0.00    -0.203 F 
ATOM     54  C   UNL A   1      37.174  31.204  32.513  1.00  0.00     0.198 A 
ATOM     55  C   UNL A   1      36.307  31.600  30.312  1.00  0.00     0.198 A 
ATOM     56  F   UNL A   1      37.650  31.185  28.429  1.00  0.00    -0.203 F 
ATOM     57  F   UNL A   1      36.993  31.162  33.840  1.00  0.00    -0.200 F 
ATOM     58  C   UNL A   1      36.129  31.593  31.686  1.00  0.00     0.200 A 
ATOM     59  F   UNL A   1      35.308  31.986  29.508  1.00  0.00    -0.200 F 
ATOM     60  F   UNL A   1      34.949  31.946  32.212  1.00  0.00    -0.200 F 
ENDBRANCH  26  50
BRANCH  38  61
ATOM     61  C   UNL A   1      44.823  33.790  29.626  1.00  0.00     0.064 A 
ATOM     62  C   UNL A   1      45.439  34.028  30.863  1.00  0.00     0.173 A 
ATOM     63  C   UNL A   1      44.725  34.852  28.716  1.00  0.00     0.173 A 
ATOM     64  F   UNL A   1      45.537  33.044  31.770  1.00  0.00    -0.203 F 
ATOM     65  C   UNL A   1      45.915  35.294  31.188  1.00  0.00     0.198 A 
ATOM     66  C   UNL A   1      45.229  36.109  29.033  1.00  0.00     0.198 A 
ATOM     67  F   UNL A   1      44.149  34.666  27.519  1.00  0.00    -0.203 F 
ATOM     68  F   UNL A   1      46.455  35.515  32.394  1.00  0.00    -0.200 F 
ATOM     69  C   UNL A   1      45.815  36.330  30.271  1.00  0.00     0.200 A 
ATOM     70  F   UNL A   1      45.142  37.107  28.144  1.00  0.00    -0.200 F 
ATOM     71  F   UNL A   1      46.276  37.548  30.585  1.00  0.00    -0.200 F 
ENDBRANCH  38  61
ENDBRANCH  12  13
ENDBRANCH   5   7
ENDBRANCH   4   5
ENDBRANCH   3   4
ENDBRANCH   2   3
ENDBRANCH   1   2
BRANCH   1  72
ATOM     72  C   UNL A   1      34.846  21.925  26.060  1.00  0.00     0.202 C 
BRANCH  72  73
ATOM     73  C   UNL A   1      34.075  22.766  27.084  1.00  0.00     0.261 C 
BRANCH  73  74
ATOM     74  O   UNL A   1      33.752  24.018  26.467  1.00  0.00    -0.459 OA
BRANCH  74  75
ATOM     75  C   UNL A   1      32.438  24.368  26.565  1.00  0.00     0.365 C 
ATOM     76  O   UNL A   1      31.623  23.813  27.296  1.00  0.00    -0.245 OA
BRANCH  75  77
ATOM     77  C   UNL A   1      32.103  25.577  25.679  1.00  0.00     0.296 C 
ATOM     78  C   UNL A   1      31.156  26.616  26.326  1.00  0.00     0.087 C 
ATOM     79  N   UNL A   1      33.356  26.305  25.354  1.00  0.00    -0.314 N 
ATOM     80  C   UNL A   1      31.917  27.923  26.282  1.00  0.00     0.054 C 
ATOM     81  C   UNL A   1      33.364  27.457  26.256  1.00  0.00     0.188 C 
ATOM     82  H   UNL A   1      34.211  25.779  25.531  1.00  0.00     0.349 HD
ATOM     83  C   UNL A   1      31.665  28.902  27.417  1.00  0.00     0.010 C 
ATOM     84  C   UNL A   1      34.315  28.627  26.045  1.00  0.00     0.065 C 
ATOM     85  C   UNL A   1      32.605  30.100  27.256  1.00  0.00     0.001 C 
ATOM     86  C   UNL A   1      34.076  29.676  27.144  1.00  0.00     0.006 C 
BRANCH  79  87
ATOM     87  C   UNL A   1      33.554  26.505  23.912  1.00  0.00     0.342 C 
BRANCH  87  88
ATOM     88  C   UNL A   1      33.492  25.299  23.039  1.00  0.00     0.190 A 
ATOM     89  C   UNL A   1      32.655  24.880  22.030  1.00  0.00     0.075 A 
ATOM     90  O   UNL A   1      34.464  24.359  23.222  1.00  0.00    -0.355 OA
ATOM     91  C   UNL A   1      33.157  23.618  21.668  1.00  0.00     0.158 A 
ATOM     92  N   UNL A   1      34.241  23.289  22.372  1.00  0.00    -0.088 NA
ENDBRANCH  87  88
ENDBRANCH  79  87
ENDBRANCH  75  77
ENDBRANCH  74  75
ENDBRANCH  73  74
ENDBRANCH  72  73
ENDBRANCH   1  72
TORSDOF 16
ENDMDL
MODEL 3
REMARK VINA RESULT:     -11.4      2.851      8.596
REMARK SMILES O=C(OCCOCCOC(=O)[C@H]1C[C@H]2CCCC[C@@H]2[N@@H+]1Cc1ccno1)c1ccc(-c2c3nc(c(-c4c(F)c(F)c(F)c(F)c4F)c4ccc([nH]4)c(-c4c(F)c(F)c(F)c(F)c4F)c4nc(c(-c5c(F)c(F)c(F)c(F)c5F)c5ccc2[nH]5)C=C4)C=C3)cc1
REMARK SMILES IDX 6 1 5 2 4 3 3 4 2 5 1 6 27 7 28 8 89 9 29 10 88 11 30 12
REMARK SMILES IDX 31 13 32 14 82 15 33 16 87 17 81 18 83 19 34 20 86 21 80 22
REMARK SMILES IDX 79 23 35 25 67 26 47 27 66 28 48 29 51 30 65 31 84 32 49 33
REMARK SMILES IDX 50 34 64 36 85 37 52 38 36 39 37 40 45 41 38 42 39 43 43 44
REMARK SMILES IDX 46 45 40 46 41 47 44 48 42 49 68 50 69 51 77 52 70 53 71 54
REMARK SMILES IDX 75 55 78 56 72 57 73 58 76 59 74 60 53 61 54 62 62 63 55 64
REMARK SMILES IDX 56 65 60 66 63 67 57 68 58 69 61 70 59 71 7 72 8 73 9 74
REMARK SMILES IDX 10 75 11 76 12 77 13 78 20 79 14 80 19 81 15 83 18 84 16 85
REMARK SMILES IDX 17 86 21 87 22 88 23 89 26 90 24 91 25 92
REMARK H PARENT 83 24 51 35 20 82
REMARK Flexibility Score: inf
ROOT
ATOM      1  O   UNL A   1      41.621  21.097  26.492  1.00  0.00    -0.374 OA
ENDROOT
BRANCH   1   2
ATOM      2  C   UNL A   1      41.349  19.743  26.118  1.00  0.00     0.202 C 
BRANCH   2   3
ATOM      3  C   UNL A   1      42.556  18.805  26.042  1.00  0.00     0.261 C 
BRANCH   3   4
ATOM      4  O   UNL A   1      43.246  18.981  24.794  1.00  0.00    -0.460 OA
BRANCH   4   5
ATOM      5  C   UNL A   1      44.395  19.657  24.560  1.00  0.00     0.338 C 
ATOM      6  O   UNL A   1      45.330  19.066  24.023  1.00  0.00    -0.246 OA
BRANCH   5   7
ATOM      7  C   UNL A   1      44.588  21.096  24.911  1.00  0.00     0.060 A 
ATOM      8  C   UNL A   1      44.145  22.167  24.139  1.00  0.00     0.016 A 
ATOM      9  C   UNL A   1      45.195  21.383  26.146  1.00  0.00     0.016 A 
ATOM     10  C   UNL A   1      44.361  23.476  24.519  1.00  0.00     0.010 A 
ATOM     11  C   UNL A   1      45.372  22.705  26.570  1.00  0.00     0.010 A 
ATOM     12  C   UNL A   1      44.967  23.752  25.740  1.00  0.00    -0.014 A 
BRANCH  12  13
ATOM     13  C   UNL A   1      45.219  25.171  26.028  1.00  0.00     0.031 A 
ATOM     14  C   UNL A   1      44.133  25.964  26.681  1.00  0.00     0.074 A 
ATOM     15  C   UNL A   1      46.479  25.631  25.925  1.00  0.00     0.049 A 
ATOM     16  N   UNL A   1      44.155  27.196  27.108  1.00  0.00    -0.248 NA
ATOM     17  C   UNL A   1      42.857  25.264  26.914  1.00  0.00     0.031 C 
ATOM     18  C   UNL A   1      47.620  24.848  25.440  1.00  0.00     0.029 A 
ATOM     19  N   UNL A   1      47.026  26.832  26.282  1.00  0.00    -0.354 N 
ATOM     20  C   UNL A   1      42.898  27.422  27.651  1.00  0.00     0.074 A 
ATOM     21  C   UNL A   1      42.133  26.207  27.497  1.00  0.00     0.031 C 
ATOM     22  C   UNL A   1      48.739  25.577  25.571  1.00  0.00     0.029 A 
ATOM     23  C   UNL A   1      48.384  26.896  26.079  1.00  0.00     0.049 A 
ATOM     24  H   UNL A   1      46.499  27.578  26.648  1.00  0.00     0.167 HD
ATOM     25  C   UNL A   1      42.435  28.557  28.221  1.00  0.00     0.037 A 
ATOM     26  C   UNL A   1      49.229  27.925  26.262  1.00  0.00     0.037 A 
ATOM     27  C   UNL A   1      43.222  29.754  28.341  1.00  0.00     0.049 A 
ATOM     28  C   UNL A   1      48.656  29.210  26.797  1.00  0.00     0.074 A 
ATOM     29  C   UNL A   1      42.838  31.007  28.775  1.00  0.00     0.029 A 
ATOM     30  N   UNL A   1      44.573  29.830  28.023  1.00  0.00    -0.354 N 
ATOM     31  N   UNL A   1      47.434  29.461  27.205  1.00  0.00    -0.248 NA
ATOM     32  C   UNL A   1      49.566  30.356  26.879  1.00  0.00     0.031 C 
ATOM     33  C   UNL A   1      43.951  31.853  28.689  1.00  0.00     0.029 A 
ATOM     34  C   UNL A   1      45.038  31.114  28.243  1.00  0.00     0.049 A 
ATOM     35  H   UNL A   1      45.118  29.082  27.691  1.00  0.00     0.167 HD
ATOM     36  C   UNL A   1      47.426  30.792  27.590  1.00  0.00     0.074 A 
ATOM     37  C   UNL A   1      48.777  31.283  27.404  1.00  0.00     0.031 C 
ATOM     38  C   UNL A   1      46.396  31.553  28.038  1.00  0.00     0.037 A 
BRANCH  25  39
ATOM     39  C   UNL A   1      41.007  28.558  28.670  1.00  0.00     0.064 A 
ATOM     40  C   UNL A   1      39.963  28.947  27.817  1.00  0.00     0.173 A 
ATOM     41  C   UNL A   1      40.681  28.202  29.987  1.00  0.00     0.173 A 
ATOM     42  F   UNL A   1      40.227  29.330  26.558  1.00  0.00    -0.203 F 
ATOM     43  C   UNL A   1      38.648  28.997  28.272  1.00  0.00     0.198 A 
ATOM     44  C   UNL A   1      39.363  28.234  30.432  1.00  0.00     0.198 A 
ATOM     45  F   UNL A   1      41.644  27.839  30.846  1.00  0.00    -0.203 F 
ATOM     46  F   UNL A   1      37.672  29.420  27.456  1.00  0.00    -0.200 F 
ATOM     47  C   UNL A   1      38.349  28.637  29.578  1.00  0.00     0.200 A 
ATOM     48  F   UNL A   1      39.076  27.889  31.696  1.00  0.00    -0.200 F 
ATOM     49  F   UNL A   1      37.084  28.696  30.018  1.00  0.00    -0.200 F 
ENDBRANCH  25  39
BRANCH  26  50
ATOM     50  C   UNL A   1      50.661  27.807  25.872  1.00  0.00     0.064 A 
ATOM     51  C   UNL A   1      51.077  27.942  24.542  1.00  0.00     0.173 A 
ATOM     52  C   UNL A   1      51.647  27.524  26.833  1.00  0.00     0.173 A 
ATOM     53  F   UNL A   1      50.177  28.188  23.579  1.00  0.00    -0.203 F 
ATOM     54  C   UNL A   1      52.415  27.775  24.184  1.00  0.00     0.198 A 
ATOM     55  C   UNL A   1      52.988  27.392  26.480  1.00  0.00     0.198 A 
ATOM     56  F   UNL A   1      51.308  27.378  28.123  1.00  0.00    -0.203 F 
ATOM     57  F   UNL A   1      52.776  27.849  22.895  1.00  0.00    -0.200 F 
ATOM     58  C   UNL A   1      53.370  27.505  25.154  1.00  0.00     0.200 A 
ATOM     59  F   UNL A   1      53.906  27.146  27.424  1.00  0.00    -0.200 F 
ATOM     60  F   UNL A   1      54.654  27.341  24.808  1.00  0.00    -0.200 F 
ENDBRANCH  26  50
BRANCH  38  61
ATOM     61  C   UNL A   1      46.712  32.980  28.356  1.00  0.00     0.064 A 
ATOM     62  C   UNL A   1      47.098  33.370  29.646  1.00  0.00     0.173 A 
ATOM     63  C   UNL A   1      46.651  33.961  27.356  1.00  0.00     0.173 A 
ATOM     64  F   UNL A   1      47.152  32.467  30.638  1.00  0.00    -0.203 F 
ATOM     65  C   UNL A   1      47.386  34.701  29.931  1.00  0.00     0.198 A 
ATOM     66  C   UNL A   1      46.968  35.285  27.637  1.00  0.00     0.198 A 
ATOM     67  F   UNL A   1      46.293  33.631  26.106  1.00  0.00    -0.203 F 
ATOM     68  F   UNL A   1      47.704  35.062  31.182  1.00  0.00    -0.200 F 
ATOM     69  C   UNL A   1      47.327  35.655  28.926  1.00  0.00     0.200 A 
ATOM     70  F   UNL A   1      46.922  36.205  26.665  1.00  0.00    -0.200 F 
ATOM     71  F   UNL A   1      47.607  36.935  29.202  1.00  0.00    -0.200 F 
ENDBRANCH  38  61
ENDBRANCH  12  13
ENDBRANCH   5   7
ENDBRANCH   4   5
ENDBRANCH   3   4
ENDBRANCH   2   3
ENDBRANCH   1   2
BRANCH   1  72
ATOM     72  C   UNL A   1      40.708  22.086  25.996  1.00  0.00     0.202 C 
BRANCH  72  73
ATOM     73  C   UNL A   1      39.292  21.789  26.502  1.00  0.00     0.261 C 
BRANCH  73  74
ATOM     74  O   UNL A   1      38.380  22.045  25.426  1.00  0.00    -0.459 OA
BRANCH  74  75
ATOM     75  C   UNL A   1      37.515  21.023  25.172  1.00  0.00     0.365 C 
ATOM     76  O   UNL A   1      37.825  19.967  24.626  1.00  0.00    -0.245 OA
BRANCH  75  77
ATOM     77  C   UNL A   1      36.102  21.331  25.691  1.00  0.00     0.296 C 
ATOM     78  C   UNL A   1      35.875  22.798  26.126  1.00  0.00     0.087 C 
ATOM     79  N   UNL A   1      35.117  21.061  24.613  1.00  0.00    -0.314 N 
ATOM     80  C   UNL A   1      34.707  23.279  25.292  1.00  0.00     0.054 C 
ATOM     81  C   UNL A   1      34.787  22.379  24.069  1.00  0.00     0.188 C 
ATOM     82  H   UNL A   1      35.476  20.499  23.842  1.00  0.00     0.349 HD
ATOM     83  C   UNL A   1      34.700  24.749  24.904  1.00  0.00     0.010 C 
ATOM     84  C   UNL A   1      33.587  22.585  23.154  1.00  0.00     0.065 C 
ATOM     85  C   UNL A   1      33.512  25.011  23.974  1.00  0.00     0.001 C 
ATOM     86  C   UNL A   1      33.503  24.069  22.761  1.00  0.00     0.006 C 
BRANCH  79  87
ATOM     87  C   UNL A   1      34.041  20.150  25.025  1.00  0.00     0.342 C 
BRANCH  87  88
ATOM     88  C   UNL A   1      33.931  18.851  24.304  1.00  0.00     0.190 A 
ATOM     89  C   UNL A   1      34.697  17.709  24.251  1.00  0.00     0.075 A 
ATOM     90  O   UNL A   1      32.838  18.683  23.505  1.00  0.00    -0.355 OA
ATOM     91  C   UNL A   1      34.023  16.883  23.335  1.00  0.00     0.158 A 
ATOM     92  N   UNL A   1      32.907  17.452  22.877  1.00  0.00    -0.088 NA
ENDBRANCH  87  88
ENDBRANCH  79  87
ENDBRANCH  75  77
ENDBRANCH  74  75
ENDBRANCH  73  74
ENDBRANCH  72  73
ENDBRANCH   1  72
TORSDOF 16
ENDMDL
