MODEL 1
REMARK VINA RESULT:     -10.7      0.000      0.000
REMARK SMILES CCC(CC)(NC(=O)c1cc([N+](=O)[O-])c[nH]1)C(=O)OCCOCCOC(=O)c1ccc(-c2c3nc(c(-c4c(F)c(F)c(F)c(F)c4F)c4ccc([nH]4)c(-c4c(F)c(F)c(F)c(F)c4F)c4nc(c(-c5c(F)c(F)c(F)c(F)c5F)c5ccc2[nH]5)C=C4)C=C3)cc1
REMARK SMILES IDX 21 1 20 2 19 3 17 4 18 5 3 6 2 7 1 8 4 9 5 10 6 11 7 12 8 14
REMARK SMILES IDX 9 15 10 16 16 17 11 18 15 19 12 21 13 22 14 23 22 24 23 25
REMARK SMILES IDX 24 26 25 27 26 28 27 29 28 30 29 31 90 32 30 33 89 34 31 35
REMARK SMILES IDX 32 36 33 37 83 38 34 39 88 40 82 41 84 42 35 43 87 44 81 45
REMARK SMILES IDX 80 46 36 48 68 49 48 50 67 51 49 52 52 53 66 54 85 55 50 56
REMARK SMILES IDX 51 57 65 59 86 60 53 61 37 62 38 63 46 64 39 65 40 66 44 67
REMARK SMILES IDX 47 68 41 69 42 70 45 71 43 72 69 73 70 74 78 75 71 76 72 77
REMARK SMILES IDX 76 78 79 79 73 80 74 81 77 82 75 83 54 84 55 85 63 86 56 87
REMARK SMILES IDX 57 88 61 89 64 90 58 91 59 92 62 93 60 94
REMARK H PARENT 6 13 16 20 84 47 52 58
REMARK Flexibility Score: inf
ROOT
ATOM      1  C   UNL A   1      32.353  29.219  25.912  1.00  0.00     0.202 C 
ENDROOT
BRANCH   1   2
ATOM      2  C   UNL A   1      32.330  28.928  24.398  1.00  0.00     0.261 C 
BRANCH   2   3
ATOM      3  O   UNL A   1      32.730  27.603  24.008  1.00  0.00    -0.461 OA
BRANCH   3   4
ATOM      4  C   UNL A   1      31.772  26.658  24.087  1.00  0.00     0.331 C 
ATOM      5  O   UNL A   1      30.608  26.896  23.784  1.00  0.00    -0.249 OA
BRANCH   4   6
ATOM      6  C   UNL A   1      32.300  25.260  24.573  1.00  0.00     0.137 C 
BRANCH   6   7
ATOM      7  C   UNL A   1      33.689  25.568  25.251  1.00  0.00     0.037 C 
ATOM      8  C   UNL A   1      34.889  24.740  24.778  1.00  0.00     0.007 C 
ENDBRANCH   6   7
BRANCH   6   9
ATOM      9  C   UNL A   1      32.457  24.288  23.378  1.00  0.00     0.037 C 
ATOM     10  C   UNL A   1      32.803  24.976  22.052  1.00  0.00     0.007 C 
ENDBRANCH   6   9
BRANCH   6  11
ATOM     11  N   UNL A   1      31.489  24.550  25.631  1.00  0.00    -0.335 N 
ATOM     12  C   UNL A   1      31.753  23.500  26.477  1.00  0.00     0.268 C 
ATOM     13  H   UNL A   1      30.580  24.916  25.737  1.00  0.00     0.165 HD
ATOM     14  O   UNL A   1      31.245  23.544  27.596  1.00  0.00    -0.268 OA
BRANCH  12  15
ATOM     15  C   UNL A   1      32.369  22.305  25.979  1.00  0.00     0.111 A 
ATOM     16  C   UNL A   1      33.661  21.800  26.038  1.00  0.00     0.119 A 
ATOM     17  N   UNL A   1      31.600  21.339  25.375  1.00  0.00    -0.351 N 
ATOM     18  C   UNL A   1      33.678  20.582  25.285  1.00  0.00     0.287 A 
ATOM     19  C   UNL A   1      32.378  20.318  24.910  1.00  0.00     0.169 A 
ATOM     20  H   UNL A   1      30.620  21.378  25.290  1.00  0.00     0.166 HD
BRANCH  18  21
ATOM     21  N   UNL A   1      34.813  19.792  24.880  1.00  0.00     0.064 N 
ATOM     22  O   UNL A   1      35.932  20.313  24.986  1.00  0.00    -0.258 OA
ATOM     23  O   UNL A   1      34.583  18.639  24.499  1.00  0.00    -0.258 OA
ENDBRANCH  18  21
ENDBRANCH  12  15
ENDBRANCH   6  11
ENDBRANCH   4   6
ENDBRANCH   3   4
ENDBRANCH   2   3
ENDBRANCH   1   2
BRANCH   1  24
ATOM     24  O   UNL A   1      32.440  30.595  26.283  1.00  0.00    -0.374 OA
BRANCH  24  25
ATOM     25  C   UNL A   1      33.176  30.835  27.483  1.00  0.00     0.202 C 
BRANCH  25  26
ATOM     26  C   UNL A   1      34.682  30.809  27.250  1.00  0.00     0.261 C 
BRANCH  26  27
ATOM     27  O   UNL A   1      35.340  30.146  28.329  1.00  0.00    -0.460 OA
BRANCH  27  28
ATOM     28  C   UNL A   1      36.540  30.704  28.638  1.00  0.00     0.338 C 
ATOM     29  O   UNL A   1      36.776  31.859  28.915  1.00  0.00    -0.246 OA
BRANCH  28  30
ATOM     30  C   UNL A   1      37.583  29.669  28.547  1.00  0.00     0.060 A 
ATOM     31  C   UNL A   1      37.677  28.781  29.623  1.00  0.00     0.016 A 
ATOM     32  C   UNL A   1      38.519  29.669  27.502  1.00  0.00     0.016 A 
ATOM     33  C   UNL A   1      38.801  27.993  29.737  1.00  0.00     0.010 A 
ATOM     34  C   UNL A   1      39.659  28.902  27.629  1.00  0.00     0.010 A 
ATOM     35  C   UNL A   1      39.813  28.128  28.783  1.00  0.00    -0.014 A 
BRANCH  35  36
ATOM     36  C   UNL A   1      41.095  27.476  29.065  1.00  0.00     0.031 A 
ATOM     37  C   UNL A   1      41.135  26.046  28.503  1.00  0.00     0.074 A 
ATOM     38  C   UNL A   1      41.941  28.262  29.812  1.00  0.00     0.049 A 
ATOM     39  N   UNL A   1      41.890  25.044  28.829  1.00  0.00    -0.248 NA
ATOM     40  C   UNL A   1      40.171  25.648  27.434  1.00  0.00     0.031 C 
ATOM     41  C   UNL A   1      41.676  29.675  30.202  1.00  0.00     0.029 A 
ATOM     42  N   UNL A   1      43.162  28.061  30.418  1.00  0.00    -0.354 N 
ATOM     43  C   UNL A   1      41.666  24.009  27.892  1.00  0.00     0.074 A 
ATOM     44  C   UNL A   1      40.526  24.399  27.123  1.00  0.00     0.031 C 
ATOM     45  C   UNL A   1      42.621  30.142  31.046  1.00  0.00     0.029 A 
ATOM     46  C   UNL A   1      43.611  29.113  31.273  1.00  0.00     0.049 A 
ATOM     47  H   UNL A   1      43.691  27.245  30.270  1.00  0.00     0.167 HD
ATOM     48  C   UNL A   1      42.526  22.958  27.738  1.00  0.00     0.037 A 
ATOM     49  C   UNL A   1      44.678  29.118  32.137  1.00  0.00     0.037 A 
ATOM     50  C   UNL A   1      43.545  23.027  28.729  1.00  0.00     0.049 A 
ATOM     51  C   UNL A   1      45.379  27.868  31.823  1.00  0.00     0.074 A 
ATOM     52  C   UNL A   1      43.502  22.769  30.073  1.00  0.00     0.029 A 
ATOM     53  N   UNL A   1      44.648  23.794  28.446  1.00  0.00    -0.354 N 
ATOM     54  N   UNL A   1      46.057  27.666  30.733  1.00  0.00    -0.248 NA
ATOM     55  C   UNL A   1      45.199  26.717  32.714  1.00  0.00     0.031 C 
ATOM     56  C   UNL A   1      44.276  23.812  30.615  1.00  0.00     0.029 A 
ATOM     57  C   UNL A   1      44.981  24.464  29.597  1.00  0.00     0.049 A 
ATOM     58  H   UNL A   1      45.112  23.854  27.580  1.00  0.00     0.167 HD
ATOM     59  C   UNL A   1      46.074  26.297  30.657  1.00  0.00     0.074 A 
ATOM     60  C   UNL A   1      45.848  25.803  32.000  1.00  0.00     0.031 C 
ATOM     61  C   UNL A   1      45.742  25.686  29.490  1.00  0.00     0.037 A 
BRANCH  48  62
ATOM     62  C   UNL A   1      42.702  21.933  26.655  1.00  0.00     0.064 A 
ATOM     63  C   UNL A   1      42.151  20.642  26.858  1.00  0.00     0.173 A 
ATOM     64  C   UNL A   1      43.669  22.042  25.650  1.00  0.00     0.173 A 
ATOM     65  F   UNL A   1      41.176  20.444  27.760  1.00  0.00    -0.203 F 
ATOM     66  C   UNL A   1      42.648  19.514  26.209  1.00  0.00     0.198 A 
ATOM     67  C   UNL A   1      44.133  20.912  24.965  1.00  0.00     0.198 A 
ATOM     68  F   UNL A   1      44.257  23.215  25.382  1.00  0.00    -0.203 F 
ATOM     69  F   UNL A   1      42.198  18.296  26.545  1.00  0.00    -0.200 F 
ATOM     70  C   UNL A   1      43.656  19.648  25.277  1.00  0.00     0.200 A 
ATOM     71  F   UNL A   1      45.106  21.045  24.054  1.00  0.00    -0.200 F 
ATOM     72  F   UNL A   1      44.193  18.561  24.705  1.00  0.00    -0.200 F 
ENDBRANCH  48  62
BRANCH  49  73
ATOM     73  C   UNL A   1      45.238  29.930  33.289  1.00  0.00     0.064 A 
ATOM     74  C   UNL A   1      44.713  30.018  34.583  1.00  0.00     0.173 A 
ATOM     75  C   UNL A   1      46.482  30.613  33.127  1.00  0.00     0.173 A 
ATOM     76  F   UNL A   1      43.494  29.545  34.866  1.00  0.00    -0.203 F 
ATOM     77  C   UNL A   1      45.430  30.618  35.642  1.00  0.00     0.198 A 
ATOM     78  C   UNL A   1      47.219  31.150  34.182  1.00  0.00     0.198 A 
ATOM     79  F   UNL A   1      47.043  30.780  31.921  1.00  0.00    -0.203 F 
ATOM     80  F   UNL A   1      44.888  30.673  36.867  1.00  0.00    -0.200 F 
ATOM     81  C   UNL A   1      46.701  31.136  35.450  1.00  0.00     0.200 A 
ATOM     82  F   UNL A   1      48.441  31.654  33.950  1.00  0.00    -0.200 F 
ATOM     83  F   UNL A   1      47.412  31.628  36.474  1.00  0.00    -0.200 F 
ENDBRANCH  49  73
BRANCH  61  84
ATOM     84  C   UNL A   1      45.889  26.567  28.257  1.00  0.00     0.064 A 
ATOM     85  C   UNL A   1      47.154  27.060  27.900  1.00  0.00     0.173 A 
ATOM     86  C   UNL A   1      44.815  27.042  27.484  1.00  0.00     0.173 A 
ATOM     87  F   UNL A   1      48.245  26.637  28.558  1.00  0.00    -0.203 F 
ATOM     88  C   UNL A   1      47.325  27.990  26.870  1.00  0.00     0.198 A 
ATOM     89  C   UNL A   1      44.979  27.972  26.453  1.00  0.00     0.198 A 
ATOM     90  F   UNL A   1      43.577  26.604  27.694  1.00  0.00    -0.203 F 
ATOM     91  F   UNL A   1      48.552  28.435  26.568  1.00  0.00    -0.200 F 
ATOM     92  C   UNL A   1      46.236  28.452  26.151  1.00  0.00     0.200 A 
ATOM     93  F   UNL A   1      43.914  28.393  25.751  1.00  0.00    -0.200 F 
ATOM     94  F   UNL A   1      46.400  29.336  25.156  1.00  0.00    -0.200 F 
ENDBRANCH  61  84
ENDBRANCH  35  36
ENDBRANCH  28  30
ENDBRANCH  27  28
ENDBRANCH  26  27
ENDBRANCH  25  26
ENDBRANCH  24  25
ENDBRANCH   1  24
TORSDOF 19
ENDMDL
MODEL 2
REMARK VINA RESULT:     -10.0      8.403     13.898
REMARK SMILES CCC(CC)(NC(=O)c1cc([N+](=O)[O-])c[nH]1)C(=O)OCCOCCOC(=O)c1ccc(-c2c3nc(c(-c4c(F)c(F)c(F)c(F)c4F)c4ccc([nH]4)c(-c4c(F)c(F)c(F)c(F)c4F)c4nc(c(-c5c(F)c(F)c(F)c(F)c5F)c5ccc2[nH]5)C=C4)C=C3)cc1
REMARK SMILES IDX 21 1 20 2 19 3 17 4 18 5 3 6 2 7 1 8 4 9 5 10 6 11 7 12 8 14
REMARK SMILES IDX 9 15 10 16 16 17 11 18 15 19 12 21 13 22 14 23 22 24 23 25
REMARK SMILES IDX 24 26 25 27 26 28 27 29 28 30 29 31 90 32 30 33 89 34 31 35
REMARK SMILES IDX 32 36 33 37 83 38 34 39 88 40 82 41 84 42 35 43 87 44 81 45
REMARK SMILES IDX 80 46 36 48 68 49 48 50 67 51 49 52 52 53 66 54 85 55 50 56
REMARK SMILES IDX 51 57 65 59 86 60 53 61 37 62 38 63 46 64 39 65 40 66 44 67
REMARK SMILES IDX 47 68 41 69 42 70 45 71 43 72 69 73 70 74 78 75 71 76 72 77
REMARK SMILES IDX 76 78 79 79 73 80 74 81 77 82 75 83 54 84 55 85 63 86 56 87
REMARK SMILES IDX 57 88 61 89 64 90 58 91 59 92 62 93 60 94
REMARK H PARENT 6 13 16 20 84 47 52 58
REMARK Flexibility Score: inf
ROOT
ATOM      1  C   UNL A   1      46.345  19.548  37.188  1.00  0.00     0.202 C 
ENDROOT
BRANCH   1   2
ATOM      2  C   UNL A   1      45.692  18.336  37.881  1.00  0.00     0.261 C 
BRANCH   2   3
ATOM      3  O   UNL A   1      46.288  17.928  39.124  1.00  0.00    -0.461 OA
BRANCH   3   4
ATOM      4  C   UNL A   1      45.672  18.368  40.239  1.00  0.00     0.331 C 
ATOM      5  O   UNL A   1      45.747  19.540  40.594  1.00  0.00    -0.249 OA
BRANCH   4   6
ATOM      6  C   UNL A   1      44.861  17.256  40.996  1.00  0.00     0.137 C 
BRANCH   6   7
ATOM      7  C   UNL A   1      45.867  16.053  41.144  1.00  0.00     0.037 C 
ATOM      8  C   UNL A   1      47.180  16.336  41.883  1.00  0.00     0.007 C 
ENDBRANCH   6   7
BRANCH   6   9
ATOM      9  C   UNL A   1      43.605  16.848  40.186  1.00  0.00     0.037 C 
ATOM     10  C   UNL A   1      43.745  15.512  39.446  1.00  0.00     0.007 C 
ENDBRANCH   6   9
BRANCH   6  11
ATOM     11  N   UNL A   1      44.409  17.574  42.402  1.00  0.00    -0.335 N 
ATOM     12  C   UNL A   1      44.137  16.799  43.504  1.00  0.00     0.268 C 
ATOM     13  H   UNL A   1      44.282  18.537  42.563  1.00  0.00     0.165 HD
ATOM     14  O   UNL A   1      44.424  17.272  44.602  1.00  0.00    -0.268 OA
BRANCH  12  15
ATOM     15  C   UNL A   1      43.326  15.624  43.383  1.00  0.00     0.111 A 
ATOM     16  C   UNL A   1      43.540  14.281  43.663  1.00  0.00     0.119 A 
ATOM     17  N   UNL A   1      42.011  15.736  43.000  1.00  0.00    -0.351 N 
ATOM     18  C   UNL A   1      42.367  13.567  43.260  1.00  0.00     0.287 A 
ATOM     19  C   UNL A   1      41.433  14.505  42.876  1.00  0.00     0.169 A 
ATOM     20  H   UNL A   1      41.547  16.589  42.837  1.00  0.00     0.166 HD
BRANCH  18  21
ATOM     21  N   UNL A   1      42.172  12.143  43.157  1.00  0.00     0.064 N 
ATOM     22  O   UNL A   1      43.133  11.417  43.450  1.00  0.00    -0.258 OA
ATOM     23  O   UNL A   1      41.045  11.756  42.829  1.00  0.00    -0.258 OA
ENDBRANCH  18  21
ENDBRANCH  12  15
ENDBRANCH   6  11
ENDBRANCH   4   6
ENDBRANCH   3   4
ENDBRANCH   2   3
ENDBRANCH   1   2
BRANCH   1  24
ATOM     24  O   UNL A   1      45.807  20.827  37.526  1.00  0.00    -0.374 OA
BRANCH  24  25
ATOM     25  C   UNL A   1      45.548  21.671  36.404  1.00  0.00     0.202 C 
BRANCH  25  26
ATOM     26  C   UNL A   1      45.365  23.129  36.811  1.00  0.00     0.261 C 
BRANCH  26  27
ATOM     27  O   UNL A   1      44.522  23.804  35.877  1.00  0.00    -0.460 OA
BRANCH  27  28
ATOM     28  C   UNL A   1      44.426  25.137  36.120  1.00  0.00     0.338 C 
ATOM     29  O   UNL A   1      44.236  25.690  37.180  1.00  0.00    -0.246 OA
BRANCH  28  30
ATOM     30  C   UNL A   1      44.548  25.862  34.845  1.00  0.00     0.060 A 
ATOM     31  C   UNL A   1      43.354  26.276  34.246  1.00  0.00     0.016 A 
ATOM     32  C   UNL A   1      45.787  26.001  34.202  1.00  0.00     0.016 A 
ATOM     33  C   UNL A   1      43.378  26.688  32.932  1.00  0.00     0.010 A 
ATOM     34  C   UNL A   1      45.810  26.385  32.877  1.00  0.00     0.010 A 
ATOM     35  C   UNL A   1      44.594  26.655  32.242  1.00  0.00    -0.014 A 
BRANCH  35  36
ATOM     36  C   UNL A   1      44.549  26.847  30.790  1.00  0.00     0.031 A 
ATOM     37  C   UNL A   1      44.510  28.339  30.421  1.00  0.00     0.074 A 
ATOM     38  C   UNL A   1      44.493  25.661  30.095  1.00  0.00     0.049 A 
ATOM     39  N   UNL A   1      44.115  28.916  29.330  1.00  0.00    -0.248 NA
ATOM     40  C   UNL A   1      44.948  29.357  31.422  1.00  0.00     0.031 C 
ATOM     41  C   UNL A   1      44.596  24.306  30.706  1.00  0.00     0.029 A 
ATOM     42  N   UNL A   1      44.318  25.326  28.771  1.00  0.00    -0.354 N 
ATOM     43  C   UNL A   1      44.456  30.286  29.416  1.00  0.00     0.074 A 
ATOM     44  C   UNL A   1      44.869  30.516  30.765  1.00  0.00     0.031 C 
ATOM     45  C   UNL A   1      44.371  23.334  29.795  1.00  0.00     0.029 A 
ATOM     46  C   UNL A   1      44.131  23.936  28.502  1.00  0.00     0.049 A 
ATOM     47  H   UNL A   1      44.322  26.002  28.055  1.00  0.00     0.167 HD
ATOM     48  C   UNL A   1      44.491  31.105  28.322  1.00  0.00     0.037 A 
ATOM     49  C   UNL A   1      43.758  23.334  27.327  1.00  0.00     0.037 A 
ATOM     50  C   UNL A   1      44.015  30.398  27.183  1.00  0.00     0.049 A 
ATOM     51  C   UNL A   1      43.801  24.428  26.351  1.00  0.00     0.074 A 
ATOM     52  C   UNL A   1      42.747  30.018  26.832  1.00  0.00     0.029 A 
ATOM     53  N   UNL A   1      44.928  29.649  26.481  1.00  0.00    -0.354 N 
ATOM     54  N   UNL A   1      44.898  24.971  25.911  1.00  0.00    -0.248 NA
ATOM     55  C   UNL A   1      42.542  25.058  25.943  1.00  0.00     0.031 C 
ATOM     56  C   UNL A   1      42.939  28.716  26.334  1.00  0.00     0.029 A 
ATOM     57  C   UNL A   1      44.303  28.478  26.128  1.00  0.00     0.049 A 
ATOM     58  H   UNL A   1      45.855  29.903  26.272  1.00  0.00     0.167 HD
ATOM     59  C   UNL A   1      44.455  26.193  25.472  1.00  0.00     0.074 A 
ATOM     60  C   UNL A   1      43.037  26.053  25.215  1.00  0.00     0.031 C 
ATOM     61  C   UNL A   1      45.116  27.319  25.847  1.00  0.00     0.037 A 
BRANCH  48  62
ATOM     62  C   UNL A   1      45.099  32.456  28.078  1.00  0.00     0.064 A 
ATOM     63  C   UNL A   1      44.229  33.568  27.943  1.00  0.00     0.173 A 
ATOM     64  C   UNL A   1      46.405  32.632  27.610  1.00  0.00     0.173 A 
ATOM     65  F   UNL A   1      42.971  33.520  28.412  1.00  0.00    -0.203 F 
ATOM     66  C   UNL A   1      44.599  34.717  27.246  1.00  0.00     0.198 A 
ATOM     67  C   UNL A   1      46.787  33.807  26.953  1.00  0.00     0.198 A 
ATOM     68  F   UNL A   1      47.305  31.642  27.683  1.00  0.00    -0.203 F 
ATOM     69  F   UNL A   1      43.693  35.679  27.015  1.00  0.00    -0.200 F 
ATOM     70  C   UNL A   1      45.874  34.826  26.732  1.00  0.00     0.200 A 
ATOM     71  F   UNL A   1      48.029  33.916  26.460  1.00  0.00    -0.200 F 
ATOM     72  F   UNL A   1      46.213  35.893  25.995  1.00  0.00    -0.200 F 
ENDBRANCH  48  62
BRANCH  49  73
ATOM     73  C   UNL A   1      43.265  21.996  26.810  1.00  0.00     0.064 A 
ATOM     74  C   UNL A   1      43.856  21.216  25.810  1.00  0.00     0.173 A 
ATOM     75  C   UNL A   1      42.146  21.369  27.440  1.00  0.00     0.173 A 
ATOM     76  F   UNL A   1      44.830  21.710  25.036  1.00  0.00    -0.203 F 
ATOM     77  C   UNL A   1      43.449  19.886  25.559  1.00  0.00     0.198 A 
ATOM     78  C   UNL A   1      41.784  20.037  27.239  1.00  0.00     0.198 A 
ATOM     79  F   UNL A   1      41.356  22.032  28.295  1.00  0.00    -0.203 F 
ATOM     80  F   UNL A   1      44.050  19.176  24.594  1.00  0.00    -0.200 F 
ATOM     81  C   UNL A   1      42.450  19.284  26.308  1.00  0.00     0.200 A 
ATOM     82  F   UNL A   1      40.801  19.498  27.976  1.00  0.00    -0.200 F 
ATOM     83  F   UNL A   1      42.125  17.998  26.124  1.00  0.00    -0.200 F 
ENDBRANCH  49  73
BRANCH  61  84
ATOM     84  C   UNL A   1      46.558  27.087  26.277  1.00  0.00     0.064 A 
ATOM     85  C   UNL A   1      47.487  26.582  25.353  1.00  0.00     0.173 A 
ATOM     86  C   UNL A   1      47.030  27.229  27.594  1.00  0.00     0.173 A 
ATOM     87  F   UNL A   1      47.140  26.446  24.064  1.00  0.00    -0.203 F 
ATOM     88  C   UNL A   1      48.782  26.211  25.731  1.00  0.00     0.198 A 
ATOM     89  C   UNL A   1      48.322  26.858  27.978  1.00  0.00     0.198 A 
ATOM     90  F   UNL A   1      46.257  27.746  28.543  1.00  0.00    -0.203 F 
ATOM     91  F   UNL A   1      49.633  25.731  24.814  1.00  0.00    -0.200 F 
ATOM     92  C   UNL A   1      49.197  26.342  27.045  1.00  0.00     0.200 A 
ATOM     93  F   UNL A   1      48.715  27.012  29.253  1.00  0.00    -0.200 F 
ATOM     94  F   UNL A   1      50.442  25.995  27.406  1.00  0.00    -0.200 F 
ENDBRANCH  61  84
ENDBRANCH  35  36
ENDBRANCH  28  30
ENDBRANCH  27  28
ENDBRANCH  26  27
ENDBRANCH  25  26
ENDBRANCH  24  25
ENDBRANCH   1  24
TORSDOF 19
ENDMDL
MODEL 3
REMARK VINA RESULT:     -10.0      5.607     11.554
REMARK SMILES CCC(CC)(NC(=O)c1cc([N+](=O)[O-])c[nH]1)C(=O)OCCOCCOC(=O)c1ccc(-c2c3nc(c(-c4c(F)c(F)c(F)c(F)c4F)c4ccc([nH]4)c(-c4c(F)c(F)c(F)c(F)c4F)c4nc(c(-c5c(F)c(F)c(F)c(F)c5F)c5ccc2[nH]5)C=C4)C=C3)cc1
REMARK SMILES IDX 21 1 20 2 19 3 17 4 18 5 3 6 2 7 1 8 4 9 5 10 6 11 7 12 8 14
REMARK SMILES IDX 9 15 10 16 16 17 11 18 15 19 12 21 13 22 14 23 22 24 23 25
REMARK SMILES IDX 24 26 25 27 26 28 27 29 28 30 29 31 90 32 30 33 89 34 31 35
REMARK SMILES IDX 32 36 33 37 83 38 34 39 88 40 82 41 84 42 35 43 87 44 81 45
REMARK SMILES IDX 80 46 36 48 68 49 48 50 67 51 49 52 52 53 66 54 85 55 50 56
REMARK SMILES IDX 51 57 65 59 86 60 53 61 37 62 38 63 46 64 39 65 40 66 44 67
REMARK SMILES IDX 47 68 41 69 42 70 45 71 43 72 69 73 70 74 78 75 71 76 72 77
REMARK SMILES IDX 76 78 79 79 73 80 74 81 77 82 75 83 54 84 55 85 63 86 56 87
REMARK SMILES IDX 57 88 61 89 64 90 58 91 59 92 62 93 60 94
REMARK H PARENT 6 13 16 20 84 47 52 58
REMARK Flexibility Score: inf
ROOT
ATOM      1  C   UNL A   1      44.840  23.349  27.772  1.00  0.00     0.202 C 
ENDROOT
BRANCH   1   2
ATOM      2  C   UNL A   1      45.574  23.515  26.426  1.00  0.00     0.261 C 
BRANCH   2   3
ATOM      3  O   UNL A   1      46.948  23.929  26.510  1.00  0.00    -0.461 OA
BRANCH   3   4
ATOM      4  C   UNL A   1      47.353  24.805  25.569  1.00  0.00     0.331 C 
ATOM      5  O   UNL A   1      47.044  24.670  24.390  1.00  0.00    -0.249 OA
BRANCH   4   6
ATOM      6  C   UNL A   1      48.215  25.989  26.136  1.00  0.00     0.137 C 
BRANCH   6   7
ATOM      7  C   UNL A   1      47.906  27.205  25.182  1.00  0.00     0.037 C 
ATOM      8  C   UNL A   1      48.718  27.291  23.885  1.00  0.00     0.007 C 
ENDBRANCH   6   7
BRANCH   6   9
ATOM      9  C   UNL A   1      49.721  25.626  26.121  1.00  0.00     0.037 C 
ATOM     10  C   UNL A   1      50.557  26.381  27.162  1.00  0.00     0.007 C 
ENDBRANCH   6   9
BRANCH   6  11
ATOM     11  N   UNL A   1      47.882  26.478  27.526  1.00  0.00    -0.335 N 
ATOM     12  C   UNL A   1      46.700  26.720  28.183  1.00  0.00     0.268 C 
ATOM     13  H   UNL A   1      48.678  26.661  28.077  1.00  0.00     0.165 HD
ATOM     14  O   UNL A   1      46.671  26.475  29.388  1.00  0.00    -0.268 OA
BRANCH  12  15
ATOM     15  C   UNL A   1      45.653  27.463  27.544  1.00  0.00     0.111 A 
ATOM     16  C   UNL A   1      44.545  27.098  26.792  1.00  0.00     0.119 A 
ATOM     17  N   UNL A   1      45.577  28.824  27.713  1.00  0.00    -0.351 N 
ATOM     18  C   UNL A   1      43.905  28.303  26.361  1.00  0.00     0.287 A 
ATOM     19  C   UNL A   1      44.560  29.351  26.971  1.00  0.00     0.169 A 
ATOM     20  H   UNL A   1      46.176  29.349  28.292  1.00  0.00     0.166 HD
BRANCH  18  21
ATOM     21  N   UNL A   1      42.842  28.463  25.400  1.00  0.00     0.064 N 
ATOM     22  O   UNL A   1      42.705  27.569  24.554  1.00  0.00    -0.258 OA
ATOM     23  O   UNL A   1      42.122  29.460  25.525  1.00  0.00    -0.258 OA
ENDBRANCH  18  21
ENDBRANCH  12  15
ENDBRANCH   6  11
ENDBRANCH   4   6
ENDBRANCH   3   4
ENDBRANCH   2   3
ENDBRANCH   1   2
BRANCH   1  24
ATOM     24  O   UNL A   1      43.499  22.864  27.697  1.00  0.00    -0.374 OA
BRANCH  24  25
ATOM     25  C   UNL A   1      43.027  22.639  26.368  1.00  0.00     0.202 C 
BRANCH  25  26
ATOM     26  C   UNL A   1      41.755  23.422  26.068  1.00  0.00     0.261 C 
BRANCH  26  27
ATOM     27  O   UNL A   1      41.393  24.231  27.187  1.00  0.00    -0.460 OA
BRANCH  27  28
ATOM     28  C   UNL A   1      40.051  24.284  27.390  1.00  0.00     0.338 C 
ATOM     29  O   UNL A   1      39.234  23.410  27.201  1.00  0.00    -0.246 OA
BRANCH  28  30
ATOM     30  C   UNL A   1      39.692  25.633  27.856  1.00  0.00     0.060 A 
ATOM     31  C   UNL A   1      40.051  26.697  27.023  1.00  0.00     0.016 A 
ATOM     32  C   UNL A   1      39.149  25.842  29.132  1.00  0.00     0.016 A 
ATOM     33  C   UNL A   1      40.014  27.978  27.527  1.00  0.00     0.010 A 
ATOM     34  C   UNL A   1      39.139  27.121  29.650  1.00  0.00     0.010 A 
ATOM     35  C   UNL A   1      39.639  28.161  28.862  1.00  0.00    -0.014 A 
BRANCH  35  36
ATOM     36  C   UNL A   1      39.855  29.488  29.445  1.00  0.00     0.031 A 
ATOM     37  C   UNL A   1      38.620  30.387  29.268  1.00  0.00     0.074 A 
ATOM     38  C   UNL A   1      41.120  29.647  29.959  1.00  0.00     0.049 A 
ATOM     39  N   UNL A   1      38.519  31.679  29.304  1.00  0.00    -0.248 NA
ATOM     40  C   UNL A   1      37.293  29.767  28.979  1.00  0.00     0.031 C 
ATOM     41  C   UNL A   1      42.147  28.571  30.053  1.00  0.00     0.029 A 
ATOM     42  N   UNL A   1      41.823  30.710  30.481  1.00  0.00    -0.354 N 
ATOM     43  C   UNL A   1      37.144  32.007  29.274  1.00  0.00     0.074 A 
ATOM     44  C   UNL A   1      36.446  30.798  28.969  1.00  0.00     0.031 C 
ATOM     45  C   UNL A   1      43.335  29.056  30.475  1.00  0.00     0.029 A 
ATOM     46  C   UNL A   1      43.210  30.473  30.732  1.00  0.00     0.049 A 
ATOM     47  H   UNL A   1      41.397  31.577  30.671  1.00  0.00     0.167 HD
ATOM     48  C   UNL A   1      36.676  33.240  29.633  1.00  0.00     0.037 A 
ATOM     49  C   UNL A   1      44.185  31.378  31.070  1.00  0.00     0.037 A 
ATOM     50  C   UNL A   1      37.772  34.111  29.888  1.00  0.00     0.049 A 
ATOM     51  C   UNL A   1      43.435  32.613  31.325  1.00  0.00     0.074 A 
ATOM     52  C   UNL A   1      38.650  34.717  29.030  1.00  0.00     0.029 A 
ATOM     53  N   UNL A   1      38.305  34.097  31.153  1.00  0.00    -0.354 N 
ATOM     54  N   UNL A   1      42.673  32.804  32.361  1.00  0.00    -0.248 NA
ATOM     55  C   UNL A   1      43.416  33.651  30.289  1.00  0.00     0.031 C 
ATOM     56  C   UNL A   1      39.882  34.575  29.694  1.00  0.00     0.029 A 
ATOM     57  C   UNL A   1      39.670  34.173  31.018  1.00  0.00     0.049 A 
ATOM     58  H   UNL A   1      37.804  34.041  31.998  1.00  0.00     0.167 HD
ATOM     59  C   UNL A   1      41.842  33.803  31.923  1.00  0.00     0.074 A 
ATOM     60  C   UNL A   1      42.532  34.475  30.843  1.00  0.00     0.031 C 
ATOM     61  C   UNL A   1      40.499  33.679  32.090  1.00  0.00     0.037 A 
BRANCH  48  62
ATOM     62  C   UNL A   1      35.308  33.748  29.989  1.00  0.00     0.064 A 
ATOM     63  C   UNL A   1      34.610  34.523  29.028  1.00  0.00     0.173 A 
ATOM     64  C   UNL A   1      34.843  33.829  31.306  1.00  0.00     0.173 A 
ATOM     65  F   UNL A   1      34.942  34.471  27.728  1.00  0.00    -0.203 F 
ATOM     66  C   UNL A   1      33.618  35.433  29.390  1.00  0.00     0.198 A 
ATOM     67  C   UNL A   1      33.813  34.710  31.658  1.00  0.00     0.198 A 
ATOM     68  F   UNL A   1      35.436  33.143  32.291  1.00  0.00    -0.203 F 
ATOM     69  F   UNL A   1      33.092  36.250  28.466  1.00  0.00    -0.200 F 
ATOM     70  C   UNL A   1      33.235  35.541  30.710  1.00  0.00     0.200 A 
ATOM     71  F   UNL A   1      33.436  34.808  32.940  1.00  0.00    -0.200 F 
ATOM     72  F   UNL A   1      32.338  36.466  31.077  1.00  0.00    -0.200 F 
ENDBRANCH  48  62
BRANCH  49  73
ATOM     73  C   UNL A   1      45.695  31.483  31.157  1.00  0.00     0.064 A 
ATOM     74  C   UNL A   1      46.475  31.385  32.316  1.00  0.00     0.173 A 
ATOM     75  C   UNL A   1      46.463  31.590  29.957  1.00  0.00     0.173 A 
ATOM     76  F   UNL A   1      45.912  31.409  33.529  1.00  0.00    -0.203 F 
ATOM     77  C   UNL A   1      47.882  31.270  32.263  1.00  0.00     0.198 A 
ATOM     78  C   UNL A   1      47.844  31.414  29.897  1.00  0.00     0.198 A 
ATOM     79  F   UNL A   1      45.890  31.864  28.777  1.00  0.00    -0.203 F 
ATOM     80  F   UNL A   1      48.586  31.172  33.399  1.00  0.00    -0.200 F 
ATOM     81  C   UNL A   1      48.558  31.234  31.053  1.00  0.00     0.200 A 
ATOM     82  F   UNL A   1      48.461  31.399  28.706  1.00  0.00    -0.200 F 
ATOM     83  F   UNL A   1      49.883  31.040  31.004  1.00  0.00    -0.200 F 
ENDBRANCH  49  73
BRANCH  61  84
ATOM     84  C   UNL A   1      40.090  32.709  33.191  1.00  0.00     0.064 A 
ATOM     85  C   UNL A   1      40.465  32.965  34.519  1.00  0.00     0.173 A 
ATOM     86  C   UNL A   1      39.449  31.477  32.969  1.00  0.00     0.173 A 
ATOM     87  F   UNL A   1      41.052  34.131  34.834  1.00  0.00    -0.203 F 
ATOM     88  C   UNL A   1      40.247  32.038  35.544  1.00  0.00     0.198 A 
ATOM     89  C   UNL A   1      39.229  30.546  33.989  1.00  0.00     0.198 A 
ATOM     90  F   UNL A   1      39.001  31.149  31.762  1.00  0.00    -0.203 F 
ATOM     91  F   UNL A   1      40.625  32.326  36.796  1.00  0.00    -0.200 F 
ATOM     92  C   UNL A   1      39.636  30.825  35.277  1.00  0.00     0.200 A 
ATOM     93  F   UNL A   1      38.614  29.384  33.717  1.00  0.00    -0.200 F 
ATOM     94  F   UNL A   1      39.417  29.940  36.261  1.00  0.00    -0.200 F 
ENDBRANCH  61  84
ENDBRANCH  35  36
ENDBRANCH  28  30
ENDBRANCH  27  28
ENDBRANCH  26  27
ENDBRANCH  25  26
ENDBRANCH  24  25
ENDBRANCH   1  24
TORSDOF 19
ENDMDL
