MODEL 1
REMARK VINA RESULT:     -12.0      0.000      0.000
REMARK SMILES Cc1ccc([N+](=O)[O-])c(NCc2ccc(C(=O)OCCOCCOC(=O)c3ccc(-c4c5nc(c(-c6c(F)c(F)c(F)c(F)c6F)c6ccc([nH]6)c(-c6c(F)c(F)c(F)c(F)c6F)c6nc(c(-c7c(F)c(F)c(F)c(F)c7F)c7ccc4[nH]7)C=C6)C=C5)cc3)cc2)c1
REMARK SMILES IDX 20 1 19 2 18 3 16 4 17 5 15 6 12 7 13 8 91 9 14 10 90 11
REMARK SMILES IDX 11 12 10 13 9 15 1 16 2 17 3 18 92 19 4 20 5 21 6 22 7 23
REMARK SMILES IDX 8 24 21 25 22 26 23 27 24 28 25 29 26 30 27 31 28 32 89 33
REMARK SMILES IDX 29 34 88 35 30 36 31 37 32 38 82 39 33 40 87 41 81 42 83 43
REMARK SMILES IDX 34 44 86 45 80 46 79 47 35 49 67 50 47 51 66 52 48 53 51 54
REMARK SMILES IDX 65 55 84 56 49 57 50 58 64 60 85 61 52 62 36 63 37 64 45 65
REMARK SMILES IDX 38 66 39 67 43 68 46 69 40 70 41 71 44 72 42 73 68 74 69 75
REMARK SMILES IDX 77 76 70 77 71 78 75 79 78 80 72 81 73 82 76 83 74 84 53 85
REMARK SMILES IDX 54 86 62 87 55 88 56 89 60 90 63 91 57 92 58 93 61 94 59 95
REMARK H PARENT 10 14 83 48 51 59
REMARK Flexibility Score: inf
ROOT
ATOM      1  C   UNL A   1      33.370  33.437  27.919  1.00  0.00     0.202 C 
ENDROOT
BRANCH   1   2
ATOM      2  C   UNL A   1      34.020  32.262  28.585  1.00  0.00     0.261 C 
BRANCH   2   3
ATOM      3  O   UNL A   1      33.612  31.018  27.997  1.00  0.00    -0.460 OA
BRANCH   3   4
ATOM      4  C   UNL A   1      34.521  30.205  27.387  1.00  0.00     0.338 C 
ATOM      5  O   UNL A   1      35.722  30.301  27.332  1.00  0.00    -0.246 OA
BRANCH   4   6
ATOM      6  C   UNL A   1      33.751  29.056  26.893  1.00  0.00     0.060 A 
ATOM      7  C   UNL A   1      32.394  26.722  26.278  1.00  0.00    -0.029 A 
ATOM      8  C   UNL A   1      33.722  26.907  25.847  1.00  0.00     0.006 A 
ATOM      9  C   UNL A   1      31.775  27.703  27.056  1.00  0.00     0.006 A 
ATOM     10  C   UNL A   1      34.407  28.073  26.157  1.00  0.00     0.016 A 
ATOM     11  C   UNL A   1      32.428  28.886  27.310  1.00  0.00     0.016 A 
BRANCH   7  12
ATOM     12  C   UNL A   1      31.705  25.446  25.872  1.00  0.00     0.149 C 
BRANCH  12  13
ATOM     13  N   UNL A   1      32.559  24.570  25.107  1.00  0.00    -0.375 N 
ATOM     14  H   UNL A   1      33.277  25.021  24.606  1.00  0.00     0.161 HD
BRANCH  13  15
ATOM     15  C   UNL A   1      32.523  23.199  24.971  1.00  0.00     0.114 A 
ATOM     16  C   UNL A   1      31.894  21.101  21.800  1.00  0.00     0.044 C 
ATOM     17  C   UNL A   1      32.181  21.459  23.227  1.00  0.00    -0.049 A 
ATOM     18  C   UNL A   1      32.396  20.469  24.174  1.00  0.00     0.010 A 
ATOM     19  C   UNL A   1      32.237  22.794  23.637  1.00  0.00     0.036 A 
ATOM     20  C   UNL A   1      32.634  20.817  25.502  1.00  0.00     0.088 A 
ATOM     21  C   UNL A   1      32.683  22.169  25.916  1.00  0.00     0.292 A 
BRANCH  21  22
ATOM     22  N   UNL A   1      32.973  22.349  27.352  1.00  0.00     0.064 N 
ATOM     23  O   UNL A   1      32.112  22.926  28.036  1.00  0.00    -0.258 OA
ATOM     24  O   UNL A   1      34.063  21.993  27.811  1.00  0.00    -0.258 OA
ENDBRANCH  21  22
ENDBRANCH  13  15
ENDBRANCH  12  13
ENDBRANCH   7  12
ENDBRANCH   4   6
ENDBRANCH   3   4
ENDBRANCH   2   3
ENDBRANCH   1   2
BRANCH   1  25
ATOM     25  O   UNL A   1      32.776  34.191  28.960  1.00  0.00    -0.374 OA
BRANCH  25  26
ATOM     26  C   UNL A   1      32.965  35.588  28.898  1.00  0.00     0.202 C 
BRANCH  26  27
ATOM     27  C   UNL A   1      32.721  36.254  30.257  1.00  0.00     0.261 C 
BRANCH  27  28
ATOM     28  O   UNL A   1      33.951  36.263  31.021  1.00  0.00    -0.460 OA
BRANCH  28  29
ATOM     29  C   UNL A   1      33.960  35.529  32.172  1.00  0.00     0.338 C 
ATOM     30  O   UNL A   1      33.653  35.948  33.276  1.00  0.00    -0.246 OA
BRANCH  29  31
ATOM     31  C   UNL A   1      34.667  34.229  31.948  1.00  0.00     0.060 A 
ATOM     32  C   UNL A   1      34.558  33.180  32.886  1.00  0.00     0.016 A 
ATOM     33  C   UNL A   1      35.692  34.202  31.011  1.00  0.00     0.016 A 
ATOM     34  C   UNL A   1      35.576  32.213  33.000  1.00  0.00     0.010 A 
ATOM     35  C   UNL A   1      36.743  33.335  31.213  1.00  0.00     0.010 A 
ATOM     36  C   UNL A   1      36.726  32.359  32.230  1.00  0.00    -0.014 A 
BRANCH  36  37
ATOM     37  C   UNL A   1      38.008  31.651  32.386  1.00  0.00     0.031 A 
ATOM     38  C   UNL A   1      38.180  30.418  31.580  1.00  0.00     0.074 A 
ATOM     39  C   UNL A   1      39.110  32.266  32.892  1.00  0.00     0.049 A 
ATOM     40  N   UNL A   1      39.267  29.735  31.528  1.00  0.00    -0.248 NA
ATOM     41  C   UNL A   1      37.115  29.818  30.774  1.00  0.00     0.031 C 
ATOM     42  C   UNL A   1      40.509  32.091  32.466  1.00  0.00     0.029 A 
ATOM     43  N   UNL A   1      39.222  33.266  33.868  1.00  0.00    -0.354 N 
ATOM     44  C   UNL A   1      39.176  28.876  30.461  1.00  0.00     0.074 A 
ATOM     45  C   UNL A   1      37.781  28.864  30.116  1.00  0.00     0.031 C 
ATOM     46  C   UNL A   1      41.336  32.723  33.316  1.00  0.00     0.029 A 
ATOM     47  C   UNL A   1      40.523  33.205  34.412  1.00  0.00     0.049 A 
ATOM     48  H   UNL A   1      38.517  33.901  34.129  1.00  0.00     0.167 HD
ATOM     49  C   UNL A   1      40.340  28.389  29.946  1.00  0.00     0.037 A 
ATOM     50  C   UNL A   1      40.706  32.978  35.741  1.00  0.00     0.037 A 
ATOM     51  C   UNL A   1      41.458  28.715  30.846  1.00  0.00     0.049 A 
ATOM     52  C   UNL A   1      41.377  31.646  35.893  1.00  0.00     0.074 A 
ATOM     53  C   UNL A   1      42.523  29.595  30.778  1.00  0.00     0.029 A 
ATOM     54  N   UNL A   1      41.376  28.309  32.181  1.00  0.00    -0.354 N 
ATOM     55  N   UNL A   1      41.322  30.731  34.962  1.00  0.00    -0.248 NA
ATOM     56  C   UNL A   1      42.244  31.271  37.001  1.00  0.00     0.031 C 
ATOM     57  C   UNL A   1      43.021  29.776  32.106  1.00  0.00     0.029 A 
ATOM     58  C   UNL A   1      42.289  28.974  32.974  1.00  0.00     0.049 A 
ATOM     59  H   UNL A   1      40.744  27.630  32.515  1.00  0.00     0.167 HD
ATOM     60  C   UNL A   1      42.182  29.725  35.261  1.00  0.00     0.074 A 
ATOM     61  C   UNL A   1      42.706  30.083  36.569  1.00  0.00     0.031 C 
ATOM     62  C   UNL A   1      42.397  28.686  34.406  1.00  0.00     0.037 A 
BRANCH  49  63
ATOM     63  C   UNL A   1      40.516  27.746  28.582  1.00  0.00     0.064 A 
ATOM     64  C   UNL A   1      40.031  26.440  28.353  1.00  0.00     0.173 A 
ATOM     65  C   UNL A   1      41.216  28.303  27.488  1.00  0.00     0.173 A 
ATOM     66  F   UNL A   1      39.365  25.769  29.303  1.00  0.00    -0.203 F 
ATOM     67  C   UNL A   1      40.224  25.761  27.141  1.00  0.00     0.198 A 
ATOM     68  C   UNL A   1      41.368  27.643  26.263  1.00  0.00     0.198 A 
ATOM     69  F   UNL A   1      41.833  29.485  27.556  1.00  0.00    -0.203 F 
ATOM     70  F   UNL A   1      39.776  24.506  27.003  1.00  0.00    -0.200 F 
ATOM     71  C   UNL A   1      40.880  26.368  26.091  1.00  0.00     0.200 A 
ATOM     72  F   UNL A   1      42.015  28.253  25.258  1.00  0.00    -0.200 F 
ATOM     73  F   UNL A   1      41.057  25.725  24.929  1.00  0.00    -0.200 F 
ENDBRANCH  49  63
BRANCH  50  74
ATOM     74  C   UNL A   1      39.606  33.605  36.536  1.00  0.00     0.064 A 
ATOM     75  C   UNL A   1      38.694  32.698  37.129  1.00  0.00     0.173 A 
ATOM     76  C   UNL A   1      39.807  34.830  37.191  1.00  0.00     0.173 A 
ATOM     77  F   UNL A   1      38.470  31.505  36.554  1.00  0.00    -0.203 F 
ATOM     78  C   UNL A   1      38.177  32.920  38.405  1.00  0.00     0.198 A 
ATOM     79  C   UNL A   1      39.281  35.045  38.471  1.00  0.00     0.198 A 
ATOM     80  F   UNL A   1      40.662  35.731  36.688  1.00  0.00    -0.203 F 
ATOM     81  F   UNL A   1      37.478  31.954  39.021  1.00  0.00    -0.200 F 
ATOM     82  C   UNL A   1      38.515  34.070  39.095  1.00  0.00     0.200 A 
ATOM     83  F   UNL A   1      39.618  36.148  39.156  1.00  0.00    -0.200 F 
ATOM     84  F   UNL A   1      38.170  34.203  40.385  1.00  0.00    -0.200 F 
ENDBRANCH  50  74
BRANCH  62  85
ATOM     85  C   UNL A   1      42.805  27.314  34.874  1.00  0.00     0.064 A 
ATOM     86  C   UNL A   1      41.902  26.242  34.995  1.00  0.00     0.173 A 
ATOM     87  C   UNL A   1      44.168  26.982  35.047  1.00  0.00     0.173 A 
ATOM     88  F   UNL A   1      40.603  26.371  34.693  1.00  0.00    -0.203 F 
ATOM     89  C   UNL A   1      42.315  24.967  35.372  1.00  0.00     0.198 A 
ATOM     90  C   UNL A   1      44.585  25.686  35.337  1.00  0.00     0.198 A 
ATOM     91  F   UNL A   1      45.144  27.888  34.899  1.00  0.00    -0.203 F 
ATOM     92  F   UNL A   1      41.401  24.003  35.545  1.00  0.00    -0.200 F 
ATOM     93  C   UNL A   1      43.656  24.686  35.532  1.00  0.00     0.200 A 
ATOM     94  F   UNL A   1      45.894  25.411  35.403  1.00  0.00    -0.200 F 
ATOM     95  F   UNL A   1      44.054  23.447  35.847  1.00  0.00    -0.200 F 
ENDBRANCH  62  85
ENDBRANCH  36  37
ENDBRANCH  29  31
ENDBRANCH  28  29
ENDBRANCH  27  28
ENDBRANCH  26  27
ENDBRANCH  25  26
ENDBRANCH   1  25
TORSDOF 18
ENDMDL
MODEL 2
REMARK VINA RESULT:     -11.9      1.585      2.145
REMARK SMILES Cc1ccc([N+](=O)[O-])c(NCc2ccc(C(=O)OCCOCCOC(=O)c3ccc(-c4c5nc(c(-c6c(F)c(F)c(F)c(F)c6F)c6ccc([nH]6)c(-c6c(F)c(F)c(F)c(F)c6F)c6nc(c(-c7c(F)c(F)c(F)c(F)c7F)c7ccc4[nH]7)C=C6)C=C5)cc3)cc2)c1
REMARK SMILES IDX 20 1 19 2 18 3 16 4 17 5 15 6 12 7 13 8 91 9 14 10 90 11
REMARK SMILES IDX 11 12 10 13 9 15 1 16 2 17 3 18 92 19 4 20 5 21 6 22 7 23
REMARK SMILES IDX 8 24 21 25 22 26 23 27 24 28 25 29 26 30 27 31 28 32 89 33
REMARK SMILES IDX 29 34 88 35 30 36 31 37 32 38 82 39 33 40 87 41 81 42 83 43
REMARK SMILES IDX 34 44 86 45 80 46 79 47 35 49 67 50 47 51 66 52 48 53 51 54
REMARK SMILES IDX 65 55 84 56 49 57 50 58 64 60 85 61 52 62 36 63 37 64 45 65
REMARK SMILES IDX 38 66 39 67 43 68 46 69 40 70 41 71 44 72 42 73 68 74 69 75
REMARK SMILES IDX 77 76 70 77 71 78 75 79 78 80 72 81 73 82 76 83 74 84 53 85
REMARK SMILES IDX 54 86 62 87 55 88 56 89 60 90 63 91 57 92 58 93 61 94 59 95
REMARK H PARENT 10 14 83 48 51 59
REMARK Flexibility Score: inf
ROOT
ATOM      1  C   UNL A   1      33.817  33.562  27.942  1.00  0.00     0.202 C 
ENDROOT
BRANCH   1   2
ATOM      2  C   UNL A   1      34.053  32.192  28.502  1.00  0.00     0.261 C 
BRANCH   2   3
ATOM      3  O   UNL A   1      33.514  31.166  27.656  1.00  0.00    -0.460 OA
BRANCH   3   4
ATOM      4  C   UNL A   1      34.269  30.087  27.303  1.00  0.00     0.338 C 
ATOM      5  O   UNL A   1      35.399  29.804  27.617  1.00  0.00    -0.246 OA
BRANCH   4   6
ATOM      6  C   UNL A   1      33.372  29.213  26.535  1.00  0.00     0.060 A 
ATOM      7  C   UNL A   1      31.427  27.833  25.130  1.00  0.00    -0.029 A 
ATOM      8  C   UNL A   1      31.597  27.614  26.511  1.00  0.00     0.006 A 
ATOM      9  C   UNL A   1      32.215  28.783  24.477  1.00  0.00     0.006 A 
ATOM     10  C   UNL A   1      32.567  28.307  27.220  1.00  0.00     0.016 A 
ATOM     11  C   UNL A   1      33.220  29.424  25.162  1.00  0.00     0.016 A 
BRANCH   7  12
ATOM     12  C   UNL A   1      30.376  27.017  24.423  1.00  0.00     0.149 C 
BRANCH  12  13
ATOM     13  N   UNL A   1      30.913  25.829  23.806  1.00  0.00    -0.375 N 
ATOM     14  H   UNL A   1      30.313  25.385  23.164  1.00  0.00     0.161 HD
BRANCH  13  15
ATOM     15  C   UNL A   1      32.138  25.221  23.978  1.00  0.00     0.114 A 
ATOM     16  C   UNL A   1      33.353  23.016  26.896  1.00  0.00     0.044 C 
ATOM     17  C   UNL A   1      33.341  23.767  25.599  1.00  0.00    -0.049 A 
ATOM     18  C   UNL A   1      34.446  23.750  24.762  1.00  0.00     0.010 A 
ATOM     19  C   UNL A   1      32.219  24.502  25.204  1.00  0.00     0.036 A 
ATOM     20  C   UNL A   1      34.429  24.476  23.573  1.00  0.00     0.088 A 
ATOM     21  C   UNL A   1      33.296  25.225  23.178  1.00  0.00     0.292 A 
BRANCH  21  22
ATOM     22  N   UNL A   1      33.447  25.908  21.878  1.00  0.00     0.064 N 
ATOM     23  O   UNL A   1      33.736  27.115  21.903  1.00  0.00    -0.258 OA
ATOM     24  O   UNL A   1      33.221  25.295  20.830  1.00  0.00    -0.258 OA
ENDBRANCH  21  22
ENDBRANCH  13  15
ENDBRANCH  12  13
ENDBRANCH   7  12
ENDBRANCH   4   6
ENDBRANCH   3   4
ENDBRANCH   2   3
ENDBRANCH   1   2
BRANCH   1  25
ATOM     25  O   UNL A   1      32.898  34.186  28.820  1.00  0.00    -0.374 OA
BRANCH  25  26
ATOM     26  C   UNL A   1      32.984  35.591  28.911  1.00  0.00     0.202 C 
BRANCH  26  27
ATOM     27  C   UNL A   1      32.719  36.084  30.338  1.00  0.00     0.261 C 
BRANCH  27  28
ATOM     28  O   UNL A   1      33.971  36.187  31.057  1.00  0.00    -0.460 OA
BRANCH  28  29
ATOM     29  C   UNL A   1      34.064  35.485  32.224  1.00  0.00     0.338 C 
ATOM     30  O   UNL A   1      33.820  35.929  33.334  1.00  0.00    -0.246 OA
BRANCH  29  31
ATOM     31  C   UNL A   1      34.776  34.189  31.990  1.00  0.00     0.060 A 
ATOM     32  C   UNL A   1      34.643  33.120  32.902  1.00  0.00     0.016 A 
ATOM     33  C   UNL A   1      35.823  34.182  31.078  1.00  0.00     0.016 A 
ATOM     34  C   UNL A   1      35.657  32.150  33.020  1.00  0.00     0.010 A 
ATOM     35  C   UNL A   1      36.869  33.309  31.288  1.00  0.00     0.010 A 
ATOM     36  C   UNL A   1      36.826  32.312  32.283  1.00  0.00    -0.014 A 
BRANCH  36  37
ATOM     37  C   UNL A   1      38.104  31.599  32.455  1.00  0.00     0.031 A 
ATOM     38  C   UNL A   1      38.267  30.346  31.678  1.00  0.00     0.074 A 
ATOM     39  C   UNL A   1      39.210  32.219  32.947  1.00  0.00     0.049 A 
ATOM     40  N   UNL A   1      39.350  29.655  31.642  1.00  0.00    -0.248 NA
ATOM     41  C   UNL A   1      37.198  29.735  30.887  1.00  0.00     0.031 C 
ATOM     42  C   UNL A   1      40.607  32.024  32.524  1.00  0.00     0.029 A 
ATOM     43  N   UNL A   1      39.329  33.240  33.899  1.00  0.00    -0.354 N 
ATOM     44  C   UNL A   1      39.253  28.772  30.596  1.00  0.00     0.074 A 
ATOM     45  C   UNL A   1      37.857  28.761  30.252  1.00  0.00     0.031 C 
ATOM     46  C   UNL A   1      41.439  32.671  33.359  1.00  0.00     0.029 A 
ATOM     47  C   UNL A   1      40.629  33.184  34.444  1.00  0.00     0.049 A 
ATOM     48  H   UNL A   1      38.627  33.887  34.144  1.00  0.00     0.167 HD
ATOM     49  C   UNL A   1      40.413  28.265  30.093  1.00  0.00     0.037 A 
ATOM     50  C   UNL A   1      40.811  32.987  35.777  1.00  0.00     0.037 A 
ATOM     51  C   UNL A   1      41.534  28.605  30.984  1.00  0.00     0.049 A 
ATOM     52  C   UNL A   1      41.473  31.655  35.961  1.00  0.00     0.074 A 
ATOM     53  C   UNL A   1      42.605  29.476  30.896  1.00  0.00     0.029 A 
ATOM     54  N   UNL A   1      41.450  28.231  32.329  1.00  0.00    -0.354 N 
ATOM     55  N   UNL A   1      41.413  30.719  35.051  1.00  0.00    -0.248 NA
ATOM     56  C   UNL A   1      42.339  31.300  37.077  1.00  0.00     0.031 C 
ATOM     57  C   UNL A   1      43.104  29.685  32.219  1.00  0.00     0.029 A 
ATOM     58  C   UNL A   1      42.367  28.910  33.105  1.00  0.00     0.049 A 
ATOM     59  H   UNL A   1      40.813  27.565  32.678  1.00  0.00     0.167 HD
ATOM     60  C   UNL A   1      42.266  29.715  35.374  1.00  0.00     0.074 A 
ATOM     61  C   UNL A   1      42.793  30.099  36.673  1.00  0.00     0.031 C 
ATOM     62  C   UNL A   1      42.474  28.654  34.543  1.00  0.00     0.037 A 
BRANCH  49  63
ATOM     63  C   UNL A   1      40.585  27.590  28.744  1.00  0.00     0.064 A 
ATOM     64  C   UNL A   1      41.208  28.284  27.684  1.00  0.00     0.173 A 
ATOM     65  C   UNL A   1      40.093  26.313  28.388  1.00  0.00     0.173 A 
ATOM     66  F   UNL A   1      41.706  29.517  27.859  1.00  0.00    -0.203 F 
ATOM     67  C   UNL A   1      41.333  27.748  26.395  1.00  0.00     0.198 A 
ATOM     68  C   UNL A   1      40.260  25.760  27.112  1.00  0.00     0.198 A 
ATOM     69  F   UNL A   1      39.386  25.556  29.228  1.00  0.00    -0.203 F 
ATOM     70  F   UNL A   1      41.899  28.477  25.423  1.00  0.00    -0.200 F 
ATOM     71  C   UNL A   1      40.872  26.479  26.113  1.00  0.00     0.200 A 
ATOM     72  F   UNL A   1      39.798  24.525  26.862  1.00  0.00    -0.200 F 
ATOM     73  F   UNL A   1      41.000  25.961  24.884  1.00  0.00    -0.200 F 
ENDBRANCH  49  63
BRANCH  50  74
ATOM     74  C   UNL A   1      39.715  33.640  36.558  1.00  0.00     0.064 A 
ATOM     75  C   UNL A   1      38.801  32.753  37.177  1.00  0.00     0.173 A 
ATOM     76  C   UNL A   1      39.923  34.881  37.180  1.00  0.00     0.173 A 
ATOM     77  F   UNL A   1      38.571  31.546  36.635  1.00  0.00    -0.203 F 
ATOM     78  C   UNL A   1      38.288  33.012  38.447  1.00  0.00     0.198 A 
ATOM     79  C   UNL A   1      39.401  35.133  38.454  1.00  0.00     0.198 A 
ATOM     80  F   UNL A   1      40.780  35.765  36.650  1.00  0.00    -0.203 F 
ATOM     81  F   UNL A   1      37.586  32.065  39.091  1.00  0.00    -0.200 F 
ATOM     82  C   UNL A   1      38.632  34.178  39.105  1.00  0.00     0.200 A 
ATOM     83  F   UNL A   1      39.744  36.253  39.108  1.00  0.00    -0.200 F 
ATOM     84  F   UNL A   1      38.291  34.347  40.392  1.00  0.00    -0.200 F 
ENDBRANCH  50  74
BRANCH  62  85
ATOM     85  C   UNL A   1      42.873  27.291  35.044  1.00  0.00     0.064 A 
ATOM     86  C   UNL A   1      41.981  26.205  35.115  1.00  0.00     0.173 A 
ATOM     87  C   UNL A   1      44.228  26.982  35.303  1.00  0.00     0.173 A 
ATOM     88  F   UNL A   1      40.702  26.313  34.732  1.00  0.00    -0.203 F 
ATOM     89  C   UNL A   1      42.390  24.939  35.524  1.00  0.00     0.198 A 
ATOM     90  C   UNL A   1      44.646  25.694  35.626  1.00  0.00     0.198 A 
ATOM     91  F   UNL A   1      45.197  27.902  35.211  1.00  0.00    -0.203 F 
ATOM     92  F   UNL A   1      41.482  23.961  35.645  1.00  0.00    -0.200 F 
ATOM     93  C   UNL A   1      43.723  24.679  35.769  1.00  0.00     0.200 A 
ATOM     94  F   UNL A   1      45.953  25.440  35.775  1.00  0.00    -0.200 F 
ATOM     95  F   UNL A   1      44.120  23.449  36.114  1.00  0.00    -0.200 F 
ENDBRANCH  62  85
ENDBRANCH  36  37
ENDBRANCH  29  31
ENDBRANCH  28  29
ENDBRANCH  27  28
ENDBRANCH  26  27
ENDBRANCH  25  26
ENDBRANCH   1  25
TORSDOF 18
ENDMDL
MODEL 3
REMARK VINA RESULT:     -11.8      5.381     11.326
REMARK SMILES Cc1ccc([N+](=O)[O-])c(NCc2ccc(C(=O)OCCOCCOC(=O)c3ccc(-c4c5nc(c(-c6c(F)c(F)c(F)c(F)c6F)c6ccc([nH]6)c(-c6c(F)c(F)c(F)c(F)c6F)c6nc(c(-c7c(F)c(F)c(F)c(F)c7F)c7ccc4[nH]7)C=C6)C=C5)cc3)cc2)c1
REMARK SMILES IDX 20 1 19 2 18 3 16 4 17 5 15 6 12 7 13 8 91 9 14 10 90 11
REMARK SMILES IDX 11 12 10 13 9 15 1 16 2 17 3 18 92 19 4 20 5 21 6 22 7 23
REMARK SMILES IDX 8 24 21 25 22 26 23 27 24 28 25 29 26 30 27 31 28 32 89 33
REMARK SMILES IDX 29 34 88 35 30 36 31 37 32 38 82 39 33 40 87 41 81 42 83 43
REMARK SMILES IDX 34 44 86 45 80 46 79 47 35 49 67 50 47 51 66 52 48 53 51 54
REMARK SMILES IDX 65 55 84 56 49 57 50 58 64 60 85 61 52 62 36 63 37 64 45 65
REMARK SMILES IDX 38 66 39 67 43 68 46 69 40 70 41 71 44 72 42 73 68 74 69 75
REMARK SMILES IDX 77 76 70 77 71 78 75 79 78 80 72 81 73 82 76 83 74 84 53 85
REMARK SMILES IDX 54 86 62 87 55 88 56 89 60 90 63 91 57 92 58 93 61 94 59 95
REMARK H PARENT 10 14 83 48 51 59
REMARK Flexibility Score: inf
ROOT
ATOM      1  C   UNL A   1      40.448  21.316  27.488  1.00  0.00     0.202 C 
ENDROOT
BRANCH   1   2
ATOM      2  C   UNL A   1      39.993  21.610  26.090  1.00  0.00     0.261 C 
BRANCH   2   3
ATOM      3  O   UNL A   1      38.581  21.857  26.025  1.00  0.00    -0.460 OA
BRANCH   3   4
ATOM      4  C   UNL A   1      38.096  23.131  26.053  1.00  0.00     0.338 C 
ATOM      5  O   UNL A   1      38.642  24.154  26.388  1.00  0.00    -0.246 OA
BRANCH   4   6
ATOM      6  C   UNL A   1      36.761  23.057  25.446  1.00  0.00     0.060 A 
ATOM      7  C   UNL A   1      34.326  22.565  24.222  1.00  0.00    -0.029 A 
ATOM      8  C   UNL A   1      35.397  23.107  23.484  1.00  0.00     0.006 A 
ATOM      9  C   UNL A   1      34.509  22.234  25.567  1.00  0.00     0.006 A 
ATOM     10  C   UNL A   1      36.620  23.350  24.092  1.00  0.00     0.016 A 
ATOM     11  C   UNL A   1      35.698  22.534  26.188  1.00  0.00     0.016 A 
BRANCH   7  12
ATOM     12  C   UNL A   1      33.020  22.361  23.500  1.00  0.00     0.149 C 
BRANCH  12  13
ATOM     13  N   UNL A   1      32.184  23.537  23.517  1.00  0.00    -0.375 N 
ATOM     14  H   UNL A   1      31.543  23.602  22.772  1.00  0.00     0.161 HD
BRANCH  13  15
ATOM     15  C   UNL A   1      32.146  24.581  24.415  1.00  0.00     0.114 A 
ATOM     16  C   UNL A   1      33.645  28.116  24.077  1.00  0.00     0.044 C 
ATOM     17  C   UNL A   1      32.916  26.935  24.644  1.00  0.00    -0.049 A 
ATOM     18  C   UNL A   1      32.303  27.014  25.886  1.00  0.00     0.010 A 
ATOM     19  C   UNL A   1      32.838  25.731  23.940  1.00  0.00     0.036 A 
ATOM     20  C   UNL A   1      31.653  25.899  26.411  1.00  0.00     0.088 A 
ATOM     21  C   UNL A   1      31.581  24.679  25.700  1.00  0.00     0.292 A 
BRANCH  21  22
ATOM     22  N   UNL A   1      30.831  23.617  26.399  1.00  0.00     0.064 N 
ATOM     23  O   UNL A   1      31.148  22.443  26.151  1.00  0.00    -0.258 OA
ATOM     24  O   UNL A   1      29.888  23.914  27.139  1.00  0.00    -0.258 OA
ENDBRANCH  21  22
ENDBRANCH  13  15
ENDBRANCH  12  13
ENDBRANCH   7  12
ENDBRANCH   4   6
ENDBRANCH   3   4
ENDBRANCH   2   3
ENDBRANCH   1   2
BRANCH   1  25
ATOM     25  O   UNL A   1      41.121  20.073  27.422  1.00  0.00    -0.374 OA
BRANCH  25  26
ATOM     26  C   UNL A   1      41.408  19.591  26.127  1.00  0.00     0.202 C 
BRANCH  26  27
ATOM     27  C   UNL A   1      42.897  19.268  25.960  1.00  0.00     0.261 C 
BRANCH  27  28
ATOM     28  O   UNL A   1      43.453  20.079  24.897  1.00  0.00    -0.460 OA
BRANCH  28  29
ATOM     29  C   UNL A   1      44.368  21.023  25.264  1.00  0.00     0.338 C 
ATOM     30  O   UNL A   1      45.547  20.809  25.495  1.00  0.00    -0.246 OA
BRANCH  29  31
ATOM     31  C   UNL A   1      43.674  22.300  25.623  1.00  0.00     0.060 A 
ATOM     32  C   UNL A   1      43.506  23.322  24.663  1.00  0.00     0.016 A 
ATOM     33  C   UNL A   1      43.524  22.599  26.971  1.00  0.00     0.016 A 
ATOM     34  C   UNL A   1      43.374  24.665  25.065  1.00  0.00     0.010 A 
ATOM     35  C   UNL A   1      43.526  23.922  27.353  1.00  0.00     0.010 A 
ATOM     36  C   UNL A   1      43.495  24.974  26.416  1.00  0.00    -0.014 A 
BRANCH  36  37
ATOM     37  C   UNL A   1      43.674  26.306  27.022  1.00  0.00     0.031 A 
ATOM     38  C   UNL A   1      42.438  27.092  27.257  1.00  0.00     0.074 A 
ATOM     39  C   UNL A   1      44.807  26.640  27.695  1.00  0.00     0.049 A 
ATOM     40  N   UNL A   1      42.408  28.227  27.858  1.00  0.00    -0.248 NA
ATOM     41  C   UNL A   1      41.111  26.676  26.800  1.00  0.00     0.031 C 
ATOM     42  C   UNL A   1      44.914  27.463  28.912  1.00  0.00     0.029 A 
ATOM     43  N   UNL A   1      46.136  26.248  27.486  1.00  0.00    -0.354 N 
ATOM     44  C   UNL A   1      41.103  28.499  28.183  1.00  0.00     0.074 A 
ATOM     45  C   UNL A   1      40.328  27.586  27.387  1.00  0.00     0.031 C 
ATOM     46  C   UNL A   1      46.204  27.728  29.180  1.00  0.00     0.029 A 
ATOM     47  C   UNL A   1      46.978  27.219  28.067  1.00  0.00     0.049 A 
ATOM     48  H   UNL A   1      46.431  25.434  27.016  1.00  0.00     0.167 HD
ATOM     49  C   UNL A   1      40.879  29.392  29.187  1.00  0.00     0.037 A 
ATOM     50  C   UNL A   1      47.879  27.897  27.307  1.00  0.00     0.037 A 
ATOM     51  C   UNL A   1      42.136  30.072  29.540  1.00  0.00     0.049 A 
ATOM     52  C   UNL A   1      47.467  29.338  27.278  1.00  0.00     0.074 A 
ATOM     53  C   UNL A   1      42.992  30.014  30.625  1.00  0.00     0.029 A 
ATOM     54  N   UNL A   1      42.839  30.732  28.527  1.00  0.00    -0.354 N 
ATOM     55  N   UNL A   1      46.241  29.714  27.528  1.00  0.00    -0.248 NA
ATOM     56  C   UNL A   1      48.375  30.462  27.101  1.00  0.00     0.031 C 
ATOM     57  C   UNL A   1      44.245  30.569  30.218  1.00  0.00     0.029 A 
ATOM     58  C   UNL A   1      44.139  31.004  28.903  1.00  0.00     0.049 A 
ATOM     59  H   UNL A   1      42.454  30.972  27.653  1.00  0.00     0.167 HD
ATOM     60  C   UNL A   1      46.194  31.064  27.647  1.00  0.00     0.074 A 
ATOM     61  C   UNL A   1      47.545  31.496  27.328  1.00  0.00     0.031 C 
ATOM     62  C   UNL A   1      45.051  31.716  28.005  1.00  0.00     0.037 A 
BRANCH  49  63
ATOM     63  C   UNL A   1      39.582  29.568  29.957  1.00  0.00     0.064 A 
ATOM     64  C   UNL A   1      39.290  28.718  31.046  1.00  0.00     0.173 A 
ATOM     65  C   UNL A   1      38.546  30.476  29.639  1.00  0.00     0.173 A 
ATOM     66  F   UNL A   1      40.164  27.788  31.455  1.00  0.00    -0.203 F 
ATOM     67  C   UNL A   1      38.081  28.779  31.753  1.00  0.00     0.198 A 
ATOM     68  C   UNL A   1      37.358  30.566  30.374  1.00  0.00     0.198 A 
ATOM     69  F   UNL A   1      38.600  31.284  28.579  1.00  0.00    -0.203 F 
ATOM     70  F   UNL A   1      37.849  27.914  32.751  1.00  0.00    -0.200 F 
ATOM     71  C   UNL A   1      37.120  29.713  31.426  1.00  0.00     0.200 A 
ATOM     72  F   UNL A   1      36.437  31.481  30.032  1.00  0.00    -0.200 F 
ATOM     73  F   UNL A   1      35.968  29.779  32.106  1.00  0.00    -0.200 F 
ENDBRANCH  49  63
BRANCH  50  74
ATOM     74  C   UNL A   1      48.411  27.020  26.219  1.00  0.00     0.064 A 
ATOM     75  C   UNL A   1      47.945  27.320  24.916  1.00  0.00     0.173 A 
ATOM     76  C   UNL A   1      49.687  26.445  26.325  1.00  0.00     0.173 A 
ATOM     77  F   UNL A   1      46.737  27.883  24.752  1.00  0.00    -0.203 F 
ATOM     78  C   UNL A   1      48.789  27.242  23.808  1.00  0.00     0.198 A 
ATOM     79  C   UNL A   1      50.526  26.367  25.207  1.00  0.00     0.198 A 
ATOM     80  F   UNL A   1      50.191  26.142  27.530  1.00  0.00    -0.203 F 
ATOM     81  F   UNL A   1      48.382  27.722  22.622  1.00  0.00    -0.200 F 
ATOM     82  C   UNL A   1      50.095  26.815  23.966  1.00  0.00     0.200 A 
ATOM     83  F   UNL A   1      51.800  25.973  25.352  1.00  0.00    -0.200 F 
ATOM     84  F   UNL A   1      50.958  26.911  22.943  1.00  0.00    -0.200 F 
ENDBRANCH  50  74
BRANCH  62  85
ATOM     85  C   UNL A   1      44.748  33.127  27.579  1.00  0.00     0.064 A 
ATOM     86  C   UNL A   1      44.150  33.449  26.347  1.00  0.00     0.173 A 
ATOM     87  C   UNL A   1      44.888  34.204  28.485  1.00  0.00     0.173 A 
ATOM     88  F   UNL A   1      43.802  32.506  25.461  1.00  0.00    -0.203 F 
ATOM     89  C   UNL A   1      43.824  34.757  26.002  1.00  0.00     0.198 A 
ATOM     90  C   UNL A   1      44.479  35.497  28.169  1.00  0.00     0.198 A 
ATOM     91  F   UNL A   1      45.383  34.035  29.719  1.00  0.00    -0.203 F 
ATOM     92  F   UNL A   1      43.327  35.014  24.785  1.00  0.00    -0.200 F 
ATOM     93  C   UNL A   1      43.978  35.780  26.916  1.00  0.00     0.200 A 
ATOM     94  F   UNL A   1      44.554  36.460  29.097  1.00  0.00    -0.200 F 
ATOM     95  F   UNL A   1      43.619  37.030  26.599  1.00  0.00    -0.200 F 
ENDBRANCH  62  85
ENDBRANCH  36  37
ENDBRANCH  29  31
ENDBRANCH  28  29
ENDBRANCH  27  28
ENDBRANCH  26  27
ENDBRANCH  25  26
ENDBRANCH   1  25
TORSDOF 18
ENDMDL
