MODEL 1
REMARK VINA RESULT:     -10.4      0.000      0.000
REMARK SMILES CC(C)(C[C@@H](O)C(F)(F)F)C(=O)OCCOCCOC(=O)c1ccc(-c2c3nc(c(-c4c(F)c(F)c(F)c(F)c4F)c4ccc([nH]4)c(-c4c(F)c(F)c(F)c(F)c4F)c4nc(c(-c5c(F)c(F)c(F)c(F)c5F)c5ccc2[nH]5)C=C4)C=C3)cc1
REMARK SMILES IDX 15 1 14 2 13 3 11 4 12 5 2 6 1 7 3 8 4 9 5 10 6 11 7 13 8 14
REMARK SMILES IDX 9 15 10 16 16 17 17 18 18 19 19 20 20 21 21 22 22 23 23 24
REMARK SMILES IDX 84 25 24 26 83 27 25 28 26 29 27 30 77 31 28 32 82 33 76 34
REMARK SMILES IDX 78 35 29 36 81 37 75 38 74 39 30 41 62 42 42 43 61 44 43 45
REMARK SMILES IDX 46 46 60 47 79 48 44 49 45 50 59 52 80 53 47 54 31 55 32 56
REMARK SMILES IDX 40 57 33 58 34 59 38 60 41 61 35 62 36 63 39 64 37 65 63 66
REMARK SMILES IDX 64 67 72 68 65 69 66 70 70 71 73 72 67 73 68 74 71 75 69 76
REMARK SMILES IDX 48 77 49 78 57 79 50 80 51 81 55 82 58 83 52 84 53 85 56 86
REMARK SMILES IDX 54 87
REMARK H PARENT 6 12 78 40 46 51
REMARK Flexibility Score: inf
ROOT
ATOM      1  C   UNL A   1      30.907  28.453  24.073  1.00  0.00     0.202 C 
ENDROOT
BRANCH   1   2
ATOM      2  C   UNL A   1      32.186  27.730  23.648  1.00  0.00     0.261 C 
BRANCH   2   3
ATOM      3  O   UNL A   1      32.332  26.427  24.257  1.00  0.00    -0.463 OA
BRANCH   3   4
ATOM      4  C   UNL A   1      32.906  25.490  23.453  1.00  0.00     0.311 C 
ATOM      5  O   UNL A   1      32.966  25.580  22.232  1.00  0.00    -0.252 OA
BRANCH   4   6
ATOM      6  C   UNL A   1      33.425  24.262  24.208  1.00  0.00     0.065 C 
ATOM      7  C   UNL A   1      32.465  24.021  25.391  1.00  0.00     0.023 C 
ATOM      8  C   UNL A   1      34.805  24.673  24.765  1.00  0.00     0.023 C 
BRANCH   6   9
ATOM      9  C   UNL A   1      33.630  22.942  23.408  1.00  0.00     0.059 C 
BRANCH   9  10
ATOM     10  C   UNL A   1      32.413  22.009  23.276  1.00  0.00     0.220 C 
BRANCH  10  11
ATOM     11  O   UNL A   1      32.114  21.861  21.879  1.00  0.00    -0.384 OA
ATOM     12  H   UNL A   1      31.255  21.422  21.777  1.00  0.00     0.211 HD
ENDBRANCH  10  11
BRANCH  10  13
ATOM     13  C   UNL A   1      32.671  20.633  23.922  1.00  0.00     0.414 C 
ATOM     14  F   UNL A   1      31.791  20.403  24.925  1.00  0.00    -0.168 F 
ATOM     15  F   UNL A   1      32.515  19.635  23.021  1.00  0.00    -0.168 F 
ATOM     16  F   UNL A   1      33.915  20.540  24.438  1.00  0.00    -0.168 F 
ENDBRANCH  10  13
ENDBRANCH   9  10
ENDBRANCH   6   9
ENDBRANCH   4   6
ENDBRANCH   3   4
ENDBRANCH   2   3
ENDBRANCH   1   2
BRANCH   1  17
ATOM     17  O   UNL A   1      31.078  29.740  24.661  1.00  0.00    -0.374 OA
BRANCH  17  18
ATOM     18  C   UNL A   1      31.860  29.818  25.854  1.00  0.00     0.202 C 
BRANCH  18  19
ATOM     19  C   UNL A   1      32.054  31.227  26.428  1.00  0.00     0.261 C 
BRANCH  19  20
ATOM     20  O   UNL A   1      32.842  31.189  27.632  1.00  0.00    -0.460 OA
BRANCH  20  21
ATOM     21  C   UNL A   1      33.619  32.273  27.847  1.00  0.00     0.338 C 
ATOM     22  O   UNL A   1      33.244  33.411  28.072  1.00  0.00    -0.246 OA
BRANCH  21  23
ATOM     23  C   UNL A   1      35.039  31.877  27.969  1.00  0.00     0.060 A 
ATOM     24  C   UNL A   1      35.294  30.506  28.091  1.00  0.00     0.016 A 
ATOM     25  C   UNL A   1      36.088  32.797  28.053  1.00  0.00     0.016 A 
ATOM     26  C   UNL A   1      36.570  30.059  28.419  1.00  0.00     0.010 A 
ATOM     27  C   UNL A   1      37.377  32.345  28.383  1.00  0.00     0.010 A 
ATOM     28  C   UNL A   1      37.604  30.979  28.639  1.00  0.00    -0.014 A 
BRANCH  28  29
ATOM     29  C   UNL A   1      38.806  30.495  29.371  1.00  0.00     0.031 A 
ATOM     30  C   UNL A   1      38.976  30.891  30.817  1.00  0.00     0.074 A 
ATOM     31  C   UNL A   1      39.645  29.596  28.825  1.00  0.00     0.049 A 
ATOM     32  N   UNL A   1      39.828  30.448  31.708  1.00  0.00    -0.248 NA
ATOM     33  C   UNL A   1      38.054  31.917  31.330  1.00  0.00     0.031 C 
ATOM     34  C   UNL A   1      39.579  29.102  27.453  1.00  0.00     0.029 A 
ATOM     35  N   UNL A   1      40.704  28.915  29.378  1.00  0.00    -0.354 N 
ATOM     36  C   UNL A   1      39.533  31.129  32.883  1.00  0.00     0.074 A 
ATOM     37  C   UNL A   1      38.461  32.050  32.582  1.00  0.00     0.031 C 
ATOM     38  C   UNL A   1      40.543  28.181  27.273  1.00  0.00     0.029 A 
ATOM     39  C   UNL A   1      41.298  28.025  28.518  1.00  0.00     0.049 A 
ATOM     40  H   UNL A   1      41.007  29.053  30.304  1.00  0.00     0.167 HD
ATOM     41  C   UNL A   1      40.086  30.986  34.112  1.00  0.00     0.037 A 
ATOM     42  C   UNL A   1      42.323  27.174  28.715  1.00  0.00     0.037 A 
ATOM     43  C   UNL A   1      41.149  30.070  34.425  1.00  0.00     0.049 A 
ATOM     44  C   UNL A   1      42.952  27.064  30.082  1.00  0.00     0.074 A 
ATOM     45  C   UNL A   1      41.772  29.855  35.643  1.00  0.00     0.029 A 
ATOM     46  N   UNL A   1      41.749  29.218  33.512  1.00  0.00    -0.354 N 
ATOM     47  N   UNL A   1      42.635  27.681  31.194  1.00  0.00    -0.248 NA
ATOM     48  C   UNL A   1      44.070  26.119  30.222  1.00  0.00     0.031 C 
ATOM     49  C   UNL A   1      42.778  28.900  35.457  1.00  0.00     0.029 A 
ATOM     50  C   UNL A   1      42.746  28.485  34.136  1.00  0.00     0.049 A 
ATOM     51  H   UNL A   1      41.503  29.143  32.562  1.00  0.00     0.167 HD
ATOM     52  C   UNL A   1      43.486  27.173  32.169  1.00  0.00     0.074 A 
ATOM     53  C   UNL A   1      44.325  26.190  31.521  1.00  0.00     0.031 C 
ATOM     54  C   UNL A   1      43.562  27.493  33.485  1.00  0.00     0.037 A 
BRANCH  41  55
ATOM     55  C   UNL A   1      39.553  31.857  35.211  1.00  0.00     0.064 A 
ATOM     56  C   UNL A   1      39.948  33.196  35.344  1.00  0.00     0.173 A 
ATOM     57  C   UNL A   1      38.616  31.354  36.125  1.00  0.00     0.173 A 
ATOM     58  F   UNL A   1      40.854  33.720  34.504  1.00  0.00    -0.203 F 
ATOM     59  C   UNL A   1      39.442  33.994  36.367  1.00  0.00     0.198 A 
ATOM     60  C   UNL A   1      38.092  32.161  37.130  1.00  0.00     0.198 A 
ATOM     61  F   UNL A   1      38.204  30.080  36.037  1.00  0.00    -0.203 F 
ATOM     62  F   UNL A   1      39.867  35.257  36.503  1.00  0.00    -0.200 F 
ATOM     63  C   UNL A   1      38.510  33.477  37.255  1.00  0.00     0.200 A 
ATOM     64  F   UNL A   1      37.184  31.663  37.980  1.00  0.00    -0.200 F 
ATOM     65  F   UNL A   1      38.018  34.247  38.236  1.00  0.00    -0.200 F 
ENDBRANCH  41  55
BRANCH  42  66
ATOM     66  C   UNL A   1      42.816  26.329  27.594  1.00  0.00     0.064 A 
ATOM     67  C   UNL A   1      43.832  26.776  26.738  1.00  0.00     0.173 A 
ATOM     68  C   UNL A   1      42.251  25.073  27.336  1.00  0.00     0.173 A 
ATOM     69  F   UNL A   1      44.386  27.983  26.928  1.00  0.00    -0.203 F 
ATOM     70  C   UNL A   1      44.248  26.009  25.652  1.00  0.00     0.198 A 
ATOM     71  C   UNL A   1      42.686  24.294  26.267  1.00  0.00     0.198 A 
ATOM     72  F   UNL A   1      41.273  24.602  28.124  1.00  0.00    -0.203 F 
ATOM     73  F   UNL A   1      45.183  26.481  24.818  1.00  0.00    -0.200 F 
ATOM     74  C   UNL A   1      43.677  24.765  25.419  1.00  0.00     0.200 A 
ATOM     75  F   UNL A   1      42.138  23.090  26.051  1.00  0.00    -0.200 F 
ATOM     76  F   UNL A   1      44.074  24.029  24.373  1.00  0.00    -0.200 F 
ENDBRANCH  42  66
BRANCH  54  77
ATOM     77  C   UNL A   1      44.551  26.738  34.326  1.00  0.00     0.064 A 
ATOM     78  C   UNL A   1      44.223  25.521  34.942  1.00  0.00     0.173 A 
ATOM     79  C   UNL A   1      45.857  27.225  34.490  1.00  0.00     0.173 A 
ATOM     80  F   UNL A   1      42.985  25.017  34.824  1.00  0.00    -0.203 F 
ATOM     81  C   UNL A   1      45.156  24.836  35.717  1.00  0.00     0.198 A 
ATOM     82  C   UNL A   1      46.796  26.523  35.242  1.00  0.00     0.198 A 
ATOM     83  F   UNL A   1      46.227  28.379  33.915  1.00  0.00    -0.203 F 
ATOM     84  F   UNL A   1      44.804  23.702  36.339  1.00  0.00    -0.200 F 
ATOM     85  C   UNL A   1      46.442  25.334  35.862  1.00  0.00     0.200 A 
ATOM     86  F   UNL A   1      48.042  26.999  35.369  1.00  0.00    -0.200 F 
ATOM     87  F   UNL A   1      47.339  24.673  36.607  1.00  0.00    -0.200 F 
ENDBRANCH  54  77
ENDBRANCH  28  29
ENDBRANCH  21  23
ENDBRANCH  20  21
ENDBRANCH  19  20
ENDBRANCH  18  19
ENDBRANCH  17  18
ENDBRANCH   1  17
TORSDOF 18
ENDMDL
MODEL 2
REMARK VINA RESULT:     -10.0      4.226      9.836
REMARK SMILES CC(C)(C[C@@H](O)C(F)(F)F)C(=O)OCCOCCOC(=O)c1ccc(-c2c3nc(c(-c4c(F)c(F)c(F)c(F)c4F)c4ccc([nH]4)c(-c4c(F)c(F)c(F)c(F)c4F)c4nc(c(-c5c(F)c(F)c(F)c(F)c5F)c5ccc2[nH]5)C=C4)C=C3)cc1
REMARK SMILES IDX 15 1 14 2 13 3 11 4 12 5 2 6 1 7 3 8 4 9 5 10 6 11 7 13 8 14
REMARK SMILES IDX 9 15 10 16 16 17 17 18 18 19 19 20 20 21 21 22 22 23 23 24
REMARK SMILES IDX 84 25 24 26 83 27 25 28 26 29 27 30 77 31 28 32 82 33 76 34
REMARK SMILES IDX 78 35 29 36 81 37 75 38 74 39 30 41 62 42 42 43 61 44 43 45
REMARK SMILES IDX 46 46 60 47 79 48 44 49 45 50 59 52 80 53 47 54 31 55 32 56
REMARK SMILES IDX 40 57 33 58 34 59 38 60 41 61 35 62 36 63 39 64 37 65 63 66
REMARK SMILES IDX 64 67 72 68 65 69 66 70 70 71 73 72 67 73 68 74 71 75 69 76
REMARK SMILES IDX 48 77 49 78 57 79 50 80 51 81 55 82 58 83 52 84 53 85 56 86
REMARK SMILES IDX 54 87
REMARK H PARENT 6 12 78 40 46 51
REMARK Flexibility Score: inf
ROOT
ATOM      1  C   UNL A   1      35.227  22.934  26.385  1.00  0.00     0.202 C 
ENDROOT
BRANCH   1   2
ATOM      2  C   UNL A   1      35.011  24.166  25.503  1.00  0.00     0.261 C 
BRANCH   2   3
ATOM      3  O   UNL A   1      33.628  24.580  25.433  1.00  0.00    -0.463 OA
BRANCH   3   4
ATOM      4  C   UNL A   1      33.447  25.890  25.111  1.00  0.00     0.311 C 
ATOM      5  O   UNL A   1      33.834  26.825  25.803  1.00  0.00    -0.252 OA
BRANCH   4   6
ATOM      6  C   UNL A   1      32.650  26.105  23.819  1.00  0.00     0.065 C 
ATOM      7  C   UNL A   1      33.376  27.208  23.022  1.00  0.00     0.023 C 
ATOM      8  C   UNL A   1      31.274  26.639  24.267  1.00  0.00     0.023 C 
BRANCH   6   9
ATOM      9  C   UNL A   1      32.387  24.871  22.908  1.00  0.00     0.059 C 
BRANCH   9  10
ATOM     10  C   UNL A   1      31.638  23.684  23.538  1.00  0.00     0.220 C 
BRANCH  10  11
ATOM     11  O   UNL A   1      30.294  23.684  23.031  1.00  0.00    -0.384 OA
ATOM     12  H   UNL A   1      29.684  23.405  23.732  1.00  0.00     0.211 HD
ENDBRANCH  10  11
BRANCH  10  13
ATOM     13  C   UNL A   1      32.329  22.339  23.233  1.00  0.00     0.414 C 
ATOM     14  F   UNL A   1      33.601  22.540  22.814  1.00  0.00    -0.168 F 
ATOM     15  F   UNL A   1      32.393  21.561  24.338  1.00  0.00    -0.168 F 
ATOM     16  F   UNL A   1      31.685  21.646  22.269  1.00  0.00    -0.168 F 
ENDBRANCH  10  13
ENDBRANCH   9  10
ENDBRANCH   6   9
ENDBRANCH   4   6
ENDBRANCH   3   4
ENDBRANCH   2   3
ENDBRANCH   1   2
BRANCH   1  17
ATOM     17  O   UNL A   1      35.186  21.673  25.723  1.00  0.00    -0.374 OA
BRANCH  17  18
ATOM     18  C   UNL A   1      36.114  21.459  24.658  1.00  0.00     0.202 C 
BRANCH  18  19
ATOM     19  C   UNL A   1      37.416  20.746  25.046  1.00  0.00     0.261 C 
BRANCH  19  20
ATOM     20  O   UNL A   1      38.500  21.684  25.174  1.00  0.00    -0.460 OA
BRANCH  20  21
ATOM     21  C   UNL A   1      39.486  21.313  26.020  1.00  0.00     0.338 C 
ATOM     22  O   UNL A   1      40.129  20.278  25.989  1.00  0.00    -0.246 OA
BRANCH  21  23
ATOM     23  C   UNL A   1      39.845  22.433  26.919  1.00  0.00     0.060 A 
ATOM     24  C   UNL A   1      39.130  23.623  26.747  1.00  0.00     0.016 A 
ATOM     25  C   UNL A   1      40.898  22.371  27.837  1.00  0.00     0.016 A 
ATOM     26  C   UNL A   1      39.537  24.784  27.397  1.00  0.00     0.010 A 
ATOM     27  C   UNL A   1      41.307  23.544  28.495  1.00  0.00     0.010 A 
ATOM     28  C   UNL A   1      40.673  24.770  28.219  1.00  0.00    -0.014 A 
BRANCH  28  29
ATOM     29  C   UNL A   1      41.293  26.081  28.550  1.00  0.00     0.031 A 
ATOM     30  C   UNL A   1      42.679  26.372  28.031  1.00  0.00     0.074 A 
ATOM     31  C   UNL A   1      40.592  27.056  29.155  1.00  0.00     0.049 A 
ATOM     32  N   UNL A   1      43.349  27.499  28.026  1.00  0.00    -0.248 NA
ATOM     33  C   UNL A   1      43.406  25.243  27.426  1.00  0.00     0.031 C 
ATOM     34  C   UNL A   1      39.235  26.923  29.677  1.00  0.00     0.029 A 
ATOM     35  N   UNL A   1      40.922  28.367  29.405  1.00  0.00    -0.354 N 
ATOM     36  C   UNL A   1      44.561  27.215  27.407  1.00  0.00     0.074 A 
ATOM     37  C   UNL A   1      44.559  25.804  27.097  1.00  0.00     0.031 C 
ATOM     38  C   UNL A   1      38.838  28.110  30.169  1.00  0.00     0.029 A 
ATOM     39  C   UNL A   1      39.916  29.086  30.001  1.00  0.00     0.049 A 
ATOM     40  H   UNL A   1      41.798  28.754  29.177  1.00  0.00     0.167 HD
ATOM     41  C   UNL A   1      45.577  28.056  27.101  1.00  0.00     0.037 A 
ATOM     42  C   UNL A   1      39.865  30.384  30.358  1.00  0.00     0.037 A 
ATOM     43  C   UNL A   1      45.589  29.462  27.399  1.00  0.00     0.049 A 
ATOM     44  C   UNL A   1      41.029  31.292  30.045  1.00  0.00     0.074 A 
ATOM     45  C   UNL A   1      46.576  30.395  27.125  1.00  0.00     0.029 A 
ATOM     46  N   UNL A   1      44.566  30.139  28.042  1.00  0.00    -0.354 N 
ATOM     47  N   UNL A   1      42.149  31.021  29.422  1.00  0.00    -0.248 NA
ATOM     48  C   UNL A   1      40.906  32.695  30.470  1.00  0.00     0.031 C 
ATOM     49  C   UNL A   1      46.166  31.629  27.639  1.00  0.00     0.029 A 
ATOM     50  C   UNL A   1      44.903  31.475  28.188  1.00  0.00     0.049 A 
ATOM     51  H   UNL A   1      43.724  29.732  28.349  1.00  0.00     0.167 HD
ATOM     52  C   UNL A   1      42.845  32.223  29.346  1.00  0.00     0.074 A 
ATOM     53  C   UNL A   1      42.016  33.226  29.978  1.00  0.00     0.031 C 
ATOM     54  C   UNL A   1      44.061  32.471  28.800  1.00  0.00     0.037 A 
BRANCH  41  55
ATOM     55  C   UNL A   1      46.773  27.466  26.413  1.00  0.00     0.064 A 
ATOM     56  C   UNL A   1      46.909  27.500  25.018  1.00  0.00     0.173 A 
ATOM     57  C   UNL A   1      47.808  26.885  27.161  1.00  0.00     0.173 A 
ATOM     58  F   UNL A   1      45.939  28.031  24.257  1.00  0.00    -0.203 F 
ATOM     59  C   UNL A   1      48.027  26.951  24.394  1.00  0.00     0.198 A 
ATOM     60  C   UNL A   1      48.936  26.362  26.537  1.00  0.00     0.198 A 
ATOM     61  F   UNL A   1      47.726  26.831  28.499  1.00  0.00    -0.203 F 
ATOM     62  F   UNL A   1      48.115  26.954  23.057  1.00  0.00    -0.200 F 
ATOM     63  C   UNL A   1      49.042  26.390  25.154  1.00  0.00     0.200 A 
ATOM     64  F   UNL A   1      49.920  25.829  27.273  1.00  0.00    -0.200 F 
ATOM     65  F   UNL A   1      50.121  25.867  24.553  1.00  0.00    -0.200 F 
ENDBRANCH  41  55
BRANCH  42  66
ATOM     66  C   UNL A   1      38.657  30.923  31.038  1.00  0.00     0.064 A 
ATOM     67  C   UNL A   1      37.622  31.530  30.311  1.00  0.00     0.173 A 
ATOM     68  C   UNL A   1      38.534  30.876  32.433  1.00  0.00     0.173 A 
ATOM     69  F   UNL A   1      37.706  31.623  28.976  1.00  0.00    -0.203 F 
ATOM     70  C   UNL A   1      36.522  32.089  30.957  1.00  0.00     0.198 A 
ATOM     71  C   UNL A   1      37.420  31.411  33.077  1.00  0.00     0.198 A 
ATOM     72  F   UNL A   1      39.498  30.309  33.174  1.00  0.00    -0.203 F 
ATOM     73  F   UNL A   1      35.572  32.710  30.244  1.00  0.00    -0.200 F 
ATOM     74  C   UNL A   1      36.419  32.025  32.340  1.00  0.00     0.200 A 
ATOM     75  F   UNL A   1      37.321  31.339  34.411  1.00  0.00    -0.200 F 
ATOM     76  F   UNL A   1      35.363  32.566  32.961  1.00  0.00    -0.200 F 
ENDBRANCH  42  66
BRANCH  54  77
ATOM     77  C   UNL A   1      44.551  33.891  28.812  1.00  0.00     0.064 A 
ATOM     78  C   UNL A   1      45.348  34.391  29.853  1.00  0.00     0.173 A 
ATOM     79  C   UNL A   1      44.244  34.754  27.748  1.00  0.00     0.173 A 
ATOM     80  F   UNL A   1      45.661  33.609  30.898  1.00  0.00    -0.203 F 
ATOM     81  C   UNL A   1      45.792  35.711  29.844  1.00  0.00     0.198 A 
ATOM     82  C   UNL A   1      44.714  36.064  27.729  1.00  0.00     0.198 A 
ATOM     83  F   UNL A   1      43.493  34.324  26.723  1.00  0.00    -0.203 F 
ATOM     84  F   UNL A   1      46.508  36.181  30.874  1.00  0.00    -0.200 F 
ATOM     85  C   UNL A   1      45.480  36.544  28.780  1.00  0.00     0.200 A 
ATOM     86  F   UNL A   1      44.423  36.863  26.693  1.00  0.00    -0.200 F 
ATOM     87  F   UNL A   1      45.909  37.814  28.773  1.00  0.00    -0.200 F 
ENDBRANCH  54  77
ENDBRANCH  28  29
ENDBRANCH  21  23
ENDBRANCH  20  21
ENDBRANCH  19  20
ENDBRANCH  18  19
ENDBRANCH  17  18
ENDBRANCH   1  17
TORSDOF 18
ENDMDL
MODEL 3
REMARK VINA RESULT:     -10.0      5.338      8.686
REMARK SMILES CC(C)(C[C@@H](O)C(F)(F)F)C(=O)OCCOCCOC(=O)c1ccc(-c2c3nc(c(-c4c(F)c(F)c(F)c(F)c4F)c4ccc([nH]4)c(-c4c(F)c(F)c(F)c(F)c4F)c4nc(c(-c5c(F)c(F)c(F)c(F)c5F)c5ccc2[nH]5)C=C4)C=C3)cc1
REMARK SMILES IDX 15 1 14 2 13 3 11 4 12 5 2 6 1 7 3 8 4 9 5 10 6 11 7 13 8 14
REMARK SMILES IDX 9 15 10 16 16 17 17 18 18 19 19 20 20 21 21 22 22 23 23 24
REMARK SMILES IDX 84 25 24 26 83 27 25 28 26 29 27 30 77 31 28 32 82 33 76 34
REMARK SMILES IDX 78 35 29 36 81 37 75 38 74 39 30 41 62 42 42 43 61 44 43 45
REMARK SMILES IDX 46 46 60 47 79 48 44 49 45 50 59 52 80 53 47 54 31 55 32 56
REMARK SMILES IDX 40 57 33 58 34 59 38 60 41 61 35 62 36 63 39 64 37 65 63 66
REMARK SMILES IDX 64 67 72 68 65 69 66 70 70 71 73 72 67 73 68 74 71 75 69 76
REMARK SMILES IDX 48 77 49 78 57 79 50 80 51 81 55 82 58 83 52 84 53 85 56 86
REMARK SMILES IDX 54 87
REMARK H PARENT 6 12 78 40 46 51
REMARK Flexibility Score: inf
ROOT
ATOM      1  C   UNL A   1      37.326  22.283  25.760  1.00  0.00     0.202 C 
ENDROOT
BRANCH   1   2
ATOM      2  C   UNL A   1      36.044  22.918  25.216  1.00  0.00     0.261 C 
BRANCH   2   3
ATOM      3  O   UNL A   1      35.163  21.966  24.579  1.00  0.00    -0.463 OA
BRANCH   3   4
ATOM      4  C   UNL A   1      34.119  21.559  25.351  1.00  0.00     0.311 C 
ATOM      5  O   UNL A   1      34.178  21.424  26.568  1.00  0.00    -0.252 OA
BRANCH   4   6
ATOM      6  C   UNL A   1      32.855  21.219  24.552  1.00  0.00     0.065 C 
ATOM      7  C   UNL A   1      32.956  21.971  23.210  1.00  0.00     0.023 C 
ATOM      8  C   UNL A   1      31.683  21.808  25.364  1.00  0.00     0.023 C 
BRANCH   6   9
ATOM      9  C   UNL A   1      32.529  19.718  24.302  1.00  0.00     0.059 C 
BRANCH   9  10
ATOM     10  C   UNL A   1      33.412  18.682  25.019  1.00  0.00     0.220 C 
BRANCH  10  11
ATOM     11  O   UNL A   1      32.861  18.455  26.327  1.00  0.00    -0.384 OA
ATOM     12  H   UNL A   1      32.736  17.504  26.464  1.00  0.00     0.211 HD
ENDBRANCH  10  11
BRANCH  10  13
ATOM     13  C   UNL A   1      33.500  17.358  24.234  1.00  0.00     0.414 C 
ATOM     14  F   UNL A   1      33.316  17.574  22.910  1.00  0.00    -0.168 F 
ATOM     15  F   UNL A   1      34.718  16.786  24.377  1.00  0.00    -0.168 F 
ATOM     16  F   UNL A   1      32.569  16.467  24.637  1.00  0.00    -0.168 F 
ENDBRANCH  10  13
ENDBRANCH   9  10
ENDBRANCH   6   9
ENDBRANCH   4   6
ENDBRANCH   3   4
ENDBRANCH   2   3
ENDBRANCH   1   2
BRANCH   1  17
ATOM     17  O   UNL A   1      37.997  21.378  24.888  1.00  0.00    -0.374 OA
BRANCH  17  18
ATOM     18  C   UNL A   1      37.821  19.982  25.129  1.00  0.00     0.202 C 
BRANCH  18  19
ATOM     19  C   UNL A   1      39.099  19.200  25.463  1.00  0.00     0.261 C 
BRANCH  19  20
ATOM     20  O   UNL A   1      40.057  20.039  26.134  1.00  0.00    -0.460 OA
BRANCH  20  21
ATOM     21  C   UNL A   1      41.329  19.585  26.122  1.00  0.00     0.338 C 
ATOM     22  O   UNL A   1      41.701  18.451  25.871  1.00  0.00    -0.246 OA
BRANCH  21  23
ATOM     23  C   UNL A   1      42.282  20.707  26.274  1.00  0.00     0.060 A 
ATOM     24  C   UNL A   1      42.238  21.400  27.489  1.00  0.00     0.016 A 
ATOM     25  C   UNL A   1      43.127  21.140  25.248  1.00  0.00     0.016 A 
ATOM     26  C   UNL A   1      42.942  22.589  27.642  1.00  0.00     0.010 A 
ATOM     27  C   UNL A   1      43.840  22.341  25.403  1.00  0.00     0.010 A 
ATOM     28  C   UNL A   1      43.691  23.107  26.575  1.00  0.00    -0.014 A 
BRANCH  28  29
ATOM     29  C   UNL A   1      44.076  24.543  26.643  1.00  0.00     0.031 A 
ATOM     30  C   UNL A   1      43.070  25.533  27.175  1.00  0.00     0.074 A 
ATOM     31  C   UNL A   1      45.336  24.944  26.395  1.00  0.00     0.049 A 
ATOM     32  N   UNL A   1      43.231  26.791  27.504  1.00  0.00    -0.248 NA
ATOM     33  C   UNL A   1      41.699  25.035  27.374  1.00  0.00     0.031 C 
ATOM     34  C   UNL A   1      46.414  24.089  25.908  1.00  0.00     0.029 A 
ATOM     35  N   UNL A   1      45.925  26.176  26.551  1.00  0.00    -0.354 N 
ATOM     36  C   UNL A   1      41.992  27.225  27.959  1.00  0.00     0.074 A 
ATOM     37  C   UNL A   1      41.076  26.115  27.818  1.00  0.00     0.031 C 
ATOM     38  C   UNL A   1      47.543  24.817  25.822  1.00  0.00     0.029 A 
ATOM     39  C   UNL A   1      47.263  26.190  26.243  1.00  0.00     0.049 A 
ATOM     40  H   UNL A   1      45.433  26.972  26.855  1.00  0.00     0.167 HD
ATOM     41  C   UNL A   1      41.647  28.430  28.473  1.00  0.00     0.037 A 
ATOM     42  C   UNL A   1      48.161  27.192  26.307  1.00  0.00     0.037 A 
ATOM     43  C   UNL A   1      42.549  29.539  28.624  1.00  0.00     0.049 A 
ATOM     44  C   UNL A   1      47.743  28.540  26.842  1.00  0.00     0.074 A 
ATOM     45  C   UNL A   1      42.290  30.799  29.136  1.00  0.00     0.029 A 
ATOM     46  N   UNL A   1      43.886  29.522  28.260  1.00  0.00    -0.354 N 
ATOM     47  N   UNL A   1      46.580  28.923  27.310  1.00  0.00    -0.248 NA
ATOM     48  C   UNL A   1      48.775  29.587  26.877  1.00  0.00     0.031 C 
ATOM     49  C   UNL A   1      43.461  31.558  29.044  1.00  0.00     0.029 A 
ATOM     50  C   UNL A   1      44.462  30.755  28.522  1.00  0.00     0.049 A 
ATOM     51  H   UNL A   1      44.356  28.748  27.873  1.00  0.00     0.167 HD
ATOM     52  C   UNL A   1      46.750  30.238  27.728  1.00  0.00     0.074 A 
ATOM     53  C   UNL A   1      48.131  30.584  27.468  1.00  0.00     0.031 C 
ATOM     54  C   UNL A   1      45.843  31.082  28.278  1.00  0.00     0.037 A 
BRANCH  41  55
ATOM     55  C   UNL A   1      40.221  28.612  28.900  1.00  0.00     0.064 A 
ATOM     56  C   UNL A   1      39.810  28.359  30.217  1.00  0.00     0.173 A 
ATOM     57  C   UNL A   1      39.259  29.071  27.987  1.00  0.00     0.173 A 
ATOM     58  F   UNL A   1      40.689  27.904  31.123  1.00  0.00    -0.203 F 
ATOM     59  C   UNL A   1      38.482  28.537  30.600  1.00  0.00     0.198 A 
ATOM     60  C   UNL A   1      37.939  29.273  28.380  1.00  0.00     0.198 A 
ATOM     61  F   UNL A   1      39.603  29.330  26.717  1.00  0.00    -0.203 F 
ATOM     62  F   UNL A   1      38.103  28.246  31.851  1.00  0.00    -0.200 F 
ATOM     63  C   UNL A   1      37.550  28.999  29.683  1.00  0.00     0.200 A 
ATOM     64  F   UNL A   1      37.042  29.730  27.496  1.00  0.00    -0.200 F 
ATOM     65  F   UNL A   1      36.274  29.176  30.053  1.00  0.00    -0.200 F 
ENDBRANCH  41  55
BRANCH  42  66
ATOM     66  C   UNL A   1      49.565  26.963  25.872  1.00  0.00     0.064 A 
ATOM     67  C   UNL A   1      49.961  27.174  24.544  1.00  0.00     0.173 A 
ATOM     68  C   UNL A   1      50.529  26.489  26.773  1.00  0.00     0.173 A 
ATOM     69  F   UNL A   1      49.067  27.600  23.638  1.00  0.00    -0.203 F 
ATOM     70  C   UNL A   1      51.261  26.898  24.128  1.00  0.00     0.198 A 
ATOM     71  C   UNL A   1      51.837  26.240  26.363  1.00  0.00     0.198 A 
ATOM     72  F   UNL A   1      50.201  26.268  28.055  1.00  0.00    -0.203 F 
ATOM     73  F   UNL A   1      51.600  27.057  22.842  1.00  0.00    -0.200 F 
ATOM     74  C   UNL A   1      52.200  26.435  25.039  1.00  0.00     0.200 A 
ATOM     75  F   UNL A   1      52.743  25.802  27.247  1.00  0.00    -0.200 F 
ATOM     76  F   UNL A   1      53.450  26.166  24.638  1.00  0.00    -0.200 F 
ENDBRANCH  42  66
BRANCH  54  77
ATOM     77  C   UNL A   1      46.322  32.445  28.688  1.00  0.00     0.064 A 
ATOM     78  C   UNL A   1      46.851  32.692  29.963  1.00  0.00     0.173 A 
ATOM     79  C   UNL A   1      46.283  33.512  27.776  1.00  0.00     0.173 A 
ATOM     80  F   UNL A   1      46.902  31.709  30.875  1.00  0.00    -0.203 F 
ATOM     81  C   UNL A   1      47.291  33.964  30.323  1.00  0.00     0.198 A 
ATOM     82  C   UNL A   1      46.750  34.775  28.129  1.00  0.00     0.198 A 
ATOM     83  F   UNL A   1      45.797  33.328  26.540  1.00  0.00    -0.203 F 
ATOM     84  F   UNL A   1      47.743  34.189  31.564  1.00  0.00    -0.200 F 
ATOM     85  C   UNL A   1      47.246  35.002  29.404  1.00  0.00     0.200 A 
ATOM     86  F   UNL A   1      46.720  35.773  27.235  1.00  0.00    -0.200 F 
ATOM     87  F   UNL A   1      47.672  36.225  29.750  1.00  0.00    -0.200 F 
ENDBRANCH  54  77
ENDBRANCH  28  29
ENDBRANCH  21  23
ENDBRANCH  20  21
ENDBRANCH  19  20
ENDBRANCH  18  19
ENDBRANCH  17  18
ENDBRANCH   1  17
TORSDOF 18
ENDMDL
