MODEL 1
REMARK VINA RESULT:     -13.2      0.000      0.000
REMARK SMILES C[C@@H](C(=O)OCCOCCOC(=O)c1ccc(-c2c3nc(c(-c4c(F)c(F)c(F)c(F)c4F)c4ccc([nH]4)c(-c4c(F)c(F)c(F)c(F)c4F)c4nc(c(-c5c(F)c(F)c(F)c(F)c5F)c5ccc2[nH]5)C=C4)C=C3)cc1)[N@@H+]1CCc2n[nH]c(C(c3ccccc3)c3ccccc3)c2C1
REMARK SMILES IDX 7 1 6 2 5 3 3 4 4 5 2 6 1 7 77 8 78 9 98 10 79 12 97 13
REMARK SMILES IDX 80 14 83 15 81 16 82 17 84 19 85 20 86 21 90 22 87 23 89 24
REMARK SMILES IDX 88 25 91 26 92 27 96 28 93 29 95 30 94 31 8 32 9 33 10 34
REMARK SMILES IDX 11 35 12 36 13 37 14 38 15 39 76 40 16 41 75 42 17 43 18 44
REMARK SMILES IDX 19 45 69 46 20 47 74 48 68 49 70 50 21 51 73 52 67 53 66 54
REMARK SMILES IDX 22 56 54 57 34 58 53 59 35 60 38 61 52 62 71 63 36 64 37 65
REMARK SMILES IDX 51 67 72 68 39 69 23 70 24 71 32 72 25 73 26 74 30 75 33 76
REMARK SMILES IDX 27 77 28 78 31 79 29 80 55 81 56 82 64 83 57 84 58 85 62 86
REMARK SMILES IDX 65 87 59 88 60 89 63 90 61 91 40 92 41 93 49 94 42 95 43 96
REMARK SMILES IDX 47 97 50 98 44 99 45 100 48 101 46 102
REMARK H PARENT 77 11 82 18 70 55 38 66
REMARK Flexibility Score: inf
ROOT
ATOM      1  C   UNL A   1      37.666  22.523  25.324  1.00  0.00     0.202 C 
ENDROOT
BRANCH   1   2
ATOM      2  C   UNL A   1      36.420  23.357  25.942  1.00  0.00     0.261 C 
BRANCH   2   3
ATOM      3  O   UNL A   1      35.225  23.400  25.117  1.00  0.00    -0.459 OA
BRANCH   3   4
ATOM      4  C   UNL A   1      34.136  22.675  25.517  1.00  0.00     0.364 C 
ATOM      5  O   UNL A   1      34.233  21.532  25.953  1.00  0.00    -0.245 OA
BRANCH   4   6
ATOM      6  C   UNL A   1      32.755  23.425  25.363  1.00  0.00     0.292 C 
ATOM      7  C   UNL A   1      32.056  23.654  26.715  1.00  0.00     0.088 C 
BRANCH   6   8
ATOM      8  N   UNL A   1      31.921  22.927  24.215  1.00  0.00    -0.319 N 
ATOM      9  C   UNL A   1      32.643  22.251  23.116  1.00  0.00     0.269 C 
ATOM     10  C   UNL A   1      31.030  23.948  23.636  1.00  0.00     0.303 C 
ATOM     11  H   UNL A   1      31.366  22.211  24.685  1.00  0.00     0.349 HD
ATOM     12  C   UNL A   1      32.928  23.141  21.859  1.00  0.00     0.120 C 
ATOM     13  C   UNL A   1      31.879  25.105  23.098  1.00  0.00     0.052 A 
ATOM     14  C   UNL A   1      32.869  24.606  22.209  1.00  0.00     0.077 A 
ATOM     15  C   UNL A   1      32.024  26.539  23.106  1.00  0.00     0.056 A 
ATOM     16  N   UNL A   1      33.718  25.549  21.835  1.00  0.00    -0.180 NA
ATOM     17  N   UNL A   1      33.263  26.645  22.478  1.00  0.00    -0.281 N 
ATOM     18  H   UNL A   1      33.783  27.480  22.503  1.00  0.00     0.190 HD
BRANCH  15  19
ATOM     19  C   UNL A   1      31.311  28.018  23.613  1.00  0.00     0.098 C 
BRANCH  19  20
ATOM     20  C   UNL A   1      30.059  28.796  22.909  1.00  0.00    -0.035 A 
ATOM     21  C   UNL A   1      28.742  28.305  23.065  1.00  0.00     0.005 A 
ATOM     22  C   UNL A   1      30.096  29.798  21.937  1.00  0.00     0.005 A 
ATOM     23  C   UNL A   1      27.595  29.033  22.678  1.00  0.00     0.000 A 
ATOM     24  C   UNL A   1      28.979  30.535  21.499  1.00  0.00     0.000 A 
ATOM     25  C   UNL A   1      27.721  30.198  21.943  1.00  0.00     0.000 A 
ENDBRANCH  19  20
BRANCH  19  26
ATOM     26  C   UNL A   1      31.573  28.535  25.041  1.00  0.00    -0.035 A 
ATOM     27  C   UNL A   1      31.970  29.875  25.260  1.00  0.00     0.005 A 
ATOM     28  C   UNL A   1      31.649  27.656  26.128  1.00  0.00     0.005 A 
ATOM     29  C   UNL A   1      32.437  30.315  26.495  1.00  0.00     0.000 A 
ATOM     30  C   UNL A   1      32.104  28.102  27.375  1.00  0.00     0.000 A 
ATOM     31  C   UNL A   1      32.506  29.426  27.555  1.00  0.00     0.000 A 
ENDBRANCH  19  26
ENDBRANCH  15  19
ENDBRANCH   6   8
ENDBRANCH   4   6
ENDBRANCH   3   4
ENDBRANCH   2   3
ENDBRANCH   1   2
BRANCH   1  32
ATOM     32  O   UNL A   1      37.375  21.269  24.665  1.00  0.00    -0.374 OA
BRANCH  32  33
ATOM     33  C   UNL A   1      37.823  19.922  24.938  1.00  0.00     0.202 C 
BRANCH  33  34
ATOM     34  C   UNL A   1      39.170  19.752  25.894  1.00  0.00     0.261 C 
BRANCH  34  35
ATOM     35  O   UNL A   1      40.453  19.214  25.371  1.00  0.00    -0.460 OA
BRANCH  35  36
ATOM     36  C   UNL A   1      41.638  19.442  26.082  1.00  0.00     0.338 C 
ATOM     37  O   UNL A   1      42.500  18.596  26.254  1.00  0.00    -0.246 OA
BRANCH  36  38
ATOM     38  C   UNL A   1      41.787  20.873  26.671  1.00  0.00     0.060 A 
ATOM     39  C   UNL A   1      41.589  21.966  25.851  1.00  0.00     0.016 A 
ATOM     40  C   UNL A   1      42.096  21.209  27.994  1.00  0.00     0.016 A 
ATOM     41  C   UNL A   1      41.609  23.321  26.246  1.00  0.00     0.010 A 
ATOM     42  C   UNL A   1      42.170  22.588  28.427  1.00  0.00     0.010 A 
ATOM     43  C   UNL A   1      41.929  23.672  27.549  1.00  0.00    -0.014 A 
BRANCH  43  44
ATOM     44  C   UNL A   1      42.269  25.126  27.828  1.00  0.00     0.031 A 
ATOM     45  C   UNL A   1      43.538  25.686  27.216  1.00  0.00     0.074 A 
ATOM     46  C   UNL A   1      41.422  26.028  28.383  1.00  0.00     0.049 A 
ATOM     47  N   UNL A   1      44.088  26.872  27.336  1.00  0.00    -0.248 NA
ATOM     48  C   UNL A   1      44.264  24.782  26.316  1.00  0.00     0.031 C 
ATOM     49  C   UNL A   1      40.069  25.747  28.859  1.00  0.00     0.029 A 
ATOM     50  N   UNL A   1      41.560  27.391  28.604  1.00  0.00    -0.354 N 
ATOM     51  C   UNL A   1      45.249  26.831  26.573  1.00  0.00     0.074 A 
ATOM     52  C   UNL A   1      45.314  25.513  25.980  1.00  0.00     0.031 C 
ATOM     53  C   UNL A   1      39.498  26.892  29.282  1.00  0.00     0.029 A 
ATOM     54  C   UNL A   1      40.458  27.993  29.174  1.00  0.00     0.049 A 
ATOM     55  H   UNL A   1      42.379  27.888  28.373  1.00  0.00     0.167 HD
ATOM     56  C   UNL A   1      46.187  27.791  26.380  1.00  0.00     0.037 A 
ATOM     57  C   UNL A   1      40.245  29.266  29.589  1.00  0.00     0.037 A 
ATOM     58  C   UNL A   1      46.125  29.127  26.906  1.00  0.00     0.049 A 
ATOM     59  C   UNL A   1      41.346  30.300  29.462  1.00  0.00     0.074 A 
ATOM     60  C   UNL A   1      47.073  30.134  26.825  1.00  0.00     0.029 A 
ATOM     61  N   UNL A   1      45.041  29.655  27.586  1.00  0.00    -0.354 N 
ATOM     62  N   UNL A   1      42.512  30.201  28.873  1.00  0.00    -0.248 NA
ATOM     63  C   UNL A   1      41.111  31.617  30.083  1.00  0.00     0.031 C 
ATOM     64  C   UNL A   1      46.574  31.262  27.486  1.00  0.00     0.029 A 
ATOM     65  C   UNL A   1      45.300  30.969  27.941  1.00  0.00     0.049 A 
ATOM     66  H   UNL A   1      44.210  29.167  27.788  1.00  0.00     0.167 HD
ATOM     67  C   UNL A   1      43.140  31.431  29.047  1.00  0.00     0.074 A 
ATOM     68  C   UNL A   1      42.217  32.276  29.770  1.00  0.00     0.031 C 
ATOM     69  C   UNL A   1      44.378  31.816  28.651  1.00  0.00     0.037 A 
BRANCH  56  70
ATOM     70  C   UNL A   1      47.418  27.386  25.623  1.00  0.00     0.064 A 
ATOM     71  C   UNL A   1      48.528  26.803  26.252  1.00  0.00     0.173 A 
ATOM     72  C   UNL A   1      47.490  27.616  24.240  1.00  0.00     0.173 A 
ATOM     73  F   UNL A   1      48.517  26.586  27.576  1.00  0.00    -0.203 F 
ATOM     74  C   UNL A   1      49.679  26.500  25.529  1.00  0.00     0.198 A 
ATOM     75  C   UNL A   1      48.630  27.285  23.517  1.00  0.00     0.198 A 
ATOM     76  F   UNL A   1      46.453  28.169  23.594  1.00  0.00    -0.203 F 
ATOM     77  F   UNL A   1      50.752  26.002  26.159  1.00  0.00    -0.200 F 
ATOM     78  C   UNL A   1      49.728  26.738  24.163  1.00  0.00     0.200 A 
ATOM     79  F   UNL A   1      48.672  27.510  22.195  1.00  0.00    -0.200 F 
ATOM     80  F   UNL A   1      50.840  26.454  23.470  1.00  0.00    -0.200 F 
ENDBRANCH  56  70
BRANCH  57  81
ATOM     81  C   UNL A   1      38.955  29.657  30.242  1.00  0.00     0.064 A 
ATOM     82  C   UNL A   1      37.880  30.179  29.502  1.00  0.00     0.173 A 
ATOM     83  C   UNL A   1      38.799  29.591  31.636  1.00  0.00     0.173 A 
ATOM     84  F   UNL A   1      37.988  30.321  28.173  1.00  0.00    -0.203 F 
ATOM     85  C   UNL A   1      36.712  30.619  30.129  1.00  0.00     0.198 A 
ATOM     86  C   UNL A   1      37.619  30.000  32.258  1.00  0.00     0.198 A 
ATOM     87  F   UNL A   1      39.801  29.136  32.402  1.00  0.00    -0.203 F 
ATOM     88  F   UNL A   1      35.726  31.164  29.402  1.00  0.00    -0.200 F 
ATOM     89  C   UNL A   1      36.578  30.521  31.505  1.00  0.00     0.200 A 
ATOM     90  F   UNL A   1      37.497  29.902  33.588  1.00  0.00    -0.200 F 
ATOM     91  F   UNL A   1      35.457  30.941  32.106  1.00  0.00    -0.200 F 
ENDBRANCH  57  81
BRANCH  69  92
ATOM     92  C   UNL A   1      44.817  33.216  28.972  1.00  0.00     0.064 A 
ATOM     93  C   UNL A   1      45.549  33.507  30.133  1.00  0.00     0.173 A 
ATOM     94  C   UNL A   1      44.563  34.267  28.076  1.00  0.00     0.173 A 
ATOM     95  F   UNL A   1      45.810  32.540  31.025  1.00  0.00    -0.203 F 
ATOM     96  C   UNL A   1      45.996  34.801  30.393  1.00  0.00     0.198 A 
ATOM     97  C   UNL A   1      45.031  35.554  28.330  1.00  0.00     0.198 A 
ATOM     98  F   UNL A   1      43.875  34.041  26.948  1.00  0.00    -0.203 F 
ATOM     99  F   UNL A   1      46.667  35.061  31.524  1.00  0.00    -0.200 F 
ATOM    100  C   UNL A   1      45.743  35.821  29.488  1.00  0.00     0.200 A 
ATOM    101  F   UNL A   1      44.796  36.537  27.448  1.00  0.00    -0.200 F 
ATOM    102  F   UNL A   1      46.183  37.063  29.736  1.00  0.00    -0.200 F 
ENDBRANCH  69  92
ENDBRANCH  43  44
ENDBRANCH  36  38
ENDBRANCH  35  36
ENDBRANCH  34  35
ENDBRANCH  33  34
ENDBRANCH  32  33
ENDBRANCH   1  32
TORSDOF 18
ENDMDL
MODEL 2
REMARK VINA RESULT:     -12.8      4.624     10.507
REMARK SMILES C[C@@H](C(=O)OCCOCCOC(=O)c1ccc(-c2c3nc(c(-c4c(F)c(F)c(F)c(F)c4F)c4ccc([nH]4)c(-c4c(F)c(F)c(F)c(F)c4F)c4nc(c(-c5c(F)c(F)c(F)c(F)c5F)c5ccc2[nH]5)C=C4)C=C3)cc1)[N@@H+]1CCc2n[nH]c(C(c3ccccc3)c3ccccc3)c2C1
REMARK SMILES IDX 7 1 6 2 5 3 3 4 4 5 2 6 1 7 77 8 78 9 98 10 79 12 97 13
REMARK SMILES IDX 80 14 83 15 81 16 82 17 84 19 85 20 86 21 90 22 87 23 89 24
REMARK SMILES IDX 88 25 91 26 92 27 96 28 93 29 95 30 94 31 8 32 9 33 10 34
REMARK SMILES IDX 11 35 12 36 13 37 14 38 15 39 76 40 16 41 75 42 17 43 18 44
REMARK SMILES IDX 19 45 69 46 20 47 74 48 68 49 70 50 21 51 73 52 67 53 66 54
REMARK SMILES IDX 22 56 54 57 34 58 53 59 35 60 38 61 52 62 71 63 36 64 37 65
REMARK SMILES IDX 51 67 72 68 39 69 23 70 24 71 32 72 25 73 26 74 30 75 33 76
REMARK SMILES IDX 27 77 28 78 31 79 29 80 55 81 56 82 64 83 57 84 58 85 62 86
REMARK SMILES IDX 65 87 59 88 60 89 63 90 61 91 40 92 41 93 49 94 42 95 43 96
REMARK SMILES IDX 47 97 50 98 44 99 45 100 48 101 46 102
REMARK H PARENT 77 11 82 18 70 55 38 66
REMARK Flexibility Score: inf
ROOT
ATOM      1  C   UNL A   1      33.863  29.266  25.487  1.00  0.00     0.202 C 
ENDROOT
BRANCH   1   2
ATOM      2  C   UNL A   1      33.333  27.843  26.057  1.00  0.00     0.261 C 
BRANCH   2   3
ATOM      3  O   UNL A   1      31.949  27.523  25.752  1.00  0.00    -0.459 OA
BRANCH   3   4
ATOM      4  C   UNL A   1      31.505  27.723  24.473  1.00  0.00     0.364 C 
ATOM      5  O   UNL A   1      31.171  28.830  24.060  1.00  0.00    -0.245 OA
BRANCH   4   6
ATOM      6  C   UNL A   1      31.451  26.419  23.585  1.00  0.00     0.292 C 
ATOM      7  C   UNL A   1      32.075  26.627  22.194  1.00  0.00     0.088 C 
BRANCH   6   8
ATOM      8  N   UNL A   1      30.139  25.687  23.665  1.00  0.00    -0.319 N 
ATOM      9  C   UNL A   1      29.212  26.105  24.738  1.00  0.00     0.269 C 
ATOM     10  C   UNL A   1      30.274  24.220  23.703  1.00  0.00     0.303 C 
ATOM     11  H   UNL A   1      29.713  25.971  22.783  1.00  0.00     0.349 HD
ATOM     12  C   UNL A   1      29.216  25.196  26.014  1.00  0.00     0.120 C 
ATOM     13  C   UNL A   1      31.078  23.824  24.946  1.00  0.00     0.052 A 
ATOM     14  C   UNL A   1      30.491  24.398  26.106  1.00  0.00     0.077 A 
ATOM     15  C   UNL A   1      32.192  23.031  25.403  1.00  0.00     0.056 A 
ATOM     16  N   UNL A   1      31.234  24.206  27.184  1.00  0.00    -0.180 NA
ATOM     17  N   UNL A   1      32.286  23.505  26.710  1.00  0.00    -0.281 N 
ATOM     18  H   UNL A   1      33.083  23.336  27.262  1.00  0.00     0.190 HD
BRANCH  15  19
ATOM     19  C   UNL A   1      33.366  21.865  24.941  1.00  0.00     0.098 C 
BRANCH  19  20
ATOM     20  C   UNL A   1      34.988  22.001  25.070  1.00  0.00    -0.035 A 
ATOM     21  C   UNL A   1      35.572  23.248  25.392  1.00  0.00     0.005 A 
ATOM     22  C   UNL A   1      35.970  21.089  24.673  1.00  0.00     0.005 A 
ATOM     23  C   UNL A   1      36.934  23.398  25.734  1.00  0.00     0.000 A 
ATOM     24  C   UNL A   1      37.342  21.206  24.967  1.00  0.00     0.000 A 
ATOM     25  C   UNL A   1      37.814  22.343  25.581  1.00  0.00     0.000 A 
ENDBRANCH  19  20
BRANCH  19  26
ATOM     26  C   UNL A   1      32.933  20.403  24.714  1.00  0.00    -0.035 A 
ATOM     27  C   UNL A   1      33.062  19.445  25.748  1.00  0.00     0.005 A 
ATOM     28  C   UNL A   1      32.619  19.930  23.435  1.00  0.00     0.005 A 
ATOM     29  C   UNL A   1      32.904  18.082  25.516  1.00  0.00     0.000 A 
ATOM     30  C   UNL A   1      32.445  18.560  23.204  1.00  0.00     0.000 A 
ATOM     31  C   UNL A   1      32.597  17.638  24.240  1.00  0.00     0.000 A 
ENDBRANCH  19  26
ENDBRANCH  15  19
ENDBRANCH   6   8
ENDBRANCH   4   6
ENDBRANCH   3   4
ENDBRANCH   2   3
ENDBRANCH   1   2
BRANCH   1  32
ATOM     32  O   UNL A   1      33.495  30.460  26.216  1.00  0.00    -0.374 OA
BRANCH  32  33
ATOM     33  C   UNL A   1      32.285  30.808  26.926  1.00  0.00     0.202 C 
BRANCH  33  34
ATOM     34  C   UNL A   1      31.729  32.364  26.757  1.00  0.00     0.261 C 
BRANCH  34  35
ATOM     35  O   UNL A   1      32.613  33.547  26.931  1.00  0.00    -0.460 OA
BRANCH  35  36
ATOM     36  C   UNL A   1      33.108  33.856  28.204  1.00  0.00     0.338 C 
ATOM     37  O   UNL A   1      32.538  34.589  28.996  1.00  0.00    -0.246 OA
BRANCH  36  38
ATOM     38  C   UNL A   1      34.475  33.203  28.555  1.00  0.00     0.060 A 
ATOM     39  C   UNL A   1      34.496  32.005  29.243  1.00  0.00     0.016 A 
ATOM     40  C   UNL A   1      35.747  33.691  28.234  1.00  0.00     0.016 A 
ATOM     41  C   UNL A   1      35.642  31.248  29.566  1.00  0.00     0.010 A 
ATOM     42  C   UNL A   1      36.947  32.966  28.588  1.00  0.00     0.010 A 
ATOM     43  C   UNL A   1      36.911  31.726  29.269  1.00  0.00    -0.014 A 
BRANCH  43  44
ATOM     44  C   UNL A   1      38.096  31.049  29.936  1.00  0.00     0.031 A 
ATOM     45  C   UNL A   1      38.302  31.282  31.419  1.00  0.00     0.074 A 
ATOM     46  C   UNL A   1      38.850  30.073  29.372  1.00  0.00     0.049 A 
ATOM     47  N   UNL A   1      39.257  30.870  32.220  1.00  0.00    -0.248 NA
ATOM     48  C   UNL A   1      37.257  32.064  32.092  1.00  0.00     0.031 C 
ATOM     49  C   UNL A   1      38.693  29.549  28.017  1.00  0.00     0.029 A 
ATOM     50  N   UNL A   1      39.885  29.308  29.890  1.00  0.00    -0.354 N 
ATOM     51  C   UNL A   1      38.954  31.392  33.473  1.00  0.00     0.074 A 
ATOM     52  C   UNL A   1      37.719  32.132  33.330  1.00  0.00     0.031 C 
ATOM     53  C   UNL A   1      39.566  28.542  27.823  1.00  0.00     0.029 A 
ATOM     54  C   UNL A   1      40.402  28.376  29.014  1.00  0.00     0.049 A 
ATOM     55  H   UNL A   1      40.224  29.422  30.808  1.00  0.00     0.167 HD
ATOM     56  C   UNL A   1      39.635  31.281  34.640  1.00  0.00     0.037 A 
ATOM     57  C   UNL A   1      41.440  27.511  29.134  1.00  0.00     0.037 A 
ATOM     58  C   UNL A   1      40.831  30.508  34.830  1.00  0.00     0.049 A 
ATOM     59  C   UNL A   1      42.256  27.477  30.411  1.00  0.00     0.074 A 
ATOM     60  C   UNL A   1      41.627  30.408  35.959  1.00  0.00     0.029 A 
ATOM     61  N   UNL A   1      41.390  29.676  33.875  1.00  0.00    -0.354 N 
ATOM     62  N   UNL A   1      42.049  28.100  31.544  1.00  0.00    -0.248 NA
ATOM     63  C   UNL A   1      43.469  26.637  30.414  1.00  0.00     0.031 C 
ATOM     64  C   UNL A   1      42.687  29.539  35.675  1.00  0.00     0.029 A 
ATOM     65  C   UNL A   1      42.526  29.068  34.384  1.00  0.00     0.049 A 
ATOM     66  H   UNL A   1      41.033  29.538  32.968  1.00  0.00     0.167 HD
ATOM     67  C   UNL A   1      43.092  27.728  32.387  1.00  0.00     0.074 A 
ATOM     68  C   UNL A   1      43.918  26.798  31.651  1.00  0.00     0.031 C 
ATOM     69  C   UNL A   1      43.344  28.134  33.656  1.00  0.00     0.037 A 
BRANCH  56  70
ATOM     70  C   UNL A   1      39.131  32.099  35.793  1.00  0.00     0.064 A 
ATOM     71  C   UNL A   1      39.542  33.421  36.012  1.00  0.00     0.173 A 
ATOM     72  C   UNL A   1      38.237  31.526  36.711  1.00  0.00     0.173 A 
ATOM     73  F   UNL A   1      40.415  34.004  35.176  1.00  0.00    -0.203 F 
ATOM     74  C   UNL A   1      39.104  34.128  37.129  1.00  0.00     0.198 A 
ATOM     75  C   UNL A   1      37.780  32.245  37.810  1.00  0.00     0.198 A 
ATOM     76  F   UNL A   1      37.813  30.265  36.544  1.00  0.00    -0.203 F 
ATOM     77  F   UNL A   1      39.558  35.369  37.355  1.00  0.00    -0.200 F 
ATOM     78  C   UNL A   1      38.222  33.541  38.025  1.00  0.00     0.200 A 
ATOM     79  F   UNL A   1      36.921  31.678  38.670  1.00  0.00    -0.200 F 
ATOM     80  F   UNL A   1      37.810  34.220  39.104  1.00  0.00    -0.200 F 
ENDBRANCH  56  70
BRANCH  57  81
ATOM     81  C   UNL A   1      41.842  26.630  27.992  1.00  0.00     0.064 A 
ATOM     82  C   UNL A   1      42.808  27.032  27.053  1.00  0.00     0.173 A 
ATOM     83  C   UNL A   1      41.211  25.395  27.771  1.00  0.00     0.173 A 
ATOM     84  F   UNL A   1      43.407  28.226  27.177  1.00  0.00    -0.203 F 
ATOM     85  C   UNL A   1      43.117  26.241  25.944  1.00  0.00     0.198 A 
ATOM     86  C   UNL A   1      41.545  24.590  26.681  1.00  0.00     0.198 A 
ATOM     87  F   UNL A   1      40.256  24.971  28.610  1.00  0.00    -0.203 F 
ATOM     88  F   UNL A   1      44.001  26.676  25.035  1.00  0.00    -0.200 F 
ATOM     89  C   UNL A   1      42.493  25.016  25.764  1.00  0.00     0.200 A 
ATOM     90  F   UNL A   1      40.937  23.409  26.513  1.00  0.00    -0.200 F 
ATOM     91  F   UNL A   1      42.791  24.256  24.702  1.00  0.00    -0.200 F 
ENDBRANCH  57  81
BRANCH  69  92
ATOM     92  C   UNL A   1      44.553  27.573  34.348  1.00  0.00     0.064 A 
ATOM     93  C   UNL A   1      45.790  28.234  34.316  1.00  0.00     0.173 A 
ATOM     94  C   UNL A   1      44.458  26.396  35.109  1.00  0.00     0.173 A 
ATOM     95  F   UNL A   1      45.934  29.356  33.597  1.00  0.00    -0.203 F 
ATOM     96  C   UNL A   1      46.890  27.731  35.006  1.00  0.00     0.198 A 
ATOM     97  C   UNL A   1      45.556  25.908  35.815  1.00  0.00     0.198 A 
ATOM     98  F   UNL A   1      43.298  25.729  35.180  1.00  0.00    -0.203 F 
ATOM     99  F   UNL A   1      48.070  28.364  34.936  1.00  0.00    -0.200 F 
ATOM    100  C   UNL A   1      46.771  26.573  35.761  1.00  0.00     0.200 A 
ATOM    101  F   UNL A   1      45.435  24.796  36.553  1.00  0.00    -0.200 F 
ATOM    102  F   UNL A   1      47.829  26.096  36.431  1.00  0.00    -0.200 F 
ENDBRANCH  69  92
ENDBRANCH  43  44
ENDBRANCH  36  38
ENDBRANCH  35  36
ENDBRANCH  34  35
ENDBRANCH  33  34
ENDBRANCH  32  33
ENDBRANCH   1  32
TORSDOF 18
ENDMDL
MODEL 3
REMARK VINA RESULT:     -12.7      4.751      8.951
REMARK SMILES C[C@@H](C(=O)OCCOCCOC(=O)c1ccc(-c2c3nc(c(-c4c(F)c(F)c(F)c(F)c4F)c4ccc([nH]4)c(-c4c(F)c(F)c(F)c(F)c4F)c4nc(c(-c5c(F)c(F)c(F)c(F)c5F)c5ccc2[nH]5)C=C4)C=C3)cc1)[N@@H+]1CCc2n[nH]c(C(c3ccccc3)c3ccccc3)c2C1
REMARK SMILES IDX 7 1 6 2 5 3 3 4 4 5 2 6 1 7 77 8 78 9 98 10 79 12 97 13
REMARK SMILES IDX 80 14 83 15 81 16 82 17 84 19 85 20 86 21 90 22 87 23 89 24
REMARK SMILES IDX 88 25 91 26 92 27 96 28 93 29 95 30 94 31 8 32 9 33 10 34
REMARK SMILES IDX 11 35 12 36 13 37 14 38 15 39 76 40 16 41 75 42 17 43 18 44
REMARK SMILES IDX 19 45 69 46 20 47 74 48 68 49 70 50 21 51 73 52 67 53 66 54
REMARK SMILES IDX 22 56 54 57 34 58 53 59 35 60 38 61 52 62 71 63 36 64 37 65
REMARK SMILES IDX 51 67 72 68 39 69 23 70 24 71 32 72 25 73 26 74 30 75 33 76
REMARK SMILES IDX 27 77 28 78 31 79 29 80 55 81 56 82 64 83 57 84 58 85 62 86
REMARK SMILES IDX 65 87 59 88 60 89 63 90 61 91 40 92 41 93 49 94 42 95 43 96
REMARK SMILES IDX 47 97 50 98 44 99 45 100 48 101 46 102
REMARK H PARENT 77 11 82 18 70 55 38 66
REMARK Flexibility Score: inf
ROOT
ATOM      1  C   UNL A   1      34.196  29.145  26.165  1.00  0.00     0.202 C 
ENDROOT
BRANCH   1   2
ATOM      2  C   UNL A   1      33.421  27.724  26.259  1.00  0.00     0.261 C 
BRANCH   2   3
ATOM      3  O   UNL A   1      32.097  27.690  25.662  1.00  0.00    -0.459 OA
BRANCH   3   4
ATOM      4  C   UNL A   1      31.995  27.847  24.306  1.00  0.00     0.364 C 
ATOM      5  O   UNL A   1      31.949  28.952  23.775  1.00  0.00    -0.245 OA
BRANCH   4   6
ATOM      6  C   UNL A   1      31.932  26.495  23.493  1.00  0.00     0.292 C 
ATOM      7  C   UNL A   1      32.705  26.571  22.164  1.00  0.00     0.088 C 
BRANCH   6   8
ATOM      8  N   UNL A   1      30.569  25.861  23.478  1.00  0.00    -0.319 N 
ATOM      9  C   UNL A   1      29.609  26.329  24.501  1.00  0.00     0.269 C 
ATOM     10  C   UNL A   1      30.594  24.388  23.495  1.00  0.00     0.303 C 
ATOM     11  H   UNL A   1      30.220  26.189  22.577  1.00  0.00     0.349 HD
ATOM     12  C   UNL A   1      29.467  25.403  25.756  1.00  0.00     0.120 C 
ATOM     13  C   UNL A   1      31.288  23.915  24.777  1.00  0.00     0.052 A 
ATOM     14  C   UNL A   1      30.673  24.512  25.910  1.00  0.00     0.077 A 
ATOM     15  C   UNL A   1      32.312  23.035  25.285  1.00  0.00     0.056 A 
ATOM     16  N   UNL A   1      31.332  24.249  27.026  1.00  0.00    -0.180 NA
ATOM     17  N   UNL A   1      32.357  23.480  26.604  1.00  0.00    -0.281 N 
ATOM     18  H   UNL A   1      33.104  23.245  27.200  1.00  0.00     0.190 HD
BRANCH  15  19
ATOM     19  C   UNL A   1      33.424  21.792  24.872  1.00  0.00     0.098 C 
BRANCH  19  20
ATOM     20  C   UNL A   1      35.052  21.858  24.978  1.00  0.00    -0.035 A 
ATOM     21  C   UNL A   1      35.712  23.109  24.982  1.00  0.00     0.005 A 
ATOM     22  C   UNL A   1      35.974  20.818  24.831  1.00  0.00     0.005 A 
ATOM     23  C   UNL A   1      37.083  23.258  25.288  1.00  0.00     0.000 A 
ATOM     24  C   UNL A   1      37.352  20.923  25.099  1.00  0.00     0.000 A 
ATOM     25  C   UNL A   1      37.897  22.146  25.413  1.00  0.00     0.000 A 
ENDBRANCH  19  20
BRANCH  19  26
ATOM     26  C   UNL A   1      32.921  20.342  24.725  1.00  0.00    -0.035 A 
ATOM     27  C   UNL A   1      32.998  19.440  25.812  1.00  0.00     0.005 A 
ATOM     28  C   UNL A   1      32.589  19.813  23.472  1.00  0.00     0.005 A 
ATOM     29  C   UNL A   1      32.775  18.075  25.656  1.00  0.00     0.000 A 
ATOM     30  C   UNL A   1      32.349  18.443  23.318  1.00  0.00     0.000 A 
ATOM     31  C   UNL A   1      32.451  17.575  24.405  1.00  0.00     0.000 A 
ENDBRANCH  19  26
ENDBRANCH  15  19
ENDBRANCH   6   8
ENDBRANCH   4   6
ENDBRANCH   3   4
ENDBRANCH   2   3
ENDBRANCH   1   2
BRANCH   1  32
ATOM     32  O   UNL A   1      33.526  30.311  26.699  1.00  0.00    -0.374 OA
BRANCH  32  33
ATOM     33  C   UNL A   1      32.125  30.591  26.916  1.00  0.00     0.202 C 
BRANCH  33  34
ATOM     34  C   UNL A   1      31.662  32.185  26.912  1.00  0.00     0.261 C 
BRANCH  34  35
ATOM     35  O   UNL A   1      32.645  33.298  26.837  1.00  0.00    -0.460 OA
BRANCH  35  36
ATOM     36  C   UNL A   1      33.091  33.905  28.017  1.00  0.00     0.338 C 
ATOM     37  O   UNL A   1      32.513  34.828  28.568  1.00  0.00    -0.246 OA
BRANCH  36  38
ATOM     38  C   UNL A   1      34.414  33.328  28.594  1.00  0.00     0.060 A 
ATOM     39  C   UNL A   1      34.368  32.211  29.405  1.00  0.00     0.016 A 
ATOM     40  C   UNL A   1      35.709  33.812  28.374  1.00  0.00     0.016 A 
ATOM     41  C   UNL A   1      35.478  31.522  29.940  1.00  0.00     0.010 A 
ATOM     42  C   UNL A   1      36.868  33.159  28.943  1.00  0.00     0.010 A 
ATOM     43  C   UNL A   1      36.766  31.997  29.744  1.00  0.00    -0.014 A 
BRANCH  43  44
ATOM     44  C   UNL A   1      37.872  31.425  30.615  1.00  0.00     0.031 A 
ATOM     45  C   UNL A   1      38.845  30.454  29.977  1.00  0.00     0.074 A 
ATOM     46  C   UNL A   1      38.202  31.883  31.848  1.00  0.00     0.049 A 
ATOM     47  N   UNL A   1      39.843  29.782  30.502  1.00  0.00    -0.248 NA
ATOM     48  C   UNL A   1      38.681  30.245  28.533  1.00  0.00     0.031 C 
ATOM     49  C   UNL A   1      37.523  32.955  32.571  1.00  0.00     0.029 A 
ATOM     50  N   UNL A   1      39.235  31.527  32.704  1.00  0.00    -0.354 N 
ATOM     51  C   UNL A   1      40.383  29.032  29.464  1.00  0.00     0.074 A 
ATOM     52  C   UNL A   1      39.617  29.346  28.278  1.00  0.00     0.031 C 
ATOM     53  C   UNL A   1      38.165  33.189  33.732  1.00  0.00     0.029 A 
ATOM     54  C   UNL A   1      39.273  32.242  33.884  1.00  0.00     0.049 A 
ATOM     55  H   UNL A   1      39.887  30.821  32.489  1.00  0.00     0.167 HD
ATOM     56  C   UNL A   1      41.416  28.153  29.483  1.00  0.00     0.037 A 
ATOM     57  C   UNL A   1      40.077  32.138  34.971  1.00  0.00     0.037 A 
ATOM     58  C   UNL A   1      42.234  27.861  30.628  1.00  0.00     0.049 A 
ATOM     59  C   UNL A   1      41.158  31.078  35.016  1.00  0.00     0.074 A 
ATOM     60  C   UNL A   1      43.247  26.925  30.753  1.00  0.00     0.029 A 
ATOM     61  N   UNL A   1      42.153  28.523  31.842  1.00  0.00    -0.354 N 
ATOM     62  N   UNL A   1      41.558  30.260  34.074  1.00  0.00    -0.248 NA
ATOM     63  C   UNL A   1      41.885  30.908  36.289  1.00  0.00     0.031 C 
ATOM     64  C   UNL A   1      43.758  27.000  32.055  1.00  0.00     0.029 A 
ATOM     65  C   UNL A   1      43.089  28.010  32.725  1.00  0.00     0.049 A 
ATOM     66  H   UNL A   1      41.522  29.252  32.047  1.00  0.00     0.167 HD
ATOM     67  C   UNL A   1      42.573  29.490  34.634  1.00  0.00     0.074 A 
ATOM     68  C   UNL A   1      42.756  29.955  35.990  1.00  0.00     0.031 C 
ATOM     69  C   UNL A   1      43.281  28.479  34.071  1.00  0.00     0.037 A 
BRANCH  56  70
ATOM     70  C   UNL A   1      41.661  27.374  28.224  1.00  0.00     0.064 A 
ATOM     71  C   UNL A   1      40.982  26.182  27.935  1.00  0.00     0.173 A 
ATOM     72  C   UNL A   1      42.619  27.827  27.303  1.00  0.00     0.173 A 
ATOM     73  F   UNL A   1      40.076  25.696  28.796  1.00  0.00    -0.203 F 
ATOM     74  C   UNL A   1      41.282  25.451  26.788  1.00  0.00     0.198 A 
ATOM     75  C   UNL A   1      42.894  27.110  26.145  1.00  0.00     0.198 A 
ATOM     76  F   UNL A   1      43.292  28.964  27.534  1.00  0.00    -0.203 F 
ATOM     77  F   UNL A   1      40.668  24.281  26.561  1.00  0.00    -0.200 F 
ATOM     78  C   UNL A   1      42.234  25.917  25.893  1.00  0.00     0.200 A 
ATOM     79  F   UNL A   1      43.810  27.566  25.278  1.00  0.00    -0.200 F 
ATOM     80  F   UNL A   1      42.528  25.208  24.794  1.00  0.00    -0.200 F 
ENDBRANCH  56  70
BRANCH  57  81
ATOM     81  C   UNL A   1      39.868  33.013  36.168  1.00  0.00     0.064 A 
ATOM     82  C   UNL A   1      38.900  32.714  37.142  1.00  0.00     0.173 A 
ATOM     83  C   UNL A   1      40.581  34.213  36.323  1.00  0.00     0.173 A 
ATOM     84  F   UNL A   1      38.146  31.611  37.022  1.00  0.00    -0.203 F 
ATOM     85  C   UNL A   1      38.654  33.578  38.212  1.00  0.00     0.198 A 
ATOM     86  C   UNL A   1      40.358  35.059  37.411  1.00  0.00     0.198 A 
ATOM     87  F   UNL A   1      41.494  34.573  35.409  1.00  0.00    -0.203 F 
ATOM     88  F   UNL A   1      37.686  33.294  39.094  1.00  0.00    -0.200 F 
ATOM     89  C   UNL A   1      39.390  34.745  38.351  1.00  0.00     0.200 A 
ATOM     90  F   UNL A   1      41.073  36.184  37.537  1.00  0.00    -0.200 F 
ATOM     91  F   UNL A   1      39.156  35.573  39.378  1.00  0.00    -0.200 F 
ENDBRANCH  57  81
BRANCH  69  92
ATOM     92  C   UNL A   1      44.332  27.806  34.906  1.00  0.00     0.064 A 
ATOM     93  C   UNL A   1      44.049  26.652  35.652  1.00  0.00     0.173 A 
ATOM     94  C   UNL A   1      45.654  28.279  34.906  1.00  0.00     0.173 A 
ATOM     95  F   UNL A   1      42.800  26.166  35.692  1.00  0.00    -0.203 F 
ATOM     96  C   UNL A   1      45.045  26.006  36.380  1.00  0.00     0.198 A 
ATOM     97  C   UNL A   1      46.652  27.617  35.618  1.00  0.00     0.198 A 
ATOM     98  F   UNL A   1      45.981  29.373  34.204  1.00  0.00    -0.203 F 
ATOM     99  F   UNL A   1      44.744  24.923  37.110  1.00  0.00    -0.200 F 
ATOM    100  C   UNL A   1      46.347  26.484  36.357  1.00  0.00     0.200 A 
ATOM    101  F   UNL A   1      47.912  28.073  35.585  1.00  0.00    -0.200 F 
ATOM    102  F   UNL A   1      47.307  25.855  37.051  1.00  0.00    -0.200 F 
ENDBRANCH  69  92
ENDBRANCH  43  44
ENDBRANCH  36  38
ENDBRANCH  35  36
ENDBRANCH  34  35
ENDBRANCH  33  34
ENDBRANCH  32  33
ENDBRANCH   1  32
TORSDOF 18
ENDMDL
