MODEL 1
REMARK VINA RESULT:     -10.0      0.000      0.000
REMARK SMILES CC(C)N1C(=O)C[C@@H](C(=O)OCCOCCOC(=O)c2ccc(-c3c4nc(c(-c5c(F)c(F)c(F)c(F)c5F)c5ccc([nH]5)c(-c5c(F)c(F)c(F)c(F)c5F)c5nc(c(-c6c(F)c(F)c(F)c(F)c6F)c6ccc3[nH]6)C=C5)C=C4)cc2)[C@H]1c1ccccc1
REMARK SMILES IDX 15 1 14 2 13 3 12 4 11 5 9 6 10 7 8 8 4 9 5 10 83 11 6 12
REMARK SMILES IDX 7 13 2 14 1 15 3 16 84 17 85 18 89 19 86 20 88 21 87 22
REMARK SMILES IDX 16 23 17 24 18 25 19 26 20 27 21 28 82 29 22 30 81 31 23 32
REMARK SMILES IDX 24 33 25 34 75 35 26 36 80 37 74 38 76 39 27 40 79 41 73 42
REMARK SMILES IDX 72 43 28 45 60 46 40 47 59 48 41 49 44 50 58 51 77 52 42 53
REMARK SMILES IDX 43 54 57 56 78 57 45 58 29 59 30 60 38 61 31 62 32 63 36 64
REMARK SMILES IDX 39 65 33 66 34 67 37 68 35 69 61 70 62 71 70 72 63 73 64 74
REMARK SMILES IDX 68 75 71 76 65 77 66 78 69 79 67 80 46 81 47 82 55 83 48 84
REMARK SMILES IDX 49 85 53 86 56 87 50 88 51 89 54 90 52 91
REMARK H PARENT 76 44 44 55
REMARK Flexibility Score: inf
ROOT
ATOM      1  C   UNL A   1      33.842  33.420  27.976  1.00  0.00     0.202 C 
ENDROOT
BRANCH   1   2
ATOM      2  O   UNL A   1      32.788  34.201  28.545  1.00  0.00    -0.374 OA
BRANCH   2   3
ATOM      3  C   UNL A   1      33.132  35.438  29.168  1.00  0.00     0.202 C 
BRANCH   3   4
ATOM      4  C   UNL A   1      33.378  35.421  30.682  1.00  0.00     0.261 C 
BRANCH   4   5
ATOM      5  O   UNL A   1      34.680  34.911  30.993  1.00  0.00    -0.463 OA
BRANCH   5   6
ATOM      6  C   UNL A   1      35.043  35.014  32.293  1.00  0.00     0.312 C 
ATOM      7  O   UNL A   1      35.187  36.076  32.888  1.00  0.00    -0.252 OA
BRANCH   6   8
ATOM      8  C   UNL A   1      35.185  33.663  32.967  1.00  0.00     0.135 C 
ATOM      9  N   UNL A   1      37.251  32.931  33.899  1.00  0.00    -0.332 N 
ATOM     10  C   UNL A   1      36.474  33.322  34.975  1.00  0.00     0.224 C 
ATOM     11  C   UNL A   1      36.497  32.928  32.653  1.00  0.00     0.130 C 
ATOM     12  O   UNL A   1      36.809  33.343  36.150  1.00  0.00    -0.275 OA
ATOM     13  C   UNL A   1      35.096  33.690  34.491  1.00  0.00     0.118 C 
BRANCH   9  14
ATOM     14  C   UNL A   1      38.545  32.235  34.027  1.00  0.00     0.079 C 
ATOM     15  C   UNL A   1      39.580  33.045  34.809  1.00  0.00     0.031 C 
ATOM     16  C   UNL A   1      38.372  30.842  34.634  1.00  0.00     0.031 C 
ENDBRANCH   9  14
BRANCH  11  17
ATOM     17  C   UNL A   1      37.277  33.413  31.448  1.00  0.00    -0.025 A 
ATOM     18  C   UNL A   1      37.086  32.874  30.164  1.00  0.00     0.006 A 
ATOM     19  C   UNL A   1      38.244  34.416  31.610  1.00  0.00     0.006 A 
ATOM     20  C   UNL A   1      37.836  33.325  29.078  1.00  0.00     0.000 A 
ATOM     21  C   UNL A   1      38.991  34.871  30.521  1.00  0.00     0.000 A 
ATOM     22  C   UNL A   1      38.788  34.324  29.257  1.00  0.00     0.000 A 
ENDBRANCH  11  17
ENDBRANCH   6   8
ENDBRANCH   5   6
ENDBRANCH   4   5
ENDBRANCH   3   4
ENDBRANCH   2   3
ENDBRANCH   1   2
BRANCH   1  23
ATOM     23  C   UNL A   1      33.986  31.960  28.419  1.00  0.00     0.261 C 
BRANCH  23  24
ATOM     24  O   UNL A   1      34.292  31.063  27.335  1.00  0.00    -0.460 OA
BRANCH  24  25
ATOM     25  C   UNL A   1      34.632  29.812  27.725  1.00  0.00     0.338 C 
ATOM     26  O   UNL A   1      34.000  28.779  27.555  1.00  0.00    -0.246 OA
BRANCH  25  27
ATOM     27  C   UNL A   1      35.999  29.794  28.273  1.00  0.00     0.060 A 
ATOM     28  C   UNL A   1      37.047  30.100  27.394  1.00  0.00     0.016 A 
ATOM     29  C   UNL A   1      36.264  29.366  29.574  1.00  0.00     0.016 A 
ATOM     30  C   UNL A   1      38.368  29.928  27.798  1.00  0.00     0.010 A 
ATOM     31  C   UNL A   1      37.593  29.184  29.976  1.00  0.00     0.010 A 
ATOM     32  C   UNL A   1      38.648  29.426  29.076  1.00  0.00    -0.014 A 
BRANCH  32  33
ATOM     33  C   UNL A   1      40.034  29.011  29.402  1.00  0.00     0.031 A 
ATOM     34  C   UNL A   1      40.875  29.897  30.278  1.00  0.00     0.074 A 
ATOM     35  C   UNL A   1      40.520  27.836  28.963  1.00  0.00     0.049 A 
ATOM     36  N   UNL A   1      42.108  29.735  30.687  1.00  0.00    -0.248 NA
ATOM     37  C   UNL A   1      40.239  31.134  30.760  1.00  0.00     0.031 C 
ATOM     38  C   UNL A   1      39.787  26.874  28.144  1.00  0.00     0.029 A 
ATOM     39  N   UNL A   1      41.751  27.257  29.148  1.00  0.00    -0.354 N 
ATOM     40  C   UNL A   1      42.395  30.846  31.469  1.00  0.00     0.074 A 
ATOM     41  C   UNL A   1      41.220  31.690  31.456  1.00  0.00     0.031 C 
ATOM     42  C   UNL A   1      40.586  25.824  27.888  1.00  0.00     0.029 A 
ATOM     43  C   UNL A   1      41.893  26.055  28.502  1.00  0.00     0.049 A 
ATOM     44  H   UNL A   1      42.462  27.665  29.691  1.00  0.00     0.167 HD
ATOM     45  C   UNL A   1      43.533  31.131  32.146  1.00  0.00     0.037 A 
ATOM     46  C   UNL A   1      42.963  25.244  28.404  1.00  0.00     0.037 A 
ATOM     47  C   UNL A   1      44.701  30.290  32.160  1.00  0.00     0.049 A 
ATOM     48  C   UNL A   1      44.240  25.616  29.111  1.00  0.00     0.074 A 
ATOM     49  C   UNL A   1      45.897  30.483  32.829  1.00  0.00     0.029 A 
ATOM     50  N   UNL A   1      44.820  29.096  31.465  1.00  0.00    -0.354 N 
ATOM     51  N   UNL A   1      44.495  26.654  29.869  1.00  0.00    -0.248 NA
ATOM     52  C   UNL A   1      45.379  24.699  28.951  1.00  0.00     0.031 C 
ATOM     53  C   UNL A   1      46.757  29.429  32.501  1.00  0.00     0.029 A 
ATOM     54  C   UNL A   1      46.079  28.554  31.668  1.00  0.00     0.049 A 
ATOM     55  H   UNL A   1      44.114  28.692  30.909  1.00  0.00     0.167 HD
ATOM     56  C   UNL A   1      45.808  26.504  30.297  1.00  0.00     0.074 A 
ATOM     57  C   UNL A   1      46.295  25.267  29.724  1.00  0.00     0.031 C 
ATOM     58  C   UNL A   1      46.544  27.317  31.094  1.00  0.00     0.037 A 
BRANCH  45  59
ATOM     59  C   UNL A   1      43.579  32.421  32.910  1.00  0.00     0.064 A 
ATOM     60  C   UNL A   1      43.192  32.494  34.257  1.00  0.00     0.173 A 
ATOM     61  C   UNL A   1      44.048  33.593  32.297  1.00  0.00     0.173 A 
ATOM     62  F   UNL A   1      42.724  31.404  34.885  1.00  0.00    -0.203 F 
ATOM     63  C   UNL A   1      43.251  33.698  34.954  1.00  0.00     0.198 A 
ATOM     64  C   UNL A   1      44.130  34.789  33.005  1.00  0.00     0.198 A 
ATOM     65  F   UNL A   1      44.434  33.576  31.012  1.00  0.00    -0.203 F 
ATOM     66  F   UNL A   1      42.836  33.754  36.227  1.00  0.00    -0.200 F 
ATOM     67  C   UNL A   1      43.726  34.842  34.331  1.00  0.00     0.200 A 
ATOM     68  F   UNL A   1      44.599  35.891  32.404  1.00  0.00    -0.200 F 
ATOM     69  F   UNL A   1      43.787  35.999  35.005  1.00  0.00    -0.200 F 
ENDBRANCH  45  59
BRANCH  46  70
ATOM     70  C   UNL A   1      42.879  24.000  27.595  1.00  0.00     0.064 A 
ATOM     71  C   UNL A   1      43.219  23.995  26.235  1.00  0.00     0.173 A 
ATOM     72  C   UNL A   1      42.441  22.795  28.163  1.00  0.00     0.173 A 
ATOM     73  F   UNL A   1      43.617  25.130  25.641  1.00  0.00    -0.203 F 
ATOM     74  C   UNL A   1      43.110  22.835  25.471  1.00  0.00     0.198 A 
ATOM     75  C   UNL A   1      42.357  21.629  27.404  1.00  0.00     0.198 A 
ATOM     76  F   UNL A   1      42.099  22.748  29.460  1.00  0.00    -0.203 F 
ATOM     77  F   UNL A   1      43.400  22.868  24.163  1.00  0.00    -0.200 F 
ATOM     78  C   UNL A   1      42.685  21.653  26.057  1.00  0.00     0.200 A 
ATOM     79  F   UNL A   1      41.955  20.487  27.976  1.00  0.00    -0.200 F 
ATOM     80  F   UNL A   1      42.583  20.537  25.322  1.00  0.00    -0.200 F 
ENDBRANCH  46  70
BRANCH  58  81
ATOM     81  C   UNL A   1      47.943  26.880  31.421  1.00  0.00     0.064 A 
ATOM     82  C   UNL A   1      48.218  26.063  32.527  1.00  0.00     0.173 A 
ATOM     83  C   UNL A   1      49.014  27.250  30.593  1.00  0.00     0.173 A 
ATOM     84  F   UNL A   1      47.230  25.695  33.357  1.00  0.00    -0.203 F 
ATOM     85  C   UNL A   1      49.519  25.651  32.805  1.00  0.00     0.198 A 
ATOM     86  C   UNL A   1      50.309  26.813  30.858  1.00  0.00     0.198 A 
ATOM     87  F   UNL A   1      48.803  28.025  29.519  1.00  0.00    -0.203 F 
ATOM     88  F   UNL A   1      49.766  24.907  33.892  1.00  0.00    -0.200 F 
ATOM     89  C   UNL A   1      50.561  26.020  31.967  1.00  0.00     0.200 A 
ATOM     90  F   UNL A   1      51.312  27.160  30.041  1.00  0.00    -0.200 F 
ATOM     91  F   UNL A   1      51.812  25.617  32.233  1.00  0.00    -0.200 F 
ENDBRANCH  58  81
ENDBRANCH  32  33
ENDBRANCH  25  27
ENDBRANCH  24  25
ENDBRANCH  23  24
ENDBRANCH   1  23
TORSDOF 16
ENDMDL
MODEL 2
REMARK VINA RESULT:      -9.7      3.924      6.949
REMARK SMILES CC(C)N1C(=O)C[C@@H](C(=O)OCCOCCOC(=O)c2ccc(-c3c4nc(c(-c5c(F)c(F)c(F)c(F)c5F)c5ccc([nH]5)c(-c5c(F)c(F)c(F)c(F)c5F)c5nc(c(-c6c(F)c(F)c(F)c(F)c6F)c6ccc3[nH]6)C=C5)C=C4)cc2)[C@H]1c1ccccc1
REMARK SMILES IDX 15 1 14 2 13 3 12 4 11 5 9 6 10 7 8 8 4 9 5 10 83 11 6 12
REMARK SMILES IDX 7 13 2 14 1 15 3 16 84 17 85 18 89 19 86 20 88 21 87 22
REMARK SMILES IDX 16 23 17 24 18 25 19 26 20 27 21 28 82 29 22 30 81 31 23 32
REMARK SMILES IDX 24 33 25 34 75 35 26 36 80 37 74 38 76 39 27 40 79 41 73 42
REMARK SMILES IDX 72 43 28 45 60 46 40 47 59 48 41 49 44 50 58 51 77 52 42 53
REMARK SMILES IDX 43 54 57 56 78 57 45 58 29 59 30 60 38 61 31 62 32 63 36 64
REMARK SMILES IDX 39 65 33 66 34 67 37 68 35 69 61 70 62 71 70 72 63 73 64 74
REMARK SMILES IDX 68 75 71 76 65 77 66 78 69 79 67 80 46 81 47 82 55 83 48 84
REMARK SMILES IDX 49 85 53 86 56 87 50 88 51 89 54 90 52 91
REMARK H PARENT 76 44 44 55
REMARK Flexibility Score: inf
ROOT
ATOM      1  C   UNL A   1      31.590  29.338  25.371  1.00  0.00     0.202 C 
ENDROOT
BRANCH   1   2
ATOM      2  O   UNL A   1      31.435  29.237  23.953  1.00  0.00    -0.374 OA
BRANCH   2   3
ATOM      3  C   UNL A   1      32.571  28.850  23.180  1.00  0.00     0.202 C 
BRANCH   3   4
ATOM      4  C   UNL A   1      33.778  28.282  23.936  1.00  0.00     0.261 C 
BRANCH   4   5
ATOM      5  O   UNL A   1      33.805  26.851  23.874  1.00  0.00    -0.463 OA
BRANCH   5   6
ATOM      6  C   UNL A   1      33.346  26.217  24.979  1.00  0.00     0.312 C 
ATOM      7  O   UNL A   1      33.664  26.513  26.126  1.00  0.00    -0.252 OA
BRANCH   6   8
ATOM      8  C   UNL A   1      32.330  25.140  24.654  1.00  0.00     0.135 C 
ATOM      9  N   UNL A   1      32.276  23.066  25.824  1.00  0.00    -0.332 N 
ATOM     10  C   UNL A   1      31.233  23.813  26.341  1.00  0.00     0.224 C 
ATOM     11  C   UNL A   1      32.890  23.709  24.671  1.00  0.00     0.130 C 
ATOM     12  O   UNL A   1      30.484  23.492  27.252  1.00  0.00    -0.275 OA
ATOM     13  C   UNL A   1      31.112  25.103  25.574  1.00  0.00     0.118 C 
BRANCH   9  14
ATOM     14  C   UNL A   1      32.499  21.640  26.130  1.00  0.00     0.079 C 
ATOM     15  C   UNL A   1      32.711  20.790  24.877  1.00  0.00     0.031 C 
ATOM     16  C   UNL A   1      33.654  21.455  27.115  1.00  0.00     0.031 C 
ENDBRANCH   9  14
BRANCH  11  17
ATOM     17  C   UNL A   1      34.398  23.568  24.604  1.00  0.00    -0.025 A 
ATOM     18  C   UNL A   1      35.060  23.144  23.439  1.00  0.00     0.006 A 
ATOM     19  C   UNL A   1      35.168  23.841  25.744  1.00  0.00     0.006 A 
ATOM     20  C   UNL A   1      36.447  23.001  23.415  1.00  0.00     0.000 A 
ATOM     21  C   UNL A   1      36.557  23.703  25.718  1.00  0.00     0.000 A 
ATOM     22  C   UNL A   1      37.196  23.282  24.554  1.00  0.00     0.000 A 
ENDBRANCH  11  17
ENDBRANCH   6   8
ENDBRANCH   5   6
ENDBRANCH   4   5
ENDBRANCH   3   4
ENDBRANCH   2   3
ENDBRANCH   1   2
BRANCH   1  23
ATOM     23  C   UNL A   1      31.779  30.729  25.985  1.00  0.00     0.261 C 
BRANCH  23  24
ATOM     24  O   UNL A   1      32.483  30.707  27.240  1.00  0.00    -0.460 OA
BRANCH  24  25
ATOM     25  C   UNL A   1      33.291  31.774  27.445  1.00  0.00     0.338 C 
ATOM     26  O   UNL A   1      32.972  32.954  27.489  1.00  0.00    -0.246 OA
BRANCH  25  27
ATOM     27  C   UNL A   1      34.654  31.335  27.787  1.00  0.00     0.060 A 
ATOM     28  C   UNL A   1      34.849  29.966  28.017  1.00  0.00     0.016 A 
ATOM     29  C   UNL A   1      35.688  32.246  28.003  1.00  0.00     0.016 A 
ATOM     30  C   UNL A   1      36.065  29.509  28.516  1.00  0.00     0.010 A 
ATOM     31  C   UNL A   1      36.908  31.786  28.514  1.00  0.00     0.010 A 
ATOM     32  C   UNL A   1      37.086  30.422  28.810  1.00  0.00    -0.014 A 
BRANCH  32  33
ATOM     33  C   UNL A   1      38.273  29.959  29.570  1.00  0.00     0.031 A 
ATOM     34  C   UNL A   1      38.487  30.466  30.969  1.00  0.00     0.074 A 
ATOM     35  C   UNL A   1      39.121  29.062  29.038  1.00  0.00     0.049 A 
ATOM     36  N   UNL A   1      39.452  30.199  31.813  1.00  0.00    -0.248 NA
ATOM     37  C   UNL A   1      37.475  31.399  31.489  1.00  0.00     0.031 C 
ATOM     38  C   UNL A   1      38.996  28.466  27.710  1.00  0.00     0.029 A 
ATOM     39  N   UNL A   1      40.260  28.497  29.557  1.00  0.00    -0.354 N 
ATOM     40  C   UNL A   1      39.165  30.930  32.958  1.00  0.00     0.074 A 
ATOM     41  C   UNL A   1      37.953  31.675  32.693  1.00  0.00     0.031 C 
ATOM     42  C   UNL A   1      40.024  27.624  27.512  1.00  0.00     0.029 A 
ATOM     43  C   UNL A   1      40.892  27.642  28.689  1.00  0.00     0.049 A 
ATOM     44  H   UNL A   1      40.591  28.686  30.464  1.00  0.00     0.167 HD
ATOM     45  C   UNL A   1      39.846  30.969  34.128  1.00  0.00     0.037 A 
ATOM     46  C   UNL A   1      42.050  26.967  28.825  1.00  0.00     0.037 A 
ATOM     47  C   UNL A   1      41.051  30.226  34.390  1.00  0.00     0.049 A 
ATOM     48  C   UNL A   1      42.824  27.079  30.112  1.00  0.00     0.074 A 
ATOM     49  C   UNL A   1      41.805  30.185  35.549  1.00  0.00     0.029 A 
ATOM     50  N   UNL A   1      41.681  29.397  33.474  1.00  0.00    -0.354 N 
ATOM     51  N   UNL A   1      42.533  27.752  31.198  1.00  0.00    -0.248 NA
ATOM     52  C   UNL A   1      44.089  26.333  30.192  1.00  0.00     0.031 C 
ATOM     53  C   UNL A   1      42.918  29.368  35.319  1.00  0.00     0.029 A 
ATOM     54  C   UNL A   1      42.830  28.860  34.032  1.00  0.00     0.049 A 
ATOM     55  H   UNL A   1      41.360  29.217  32.561  1.00  0.00     0.167 HD
ATOM     56  C   UNL A   1      43.560  27.491  32.097  1.00  0.00     0.074 A 
ATOM     57  C   UNL A   1      44.476  26.588  31.434  1.00  0.00     0.031 C 
ATOM     58  C   UNL A   1      43.727  27.957  33.359  1.00  0.00     0.037 A 
BRANCH  45  59
ATOM     59  C   UNL A   1      39.316  31.864  35.208  1.00  0.00     0.064 A 
ATOM     60  C   UNL A   1      38.508  31.371  36.244  1.00  0.00     0.173 A 
ATOM     61  C   UNL A   1      39.647  33.227  35.226  1.00  0.00     0.173 A 
ATOM     62  F   UNL A   1      38.153  30.077  36.265  1.00  0.00    -0.203 F 
ATOM     63  C   UNL A   1      38.034  32.215  37.245  1.00  0.00     0.198 A 
ATOM     64  C   UNL A   1      39.192  34.063  36.242  1.00  0.00     0.198 A 
ATOM     65  F   UNL A   1      40.419  33.748  34.260  1.00  0.00    -0.203 F 
ATOM     66  F   UNL A   1      37.229  31.731  38.201  1.00  0.00    -0.200 F 
ATOM     67  C   UNL A   1      38.380  33.557  37.247  1.00  0.00     0.200 A 
ATOM     68  F   UNL A   1      39.537  35.358  36.248  1.00  0.00    -0.200 F 
ATOM     69  F   UNL A   1      37.927  34.367  38.214  1.00  0.00    -0.200 F 
ENDBRANCH  45  59
BRANCH  46  70
ATOM     70  C   UNL A   1      42.555  26.130  27.705  1.00  0.00     0.064 A 
ATOM     71  C   UNL A   1      43.485  26.634  26.786  1.00  0.00     0.173 A 
ATOM     72  C   UNL A   1      42.104  24.814  27.524  1.00  0.00     0.173 A 
ATOM     73  F   UNL A   1      43.924  27.896  26.902  1.00  0.00    -0.203 F 
ATOM     74  C   UNL A   1      43.933  25.858  25.720  1.00  0.00     0.198 A 
ATOM     75  C   UNL A   1      42.573  24.030  26.472  1.00  0.00     0.198 A 
ATOM     76  F   UNL A   1      41.210  24.287  28.375  1.00  0.00    -0.203 F 
ATOM     77  F   UNL A   1      44.790  26.378  24.829  1.00  0.00    -0.200 F 
ATOM     78  C   UNL A   1      43.482  24.555  25.567  1.00  0.00     0.200 A 
ATOM     79  F   UNL A   1      42.142  22.770  26.335  1.00  0.00    -0.200 F 
ATOM     80  F   UNL A   1      43.917  23.809  24.542  1.00  0.00    -0.200 F 
ENDBRANCH  46  70
BRANCH  58  81
ATOM     81  C   UNL A   1      44.928  27.474  34.119  1.00  0.00     0.064 A 
ATOM     82  C   UNL A   1      44.893  26.295  34.878  1.00  0.00     0.173 A 
ATOM     83  C   UNL A   1      46.141  28.178  34.053  1.00  0.00     0.173 A 
ATOM     84  F   UNL A   1      43.754  25.595  34.984  1.00  0.00    -0.203 F 
ATOM     85  C   UNL A   1      46.023  25.851  35.561  1.00  0.00     0.198 A 
ATOM     86  C   UNL A   1      47.276  27.715  34.714  1.00  0.00     0.198 A 
ATOM     87  F   UNL A   1      46.229  29.307  33.335  1.00  0.00    -0.203 F 
ATOM     88  F   UNL A   1      45.955  24.745  36.316  1.00  0.00    -0.200 F 
ATOM     89  C   UNL A   1      47.213  26.556  35.472  1.00  0.00     0.200 A 
ATOM     90  F   UNL A   1      48.428  28.392  34.617  1.00  0.00    -0.200 F 
ATOM     91  F   UNL A   1      48.301  26.123  36.126  1.00  0.00    -0.200 F 
ENDBRANCH  58  81
ENDBRANCH  32  33
ENDBRANCH  25  27
ENDBRANCH  24  25
ENDBRANCH  23  24
ENDBRANCH   1  23
TORSDOF 16
ENDMDL
MODEL 3
REMARK VINA RESULT:      -9.7      3.950      7.063
REMARK SMILES CC(C)N1C(=O)C[C@@H](C(=O)OCCOCCOC(=O)c2ccc(-c3c4nc(c(-c5c(F)c(F)c(F)c(F)c5F)c5ccc([nH]5)c(-c5c(F)c(F)c(F)c(F)c5F)c5nc(c(-c6c(F)c(F)c(F)c(F)c6F)c6ccc3[nH]6)C=C5)C=C4)cc2)[C@H]1c1ccccc1
REMARK SMILES IDX 15 1 14 2 13 3 12 4 11 5 9 6 10 7 8 8 4 9 5 10 83 11 6 12
REMARK SMILES IDX 7 13 2 14 1 15 3 16 84 17 85 18 89 19 86 20 88 21 87 22
REMARK SMILES IDX 16 23 17 24 18 25 19 26 20 27 21 28 82 29 22 30 81 31 23 32
REMARK SMILES IDX 24 33 25 34 75 35 26 36 80 37 74 38 76 39 27 40 79 41 73 42
REMARK SMILES IDX 72 43 28 45 60 46 40 47 59 48 41 49 44 50 58 51 77 52 42 53
REMARK SMILES IDX 43 54 57 56 78 57 45 58 29 59 30 60 38 61 31 62 32 63 36 64
REMARK SMILES IDX 39 65 33 66 34 67 37 68 35 69 61 70 62 71 70 72 63 73 64 74
REMARK SMILES IDX 68 75 71 76 65 77 66 78 69 79 67 80 46 81 47 82 55 83 48 84
REMARK SMILES IDX 49 85 53 86 56 87 50 88 51 89 54 90 52 91
REMARK H PARENT 76 44 44 55
REMARK Flexibility Score: inf
ROOT
ATOM      1  C   UNL A   1      31.405  30.046  25.225  1.00  0.00     0.202 C 
ENDROOT
BRANCH   1   2
ATOM      2  O   UNL A   1      30.296  29.998  24.324  1.00  0.00    -0.374 OA
BRANCH   2   3
ATOM      3  C   UNL A   1      30.291  28.984  23.320  1.00  0.00     0.202 C 
BRANCH   3   4
ATOM      4  C   UNL A   1      29.351  27.790  23.528  1.00  0.00     0.261 C 
BRANCH   4   5
ATOM      5  O   UNL A   1      29.965  26.564  23.112  1.00  0.00    -0.463 OA
BRANCH   5   6
ATOM      6  C   UNL A   1      30.458  25.798  24.113  1.00  0.00     0.312 C 
ATOM      7  O   UNL A   1      30.302  26.037  25.305  1.00  0.00    -0.252 OA
BRANCH   6   8
ATOM      8  C   UNL A   1      31.170  24.560  23.604  1.00  0.00     0.135 C 
ATOM      9  N   UNL A   1      33.307  23.907  24.429  1.00  0.00    -0.332 N 
ATOM     10  C   UNL A   1      32.397  23.062  25.040  1.00  0.00     0.224 C 
ATOM     11  C   UNL A   1      32.683  24.731  23.403  1.00  0.00     0.130 C 
ATOM     12  O   UNL A   1      32.641  22.205  25.875  1.00  0.00    -0.275 OA
ATOM     13  C   UNL A   1      31.021  23.322  24.485  1.00  0.00     0.118 C 
BRANCH   9  14
ATOM     14  C   UNL A   1      34.770  23.738  24.508  1.00  0.00     0.079 C 
ATOM     15  C   UNL A   1      35.301  23.834  25.939  1.00  0.00     0.031 C 
ATOM     16  C   UNL A   1      35.218  22.435  23.847  1.00  0.00     0.031 C 
ENDBRANCH   9  14
BRANCH  11  17
ATOM     17  C   UNL A   1      33.204  26.153  23.340  1.00  0.00    -0.025 A 
ATOM     18  C   UNL A   1      33.603  26.857  24.489  1.00  0.00     0.006 A 
ATOM     19  C   UNL A   1      33.270  26.810  22.102  1.00  0.00     0.006 A 
ATOM     20  C   UNL A   1      34.056  28.174  24.402  1.00  0.00     0.000 A 
ATOM     21  C   UNL A   1      33.728  28.126  22.015  1.00  0.00     0.000 A 
ATOM     22  C   UNL A   1      34.119  28.808  23.164  1.00  0.00     0.000 A 
ENDBRANCH  11  17
ENDBRANCH   6   8
ENDBRANCH   5   6
ENDBRANCH   4   5
ENDBRANCH   3   4
ENDBRANCH   2   3
ENDBRANCH   1   2
BRANCH   1  23
ATOM     23  C   UNL A   1      31.553  31.272  26.133  1.00  0.00     0.261 C 
BRANCH  23  24
ATOM     24  O   UNL A   1      32.431  31.050  27.252  1.00  0.00    -0.460 OA
BRANCH  24  25
ATOM     25  C   UNL A   1      33.253  32.089  27.531  1.00  0.00     0.338 C 
ATOM     26  O   UNL A   1      32.954  33.270  27.637  1.00  0.00    -0.246 OA
BRANCH  25  27
ATOM     27  C   UNL A   1      34.602  31.606  27.869  1.00  0.00     0.060 A 
ATOM     28  C   UNL A   1      34.755  30.231  28.094  1.00  0.00     0.016 A 
ATOM     29  C   UNL A   1      35.665  32.484  28.086  1.00  0.00     0.016 A 
ATOM     30  C   UNL A   1      35.957  29.735  28.590  1.00  0.00     0.010 A 
ATOM     31  C   UNL A   1      36.870  31.985  28.594  1.00  0.00     0.010 A 
ATOM     32  C   UNL A   1      37.007  30.615  28.885  1.00  0.00    -0.014 A 
BRANCH  32  33
ATOM     33  C   UNL A   1      38.180  30.113  29.642  1.00  0.00     0.031 A 
ATOM     34  C   UNL A   1      38.392  30.582  31.054  1.00  0.00     0.074 A 
ATOM     35  C   UNL A   1      39.016  29.214  29.094  1.00  0.00     0.049 A 
ATOM     36  N   UNL A   1      39.347  30.278  31.898  1.00  0.00    -0.248 NA
ATOM     37  C   UNL A   1      37.393  31.520  31.590  1.00  0.00     0.031 C 
ATOM     38  C   UNL A   1      38.890  28.653  27.752  1.00  0.00     0.029 A 
ATOM     39  N   UNL A   1      40.141  28.617  29.607  1.00  0.00    -0.354 N 
ATOM     40  C   UNL A   1      39.064  30.987  33.058  1.00  0.00     0.074 A 
ATOM     41  C   UNL A   1      37.867  31.759  32.804  1.00  0.00     0.031 C 
ATOM     42  C   UNL A   1      39.905  27.798  27.540  1.00  0.00     0.029 A 
ATOM     43  C   UNL A   1      40.765  27.772  28.723  1.00  0.00     0.049 A 
ATOM     44  H   UNL A   1      40.469  28.779  30.521  1.00  0.00     0.167 HD
ATOM     45  C   UNL A   1      39.737  30.985  34.234  1.00  0.00     0.037 A 
ATOM     46  C   UNL A   1      41.909  27.074  28.850  1.00  0.00     0.037 A 
ATOM     47  C   UNL A   1      40.927  30.215  34.486  1.00  0.00     0.049 A 
ATOM     48  C   UNL A   1      42.676  27.141  30.145  1.00  0.00     0.074 A 
ATOM     49  C   UNL A   1      41.672  30.133  35.649  1.00  0.00     0.029 A 
ATOM     50  N   UNL A   1      41.549  29.398  33.554  1.00  0.00    -0.354 N 
ATOM     51  N   UNL A   1      42.389  27.793  31.245  1.00  0.00    -0.248 NA
ATOM     52  C   UNL A   1      43.927  26.371  30.216  1.00  0.00     0.031 C 
ATOM     53  C   UNL A   1      42.772  29.302  35.407  1.00  0.00     0.029 A 
ATOM     54  C   UNL A   1      42.684  28.828  34.108  1.00  0.00     0.049 A 
ATOM     55  H   UNL A   1      41.231  29.245  32.635  1.00  0.00     0.167 HD
ATOM     56  C   UNL A   1      43.405  27.492  32.145  1.00  0.00     0.074 A 
ATOM     57  C   UNL A   1      44.310  26.590  31.466  1.00  0.00     0.031 C 
ATOM     58  C   UNL A   1      43.571  27.925  33.418  1.00  0.00     0.037 A 
BRANCH  45  59
ATOM     59  C   UNL A   1      39.215  31.864  35.332  1.00  0.00     0.064 A 
ATOM     60  C   UNL A   1      38.385  31.361  36.345  1.00  0.00     0.173 A 
ATOM     61  C   UNL A   1      39.576  33.218  35.389  1.00  0.00     0.173 A 
ATOM     62  F   UNL A   1      38.000  30.076  36.328  1.00  0.00    -0.203 F 
ATOM     63  C   UNL A   1      37.917  32.189  37.363  1.00  0.00     0.198 A 
ATOM     64  C   UNL A   1      39.128  34.036  36.422  1.00  0.00     0.198 A 
ATOM     65  F   UNL A   1      40.371  33.747  34.446  1.00  0.00    -0.203 F 
ATOM     66  F   UNL A   1      37.091  31.698  38.297  1.00  0.00    -0.200 F 
ATOM     67  C   UNL A   1      38.294  33.523  37.404  1.00  0.00     0.200 A 
ATOM     68  F   UNL A   1      39.501  35.322  36.467  1.00  0.00    -0.200 F 
ATOM     69  F   UNL A   1      37.848  34.317  38.388  1.00  0.00    -0.200 F 
ENDBRANCH  45  59
BRANCH  46  70
ATOM     70  C   UNL A   1      42.408  26.256  27.714  1.00  0.00     0.064 A 
ATOM     71  C   UNL A   1      41.957  24.944  27.513  1.00  0.00     0.173 A 
ATOM     72  C   UNL A   1      43.356  26.766  26.816  1.00  0.00     0.173 A 
ATOM     73  F   UNL A   1      41.071  24.404  28.363  1.00  0.00    -0.203 F 
ATOM     74  C   UNL A   1      42.449  24.169  26.466  1.00  0.00     0.198 A 
ATOM     75  C   UNL A   1      43.827  25.998  25.753  1.00  0.00     0.198 A 
ATOM     76  F   UNL A   1      43.822  28.016  26.967  1.00  0.00    -0.203 F 
ATOM     77  F   UNL A   1      42.035  22.902  26.321  1.00  0.00    -0.200 F 
ATOM     78  C   UNL A   1      43.378  24.698  25.583  1.00  0.00     0.200 A 
ATOM     79  F   UNL A   1      44.718  26.517  24.897  1.00  0.00    -0.200 F 
ATOM     80  F   UNL A   1      43.849  23.951  24.574  1.00  0.00    -0.200 F 
ENDBRANCH  46  70
BRANCH  58  81
ATOM     81  C   UNL A   1      44.758  27.403  34.175  1.00  0.00     0.064 A 
ATOM     82  C   UNL A   1      44.711  26.183  34.867  1.00  0.00     0.173 A 
ATOM     83  C   UNL A   1      45.969  28.111  34.172  1.00  0.00     0.173 A 
ATOM     84  F   UNL A   1      43.571  25.477  34.911  1.00  0.00    -0.203 F 
ATOM     85  C   UNL A   1      45.828  25.705  35.547  1.00  0.00     0.198 A 
ATOM     86  C   UNL A   1      47.092  27.615  34.829  1.00  0.00     0.198 A 
ATOM     87  F   UNL A   1      46.069  29.279  33.520  1.00  0.00    -0.203 F 
ATOM     88  F   UNL A   1      45.747  24.559  36.238  1.00  0.00    -0.200 F 
ATOM     89  C   UNL A   1      47.017  26.416  35.521  1.00  0.00     0.200 A 
ATOM     90  F   UNL A   1      48.244  28.298  34.794  1.00  0.00    -0.200 F 
ATOM     91  F   UNL A   1      48.093  25.949  36.172  1.00  0.00    -0.200 F 
ENDBRANCH  58  81
ENDBRANCH  32  33
ENDBRANCH  25  27
ENDBRANCH  24  25
ENDBRANCH  23  24
ENDBRANCH   1  23
TORSDOF 16
ENDMDL
