MODEL 1
REMARK VINA RESULT:     -11.6      0.000      0.000
REMARK SMILES O=C(CC1(NC(=O)[C@]2(C(F)(F)F)CC[NH2+]C2)CCC1)OCCOCCOC(=O)c1ccc(-c2c3nc(c(-c4c(F)c(F)c(F)c(F)c4F)c4ccc([nH]4)c(-c4c(F)c(F)c(F)c(F)c4F)c4nc(c(-c5c(F)c(F)c(F)c(F)c5F)c5ccc2[nH]5)C=C4)C=C3)cc1
REMARK SMILES IDX 22 1 21 2 20 3 2 4 1 5 3 6 4 7 17 8 19 9 18 10 5 11 6 12
REMARK SMILES IDX 7 14 8 15 13 16 16 17 14 18 15 19 9 22 10 23 11 24 12 25
REMARK SMILES IDX 23 26 24 27 25 28 26 29 27 30 28 31 29 32 30 33 91 34 31 35
REMARK SMILES IDX 90 36 32 37 33 38 34 39 84 40 35 41 89 42 83 43 85 44 36 45
REMARK SMILES IDX 88 46 82 47 81 48 37 50 69 51 49 52 68 53 50 54 53 55 67 56
REMARK SMILES IDX 86 57 51 58 52 59 66 61 87 62 54 63 38 64 39 65 47 66 40 67
REMARK SMILES IDX 41 68 45 69 48 70 42 71 43 72 46 73 44 74 70 75 71 76 79 77
REMARK SMILES IDX 72 78 73 79 77 80 80 81 74 82 75 83 78 84 76 85 55 86 56 87
REMARK SMILES IDX 64 88 57 89 58 90 62 91 65 92 59 93 60 94 63 95 61 96
REMARK H PARENT 5 13 15 20 15 21 85 49 53 60
REMARK Flexibility Score: inf
ROOT
ATOM      1  C   UNL A   1      38.898  21.911  26.001  1.00  0.00     0.202 C 
ENDROOT
BRANCH   1   2
ATOM      2  C   UNL A   1      37.682  21.800  25.072  1.00  0.00     0.261 C 
BRANCH   2   3
ATOM      3  O   UNL A   1      36.648  20.943  25.555  1.00  0.00    -0.463 OA
BRANCH   3   4
ATOM      4  C   UNL A   1      35.461  21.565  25.779  1.00  0.00     0.308 C 
ATOM      5  O   UNL A   1      34.911  21.521  26.871  1.00  0.00    -0.252 OA
BRANCH   4   6
ATOM      6  C   UNL A   1      34.808  22.094  24.520  1.00  0.00     0.151 C 
BRANCH   6   7
ATOM      7  C   UNL A   1      33.310  21.988  24.440  1.00  0.00     0.051 C 
ATOM      8  C   UNL A   1      32.932  22.541  23.030  1.00  0.00     0.029 C 
ATOM      9  C   UNL A   1      32.622  20.649  24.038  1.00  0.00     0.029 C 
ATOM     10  C   UNL A   1      32.140  21.275  22.721  1.00  0.00     0.005 C 
BRANCH   7  11
ATOM     11  N   UNL A   1      32.633  22.612  25.587  1.00  0.00    -0.349 N 
ATOM     12  C   UNL A   1      32.357  23.866  26.035  1.00  0.00     0.241 C 
ATOM     13  H   UNL A   1      32.281  21.930  26.203  1.00  0.00     0.164 HD
ATOM     14  O   UNL A   1      31.711  23.816  27.099  1.00  0.00    -0.274 OA
BRANCH  12  15
ATOM     15  C   UNL A   1      32.618  25.261  25.400  1.00  0.00     0.197 C 
ATOM     16  C   UNL A   1      32.254  26.332  26.495  1.00  0.00     0.094 C 
ATOM     17  C   UNL A   1      31.572  25.554  24.311  1.00  0.00     0.287 C 
ATOM     18  C   UNL A   1      30.966  26.980  26.019  1.00  0.00     0.262 C 
ATOM     19  N   UNL A   1      31.050  26.906  24.560  1.00  0.00    -0.345 N 
ATOM     20  H   UNL A   1      31.684  27.615  24.196  1.00  0.00     0.346 HD
ATOM     21  H   UNL A   1      30.152  27.073  24.104  1.00  0.00     0.346 HD
BRANCH  15  22
ATOM     22  C   UNL A   1      34.030  25.602  24.946  1.00  0.00     0.408 C 
ATOM     23  F   UNL A   1      34.968  25.079  25.760  1.00  0.00    -0.170 F 
ATOM     24  F   UNL A   1      34.334  25.219  23.692  1.00  0.00    -0.170 F 
ATOM     25  F   UNL A   1      34.236  26.948  24.916  1.00  0.00    -0.170 F 
ENDBRANCH  15  22
ENDBRANCH  12  15
ENDBRANCH   7  11
ENDBRANCH   6   7
ENDBRANCH   4   6
ENDBRANCH   3   4
ENDBRANCH   2   3
ENDBRANCH   1   2
BRANCH   1  26
ATOM     26  O   UNL A   1      39.911  20.915  25.925  1.00  0.00    -0.374 OA
BRANCH  26  27
ATOM     27  C   UNL A   1      41.114  21.069  26.683  1.00  0.00     0.202 C 
BRANCH  27  28
ATOM     28  C   UNL A   1      42.351  21.661  26.016  1.00  0.00     0.261 C 
BRANCH  28  29
ATOM     29  O   UNL A   1      41.984  22.899  25.385  1.00  0.00    -0.460 OA
BRANCH  29  30
ATOM     30  C   UNL A   1      42.860  23.906  25.533  1.00  0.00     0.338 C 
ATOM     31  O   UNL A   1      43.971  24.018  25.029  1.00  0.00    -0.246 OA
BRANCH  30  32
ATOM     32  C   UNL A   1      42.170  25.007  26.207  1.00  0.00     0.060 A 
ATOM     33  C   UNL A   1      42.743  26.286  26.141  1.00  0.00     0.016 A 
ATOM     34  C   UNL A   1      41.016  24.766  26.953  1.00  0.00     0.016 A 
ATOM     35  C   UNL A   1      42.196  27.329  26.866  1.00  0.00     0.010 A 
ATOM     36  C   UNL A   1      40.498  25.798  27.726  1.00  0.00     0.010 A 
ATOM     37  C   UNL A   1      41.127  27.056  27.720  1.00  0.00    -0.014 A 
BRANCH  37  38
ATOM     38  C   UNL A   1      40.884  27.976  28.839  1.00  0.00     0.031 A 
ATOM     39  C   UNL A   1      41.754  27.821  30.050  1.00  0.00     0.074 A 
ATOM     40  C   UNL A   1      39.924  28.904  28.762  1.00  0.00     0.049 A 
ATOM     41  N   UNL A   1      41.654  28.380  31.224  1.00  0.00    -0.248 NA
ATOM     42  C   UNL A   1      42.892  26.893  29.918  1.00  0.00     0.031 C 
ATOM     43  C   UNL A   1      39.095  29.162  27.587  1.00  0.00     0.029 A 
ATOM     44  N   UNL A   1      39.468  29.779  29.709  1.00  0.00    -0.354 N 
ATOM     45  C   UNL A   1      42.693  27.848  31.978  1.00  0.00     0.074 A 
ATOM     46  C   UNL A   1      43.404  26.916  31.137  1.00  0.00     0.031 C 
ATOM     47  C   UNL A   1      38.192  30.106  27.899  1.00  0.00     0.029 A 
ATOM     48  C   UNL A   1      38.356  30.470  29.304  1.00  0.00     0.049 A 
ATOM     49  H   UNL A   1      39.894  29.898  30.588  1.00  0.00     0.167 HD
ATOM     50  C   UNL A   1      43.009  28.116  33.265  1.00  0.00     0.037 A 
ATOM     51  C   UNL A   1      37.539  31.261  30.023  1.00  0.00     0.037 A 
ATOM     52  C   UNL A   1      42.261  29.039  34.075  1.00  0.00     0.049 A 
ATOM     53  C   UNL A   1      37.858  31.490  31.476  1.00  0.00     0.074 A 
ATOM     54  C   UNL A   1      42.475  29.410  35.387  1.00  0.00     0.029 A 
ATOM     55  N   UNL A   1      41.134  29.726  33.637  1.00  0.00    -0.354 N 
ATOM     56  N   UNL A   1      38.837  30.993  32.197  1.00  0.00    -0.248 NA
ATOM     57  C   UNL A   1      36.964  32.389  32.216  1.00  0.00     0.031 C 
ATOM     58  C   UNL A   1      41.438  30.269  35.765  1.00  0.00     0.029 A 
ATOM     59  C   UNL A   1      40.622  30.498  34.665  1.00  0.00     0.049 A 
ATOM     60  H   UNL A   1      40.755  29.672  32.729  1.00  0.00     0.167 HD
ATOM     61  C   UNL A   1      38.701  31.543  33.463  1.00  0.00     0.074 A 
ATOM     62  C   UNL A   1      37.540  32.411  33.411  1.00  0.00     0.031 C 
ATOM     63  C   UNL A   1      39.469  31.359  34.568  1.00  0.00     0.037 A 
BRANCH  50  64
ATOM     64  C   UNL A   1      44.150  27.351  33.870  1.00  0.00     0.064 A 
ATOM     65  C   UNL A   1      43.969  26.114  34.509  1.00  0.00     0.173 A 
ATOM     66  C   UNL A   1      45.449  27.883  33.839  1.00  0.00     0.173 A 
ATOM     67  F   UNL A   1      42.745  25.567  34.589  1.00  0.00    -0.203 F 
ATOM     68  C   UNL A   1      45.033  25.463  35.130  1.00  0.00     0.198 A 
ATOM     69  C   UNL A   1      46.517  27.211  34.427  1.00  0.00     0.198 A 
ATOM     70  F   UNL A   1      45.682  29.064  33.245  1.00  0.00    -0.203 F 
ATOM     71  F   UNL A   1      44.820  24.321  35.797  1.00  0.00    -0.200 F 
ATOM     72  C   UNL A   1      46.306  26.009  35.083  1.00  0.00     0.200 A 
ATOM     73  F   UNL A   1      47.748  27.737  34.371  1.00  0.00    -0.200 F 
ATOM     74  F   UNL A   1      47.328  25.384  35.685  1.00  0.00    -0.200 F 
ENDBRANCH  50  64
BRANCH  51  75
ATOM     75  C   UNL A   1      36.349  31.859  29.368  1.00  0.00     0.064 A 
ATOM     76  C   UNL A   1      36.289  33.229  29.094  1.00  0.00     0.173 A 
ATOM     77  C   UNL A   1      35.273  31.059  28.950  1.00  0.00     0.173 A 
ATOM     78  F   UNL A   1      37.286  34.035  29.487  1.00  0.00    -0.203 F 
ATOM     79  C   UNL A   1      35.197  33.781  28.427  1.00  0.00     0.198 A 
ATOM     80  C   UNL A   1      34.195  31.608  28.260  1.00  0.00     0.198 A 
ATOM     81  F   UNL A   1      35.287  29.739  29.184  1.00  0.00    -0.203 F 
ATOM     82  F   UNL A   1      35.153  35.100  28.196  1.00  0.00    -0.200 F 
ATOM     83  C   UNL A   1      34.156  32.968  28.001  1.00  0.00     0.200 A 
ATOM     84  F   UNL A   1      33.201  30.816  27.835  1.00  0.00    -0.200 F 
ATOM     85  F   UNL A   1      33.116  33.499  27.343  1.00  0.00    -0.200 F 
ENDBRANCH  51  75
BRANCH  63  86
ATOM     86  C   UNL A   1      39.116  32.155  35.791  1.00  0.00     0.064 A 
ATOM     87  C   UNL A   1      39.573  33.465  35.981  1.00  0.00     0.173 A 
ATOM     88  C   UNL A   1      38.239  31.615  36.746  1.00  0.00     0.173 A 
ATOM     89  F   UNL A   1      40.421  34.020  35.103  1.00  0.00    -0.203 F 
ATOM     90  C   UNL A   1      39.177  34.202  37.094  1.00  0.00     0.198 A 
ATOM     91  C   UNL A   1      37.819  32.366  37.837  1.00  0.00     0.198 A 
ATOM     92  F   UNL A   1      37.767  30.367  36.602  1.00  0.00    -0.203 F 
ATOM     93  F   UNL A   1      39.656  35.440  37.280  1.00  0.00    -0.200 F 
ATOM     94  C   UNL A   1      38.293  33.658  38.014  1.00  0.00     0.200 A 
ATOM     95  F   UNL A   1      36.948  31.845  38.712  1.00  0.00    -0.200 F 
ATOM     96  F   UNL A   1      37.898  34.376  39.073  1.00  0.00    -0.200 F 
ENDBRANCH  63  86
ENDBRANCH  37  38
ENDBRANCH  30  32
ENDBRANCH  29  30
ENDBRANCH  28  29
ENDBRANCH  27  28
ENDBRANCH  26  27
ENDBRANCH   1  26
TORSDOF 18
ENDMDL
MODEL 2
REMARK VINA RESULT:     -11.2      0.793      2.170
REMARK SMILES O=C(CC1(NC(=O)[C@]2(C(F)(F)F)CC[NH2+]C2)CCC1)OCCOCCOC(=O)c1ccc(-c2c3nc(c(-c4c(F)c(F)c(F)c(F)c4F)c4ccc([nH]4)c(-c4c(F)c(F)c(F)c(F)c4F)c4nc(c(-c5c(F)c(F)c(F)c(F)c5F)c5ccc2[nH]5)C=C4)C=C3)cc1
REMARK SMILES IDX 22 1 21 2 20 3 2 4 1 5 3 6 4 7 17 8 19 9 18 10 5 11 6 12
REMARK SMILES IDX 7 14 8 15 13 16 16 17 14 18 15 19 9 22 10 23 11 24 12 25
REMARK SMILES IDX 23 26 24 27 25 28 26 29 27 30 28 31 29 32 30 33 91 34 31 35
REMARK SMILES IDX 90 36 32 37 33 38 34 39 84 40 35 41 89 42 83 43 85 44 36 45
REMARK SMILES IDX 88 46 82 47 81 48 37 50 69 51 49 52 68 53 50 54 53 55 67 56
REMARK SMILES IDX 86 57 51 58 52 59 66 61 87 62 54 63 38 64 39 65 47 66 40 67
REMARK SMILES IDX 41 68 45 69 48 70 42 71 43 72 46 73 44 74 70 75 71 76 79 77
REMARK SMILES IDX 72 78 73 79 77 80 80 81 74 82 75 83 78 84 76 85 55 86 56 87
REMARK SMILES IDX 64 88 57 89 58 90 62 91 65 92 59 93 60 94 63 95 61 96
REMARK H PARENT 5 13 15 20 15 21 85 49 53 60
REMARK Flexibility Score: inf
ROOT
ATOM      1  C   UNL A   1      38.807  21.742  25.983  1.00  0.00     0.202 C 
ENDROOT
BRANCH   1   2
ATOM      2  C   UNL A   1      37.618  21.642  25.018  1.00  0.00     0.261 C 
BRANCH   2   3
ATOM      3  O   UNL A   1      36.711  20.580  25.309  1.00  0.00    -0.463 OA
BRANCH   3   4
ATOM      4  C   UNL A   1      35.432  20.978  25.534  1.00  0.00     0.308 C 
ATOM      5  O   UNL A   1      34.479  20.308  25.163  1.00  0.00    -0.252 OA
BRANCH   4   6
ATOM      6  C   UNL A   1      35.321  22.392  26.062  1.00  0.00     0.151 C 
BRANCH   6   7
ATOM      7  C   UNL A   1      34.336  23.296  25.374  1.00  0.00     0.051 C 
ATOM      8  C   UNL A   1      35.164  24.536  24.915  1.00  0.00     0.029 C 
ATOM      9  C   UNL A   1      33.950  23.071  23.881  1.00  0.00     0.029 C 
ATOM     10  C   UNL A   1      34.651  24.380  23.487  1.00  0.00     0.005 C 
BRANCH   7  11
ATOM     11  N   UNL A   1      33.148  23.573  26.196  1.00  0.00    -0.349 N 
ATOM     12  C   UNL A   1      32.200  24.541  26.303  1.00  0.00     0.241 C 
ATOM     13  H   UNL A   1      32.997  22.856  26.853  1.00  0.00     0.164 HD
ATOM     14  O   UNL A   1      31.379  24.251  27.193  1.00  0.00    -0.274 OA
BRANCH  12  15
ATOM     15  C   UNL A   1      31.944  25.823  25.459  1.00  0.00     0.197 C 
ATOM     16  C   UNL A   1      30.549  26.393  25.914  1.00  0.00     0.094 C 
ATOM     17  C   UNL A   1      31.671  25.449  23.993  1.00  0.00     0.287 C 
ATOM     18  C   UNL A   1      29.602  26.123  24.758  1.00  0.00     0.262 C 
ATOM     19  N   UNL A   1      30.463  26.175  23.576  1.00  0.00    -0.345 N 
ATOM     20  H   UNL A   1      30.683  27.139  23.329  1.00  0.00     0.346 HD
ATOM     21  H   UNL A   1      30.023  25.770  22.749  1.00  0.00     0.346 HD
BRANCH  15  22
ATOM     22  C   UNL A   1      32.922  26.983  25.583  1.00  0.00     0.408 C 
ATOM     23  F   UNL A   1      33.811  26.797  26.579  1.00  0.00    -0.170 F 
ATOM     24  F   UNL A   1      33.626  27.257  24.469  1.00  0.00    -0.170 F 
ATOM     25  F   UNL A   1      32.279  28.156  25.839  1.00  0.00    -0.170 F 
ENDBRANCH  15  22
ENDBRANCH  12  15
ENDBRANCH   7  11
ENDBRANCH   6   7
ENDBRANCH   4   6
ENDBRANCH   3   4
ENDBRANCH   2   3
ENDBRANCH   1   2
BRANCH   1  26
ATOM     26  O   UNL A   1      39.909  20.861  25.803  1.00  0.00    -0.374 OA
BRANCH  26  27
ATOM     27  C   UNL A   1      41.040  20.957  26.674  1.00  0.00     0.202 C 
BRANCH  27  28
ATOM     28  C   UNL A   1      42.353  21.519  26.140  1.00  0.00     0.261 C 
BRANCH  28  29
ATOM     29  O   UNL A   1      42.062  22.644  25.296  1.00  0.00    -0.460 OA
BRANCH  29  30
ATOM     30  C   UNL A   1      42.926  23.668  25.376  1.00  0.00     0.338 C 
ATOM     31  O   UNL A   1      44.024  23.771  24.841  1.00  0.00    -0.246 OA
BRANCH  30  32
ATOM     32  C   UNL A   1      42.236  24.790  26.015  1.00  0.00     0.060 A 
ATOM     33  C   UNL A   1      42.812  26.066  25.911  1.00  0.00     0.016 A 
ATOM     34  C   UNL A   1      41.082  24.574  26.766  1.00  0.00     0.016 A 
ATOM     35  C   UNL A   1      42.265  27.131  26.603  1.00  0.00     0.010 A 
ATOM     36  C   UNL A   1      40.564  25.630  27.506  1.00  0.00     0.010 A 
ATOM     37  C   UNL A   1      41.195  26.886  27.464  1.00  0.00    -0.014 A 
BRANCH  37  38
ATOM     38  C   UNL A   1      40.951  27.839  28.554  1.00  0.00     0.031 A 
ATOM     39  C   UNL A   1      41.824  27.724  29.767  1.00  0.00     0.074 A 
ATOM     40  C   UNL A   1      39.989  28.762  28.450  1.00  0.00     0.049 A 
ATOM     41  N   UNL A   1      41.725  28.319  30.924  1.00  0.00    -0.248 NA
ATOM     42  C   UNL A   1      42.964  26.796  29.662  1.00  0.00     0.031 C 
ATOM     43  C   UNL A   1      39.158  28.982  27.269  1.00  0.00     0.029 A 
ATOM     44  N   UNL A   1      39.532  29.665  29.370  1.00  0.00    -0.354 N 
ATOM     45  C   UNL A   1      42.766  27.814  31.692  1.00  0.00     0.074 A 
ATOM     46  C   UNL A   1      43.478  26.857  30.879  1.00  0.00     0.031 C 
ATOM     47  C   UNL A   1      38.252  29.932  27.553  1.00  0.00     0.029 A 
ATOM     48  C   UNL A   1      38.418  30.341  28.946  1.00  0.00     0.049 A 
ATOM     49  H   UNL A   1      39.959  29.813  30.244  1.00  0.00     0.167 HD
ATOM     50  C   UNL A   1      43.083  28.123  32.969  1.00  0.00     0.037 A 
ATOM     51  C   UNL A   1      37.600  31.152  29.641  1.00  0.00     0.037 A 
ATOM     52  C   UNL A   1      42.335  29.069  33.751  1.00  0.00     0.049 A 
ATOM     53  C   UNL A   1      37.921  31.427  31.085  1.00  0.00     0.074 A 
ATOM     54  C   UNL A   1      42.550  29.481  35.051  1.00  0.00     0.029 A 
ATOM     55  N   UNL A   1      41.206  29.739  33.295  1.00  0.00    -0.354 N 
ATOM     56  N   UNL A   1      38.903  30.955  31.820  1.00  0.00    -0.248 NA
ATOM     57  C   UNL A   1      37.027  32.346  31.799  1.00  0.00     0.031 C 
ATOM     58  C   UNL A   1      41.512  30.349  35.404  1.00  0.00     0.029 A 
ATOM     59  C   UNL A   1      40.693  30.541  34.299  1.00  0.00     0.049 A 
ATOM     60  H   UNL A   1      40.825  29.656  32.390  1.00  0.00     0.167 HD
ATOM     61  C   UNL A   1      38.767  31.544  33.069  1.00  0.00     0.074 A 
ATOM     62  C   UNL A   1      37.604  32.407  32.992  1.00  0.00     0.031 C 
ATOM     63  C   UNL A   1      39.538  31.396  34.177  1.00  0.00     0.037 A 
BRANCH  50  64
ATOM     64  C   UNL A   1      44.228  27.380  33.596  1.00  0.00     0.064 A 
ATOM     65  C   UNL A   1      45.555  27.827  33.501  1.00  0.00     0.173 A 
ATOM     66  C   UNL A   1      43.994  26.175  34.278  1.00  0.00     0.173 A 
ATOM     67  F   UNL A   1      45.841  28.960  32.840  1.00  0.00    -0.203 F 
ATOM     68  C   UNL A   1      46.606  27.077  34.024  1.00  0.00     0.198 A 
ATOM     69  C   UNL A   1      45.043  25.447  34.834  1.00  0.00     0.198 A 
ATOM     70  F   UNL A   1      42.747  25.696  34.398  1.00  0.00    -0.203 F 
ATOM     71  F   UNL A   1      47.870  27.487  33.855  1.00  0.00    -0.200 F 
ATOM     72  C   UNL A   1      46.349  25.891  34.695  1.00  0.00     0.200 A 
ATOM     73  F   UNL A   1      44.790  24.307  35.490  1.00  0.00    -0.200 F 
ATOM     74  F   UNL A   1      47.360  25.168  35.195  1.00  0.00    -0.200 F 
ENDBRANCH  50  64
BRANCH  51  75
ATOM     75  C   UNL A   1      36.408  31.726  28.970  1.00  0.00     0.064 A 
ATOM     76  C   UNL A   1      35.294  30.932  28.676  1.00  0.00     0.173 A 
ATOM     77  C   UNL A   1      36.337  33.095  28.664  1.00  0.00     0.173 A 
ATOM     78  F   UNL A   1      35.322  29.617  28.937  1.00  0.00    -0.203 F 
ATOM     79  C   UNL A   1      34.152  31.484  28.098  1.00  0.00     0.198 A 
ATOM     80  C   UNL A   1      35.184  33.649  28.111  1.00  0.00     0.198 A 
ATOM     81  F   UNL A   1      37.376  33.899  28.932  1.00  0.00    -0.203 F 
ATOM     82  F   UNL A   1      33.107  30.697  27.805  1.00  0.00    -0.200 F 
ATOM     83  C   UNL A   1      34.094  32.843  27.826  1.00  0.00     0.200 A 
ATOM     84  F   UNL A   1      35.127  34.965  27.867  1.00  0.00    -0.200 F 
ATOM     85  F   UNL A   1      32.987  33.373  27.289  1.00  0.00    -0.200 F 
ENDBRANCH  51  75
BRANCH  63  86
ATOM     86  C   UNL A   1      39.186  32.229  35.375  1.00  0.00     0.064 A 
ATOM     87  C   UNL A   1      38.428  31.718  36.438  1.00  0.00     0.173 A 
ATOM     88  C   UNL A   1      39.689  33.535  35.490  1.00  0.00     0.173 A 
ATOM     89  F   UNL A   1      37.916  30.481  36.370  1.00  0.00    -0.203 F 
ATOM     90  C   UNL A   1      38.172  32.493  37.566  1.00  0.00     0.198 A 
ATOM     91  C   UNL A   1      39.460  34.292  36.633  1.00  0.00     0.198 A 
ATOM     92  F   UNL A   1      40.428  34.064  34.503  1.00  0.00    -0.203 F 
ATOM     93  F   UNL A   1      37.411  32.002  38.554  1.00  0.00    -0.200 F 
ATOM     94  C   UNL A   1      38.697  33.773  37.668  1.00  0.00     0.200 A 
ATOM     95  F   UNL A   1      39.987  35.519  36.738  1.00  0.00    -0.200 F 
ATOM     96  F   UNL A   1      38.466  34.508  38.763  1.00  0.00    -0.200 F 
ENDBRANCH  63  86
ENDBRANCH  37  38
ENDBRANCH  30  32
ENDBRANCH  29  30
ENDBRANCH  28  29
ENDBRANCH  27  28
ENDBRANCH  26  27
ENDBRANCH   1  26
TORSDOF 18
ENDMDL
MODEL 3
REMARK VINA RESULT:     -11.2      4.788      7.091
REMARK SMILES O=C(CC1(NC(=O)[C@]2(C(F)(F)F)CC[NH2+]C2)CCC1)OCCOCCOC(=O)c1ccc(-c2c3nc(c(-c4c(F)c(F)c(F)c(F)c4F)c4ccc([nH]4)c(-c4c(F)c(F)c(F)c(F)c4F)c4nc(c(-c5c(F)c(F)c(F)c(F)c5F)c5ccc2[nH]5)C=C4)C=C3)cc1
REMARK SMILES IDX 22 1 21 2 20 3 2 4 1 5 3 6 4 7 17 8 19 9 18 10 5 11 6 12
REMARK SMILES IDX 7 14 8 15 13 16 16 17 14 18 15 19 9 22 10 23 11 24 12 25
REMARK SMILES IDX 23 26 24 27 25 28 26 29 27 30 28 31 29 32 30 33 91 34 31 35
REMARK SMILES IDX 90 36 32 37 33 38 34 39 84 40 35 41 89 42 83 43 85 44 36 45
REMARK SMILES IDX 88 46 82 47 81 48 37 50 69 51 49 52 68 53 50 54 53 55 67 56
REMARK SMILES IDX 86 57 51 58 52 59 66 61 87 62 54 63 38 64 39 65 47 66 40 67
REMARK SMILES IDX 41 68 45 69 48 70 42 71 43 72 46 73 44 74 70 75 71 76 79 77
REMARK SMILES IDX 72 78 73 79 77 80 80 81 74 82 75 83 78 84 76 85 55 86 56 87
REMARK SMILES IDX 64 88 57 89 58 90 62 91 65 92 59 93 60 94 63 95 61 96
REMARK H PARENT 5 13 15 20 15 21 85 49 53 60
REMARK Flexibility Score: inf
ROOT
ATOM      1  C   UNL A   1      37.629  23.631  25.906  1.00  0.00     0.202 C 
ENDROOT
BRANCH   1   2
ATOM      2  C   UNL A   1      36.194  24.132  25.694  1.00  0.00     0.261 C 
BRANCH   2   3
ATOM      3  O   UNL A   1      35.764  24.128  24.333  1.00  0.00    -0.463 OA
BRANCH   3   4
ATOM      4  C   UNL A   1      34.415  24.129  24.170  1.00  0.00     0.308 C 
ATOM      5  O   UNL A   1      33.897  24.517  23.132  1.00  0.00    -0.252 OA
BRANCH   4   6
ATOM      6  C   UNL A   1      33.650  23.833  25.442  1.00  0.00     0.151 C 
BRANCH   6   7
ATOM      7  C   UNL A   1      32.262  23.279  25.283  1.00  0.00     0.051 C 
ATOM      8  C   UNL A   1      31.840  22.806  26.709  1.00  0.00     0.029 C 
ATOM      9  C   UNL A   1      31.018  24.219  25.288  1.00  0.00     0.029 C 
ATOM     10  C   UNL A   1      30.554  23.622  26.625  1.00  0.00     0.005 C 
BRANCH   7  11
ATOM     11  N   UNL A   1      32.168  22.277  24.210  1.00  0.00    -0.349 N 
ATOM     12  C   UNL A   1      32.647  21.032  23.949  1.00  0.00     0.241 C 
ATOM     13  H   UNL A   1      31.600  22.599  23.474  1.00  0.00     0.164 HD
ATOM     14  O   UNL A   1      32.219  20.620  22.854  1.00  0.00    -0.274 OA
BRANCH  12  15
ATOM     15  C   UNL A   1      33.505  20.063  24.812  1.00  0.00     0.197 C 
ATOM     16  C   UNL A   1      33.483  18.668  24.083  1.00  0.00     0.094 C 
ATOM     17  C   UNL A   1      32.784  19.742  26.131  1.00  0.00     0.287 C 
ATOM     18  C   UNL A   1      32.617  17.769  24.947  1.00  0.00     0.262 C 
ATOM     19  N   UNL A   1      32.818  18.282  26.303  1.00  0.00    -0.345 N 
ATOM     20  H   UNL A   1      33.717  17.980  26.677  1.00  0.00     0.346 HD
ATOM     21  H   UNL A   1      32.115  17.945  26.961  1.00  0.00     0.346 HD
BRANCH  15  22
ATOM     22  C   UNL A   1      34.976  20.390  25.027  1.00  0.00     0.408 C 
ATOM     23  F   UNL A   1      35.195  20.998  26.210  1.00  0.00    -0.170 F 
ATOM     24  F   UNL A   1      35.811  19.336  24.963  1.00  0.00    -0.170 F 
ATOM     25  F   UNL A   1      35.453  21.221  24.059  1.00  0.00    -0.170 F 
ENDBRANCH  15  22
ENDBRANCH  12  15
ENDBRANCH   7  11
ENDBRANCH   6   7
ENDBRANCH   4   6
ENDBRANCH   3   4
ENDBRANCH   2   3
ENDBRANCH   1   2
BRANCH   1  26
ATOM     26  O   UNL A   1      37.912  22.255  25.684  1.00  0.00    -0.374 OA
BRANCH  26  27
ATOM     27  C   UNL A   1      39.224  21.751  25.951  1.00  0.00     0.202 C 
BRANCH  27  28
ATOM     28  C   UNL A   1      39.484  20.251  25.866  1.00  0.00     0.261 C 
BRANCH  28  29
ATOM     29  O   UNL A   1      40.511  19.909  26.811  1.00  0.00    -0.460 OA
BRANCH  29  30
ATOM     30  C   UNL A   1      41.730  19.699  26.289  1.00  0.00     0.338 C 
ATOM     31  O   UNL A   1      42.094  18.773  25.574  1.00  0.00    -0.246 OA
BRANCH  30  32
ATOM     32  C   UNL A   1      42.524  20.911  26.499  1.00  0.00     0.060 A 
ATOM     33  C   UNL A   1      42.664  21.390  27.811  1.00  0.00     0.016 A 
ATOM     34  C   UNL A   1      43.055  21.605  25.412  1.00  0.00     0.016 A 
ATOM     35  C   UNL A   1      43.296  22.598  28.043  1.00  0.00     0.010 A 
ATOM     36  C   UNL A   1      43.640  22.845  25.638  1.00  0.00     0.010 A 
ATOM     37  C   UNL A   1      43.703  23.357  26.946  1.00  0.00    -0.014 A 
BRANCH  37  38
ATOM     38  C   UNL A   1      43.883  24.803  27.133  1.00  0.00     0.031 A 
ATOM     39  C   UNL A   1      45.273  25.342  26.980  1.00  0.00     0.074 A 
ATOM     40  C   UNL A   1      42.840  25.587  27.428  1.00  0.00     0.049 A 
ATOM     41  N   UNL A   1      45.740  26.531  27.245  1.00  0.00    -0.248 NA
ATOM     42  C   UNL A   1      46.282  24.400  26.463  1.00  0.00     0.031 C 
ATOM     43  C   UNL A   1      41.451  25.143  27.514  1.00  0.00     0.029 A 
ATOM     44  N   UNL A   1      42.800  26.918  27.740  1.00  0.00    -0.354 N 
ATOM     45  C   UNL A   1      47.098  26.469  26.960  1.00  0.00     0.074 A 
ATOM     46  C   UNL A   1      47.385  25.127  26.513  1.00  0.00     0.031 C 
ATOM     47  C   UNL A   1      40.694  26.181  27.905  1.00  0.00     0.029 A 
ATOM     48  C   UNL A   1      41.558  27.335  28.142  1.00  0.00     0.049 A 
ATOM     49  H   UNL A   1      43.582  27.513  27.682  1.00  0.00     0.167 HD
ATOM     50  C   UNL A   1      48.018  27.453  27.076  1.00  0.00     0.037 A 
ATOM     51  C   UNL A   1      41.192  28.506  28.692  1.00  0.00     0.037 A 
ATOM     52  C   UNL A   1      47.692  28.773  27.544  1.00  0.00     0.049 A 
ATOM     53  C   UNL A   1      42.241  29.566  28.888  1.00  0.00     0.074 A 
ATOM     54  C   UNL A   1      48.522  29.865  27.702  1.00  0.00     0.029 A 
ATOM     55  N   UNL A   1      46.422  29.167  27.947  1.00  0.00    -0.354 N 
ATOM     56  N   UNL A   1      43.526  29.518  28.621  1.00  0.00    -0.248 NA
ATOM     57  C   UNL A   1      41.794  30.843  29.456  1.00  0.00     0.031 C 
ATOM     58  C   UNL A   1      47.768  30.899  28.265  1.00  0.00     0.029 A 
ATOM     59  C   UNL A   1      46.450  30.480  28.383  1.00  0.00     0.049 A 
ATOM     60  H   UNL A   1      45.619  28.596  27.926  1.00  0.00     0.167 HD
ATOM     61  C   UNL A   1      44.037  30.764  28.955  1.00  0.00     0.074 A 
ATOM     62  C   UNL A   1      42.919  31.547  29.447  1.00  0.00     0.031 C 
ATOM     63  C   UNL A   1      45.309  31.227  28.855  1.00  0.00     0.037 A 
BRANCH  50  64
ATOM     64  C   UNL A   1      49.445  27.105  26.763  1.00  0.00     0.064 A 
ATOM     65  C   UNL A   1      49.958  27.145  25.457  1.00  0.00     0.173 A 
ATOM     66  C   UNL A   1      50.309  26.691  27.789  1.00  0.00     0.173 A 
ATOM     67  F   UNL A   1      49.170  27.512  24.433  1.00  0.00    -0.203 F 
ATOM     68  C   UNL A   1      51.263  26.742  25.184  1.00  0.00     0.198 A 
ATOM     69  C   UNL A   1      51.624  26.326  27.519  1.00  0.00     0.198 A 
ATOM     70  F   UNL A   1      49.874  26.629  29.057  1.00  0.00    -0.203 F 
ATOM     71  F   UNL A   1      51.705  26.717  23.919  1.00  0.00    -0.200 F 
ATOM     72  C   UNL A   1      52.097  26.338  26.215  1.00  0.00     0.200 A 
ATOM     73  F   UNL A   1      52.431  25.946  28.519  1.00  0.00    -0.200 F 
ATOM     74  F   UNL A   1      53.351  25.947  25.952  1.00  0.00    -0.200 F 
ENDBRANCH  50  64
BRANCH  51  75
ATOM     75  C   UNL A   1      39.780  28.702  29.104  1.00  0.00     0.064 A 
ATOM     76  C   UNL A   1      39.363  28.418  30.408  1.00  0.00     0.173 A 
ATOM     77  C   UNL A   1      38.832  29.234  28.214  1.00  0.00     0.173 A 
ATOM     78  F   UNL A   1      40.229  27.895  31.289  1.00  0.00    -0.203 F 
ATOM     79  C   UNL A   1      38.050  28.657  30.811  1.00  0.00     0.198 A 
ATOM     80  C   UNL A   1      37.527  29.497  28.626  1.00  0.00     0.198 A 
ATOM     81  F   UNL A   1      39.184  29.529  26.954  1.00  0.00    -0.203 F 
ATOM     82  F   UNL A   1      37.670  28.355  32.060  1.00  0.00    -0.200 F 
ATOM     83  C   UNL A   1      37.137  29.206  29.923  1.00  0.00     0.200 A 
ATOM     84  F   UNL A   1      36.654  30.044  27.769  1.00  0.00    -0.200 F 
ATOM     85  F   UNL A   1      35.880  29.452  30.318  1.00  0.00    -0.200 F 
ENDBRANCH  51  75
BRANCH  63  86
ATOM     86  C   UNL A   1      45.551  32.661  29.228  1.00  0.00     0.064 A 
ATOM     87  C   UNL A   1      45.389  33.705  28.308  1.00  0.00     0.173 A 
ATOM     88  C   UNL A   1      45.871  32.993  30.555  1.00  0.00     0.173 A 
ATOM     89  F   UNL A   1      45.094  33.438  27.027  1.00  0.00    -0.203 F 
ATOM     90  C   UNL A   1      45.557  35.031  28.699  1.00  0.00     0.198 A 
ATOM     91  C   UNL A   1      46.003  34.319  30.949  1.00  0.00     0.198 A 
ATOM     92  F   UNL A   1      46.026  32.028  31.475  1.00  0.00    -0.203 F 
ATOM     93  F   UNL A   1      45.438  36.013  27.796  1.00  0.00    -0.200 F 
ATOM     94  C   UNL A   1      45.852  35.337  30.020  1.00  0.00     0.200 A 
ATOM     95  F   UNL A   1      46.267  34.613  32.229  1.00  0.00    -0.200 F 
ATOM     96  F   UNL A   1      45.993  36.614  30.397  1.00  0.00    -0.200 F 
ENDBRANCH  63  86
ENDBRANCH  37  38
ENDBRANCH  30  32
ENDBRANCH  29  30
ENDBRANCH  28  29
ENDBRANCH  27  28
ENDBRANCH  26  27
ENDBRANCH   1  26
TORSDOF 18
ENDMDL
