MODEL 1
REMARK VINA RESULT:     -11.5      0.000      0.000
REMARK SMILES C[C@@H](C(=O)OCCOCCOC(=O)c1ccc(-c2c3nc(c(-c4c(F)c(F)c(F)c(F)c4F)c4ccc([nH]4)c(-c4c(F)c(F)c(F)c(F)c4F)c4nc(c(-c5c(F)c(F)c(F)c(F)c5F)c5ccc2[nH]5)C=C4)C=C3)cc1)c1ccc(N[C@H]2CCC[C@@H]2O)cc1F
REMARK SMILES IDX 7 1 6 2 5 3 3 4 4 5 2 6 1 7 77 8 78 9 89 10 79 11 88 12
REMARK SMILES IDX 90 13 80 14 81 15 82 17 83 18 86 19 84 20 85 21 87 22 8 24
REMARK SMILES IDX 9 25 10 26 11 27 12 28 13 29 14 30 15 31 76 32 16 33 75 34
REMARK SMILES IDX 17 35 18 36 19 37 69 38 20 39 74 40 68 41 70 42 21 43 73 44
REMARK SMILES IDX 67 45 66 46 22 48 54 49 34 50 53 51 35 52 38 53 52 54 71 55
REMARK SMILES IDX 36 56 37 57 51 59 72 60 39 61 23 62 24 63 32 64 25 65 26 66
REMARK SMILES IDX 30 67 33 68 27 69 28 70 31 71 29 72 55 73 56 74 64 75 57 76
REMARK SMILES IDX 58 77 62 78 65 79 59 80 60 81 63 82 61 83 40 84 41 85 49 86
REMARK SMILES IDX 42 87 43 88 47 89 50 90 44 91 45 92 48 93 46 94
REMARK H PARENT 81 16 87 23 70 47 38 58
REMARK Flexibility Score: inf
ROOT
ATOM      1  C   UNL A   1      31.741  29.130  26.021  1.00  0.00     0.202 C 
ENDROOT
BRANCH   1   2
ATOM      2  C   UNL A   1      31.029  28.111  25.125  1.00  0.00     0.261 C 
BRANCH   2   3
ATOM      3  O   UNL A   1      30.993  26.818  25.763  1.00  0.00    -0.463 OA
BRANCH   3   4
ATOM      4  C   UNL A   1      31.574  25.802  25.069  1.00  0.00     0.313 C 
ATOM      5  O   UNL A   1      31.036  25.218  24.134  1.00  0.00    -0.252 OA
BRANCH   4   6
ATOM      6  C   UNL A   1      32.977  25.450  25.582  1.00  0.00     0.129 C 
ATOM      7  C   UNL A   1      34.119  26.297  25.016  1.00  0.00     0.025 C 
BRANCH   6   8
ATOM      8  C   UNL A   1      33.207  23.951  25.448  1.00  0.00     0.002 A 
ATOM      9  C   UNL A   1      34.054  23.482  24.441  1.00  0.00     0.010 A 
ATOM     10  C   UNL A   1      32.722  23.012  26.358  1.00  0.00     0.129 A 
ATOM     11  C   UNL A   1      34.422  22.131  24.382  1.00  0.00     0.026 A 
ATOM     12  C   UNL A   1      33.111  21.672  26.312  1.00  0.00     0.065 A 
ATOM     13  F   UNL A   1      31.873  23.375  27.328  1.00  0.00    -0.207 F 
ATOM     14  C   UNL A   1      33.993  21.203  25.333  1.00  0.00     0.037 A 
BRANCH  14  15
ATOM     15  N   UNL A   1      34.382  19.882  25.369  1.00  0.00    -0.380 N 
ATOM     16  H   UNL A   1      35.271  19.713  25.755  1.00  0.00     0.160 HD
BRANCH  15  17
ATOM     17  C   UNL A   1      33.661  18.695  24.914  1.00  0.00     0.107 C 
ATOM     18  C   UNL A   1      32.528  19.005  23.930  1.00  0.00     0.027 C 
ATOM     19  C   UNL A   1      34.541  17.619  24.254  1.00  0.00     0.136 C 
ATOM     20  C   UNL A   1      32.709  18.028  22.769  1.00  0.00     0.005 C 
ATOM     21  C   UNL A   1      33.568  16.903  23.326  1.00  0.00     0.034 C 
BRANCH  19  22
ATOM     22  O   UNL A   1      35.086  16.717  25.207  1.00  0.00    -0.391 OA
ATOM     23  H   UNL A   1      34.958  15.806  24.900  1.00  0.00     0.211 HD
ENDBRANCH  19  22
ENDBRANCH  15  17
ENDBRANCH  14  15
ENDBRANCH   6   8
ENDBRANCH   4   6
ENDBRANCH   3   4
ENDBRANCH   2   3
ENDBRANCH   1   2
BRANCH   1  24
ATOM     24  O   UNL A   1      31.880  30.450  25.490  1.00  0.00    -0.374 OA
BRANCH  24  25
ATOM     25  C   UNL A   1      31.028  31.458  26.031  1.00  0.00     0.202 C 
BRANCH  25  26
ATOM     26  C   UNL A   1      31.711  32.550  26.863  1.00  0.00     0.261 C 
BRANCH  26  27
ATOM     27  O   UNL A   1      32.860  32.056  27.571  1.00  0.00    -0.460 OA
BRANCH  27  28
ATOM     28  C   UNL A   1      33.776  33.002  27.880  1.00  0.00     0.338 C 
ATOM     29  O   UNL A   1      33.594  34.207  28.001  1.00  0.00    -0.246 OA
BRANCH  28  30
ATOM     30  C   UNL A   1      35.055  32.368  28.240  1.00  0.00     0.060 A 
ATOM     31  C   UNL A   1      35.031  30.998  28.530  1.00  0.00     0.016 A 
ATOM     32  C   UNL A   1      36.238  33.101  28.363  1.00  0.00     0.016 A 
ATOM     33  C   UNL A   1      36.177  30.364  28.998  1.00  0.00     0.010 A 
ATOM     34  C   UNL A   1      37.387  32.464  28.843  1.00  0.00     0.010 A 
ATOM     35  C   UNL A   1      37.350  31.103  29.198  1.00  0.00    -0.014 A 
BRANCH  35  36
ATOM     36  C   UNL A   1      38.473  30.481  29.938  1.00  0.00     0.031 A 
ATOM     37  C   UNL A   1      38.692  30.861  31.376  1.00  0.00     0.074 A 
ATOM     38  C   UNL A   1      39.249  29.552  29.356  1.00  0.00     0.049 A 
ATOM     39  N   UNL A   1      39.600  30.439  32.219  1.00  0.00    -0.248 NA
ATOM     40  C   UNL A   1      37.760  31.851  31.941  1.00  0.00     0.031 C 
ATOM     41  C   UNL A   1      39.105  29.071  27.984  1.00  0.00     0.029 A 
ATOM     42  N   UNL A   1      40.315  28.844  29.852  1.00  0.00    -0.354 N 
ATOM     43  C   UNL A   1      39.349  31.111  33.409  1.00  0.00     0.074 A 
ATOM     44  C   UNL A   1      38.225  31.991  33.172  1.00  0.00     0.031 C 
ATOM     45  C   UNL A   1      40.052  28.148  27.744  1.00  0.00     0.029 A 
ATOM     46  C   UNL A   1      40.883  27.993  28.937  1.00  0.00     0.049 A 
ATOM     47  H   UNL A   1      40.642  28.938  30.776  1.00  0.00     0.167 HD
ATOM     48  C   UNL A   1      39.993  30.997  34.594  1.00  0.00     0.037 A 
ATOM     49  C   UNL A   1      41.962  27.194  29.049  1.00  0.00     0.037 A 
ATOM     50  C   UNL A   1      41.108  30.117  34.828  1.00  0.00     0.049 A 
ATOM     51  C   UNL A   1      42.703  27.136  30.360  1.00  0.00     0.074 A 
ATOM     52  C   UNL A   1      41.815  29.911  36.000  1.00  0.00     0.029 A 
ATOM     53  N   UNL A   1      41.682  29.301  33.865  1.00  0.00    -0.354 N 
ATOM     54  N   UNL A   1      42.443  27.751  31.488  1.00  0.00    -0.248 NA
ATOM     55  C   UNL A   1      43.889  26.268  30.413  1.00  0.00     0.031 C 
ATOM     56  C   UNL A   1      42.848  29.006  35.732  1.00  0.00     0.029 A 
ATOM     57  C   UNL A   1      42.753  28.611  34.407  1.00  0.00     0.049 A 
ATOM     58  H   UNL A   1      41.374  29.224  32.932  1.00  0.00     0.167 HD
ATOM     59  C   UNL A   1      43.411  27.326  32.389  1.00  0.00     0.074 A 
ATOM     60  C   UNL A   1      44.258  26.390  31.680  1.00  0.00     0.031 C 
ATOM     61  C   UNL A   1      43.581  27.677  33.688  1.00  0.00     0.037 A 
BRANCH  48  62
ATOM     62  C   UNL A   1      39.525  31.865  35.724  1.00  0.00     0.064 A 
ATOM     63  C   UNL A   1      40.041  33.152  35.929  1.00  0.00     0.173 A 
ATOM     64  C   UNL A   1      38.524  31.412  36.597  1.00  0.00     0.173 A 
ATOM     65  F   UNL A   1      41.010  33.627  35.131  1.00  0.00    -0.203 F 
ATOM     66  C   UNL A   1      39.589  33.946  36.980  1.00  0.00     0.198 A 
ATOM     67  C   UNL A   1      38.055  32.218  37.630  1.00  0.00     0.198 A 
ATOM     68  F   UNL A   1      37.996  30.188  36.442  1.00  0.00    -0.203 F 
ATOM     69  F   UNL A   1      40.126  35.157  37.184  1.00  0.00    -0.200 F 
ATOM     70  C   UNL A   1      38.592  33.481  37.825  1.00  0.00     0.200 A 
ATOM     71  F   UNL A   1      37.084  31.771  38.439  1.00  0.00    -0.200 F 
ATOM     72  F   UNL A   1      38.153  34.248  38.832  1.00  0.00    -0.200 F 
ENDBRANCH  48  62
BRANCH  49  73
ATOM     73  C   UNL A   1      42.411  26.385  27.887  1.00  0.00     0.064 A 
ATOM     74  C   UNL A   1      43.363  26.881  26.984  1.00  0.00     0.173 A 
ATOM     75  C   UNL A   1      41.885  25.109  27.644  1.00  0.00     0.173 A 
ATOM     76  F   UNL A   1      43.875  28.108  27.158  1.00  0.00    -0.203 F 
ATOM     77  C   UNL A   1      43.759  26.136  25.875  1.00  0.00     0.198 A 
ATOM     78  C   UNL A   1      42.302  24.353  26.550  1.00  0.00     0.198 A 
ATOM     79  F   UNL A   1      40.969  24.590  28.475  1.00  0.00    -0.203 F 
ATOM     80  F   UNL A   1      44.638  26.651  25.004  1.00  0.00    -0.200 F 
ATOM     81  C   UNL A   1      43.233  24.871  25.662  1.00  0.00     0.200 A 
ATOM     82  F   UNL A   1      41.798  23.127  26.354  1.00  0.00    -0.200 F 
ATOM     83  F   UNL A   1      43.616  24.154  24.596  1.00  0.00    -0.200 F 
ENDBRANCH  49  73
BRANCH  61  84
ATOM     84  C   UNL A   1      44.705  27.022  34.437  1.00  0.00     0.064 A 
ATOM     85  C   UNL A   1      44.536  25.792  35.090  1.00  0.00     0.173 A 
ATOM     86  C   UNL A   1      45.979  27.610  34.461  1.00  0.00     0.173 A 
ATOM     87  F   UNL A   1      43.333  25.198  35.107  1.00  0.00    -0.203 F 
ATOM     88  C   UNL A   1      45.595  25.188  35.761  1.00  0.00     0.198 A 
ATOM     89  C   UNL A   1      47.043  26.988  35.108  1.00  0.00     0.198 A 
ATOM     90  F   UNL A   1      46.195  28.781  33.845  1.00  0.00    -0.203 F 
ATOM     91  F   UNL A   1      45.399  24.035  36.417  1.00  0.00    -0.200 F 
ATOM     92  C   UNL A   1      46.849  25.781  35.763  1.00  0.00     0.200 A 
ATOM     93  F   UNL A   1      48.256  27.556  35.098  1.00  0.00    -0.200 F 
ATOM     94  F   UNL A   1      47.868  25.194  36.404  1.00  0.00    -0.200 F 
ENDBRANCH  61  84
ENDBRANCH  35  36
ENDBRANCH  28  30
ENDBRANCH  27  28
ENDBRANCH  26  27
ENDBRANCH  25  26
ENDBRANCH  24  25
ENDBRANCH   1  24
TORSDOF 18
ENDMDL
MODEL 2
REMARK VINA RESULT:     -11.4      3.276      5.303
REMARK SMILES C[C@@H](C(=O)OCCOCCOC(=O)c1ccc(-c2c3nc(c(-c4c(F)c(F)c(F)c(F)c4F)c4ccc([nH]4)c(-c4c(F)c(F)c(F)c(F)c4F)c4nc(c(-c5c(F)c(F)c(F)c(F)c5F)c5ccc2[nH]5)C=C4)C=C3)cc1)c1ccc(N[C@H]2CCC[C@@H]2O)cc1F
REMARK SMILES IDX 7 1 6 2 5 3 3 4 4 5 2 6 1 7 77 8 78 9 89 10 79 11 88 12
REMARK SMILES IDX 90 13 80 14 81 15 82 17 83 18 86 19 84 20 85 21 87 22 8 24
REMARK SMILES IDX 9 25 10 26 11 27 12 28 13 29 14 30 15 31 76 32 16 33 75 34
REMARK SMILES IDX 17 35 18 36 19 37 69 38 20 39 74 40 68 41 70 42 21 43 73 44
REMARK SMILES IDX 67 45 66 46 22 48 54 49 34 50 53 51 35 52 38 53 52 54 71 55
REMARK SMILES IDX 36 56 37 57 51 59 72 60 39 61 23 62 24 63 32 64 25 65 26 66
REMARK SMILES IDX 30 67 33 68 27 69 28 70 31 71 29 72 55 73 56 74 64 75 57 76
REMARK SMILES IDX 58 77 62 78 65 79 59 80 60 81 63 82 61 83 40 84 41 85 49 86
REMARK SMILES IDX 42 87 43 88 47 89 50 90 44 91 45 92 48 93 46 94
REMARK H PARENT 81 16 87 23 70 47 38 58
REMARK Flexibility Score: inf
ROOT
ATOM      1  C   UNL A   1      33.038  29.953  26.285  1.00  0.00     0.202 C 
ENDROOT
BRANCH   1   2
ATOM      2  C   UNL A   1      33.625  28.849  27.172  1.00  0.00     0.261 C 
BRANCH   2   3
ATOM      3  O   UNL A   1      33.657  27.596  26.461  1.00  0.00    -0.463 OA
BRANCH   3   4
ATOM      4  C   UNL A   1      32.449  27.010  26.244  1.00  0.00     0.313 C 
ATOM      5  O   UNL A   1      31.608  26.833  27.118  1.00  0.00    -0.252 OA
BRANCH   4   6
ATOM      6  C   UNL A   1      32.244  26.580  24.784  1.00  0.00     0.129 C 
ATOM      7  C   UNL A   1      33.510  26.530  23.926  1.00  0.00     0.025 C 
BRANCH   6   8
ATOM      8  C   UNL A   1      31.120  27.399  24.165  1.00  0.00     0.002 A 
ATOM      9  C   UNL A   1      31.439  28.563  23.460  1.00  0.00     0.010 A 
ATOM     10  C   UNL A   1      29.787  26.989  24.144  1.00  0.00     0.129 A 
ATOM     11  C   UNL A   1      30.458  29.257  22.738  1.00  0.00     0.026 A 
ATOM     12  C   UNL A   1      28.819  27.668  23.402  1.00  0.00     0.065 A 
ATOM     13  F   UNL A   1      29.395  25.906  24.827  1.00  0.00    -0.207 F 
ATOM     14  C   UNL A   1      29.138  28.809  22.660  1.00  0.00     0.037 A 
BRANCH  14  15
ATOM     15  N   UNL A   1      28.152  29.408  21.907  1.00  0.00    -0.380 N 
ATOM     16  H   UNL A   1      27.735  28.835  21.224  1.00  0.00     0.160 HD
BRANCH  15  17
ATOM     17  C   UNL A   1      27.635  30.773  21.979  1.00  0.00     0.107 C 
ATOM     18  C   UNL A   1      27.887  31.453  23.327  1.00  0.00     0.027 C 
ATOM     19  C   UNL A   1      28.173  31.723  20.894  1.00  0.00     0.136 C 
ATOM     20  C   UNL A   1      28.464  32.830  22.997  1.00  0.00     0.005 C 
ATOM     21  C   UNL A   1      28.062  33.092  21.553  1.00  0.00     0.034 C 
BRANCH  19  22
ATOM     22  O   UNL A   1      27.395  31.671  19.705  1.00  0.00    -0.391 OA
ATOM     23  H   UNL A   1      27.847  31.121  19.047  1.00  0.00     0.211 HD
ENDBRANCH  19  22
ENDBRANCH  15  17
ENDBRANCH  14  15
ENDBRANCH   6   8
ENDBRANCH   4   6
ENDBRANCH   3   4
ENDBRANCH   2   3
ENDBRANCH   1   2
BRANCH   1  24
ATOM     24  O   UNL A   1      31.786  30.500  26.704  1.00  0.00    -0.374 OA
BRANCH  24  25
ATOM     25  C   UNL A   1      31.722  31.915  26.870  1.00  0.00     0.202 C 
BRANCH  25  26
ATOM     26  C   UNL A   1      32.831  32.552  27.715  1.00  0.00     0.261 C 
BRANCH  26  27
ATOM     27  O   UNL A   1      33.015  33.945  27.410  1.00  0.00    -0.460 OA
BRANCH  27  28
ATOM     28  C   UNL A   1      33.147  34.742  28.495  1.00  0.00     0.338 C 
ATOM     29  O   UNL A   1      32.383  35.619  28.875  1.00  0.00    -0.246 OA
BRANCH  28  30
ATOM     30  C   UNL A   1      34.292  34.300  29.309  1.00  0.00     0.060 A 
ATOM     31  C   UNL A   1      35.565  34.419  28.739  1.00  0.00     0.016 A 
ATOM     32  C   UNL A   1      34.126  33.719  30.568  1.00  0.00     0.016 A 
ATOM     33  C   UNL A   1      36.676  33.906  29.402  1.00  0.00     0.010 A 
ATOM     34  C   UNL A   1      35.242  33.195  31.229  1.00  0.00     0.010 A 
ATOM     35  C   UNL A   1      36.514  33.253  30.631  1.00  0.00    -0.014 A 
BRANCH  35  36
ATOM     36  C   UNL A   1      37.653  32.489  31.192  1.00  0.00     0.031 A 
ATOM     37  C   UNL A   1      38.146  32.832  32.571  1.00  0.00     0.074 A 
ATOM     38  C   UNL A   1      38.202  31.470  30.510  1.00  0.00     0.049 A 
ATOM     39  N   UNL A   1      39.115  32.294  33.266  1.00  0.00    -0.248 NA
ATOM     40  C   UNL A   1      37.448  33.931  33.260  1.00  0.00     0.031 C 
ATOM     41  C   UNL A   1      37.780  31.017  29.187  1.00  0.00     0.029 A 
ATOM     42  N   UNL A   1      39.234  30.629  30.842  1.00  0.00    -0.354 N 
ATOM     43  C   UNL A   1      39.145  32.989  34.469  1.00  0.00     0.074 A 
ATOM     44  C   UNL A   1      38.119  34.007  34.399  1.00  0.00     0.031 C 
ATOM     45  C   UNL A   1      38.551  29.981  28.816  1.00  0.00     0.029 A 
ATOM     46  C   UNL A   1      39.536  29.716  29.863  1.00  0.00     0.049 A 
ATOM     47  H   UNL A   1      39.714  30.677  31.701  1.00  0.00     0.167 HD
ATOM     48  C   UNL A   1      39.950  32.789  35.539  1.00  0.00     0.037 A 
ATOM     49  C   UNL A   1      40.508  28.785  29.817  1.00  0.00     0.037 A 
ATOM     50  C   UNL A   1      40.967  31.772  35.607  1.00  0.00     0.049 A 
ATOM     51  C   UNL A   1      41.436  28.628  30.993  1.00  0.00     0.074 A 
ATOM     52  C   UNL A   1      41.820  31.473  36.656  1.00  0.00     0.029 A 
ATOM     53  N   UNL A   1      41.271  30.893  34.579  1.00  0.00    -0.354 N 
ATOM     54  N   UNL A   1      41.439  29.267  32.138  1.00  0.00    -0.248 NA
ATOM     55  C   UNL A   1      42.495  27.615  30.872  1.00  0.00     0.031 C 
ATOM     56  C   UNL A   1      42.674  30.444  36.242  1.00  0.00     0.029 A 
ATOM     57  C   UNL A   1      42.319  30.069  34.956  1.00  0.00     0.049 A 
ATOM     58  H   UNL A   1      40.812  30.860  33.709  1.00  0.00     0.167 HD
ATOM     59  C   UNL A   1      42.477  28.718  32.881  1.00  0.00     0.074 A 
ATOM     60  C   UNL A   1      43.074  27.684  32.062  1.00  0.00     0.031 C 
ATOM     61  C   UNL A   1      42.896  29.040  34.130  1.00  0.00     0.037 A 
BRANCH  48  62
ATOM     62  C   UNL A   1      39.783  33.705  36.714  1.00  0.00     0.064 A 
ATOM     63  C   UNL A   1      38.981  33.360  37.811  1.00  0.00     0.173 A 
ATOM     64  C   UNL A   1      40.457  34.935  36.754  1.00  0.00     0.173 A 
ATOM     65  F   UNL A   1      38.303  32.202  37.815  1.00  0.00    -0.203 F 
ATOM     66  C   UNL A   1      38.842  34.221  38.896  1.00  0.00     0.198 A 
ATOM     67  C   UNL A   1      40.338  35.782  37.852  1.00  0.00     0.198 A 
ATOM     68  F   UNL A   1      41.238  35.311  35.730  1.00  0.00    -0.203 F 
ATOM     69  F   UNL A   1      38.037  33.891  39.915  1.00  0.00    -0.200 F 
ATOM     70  C   UNL A   1      39.526  35.429  38.919  1.00  0.00     0.200 A 
ATOM     71  F   UNL A   1      41.007  36.943  37.877  1.00  0.00    -0.200 F 
ATOM     72  F   UNL A   1      39.396  36.254  39.966  1.00  0.00    -0.200 F 
ENDBRANCH  48  62
BRANCH  49  73
ATOM     73  C   UNL A   1      40.660  27.930  28.611  1.00  0.00     0.064 A 
ATOM     74  C   UNL A   1      41.422  28.354  27.513  1.00  0.00     0.173 A 
ATOM     75  C   UNL A   1      40.032  26.679  28.525  1.00  0.00     0.173 A 
ATOM     76  F   UNL A   1      42.020  29.554  27.537  1.00  0.00    -0.203 F 
ATOM     77  C   UNL A   1      41.535  27.566  26.369  1.00  0.00     0.198 A 
ATOM     78  C   UNL A   1      40.169  25.880  27.392  1.00  0.00     0.198 A 
ATOM     79  F   UNL A   1      39.288  26.229  29.546  1.00  0.00    -0.203 F 
ATOM     80  F   UNL A   1      42.233  28.014  25.317  1.00  0.00    -0.200 F 
ATOM     81  C   UNL A   1      40.914  26.328  26.312  1.00  0.00     0.200 A 
ATOM     82  F   UNL A   1      39.574  24.680  27.345  1.00  0.00    -0.200 F 
ATOM     83  F   UNL A   1      41.026  25.570  25.212  1.00  0.00    -0.200 F 
ENDBRANCH  49  73
BRANCH  61  84
ATOM     84  C   UNL A   1      44.032  28.243  34.702  1.00  0.00     0.064 A 
ATOM     85  C   UNL A   1      45.363  28.670  34.585  1.00  0.00     0.173 A 
ATOM     86  C   UNL A   1      43.781  27.061  35.415  1.00  0.00     0.173 A 
ATOM     87  F   UNL A   1      45.656  29.786  33.900  1.00  0.00    -0.203 F 
ATOM     88  C   UNL A   1      46.403  27.930  35.141  1.00  0.00     0.198 A 
ATOM     89  C   UNL A   1      44.821  26.339  35.994  1.00  0.00     0.198 A 
ATOM     90  F   UNL A   1      42.526  26.613  35.562  1.00  0.00    -0.203 F 
ATOM     91  F   UNL A   1      47.671  28.334  34.978  1.00  0.00    -0.200 F 
ATOM     92  C   UNL A   1      46.131  26.770  35.851  1.00  0.00     0.200 A 
ATOM     93  F   UNL A   1      44.555  25.226  36.691  1.00  0.00    -0.200 F 
ATOM     94  F   UNL A   1      47.133  26.063  36.391  1.00  0.00    -0.200 F 
ENDBRANCH  61  84
ENDBRANCH  35  36
ENDBRANCH  28  30
ENDBRANCH  27  28
ENDBRANCH  26  27
ENDBRANCH  25  26
ENDBRANCH  24  25
ENDBRANCH   1  24
TORSDOF 18
ENDMDL
MODEL 3
REMARK VINA RESULT:     -11.4      0.975      7.367
REMARK SMILES C[C@@H](C(=O)OCCOCCOC(=O)c1ccc(-c2c3nc(c(-c4c(F)c(F)c(F)c(F)c4F)c4ccc([nH]4)c(-c4c(F)c(F)c(F)c(F)c4F)c4nc(c(-c5c(F)c(F)c(F)c(F)c5F)c5ccc2[nH]5)C=C4)C=C3)cc1)c1ccc(N[C@H]2CCC[C@@H]2O)cc1F
REMARK SMILES IDX 7 1 6 2 5 3 3 4 4 5 2 6 1 7 77 8 78 9 89 10 79 11 88 12
REMARK SMILES IDX 90 13 80 14 81 15 82 17 83 18 86 19 84 20 85 21 87 22 8 24
REMARK SMILES IDX 9 25 10 26 11 27 12 28 13 29 14 30 15 31 76 32 16 33 75 34
REMARK SMILES IDX 17 35 18 36 19 37 69 38 20 39 74 40 68 41 70 42 21 43 73 44
REMARK SMILES IDX 67 45 66 46 22 48 54 49 34 50 53 51 35 52 38 53 52 54 71 55
REMARK SMILES IDX 36 56 37 57 51 59 72 60 39 61 23 62 24 63 32 64 25 65 26 66
REMARK SMILES IDX 30 67 33 68 27 69 28 70 31 71 29 72 55 73 56 74 64 75 57 76
REMARK SMILES IDX 58 77 62 78 65 79 59 80 60 81 63 82 61 83 40 84 41 85 49 86
REMARK SMILES IDX 42 87 43 88 47 89 50 90 44 91 45 92 48 93 46 94
REMARK H PARENT 81 16 87 23 70 47 38 58
REMARK Flexibility Score: inf
ROOT
ATOM      1  C   UNL A   1      30.543  27.824  23.936  1.00  0.00     0.202 C 
ENDROOT
BRANCH   1   2
ATOM      2  C   UNL A   1      30.519  26.298  24.070  1.00  0.00     0.261 C 
BRANCH   2   3
ATOM      3  O   UNL A   1      31.434  25.697  23.131  1.00  0.00    -0.463 OA
BRANCH   3   4
ATOM      4  C   UNL A   1      32.741  25.687  23.506  1.00  0.00     0.313 C 
ATOM      5  O   UNL A   1      33.677  25.850  22.730  1.00  0.00    -0.252 OA
BRANCH   4   6
ATOM      6  C   UNL A   1      32.933  25.442  25.009  1.00  0.00     0.129 C 
ATOM      7  C   UNL A   1      33.855  26.430  25.728  1.00  0.00     0.025 C 
BRANCH   6   8
ATOM      8  C   UNL A   1      33.302  23.984  25.245  1.00  0.00     0.002 A 
ATOM      9  C   UNL A   1      32.311  23.093  25.666  1.00  0.00     0.010 A 
ATOM     10  C   UNL A   1      34.552  23.445  24.939  1.00  0.00     0.129 A 
ATOM     11  C   UNL A   1      32.566  21.717  25.739  1.00  0.00     0.026 A 
ATOM     12  C   UNL A   1      34.794  22.071  24.987  1.00  0.00     0.065 A 
ATOM     13  F   UNL A   1      35.565  24.238  24.566  1.00  0.00    -0.207 F 
ATOM     14  C   UNL A   1      33.795  21.169  25.367  1.00  0.00     0.037 A 
BRANCH  14  15
ATOM     15  N   UNL A   1      34.077  19.820  25.346  1.00  0.00    -0.380 N 
ATOM     16  H   UNL A   1      34.961  19.568  25.696  1.00  0.00     0.160 HD
BRANCH  15  17
ATOM     17  C   UNL A   1      33.248  18.711  24.880  1.00  0.00     0.107 C 
ATOM     18  C   UNL A   1      32.642  18.940  23.492  1.00  0.00     0.027 C 
ATOM     19  C   UNL A   1      33.961  17.348  24.834  1.00  0.00     0.136 C 
ATOM     20  C   UNL A   1      32.919  17.661  22.702  1.00  0.00     0.005 C 
ATOM     21  C   UNL A   1      33.195  16.596  23.753  1.00  0.00     0.034 C 
BRANCH  19  22
ATOM     22  O   UNL A   1      33.884  16.663  26.077  1.00  0.00    -0.391 OA
ATOM     23  H   UNL A   1      32.986  16.320  26.202  1.00  0.00     0.211 HD
ENDBRANCH  19  22
ENDBRANCH  15  17
ENDBRANCH  14  15
ENDBRANCH   6   8
ENDBRANCH   4   6
ENDBRANCH   3   4
ENDBRANCH   2   3
ENDBRANCH   1   2
BRANCH   1  24
ATOM     24  O   UNL A   1      31.123  28.545  25.026  1.00  0.00    -0.374 OA
BRANCH  24  25
ATOM     25  C   UNL A   1      31.360  29.937  24.828  1.00  0.00     0.202 C 
BRANCH  25  26
ATOM     26  C   UNL A   1      31.417  30.804  26.091  1.00  0.00     0.261 C 
BRANCH  26  27
ATOM     27  O   UNL A   1      32.597  30.551  26.871  1.00  0.00    -0.460 OA
BRANCH  27  28
ATOM     28  C   UNL A   1      33.284  31.661  27.223  1.00  0.00     0.338 C 
ATOM     29  O   UNL A   1      32.868  32.812  27.274  1.00  0.00    -0.246 OA
BRANCH  28  30
ATOM     30  C   UNL A   1      34.616  31.292  27.731  1.00  0.00     0.060 A 
ATOM     31  C   UNL A   1      34.828  29.945  28.049  1.00  0.00     0.016 A 
ATOM     32  C   UNL A   1      35.612  32.244  27.960  1.00  0.00     0.016 A 
ATOM     33  C   UNL A   1      36.019  29.550  28.649  1.00  0.00     0.010 A 
ATOM     34  C   UNL A   1      36.806  31.847  28.572  1.00  0.00     0.010 A 
ATOM     35  C   UNL A   1      36.997  30.506  28.954  1.00  0.00    -0.014 A 
BRANCH  35  36
ATOM     36  C   UNL A   1      38.134  30.118  29.821  1.00  0.00     0.031 A 
ATOM     37  C   UNL A   1      39.163  29.162  29.282  1.00  0.00     0.074 A 
ATOM     38  C   UNL A   1      38.278  30.651  31.046  1.00  0.00     0.049 A 
ATOM     39  N   UNL A   1      40.242  28.693  29.854  1.00  0.00    -0.248 NA
ATOM     40  C   UNL A   1      38.944  28.671  27.912  1.00  0.00     0.031 C 
ATOM     41  C   UNL A   1      37.371  31.619  31.657  1.00  0.00     0.029 A 
ATOM     42  N   UNL A   1      39.249  30.451  31.995  1.00  0.00    -0.354 N 
ATOM     43  C   UNL A   1      40.828  27.852  28.916  1.00  0.00     0.074 A 
ATOM     44  C   UNL A   1      39.971  27.851  27.750  1.00  0.00     0.031 C 
ATOM     45  C   UNL A   1      37.826  31.928  32.883  1.00  0.00     0.029 A 
ATOM     46  C   UNL A   1      39.040  31.159  33.152  1.00  0.00     0.049 A 
ATOM     47  H   UNL A   1      40.022  29.856  31.859  1.00  0.00     0.167 HD
ATOM     48  C   UNL A   1      41.983  27.152  29.016  1.00  0.00     0.037 A 
ATOM     49  C   UNL A   1      39.744  31.170  34.301  1.00  0.00     0.037 A 
ATOM     50  C   UNL A   1      42.836  27.160  30.175  1.00  0.00     0.049 A 
ATOM     51  C   UNL A   1      40.989  30.329  34.411  1.00  0.00     0.074 A 
ATOM     52  C   UNL A   1      44.039  26.503  30.366  1.00  0.00     0.029 A 
ATOM     53  N   UNL A   1      42.570  27.857  31.344  1.00  0.00    -0.354 N 
ATOM     54  N   UNL A   1      41.553  29.560  33.510  1.00  0.00    -0.248 NA
ATOM     55  C   UNL A   1      41.698  30.359  35.699  1.00  0.00     0.031 C 
ATOM     56  C   UNL A   1      44.475  26.764  31.670  1.00  0.00     0.029 A 
ATOM     57  C   UNL A   1      43.571  27.623  32.272  1.00  0.00     0.049 A 
ATOM     58  H   UNL A   1      41.784  28.432  31.493  1.00  0.00     0.167 HD
ATOM     59  C   UNL A   1      42.692  29.040  34.110  1.00  0.00     0.074 A 
ATOM     60  C   UNL A   1      42.747  29.589  35.449  1.00  0.00     0.031 C 
ATOM     61  C   UNL A   1      43.613  28.185  33.598  1.00  0.00     0.037 A 
BRANCH  48  62
ATOM     62  C   UNL A   1      42.378  26.297  27.849  1.00  0.00     0.064 A 
ATOM     63  C   UNL A   1      41.841  25.017  27.656  1.00  0.00     0.173 A 
ATOM     64  C   UNL A   1      43.286  26.779  26.894  1.00  0.00     0.173 A 
ATOM     65  F   UNL A   1      40.980  24.504  28.549  1.00  0.00    -0.203 F 
ATOM     66  C   UNL A   1      42.215  24.240  26.563  1.00  0.00     0.198 A 
ATOM     67  C   UNL A   1      43.639  26.011  25.788  1.00  0.00     0.198 A 
ATOM     68  F   UNL A   1      43.828  27.999  27.031  1.00  0.00    -0.203 F 
ATOM     69  F   UNL A   1      41.722  23.002  26.421  1.00  0.00    -0.200 F 
ATOM     70  C   UNL A   1      43.108  24.740  25.626  1.00  0.00     0.200 A 
ATOM     71  F   UNL A   1      44.493  26.500  24.878  1.00  0.00    -0.200 F 
ATOM     72  F   UNL A   1      43.462  23.994  24.571  1.00  0.00    -0.200 F 
ENDBRANCH  48  62
BRANCH  49  73
ATOM     73  C   UNL A   1      39.286  32.002  35.444  1.00  0.00     0.064 A 
ATOM     74  C   UNL A   1      39.703  33.334  35.583  1.00  0.00     0.173 A 
ATOM     75  C   UNL A   1      38.438  31.478  36.429  1.00  0.00     0.173 A 
ATOM     76  F   UNL A   1      40.537  33.872  34.681  1.00  0.00    -0.203 F 
ATOM     77  C   UNL A   1      39.302  34.103  36.673  1.00  0.00     0.198 A 
ATOM     78  C   UNL A   1      38.014  32.256  37.503  1.00  0.00     0.198 A 
ATOM     79  F   UNL A   1      38.013  30.208  36.344  1.00  0.00    -0.203 F 
ATOM     80  F   UNL A   1      39.750  35.359  36.806  1.00  0.00    -0.200 F 
ATOM     81  C   UNL A   1      38.453  33.566  37.629  1.00  0.00     0.200 A 
ATOM     82  F   UNL A   1      37.186  31.736  38.420  1.00  0.00    -0.200 F 
ATOM     83  F   UNL A   1      38.065  34.307  38.676  1.00  0.00    -0.200 F 
ENDBRANCH  49  73
BRANCH  61  84
ATOM     84  C   UNL A   1      44.775  27.818  34.474  1.00  0.00     0.064 A 
ATOM     85  C   UNL A   1      44.746  26.685  35.300  1.00  0.00     0.173 A 
ATOM     86  C   UNL A   1      45.950  28.585  34.450  1.00  0.00     0.173 A 
ATOM     87  F   UNL A   1      43.640  25.929  35.368  1.00  0.00    -0.203 F 
ATOM     88  C   UNL A   1      45.842  26.348  36.089  1.00  0.00     0.198 A 
ATOM     89  C   UNL A   1      47.054  28.228  35.219  1.00  0.00     0.198 A 
ATOM     90  F   UNL A   1      46.032  29.673  33.671  1.00  0.00    -0.203 F 
ATOM     91  F   UNL A   1      45.775  25.286  36.905  1.00  0.00    -0.200 F 
ATOM     92  C   UNL A   1      46.997  27.114  36.042  1.00  0.00     0.200 A 
ATOM     93  F   UNL A   1      48.174  28.961  35.162  1.00  0.00    -0.200 F 
ATOM     94  F   UNL A   1      48.053  26.783  36.797  1.00  0.00    -0.200 F 
ENDBRANCH  61  84
ENDBRANCH  35  36
ENDBRANCH  28  30
ENDBRANCH  27  28
ENDBRANCH  26  27
ENDBRANCH  25  26
ENDBRANCH  24  25
ENDBRANCH   1  24
TORSDOF 18
ENDMDL
