MODEL 1
REMARK VINA RESULT:     -12.6      0.000      0.000
REMARK SMILES O=C(OCCOCCOC(=O)c1ccc(-c2c3nc(c(-c4c(F)c(F)c(F)c(F)c4F)c4ccc([nH]4)c(-c4c(F)c(F)c(F)c(F)c4F)c4nc(c(-c5c(F)c(F)c(F)c(F)c5F)c5ccc2[nH]5)C=C4)C=C3)cc1)C1=Cc2cc(S(F)(F)(F)(F)F)ccc2O[C@@H]1C(F)(F)F
REMARK SMILES IDX 7 1 6 2 5 3 4 4 3 5 2 6 1 7 75 8 76 9 90 10 77 11 89 12
REMARK SMILES IDX 78 13 88 14 79 15 87 16 86 17 91 18 92 19 93 20 94 21 80 22
REMARK SMILES IDX 81 23 82 24 83 25 84 26 85 27 8 28 9 29 10 30 11 31 12 32
REMARK SMILES IDX 13 33 74 34 14 35 73 36 15 37 16 38 17 39 67 40 18 41 72 42
REMARK SMILES IDX 66 43 68 44 19 45 71 46 65 47 64 48 20 50 52 51 32 52 51 53
REMARK SMILES IDX 33 54 36 55 50 56 69 57 34 58 35 59 49 61 70 62 37 63 21 64
REMARK SMILES IDX 22 65 30 66 23 67 24 68 28 69 31 70 25 71 26 72 29 73 27 74
REMARK SMILES IDX 53 75 54 76 62 77 55 78 56 79 60 80 63 81 57 82 58 83 61 84
REMARK SMILES IDX 59 85 38 86 39 87 47 88 40 89 41 90 45 91 48 92 42 93 43 94
REMARK SMILES IDX 46 95 44 96
REMARK H PARENT 68 49 36 60
REMARK Flexibility Score: inf
ROOT
ATOM      1  C   UNL A   1      38.182  19.584  25.022  1.00  0.00     0.202 C 
ENDROOT
BRANCH   1   2
ATOM      2  O   UNL A   1      37.229  20.631  25.134  1.00  0.00    -0.374 OA
BRANCH   2   3
ATOM      3  C   UNL A   1      37.897  21.884  25.108  1.00  0.00     0.202 C 
BRANCH   3   4
ATOM      4  C   UNL A   1      36.967  22.966  25.631  1.00  0.00     0.261 C 
BRANCH   4   5
ATOM      5  O   UNL A   1      36.409  23.679  24.538  1.00  0.00    -0.460 OA
BRANCH   5   6
ATOM      6  C   UNL A   1      35.365  23.099  23.770  1.00  0.00     0.338 C 
ATOM      7  O   UNL A   1      35.469  23.028  22.505  1.00  0.00    -0.246 OA
BRANCH   6   8
ATOM      8  C   UNL A   1      34.122  22.562  24.461  1.00  0.00     0.087 C 
ATOM      9  C   UNL A   1      33.205  23.423  24.977  1.00  0.00     0.027 C 
ATOM     10  C   UNL A   1      33.904  21.061  24.576  1.00  0.00     0.316 C 
ATOM     11  C   UNL A   1      33.422  24.923  24.863  1.00  0.00     0.019 A 
ATOM     12  O   UNL A   1      34.191  24.571  22.642  1.00  0.00    -0.475 OA
ATOM     13  C   UNL A   1      33.203  25.727  25.969  1.00  0.00     0.036 A 
ATOM     14  C   UNL A   1      33.822  25.437  23.706  1.00  0.00     0.128 A 
ATOM     15  C   UNL A   1      33.154  27.110  25.672  1.00  0.00     0.107 A 
ATOM     16  C   UNL A   1      33.880  26.799  23.528  1.00  0.00     0.048 A 
ATOM     17  C   UNL A   1      33.618  27.655  24.562  1.00  0.00     0.028 A 
BRANCH  10  18
ATOM     18  C   UNL A   1      32.610  20.682  23.875  1.00  0.00     0.430 C 
ATOM     19  F   UNL A   1      31.577  21.004  24.649  1.00  0.00    -0.167 F 
ATOM     20  F   UNL A   1      32.521  21.339  22.722  1.00  0.00    -0.167 F 
ATOM     21  F   UNL A   1      32.599  19.374  23.641  1.00  0.00    -0.167 F 
ENDBRANCH  10  18
BRANCH  15  22
ATOM     22  S   UNL A   1      32.403  28.208  26.899  1.00  0.00     0.310 S 
ATOM     23  F   UNL A   1      32.648  29.488  25.995  1.00  0.00    -0.094 F 
ATOM     24  F   UNL A   1      33.832  28.453  27.513  1.00  0.00    -0.094 F 
ATOM     25  F   UNL A   1      31.757  29.151  27.953  1.00  0.00    -0.094 F 
ATOM     26  F   UNL A   1      31.002  28.061  26.185  1.00  0.00    -0.094 F 
ATOM     27  F   UNL A   1      33.061  27.338  25.755  1.00  0.00    -0.094 F 
ENDBRANCH  15  22
ENDBRANCH   6   8
ENDBRANCH   5   6
ENDBRANCH   4   5
ENDBRANCH   3   4
ENDBRANCH   2   3
ENDBRANCH   1   2
BRANCH   1  28
ATOM     28  C   UNL A   1      39.442  19.962  25.783  1.00  0.00     0.261 C 
BRANCH  28  29
ATOM     29  O   UNL A   1      40.381  18.900  25.700  1.00  0.00    -0.460 OA
BRANCH  29  30
ATOM     30  C   UNL A   1      41.752  19.141  25.979  1.00  0.00     0.338 C 
ATOM     31  O   UNL A   1      42.593  18.192  25.897  1.00  0.00    -0.246 OA
BRANCH  30  32
ATOM     32  C   UNL A   1      42.213  20.534  26.376  1.00  0.00     0.060 A 
ATOM     33  C   UNL A   1      42.254  20.879  27.716  1.00  0.00     0.016 A 
ATOM     34  C   UNL A   1      42.573  21.395  25.431  1.00  0.00     0.016 A 
ATOM     35  C   UNL A   1      42.415  22.266  27.947  1.00  0.00     0.010 A 
ATOM     36  C   UNL A   1      42.849  22.703  25.746  1.00  0.00     0.010 A 
ATOM     37  C   UNL A   1      42.850  23.128  27.046  1.00  0.00    -0.014 A 
BRANCH  37  38
ATOM     38  C   UNL A   1      43.325  24.520  27.433  1.00  0.00     0.031 A 
ATOM     39  C   UNL A   1      44.700  24.761  27.453  1.00  0.00     0.074 A 
ATOM     40  C   UNL A   1      42.367  25.469  27.747  1.00  0.00     0.049 A 
ATOM     41  N   UNL A   1      45.320  25.908  27.733  1.00  0.00    -0.248 NA
ATOM     42  C   UNL A   1      45.720  23.746  27.152  1.00  0.00     0.031 C 
ATOM     43  C   UNL A   1      40.979  25.234  27.721  1.00  0.00     0.029 A 
ATOM     44  N   UNL A   1      42.568  26.775  28.135  1.00  0.00    -0.354 N 
ATOM     45  C   UNL A   1      46.642  25.755  27.631  1.00  0.00     0.074 A 
ATOM     46  C   UNL A   1      46.918  24.360  27.261  1.00  0.00     0.031 C 
ATOM     47  C   UNL A   1      40.351  26.381  28.098  1.00  0.00     0.029 A 
ATOM     48  C   UNL A   1      41.337  27.349  28.366  1.00  0.00     0.049 A 
ATOM     49  H   UNL A   1      43.440  27.222  28.230  1.00  0.00     0.167 HD
ATOM     50  C   UNL A   1      47.628  26.723  27.830  1.00  0.00     0.037 A 
ATOM     51  C   UNL A   1      41.069  28.641  28.788  1.00  0.00     0.037 A 
ATOM     52  C   UNL A   1      47.357  28.028  28.210  1.00  0.00     0.049 A 
ATOM     53  C   UNL A   1      42.058  29.594  29.043  1.00  0.00     0.074 A 
ATOM     54  C   UNL A   1      48.337  29.019  28.408  1.00  0.00     0.029 A 
ATOM     55  N   UNL A   1      46.127  28.595  28.465  1.00  0.00    -0.354 N 
ATOM     56  N   UNL A   1      43.377  29.452  28.903  1.00  0.00    -0.248 NA
ATOM     57  C   UNL A   1      41.787  30.956  29.522  1.00  0.00     0.031 C 
ATOM     58  C   UNL A   1      47.710  30.165  28.785  1.00  0.00     0.029 A 
ATOM     59  C   UNL A   1      46.326  29.908  28.830  1.00  0.00     0.049 A 
ATOM     60  H   UNL A   1      45.258  28.140  28.397  1.00  0.00     0.167 HD
ATOM     61  C   UNL A   1      43.999  30.587  29.224  1.00  0.00     0.074 A 
ATOM     62  C   UNL A   1      42.986  31.570  29.633  1.00  0.00     0.031 C 
ATOM     63  C   UNL A   1      45.370  30.846  29.188  1.00  0.00     0.037 A 
BRANCH  50  64
ATOM     64  C   UNL A   1      49.079  26.324  27.618  1.00  0.00     0.064 A 
ATOM     65  C   UNL A   1      49.836  26.002  28.733  1.00  0.00     0.173 A 
ATOM     66  C   UNL A   1      49.596  26.274  26.396  1.00  0.00     0.173 A 
ATOM     67  F   UNL A   1      49.306  25.793  29.935  1.00  0.00    -0.203 F 
ATOM     68  C   UNL A   1      51.225  25.918  28.477  1.00  0.00     0.198 A 
ATOM     69  C   UNL A   1      50.940  26.051  26.214  1.00  0.00     0.198 A 
ATOM     70  F   UNL A   1      48.806  26.441  25.339  1.00  0.00    -0.203 F 
ATOM     71  F   UNL A   1      52.051  25.974  29.517  1.00  0.00    -0.200 F 
ATOM     72  C   UNL A   1      51.758  25.786  27.275  1.00  0.00     0.200 A 
ATOM     73  F   UNL A   1      51.450  26.095  24.987  1.00  0.00    -0.200 F 
ATOM     74  F   UNL A   1      53.025  25.415  27.107  1.00  0.00    -0.200 F 
ENDBRANCH  50  64
BRANCH  51  75
ATOM     75  C   UNL A   1      39.617  29.045  28.984  1.00  0.00     0.064 A 
ATOM     76  C   UNL A   1      39.107  29.038  30.272  1.00  0.00     0.173 A 
ATOM     77  C   UNL A   1      38.869  29.407  27.950  1.00  0.00     0.173 A 
ATOM     78  F   UNL A   1      39.872  28.931  31.355  1.00  0.00    -0.203 F 
ATOM     79  C   UNL A   1      37.698  29.154  30.332  1.00  0.00     0.198 A 
ATOM     80  C   UNL A   1      37.523  29.636  28.105  1.00  0.00     0.198 A 
ATOM     81  F   UNL A   1      39.426  29.547  26.750  1.00  0.00    -0.203 F 
ATOM     82  F   UNL A   1      37.095  28.801  31.463  1.00  0.00    -0.200 F 
ATOM     83  C   UNL A   1      36.940  29.588  29.341  1.00  0.00     0.200 A 
ATOM     84  F   UNL A   1      36.777  29.910  27.039  1.00  0.00    -0.200 F 
ATOM     85  F   UNL A   1      35.678  29.959  29.536  1.00  0.00    -0.200 F 
ENDBRANCH  51  75
BRANCH  63  86
ATOM     86  C   UNL A   1      45.844  32.241  29.564  1.00  0.00     0.064 A 
ATOM     87  C   UNL A   1      46.171  32.514  30.882  1.00  0.00     0.173 A 
ATOM     88  C   UNL A   1      45.941  33.172  28.622  1.00  0.00     0.173 A 
ATOM     89  F   UNL A   1      46.334  31.565  31.800  1.00  0.00    -0.203 F 
ATOM     90  C   UNL A   1      46.319  33.893  31.162  1.00  0.00     0.198 A 
ATOM     91  C   UNL A   1      46.222  34.475  28.954  1.00  0.00     0.198 A 
ATOM     92  F   UNL A   1      45.765  32.840  27.347  1.00  0.00    -0.203 F 
ATOM     93  F   UNL A   1      46.273  34.274  32.434  1.00  0.00    -0.200 F 
ATOM     94  C   UNL A   1      46.498  34.828  30.246  1.00  0.00     0.200 A 
ATOM     95  F   UNL A   1      46.225  35.407  28.006  1.00  0.00    -0.200 F 
ATOM     96  F   UNL A   1      46.924  36.047  30.564  1.00  0.00    -0.200 F 
ENDBRANCH  63  86
ENDBRANCH  37  38
ENDBRANCH  30  32
ENDBRANCH  29  30
ENDBRANCH  28  29
ENDBRANCH   1  28
TORSDOF 16
ENDMDL
MODEL 2
REMARK VINA RESULT:     -12.5      5.352     10.403
REMARK SMILES O=C(OCCOCCOC(=O)c1ccc(-c2c3nc(c(-c4c(F)c(F)c(F)c(F)c4F)c4ccc([nH]4)c(-c4c(F)c(F)c(F)c(F)c4F)c4nc(c(-c5c(F)c(F)c(F)c(F)c5F)c5ccc2[nH]5)C=C4)C=C3)cc1)C1=Cc2cc(S(F)(F)(F)(F)F)ccc2O[C@@H]1C(F)(F)F
REMARK SMILES IDX 7 1 6 2 5 3 4 4 3 5 2 6 1 7 75 8 76 9 90 10 77 11 89 12
REMARK SMILES IDX 78 13 88 14 79 15 87 16 86 17 91 18 92 19 93 20 94 21 80 22
REMARK SMILES IDX 81 23 82 24 83 25 84 26 85 27 8 28 9 29 10 30 11 31 12 32
REMARK SMILES IDX 13 33 74 34 14 35 73 36 15 37 16 38 17 39 67 40 18 41 72 42
REMARK SMILES IDX 66 43 68 44 19 45 71 46 65 47 64 48 20 50 52 51 32 52 51 53
REMARK SMILES IDX 33 54 36 55 50 56 69 57 34 58 35 59 49 61 70 62 37 63 21 64
REMARK SMILES IDX 22 65 30 66 23 67 24 68 28 69 31 70 25 71 26 72 29 73 27 74
REMARK SMILES IDX 53 75 54 76 62 77 55 78 56 79 60 80 63 81 57 82 58 83 61 84
REMARK SMILES IDX 59 85 38 86 39 87 47 88 40 89 41 90 45 91 48 92 42 93 43 94
REMARK SMILES IDX 46 95 44 96
REMARK H PARENT 68 49 36 60
REMARK Flexibility Score: inf
ROOT
ATOM      1  C   UNL A   1      31.451  32.131  26.565  1.00  0.00     0.202 C 
ENDROOT
BRANCH   1   2
ATOM      2  O   UNL A   1      31.855  30.819  26.203  1.00  0.00    -0.374 OA
BRANCH   2   3
ATOM      3  C   UNL A   1      32.687  30.283  27.221  1.00  0.00     0.202 C 
BRANCH   3   4
ATOM      4  C   UNL A   1      33.552  29.177  26.639  1.00  0.00     0.261 C 
BRANCH   4   5
ATOM      5  O   UNL A   1      33.031  27.915  27.028  1.00  0.00    -0.460 OA
BRANCH   5   6
ATOM      6  C   UNL A   1      31.818  27.442  26.461  1.00  0.00     0.338 C 
ATOM      7  O   UNL A   1      30.838  27.145  27.213  1.00  0.00    -0.246 OA
BRANCH   6   8
ATOM      8  C   UNL A   1      31.692  27.291  24.954  1.00  0.00     0.087 C 
ATOM      9  C   UNL A   1      32.305  26.255  24.321  1.00  0.00     0.027 C 
ATOM     10  C   UNL A   1      30.882  28.298  24.153  1.00  0.00     0.316 C 
ATOM     11  C   UNL A   1      33.116  25.248  25.120  1.00  0.00     0.019 A 
ATOM     12  O   UNL A   1      31.418  25.307  26.782  1.00  0.00    -0.475 OA
ATOM     13  C   UNL A   1      34.359  24.854  24.655  1.00  0.00     0.036 A 
ATOM     14  C   UNL A   1      32.619  24.765  26.253  1.00  0.00     0.128 A 
ATOM     15  C   UNL A   1      34.884  23.717  25.313  1.00  0.00     0.107 A 
ATOM     16  C   UNL A   1      33.257  23.744  26.917  1.00  0.00     0.048 A 
ATOM     17  C   UNL A   1      34.460  23.264  26.480  1.00  0.00     0.028 A 
BRANCH  10  18
ATOM     18  C   UNL A   1      29.748  27.583  23.438  1.00  0.00     0.430 C 
ATOM     19  F   UNL A   1      30.153  27.209  22.228  1.00  0.00    -0.167 F 
ATOM     20  F   UNL A   1      29.392  26.508  24.137  1.00  0.00    -0.167 F 
ATOM     21  F   UNL A   1      28.708  28.403  23.325  1.00  0.00    -0.167 F 
ENDBRANCH  10  18
BRANCH  15  22
ATOM     22  S   UNL A   1      36.229  22.819  24.501  1.00  0.00     0.310 S 
ATOM     23  F   UNL A   1      36.012  23.602  23.138  1.00  0.00    -0.094 F 
ATOM     24  F   UNL A   1      35.177  21.767  23.984  1.00  0.00    -0.094 F 
ATOM     25  F   UNL A   1      37.385  22.048  23.803  1.00  0.00    -0.094 F 
ATOM     26  F   UNL A   1      37.246  23.956  24.908  1.00  0.00    -0.094 F 
ATOM     27  F   UNL A   1      35.050  23.671  25.119  1.00  0.00    -0.094 F 
ENDBRANCH  15  22
ENDBRANCH   6   8
ENDBRANCH   5   6
ENDBRANCH   4   5
ENDBRANCH   3   4
ENDBRANCH   2   3
ENDBRANCH   1   2
BRANCH   1  28
ATOM     28  C   UNL A   1      32.590  32.831  27.287  1.00  0.00     0.261 C 
BRANCH  28  29
ATOM     29  O   UNL A   1      32.156  34.110  27.729  1.00  0.00    -0.460 OA
BRANCH  29  30
ATOM     30  C   UNL A   1      32.945  34.849  28.648  1.00  0.00     0.338 C 
ATOM     31  O   UNL A   1      32.627  36.044  28.941  1.00  0.00    -0.246 OA
BRANCH  30  32
ATOM     32  C   UNL A   1      34.170  34.211  29.283  1.00  0.00     0.060 A 
ATOM     33  C   UNL A   1      35.431  34.654  28.920  1.00  0.00     0.016 A 
ATOM     34  C   UNL A   1      34.011  33.242  30.177  1.00  0.00     0.016 A 
ATOM     35  C   UNL A   1      36.481  33.808  29.346  1.00  0.00     0.010 A 
ATOM     36  C   UNL A   1      35.095  32.546  30.653  1.00  0.00     0.010 A 
ATOM     37  C   UNL A   1      36.368  32.892  30.292  1.00  0.00    -0.014 A 
BRANCH  37  38
ATOM     38  C   UNL A   1      37.586  32.256  30.942  1.00  0.00     0.031 A 
ATOM     39  C   UNL A   1      37.971  32.715  32.202  1.00  0.00     0.074 A 
ATOM     40  C   UNL A   1      38.247  31.259  30.245  1.00  0.00     0.049 A 
ATOM     41  N   UNL A   1      38.983  32.277  32.953  1.00  0.00    -0.248 NA
ATOM     42  C   UNL A   1      37.290  33.797  32.929  1.00  0.00     0.031 C 
ATOM     43  C   UNL A   1      37.859  30.785  28.977  1.00  0.00     0.029 A 
ATOM     44  N   UNL A   1      39.371  30.561  30.631  1.00  0.00    -0.354 N 
ATOM     45  C   UNL A   1      39.026  32.949  34.106  1.00  0.00     0.074 A 
ATOM     46  C   UNL A   1      37.941  33.939  34.104  1.00  0.00     0.031 C 
ATOM     47  C   UNL A   1      38.742  29.822  28.599  1.00  0.00     0.029 A 
ATOM     48  C   UNL A   1      39.696  29.679  29.624  1.00  0.00     0.049 A 
ATOM     49  H   UNL A   1      39.856  30.673  31.480  1.00  0.00     0.167 HD
ATOM     50  C   UNL A   1      39.926  32.772  35.159  1.00  0.00     0.037 A 
ATOM     51  C   UNL A   1      40.761  28.794  29.584  1.00  0.00     0.037 A 
ATOM     52  C   UNL A   1      40.965  31.856  35.136  1.00  0.00     0.049 A 
ATOM     53  C   UNL A   1      41.696  28.657  30.612  1.00  0.00     0.074 A 
ATOM     54  C   UNL A   1      41.876  31.660  36.191  1.00  0.00     0.029 A 
ATOM     55  N   UNL A   1      41.305  30.991  34.118  1.00  0.00    -0.354 N 
ATOM     56  N   UNL A   1      41.715  29.301  31.781  1.00  0.00    -0.248 NA
ATOM     57  C   UNL A   1      42.846  27.746  30.566  1.00  0.00     0.031 C 
ATOM     58  C   UNL A   1      42.759  30.697  35.813  1.00  0.00     0.029 A 
ATOM     59  C   UNL A   1      42.414  30.277  34.514  1.00  0.00     0.049 A 
ATOM     60  H   UNL A   1      40.836  30.900  33.258  1.00  0.00     0.167 HD
ATOM     61  C   UNL A   1      42.752  28.892  32.514  1.00  0.00     0.074 A 
ATOM     62  C   UNL A   1      43.499  27.890  31.741  1.00  0.00     0.031 C 
ATOM     63  C   UNL A   1      43.103  29.310  33.799  1.00  0.00     0.037 A 
BRANCH  50  64
ATOM     64  C   UNL A   1      39.756  33.634  36.400  1.00  0.00     0.064 A 
ATOM     65  C   UNL A   1      38.986  33.135  37.438  1.00  0.00     0.173 A 
ATOM     66  C   UNL A   1      40.341  34.822  36.484  1.00  0.00     0.173 A 
ATOM     67  F   UNL A   1      38.595  31.866  37.508  1.00  0.00    -0.203 F 
ATOM     68  C   UNL A   1      38.653  34.100  38.418  1.00  0.00     0.198 A 
ATOM     69  C   UNL A   1      40.075  35.659  37.541  1.00  0.00     0.198 A 
ATOM     70  F   UNL A   1      41.193  35.206  35.537  1.00  0.00    -0.203 F 
ATOM     71  F   UNL A   1      37.646  33.825  39.241  1.00  0.00    -0.200 F 
ATOM     72  C   UNL A   1      39.276  35.255  38.574  1.00  0.00     0.200 A 
ATOM     73  F   UNL A   1      40.603  36.879  37.559  1.00  0.00    -0.200 F 
ATOM     74  F   UNL A   1      39.132  35.986  39.676  1.00  0.00    -0.200 F 
ENDBRANCH  50  64
BRANCH  51  75
ATOM     75  C   UNL A   1      40.921  27.921  28.349  1.00  0.00     0.064 A 
ATOM     76  C   UNL A   1      41.728  28.384  27.323  1.00  0.00     0.173 A 
ATOM     77  C   UNL A   1      40.315  26.743  28.270  1.00  0.00     0.173 A 
ATOM     78  F   UNL A   1      42.548  29.424  27.458  1.00  0.00    -0.203 F 
ATOM     79  C   UNL A   1      41.600  27.654  26.119  1.00  0.00     0.198 A 
ATOM     80  C   UNL A   1      40.344  26.018  27.103  1.00  0.00     0.198 A 
ATOM     81  F   UNL A   1      39.670  26.260  29.329  1.00  0.00    -0.203 F 
ATOM     82  F   UNL A   1      42.042  28.221  25.000  1.00  0.00    -0.200 F 
ATOM     83  C   UNL A   1      41.074  26.445  26.028  1.00  0.00     0.200 A 
ATOM     84  F   UNL A   1      39.655  24.884  27.017  1.00  0.00    -0.200 F 
ATOM     85  F   UNL A   1      41.243  25.686  24.949  1.00  0.00    -0.200 F 
ENDBRANCH  51  75
BRANCH  63  86
ATOM     86  C   UNL A   1      44.315  28.665  34.453  1.00  0.00     0.064 A 
ATOM     87  C   UNL A   1      45.557  29.261  34.316  1.00  0.00     0.173 A 
ATOM     88  C   UNL A   1      44.161  27.545  35.149  1.00  0.00     0.173 A 
ATOM     89  F   UNL A   1      45.722  30.498  33.853  1.00  0.00    -0.203 F 
ATOM     90  C   UNL A   1      46.636  28.437  34.714  1.00  0.00     0.198 A 
ATOM     91  C   UNL A   1      45.253  26.862  35.625  1.00  0.00     0.198 A 
ATOM     92  F   UNL A   1      42.938  27.081  35.388  1.00  0.00    -0.203 F 
ATOM     93  F   UNL A   1      47.854  28.765  34.293  1.00  0.00    -0.200 F 
ATOM     94  C   UNL A   1      46.517  27.363  35.474  1.00  0.00     0.200 A 
ATOM     95  F   UNL A   1      45.080  25.696  36.241  1.00  0.00    -0.200 F 
ATOM     96  F   UNL A   1      47.569  26.800  36.060  1.00  0.00    -0.200 F 
ENDBRANCH  63  86
ENDBRANCH  37  38
ENDBRANCH  30  32
ENDBRANCH  29  30
ENDBRANCH  28  29
ENDBRANCH   1  28
TORSDOF 16
ENDMDL
MODEL 3
REMARK VINA RESULT:     -12.5      4.630      9.828
REMARK SMILES O=C(OCCOCCOC(=O)c1ccc(-c2c3nc(c(-c4c(F)c(F)c(F)c(F)c4F)c4ccc([nH]4)c(-c4c(F)c(F)c(F)c(F)c4F)c4nc(c(-c5c(F)c(F)c(F)c(F)c5F)c5ccc2[nH]5)C=C4)C=C3)cc1)C1=Cc2cc(S(F)(F)(F)(F)F)ccc2O[C@@H]1C(F)(F)F
REMARK SMILES IDX 7 1 6 2 5 3 4 4 3 5 2 6 1 7 75 8 76 9 90 10 77 11 89 12
REMARK SMILES IDX 78 13 88 14 79 15 87 16 86 17 91 18 92 19 93 20 94 21 80 22
REMARK SMILES IDX 81 23 82 24 83 25 84 26 85 27 8 28 9 29 10 30 11 31 12 32
REMARK SMILES IDX 13 33 74 34 14 35 73 36 15 37 16 38 17 39 67 40 18 41 72 42
REMARK SMILES IDX 66 43 68 44 19 45 71 46 65 47 64 48 20 50 52 51 32 52 51 53
REMARK SMILES IDX 33 54 36 55 50 56 69 57 34 58 35 59 49 61 70 62 37 63 21 64
REMARK SMILES IDX 22 65 30 66 23 67 24 68 28 69 31 70 25 71 26 72 29 73 27 74
REMARK SMILES IDX 53 75 54 76 62 77 55 78 56 79 60 80 63 81 57 82 58 83 61 84
REMARK SMILES IDX 59 85 38 86 39 87 47 88 40 89 41 90 45 91 48 92 42 93 43 94
REMARK SMILES IDX 46 95 44 96
REMARK H PARENT 68 49 36 60
REMARK Flexibility Score: inf
ROOT
ATOM      1  C   UNL A   1      31.374  28.572  24.186  1.00  0.00     0.202 C 
ENDROOT
BRANCH   1   2
ATOM      2  O   UNL A   1      31.650  27.198  24.418  1.00  0.00    -0.374 OA
BRANCH   2   3
ATOM      3  C   UNL A   1      30.968  26.409  23.454  1.00  0.00     0.202 C 
BRANCH   3   4
ATOM      4  C   UNL A   1      30.225  25.283  24.154  1.00  0.00     0.261 C 
BRANCH   4   5
ATOM      5  O   UNL A   1      30.884  24.051  23.899  1.00  0.00    -0.460 OA
BRANCH   5   6
ATOM      6  C   UNL A   1      31.342  23.254  24.981  1.00  0.00     0.338 C 
ATOM      7  O   UNL A   1      30.550  22.436  25.547  1.00  0.00    -0.246 OA
BRANCH   6   8
ATOM      8  C   UNL A   1      32.778  23.379  25.463  1.00  0.00     0.087 C 
ATOM      9  C   UNL A   1      33.650  22.352  25.276  1.00  0.00     0.027 C 
ATOM     10  C   UNL A   1      33.239  24.652  26.155  1.00  0.00     0.316 C 
ATOM     11  C   UNL A   1      33.188  21.080  24.584  1.00  0.00     0.019 A 
ATOM     12  O   UNL A   1      31.984  22.435  23.048  1.00  0.00    -0.475 OA
ATOM     13  C   UNL A   1      33.537  19.851  25.120  1.00  0.00     0.036 A 
ATOM     14  C   UNL A   1      32.457  21.167  23.480  1.00  0.00     0.128 A 
ATOM     15  C   UNL A   1      33.306  18.760  24.249  1.00  0.00     0.107 A 
ATOM     16  C   UNL A   1      32.155  20.042  22.750  1.00  0.00     0.048 A 
ATOM     17  C   UNL A   1      32.519  18.800  23.190  1.00  0.00     0.028 A 
BRANCH  10  18
ATOM     18  C   UNL A   1      34.376  25.275  25.362  1.00  0.00     0.430 C 
ATOM     19  F   UNL A   1      34.181  25.061  24.064  1.00  0.00    -0.167 F 
ATOM     20  F   UNL A   1      34.412  26.585  25.594  1.00  0.00    -0.167 F 
ATOM     21  F   UNL A   1      35.529  24.728  25.734  1.00  0.00    -0.167 F 
ENDBRANCH  10  18
BRANCH  15  22
ATOM     22  S   UNL A   1      34.150  17.200  24.613  1.00  0.00     0.310 S 
ATOM     23  F   UNL A   1      34.068  16.731  23.100  1.00  0.00    -0.094 F 
ATOM     24  F   UNL A   1      32.744  16.523  24.827  1.00  0.00    -0.094 F 
ATOM     25  F   UNL A   1      34.874  15.861  24.926  1.00  0.00    -0.094 F 
ATOM     26  F   UNL A   1      35.540  17.859  24.259  1.00  0.00    -0.094 F 
ATOM     27  F   UNL A   1      33.422  18.537  24.184  1.00  0.00    -0.094 F 
ENDBRANCH  15  22
ENDBRANCH   6   8
ENDBRANCH   5   6
ENDBRANCH   4   5
ENDBRANCH   3   4
ENDBRANCH   2   3
ENDBRANCH   1   2
BRANCH   1  28
ATOM     28  C   UNL A   1      31.496  29.341  25.490  1.00  0.00     0.261 C 
BRANCH  28  29
ATOM     29  O   UNL A   1      32.719  30.063  25.501  1.00  0.00    -0.460 OA
BRANCH  29  30
ATOM     30  C   UNL A   1      33.046  30.892  26.607  1.00  0.00     0.338 C 
ATOM     31  O   UNL A   1      32.295  31.871  26.910  1.00  0.00    -0.246 OA
BRANCH  30  32
ATOM     32  C   UNL A   1      34.293  30.606  27.427  1.00  0.00     0.060 A 
ATOM     33  C   UNL A   1      35.105  31.658  27.817  1.00  0.00     0.016 A 
ATOM     34  C   UNL A   1      34.582  29.353  27.760  1.00  0.00     0.016 A 
ATOM     35  C   UNL A   1      36.366  31.256  28.316  1.00  0.00     0.010 A 
ATOM     36  C   UNL A   1      35.775  29.049  28.369  1.00  0.00     0.010 A 
ATOM     37  C   UNL A   1      36.652  30.035  28.730  1.00  0.00    -0.014 A 
BRANCH  37  38
ATOM     38  C   UNL A   1      37.890  29.740  29.562  1.00  0.00     0.031 A 
ATOM     39  C   UNL A   1      38.000  30.350  30.812  1.00  0.00     0.074 A 
ATOM     40  C   UNL A   1      38.840  28.885  29.030  1.00  0.00     0.049 A 
ATOM     41  N   UNL A   1      38.981  30.204  31.704  1.00  0.00    -0.248 NA
ATOM     42  C   UNL A   1      37.008  31.284  31.364  1.00  0.00     0.031 C 
ATOM     43  C   UNL A   1      38.731  28.259  27.773  1.00  0.00     0.029 A 
ATOM     44  N   UNL A   1      40.033  28.492  29.595  1.00  0.00    -0.354 N 
ATOM     45  C   UNL A   1      38.727  30.935  32.792  1.00  0.00     0.074 A 
ATOM     46  C   UNL A   1      37.457  31.644  32.586  1.00  0.00     0.031 C 
ATOM     47  C   UNL A   1      39.848  27.508  27.579  1.00  0.00     0.029 A 
ATOM     48  C   UNL A   1      40.672  27.652  28.710  1.00  0.00     0.049 A 
ATOM     49  H   UNL A   1      40.371  28.764  30.480  1.00  0.00     0.167 HD
ATOM     50  C   UNL A   1      39.504  31.036  33.948  1.00  0.00     0.037 A 
ATOM     51  C   UNL A   1      41.905  27.039  28.863  1.00  0.00     0.037 A 
ATOM     52  C   UNL A   1      40.716  30.387  34.118  1.00  0.00     0.049 A 
ATOM     53  C   UNL A   1      42.710  27.185  29.995  1.00  0.00     0.074 A 
ATOM     54  C   UNL A   1      41.508  30.472  35.279  1.00  0.00     0.029 A 
ATOM     55  N   UNL A   1      41.367  29.567  33.222  1.00  0.00    -0.354 N 
ATOM     56  N   UNL A   1      42.437  27.883  31.099  1.00  0.00    -0.248 NA
ATOM     57  C   UNL A   1      44.032  26.566  30.154  1.00  0.00     0.031 C 
ATOM     58  C   UNL A   1      42.625  29.721  35.084  1.00  0.00     0.029 A 
ATOM     59  C   UNL A   1      42.549  29.155  33.797  1.00  0.00     0.049 A 
ATOM     60  H   UNL A   1      41.043  29.318  32.327  1.00  0.00     0.167 HD
ATOM     61  C   UNL A   1      43.438  27.771  31.973  1.00  0.00     0.074 A 
ATOM     62  C   UNL A   1      44.482  26.927  31.375  1.00  0.00     0.031 C 
ATOM     63  C   UNL A   1      43.522  28.335  33.247  1.00  0.00     0.037 A 
BRANCH  50  64
ATOM     64  C   UNL A   1      38.990  31.906  35.083  1.00  0.00     0.064 A 
ATOM     65  C   UNL A   1      39.247  33.267  35.029  1.00  0.00     0.173 A 
ATOM     66  C   UNL A   1      38.305  31.373  36.088  1.00  0.00     0.173 A 
ATOM     67  F   UNL A   1      39.699  33.877  33.938  1.00  0.00    -0.203 F 
ATOM     68  C   UNL A   1      38.984  33.947  36.242  1.00  0.00     0.198 A 
ATOM     69  C   UNL A   1      37.963  32.133  37.181  1.00  0.00     0.198 A 
ATOM     70  F   UNL A   1      37.946  30.093  36.035  1.00  0.00    -0.203 F 
ATOM     71  F   UNL A   1      39.525  35.150  36.405  1.00  0.00    -0.200 F 
ATOM     72  C   UNL A   1      38.237  33.470  37.221  1.00  0.00     0.200 A 
ATOM     73  F   UNL A   1      37.355  31.557  38.214  1.00  0.00    -0.200 F 
ATOM     74  F   UNL A   1      37.779  34.251  38.196  1.00  0.00    -0.200 F 
ENDBRANCH  50  64
BRANCH  51  75
ATOM     75  C   UNL A   1      42.411  26.155  27.733  1.00  0.00     0.064 A 
ATOM     76  C   UNL A   1      41.993  24.835  27.701  1.00  0.00     0.173 A 
ATOM     77  C   UNL A   1      43.218  26.645  26.800  1.00  0.00     0.173 A 
ATOM     78  F   UNL A   1      40.999  24.370  28.454  1.00  0.00    -0.203 F 
ATOM     79  C   UNL A   1      42.718  24.026  26.795  1.00  0.00     0.198 A 
ATOM     80  C   UNL A   1      43.786  25.817  25.861  1.00  0.00     0.198 A 
ATOM     81  F   UNL A   1      43.481  27.949  26.773  1.00  0.00    -0.203 F 
ATOM     82  F   UNL A   1      42.644  22.707  26.948  1.00  0.00    -0.200 F 
ATOM     83  C   UNL A   1      43.463  24.490  25.808  1.00  0.00     0.200 A 
ATOM     84  F   UNL A   1      44.661  26.314  24.992  1.00  0.00    -0.200 F 
ATOM     85  F   UNL A   1      43.878  23.707  24.816  1.00  0.00    -0.200 F 
ENDBRANCH  51  75
BRANCH  63  86
ATOM     86  C   UNL A   1      44.755  28.031  34.083  1.00  0.00     0.064 A 
ATOM     87  C   UNL A   1      44.767  26.906  34.890  1.00  0.00     0.173 A 
ATOM     88  C   UNL A   1      45.802  28.845  34.019  1.00  0.00     0.173 A 
ATOM     89  F   UNL A   1      43.861  25.936  34.797  1.00  0.00    -0.203 F 
ATOM     90  C   UNL A   1      45.831  26.881  35.823  1.00  0.00     0.198 A 
ATOM     91  C   UNL A   1      46.868  28.681  34.870  1.00  0.00     0.198 A 
ATOM     92  F   UNL A   1      45.819  29.829  33.126  1.00  0.00    -0.203 F 
ATOM     93  F   UNL A   1      45.728  26.052  36.858  1.00  0.00    -0.200 F 
ATOM     94  C   UNL A   1      46.920  27.624  35.737  1.00  0.00     0.200 A 
ATOM     95  F   UNL A   1      47.864  29.561  34.851  1.00  0.00    -0.200 F 
ATOM     96  F   UNL A   1      48.007  27.358  36.454  1.00  0.00    -0.200 F 
ENDBRANCH  63  86
ENDBRANCH  37  38
ENDBRANCH  30  32
ENDBRANCH  29  30
ENDBRANCH  28  29
ENDBRANCH   1  28
TORSDOF 16
ENDMDL
