MODEL 1
REMARK VINA RESULT:     -10.4      0.000      0.000
REMARK SMILES C=CCN(CC(=O)OCCOCCOC(=O)c1ccc(-c2c3nc(c(-c4c(F)c(F)c(F)c(F)c4F)c4ccc([nH]4)c(-c4c(F)c(F)c(F)c(F)c4F)c4nc(c(-c5c(F)c(F)c(F)c(F)c5F)c5ccc2[nH]5)C=C4)C=C3)cc1)S(=O)(=O)Cc1cc(C)on1
REMARK SMILES IDX 10 1 9 2 8 3 6 4 7 5 5 6 4 7 3 8 2 9 1 10 80 11 81 12 82 13
REMARK SMILES IDX 83 14 84 15 85 16 89 17 86 18 88 19 87 20 11 21 12 22 13 23
REMARK SMILES IDX 14 24 15 25 16 26 17 27 18 28 79 29 19 30 78 31 20 32 21 33
REMARK SMILES IDX 22 34 72 35 23 36 77 37 71 38 73 39 24 40 76 41 70 42 69 43
REMARK SMILES IDX 25 45 57 46 37 47 56 48 38 49 41 50 55 51 74 52 39 53 40 54
REMARK SMILES IDX 54 56 75 57 42 58 26 59 27 60 35 61 28 62 29 63 33 64 36 65
REMARK SMILES IDX 30 66 31 67 34 68 32 69 58 70 59 71 67 72 60 73 61 74 65 75
REMARK SMILES IDX 68 76 62 77 63 78 66 79 64 80 43 81 44 82 52 83 45 84 46 85
REMARK SMILES IDX 50 86 53 87 47 88 48 89 51 90 49 91
REMARK H PARENT 73 44 41 55
REMARK Flexibility Score: inf
ROOT
ATOM      1  C   UNL A   1      31.595  27.120  23.674  1.00  0.00     0.202 C 
ENDROOT
BRANCH   1   2
ATOM      2  C   UNL A   1      32.775  26.552  22.878  1.00  0.00     0.261 C 
BRANCH   2   3
ATOM      3  O   UNL A   1      33.645  25.777  23.725  1.00  0.00    -0.462 OA
BRANCH   3   4
ATOM      4  C   UNL A   1      33.826  24.472  23.381  1.00  0.00     0.321 C 
ATOM      5  O   UNL A   1      34.393  24.095  22.362  1.00  0.00    -0.251 OA
BRANCH   4   6
ATOM      6  C   UNL A   1      33.305  23.494  24.432  1.00  0.00     0.225 C 
BRANCH   6   7
ATOM      7  N   UNL A   1      34.336  22.699  25.144  1.00  0.00    -0.187 NA
BRANCH   7   8
ATOM      8  C   UNL A   1      35.214  23.564  25.997  1.00  0.00     0.129 C 
BRANCH   8   9
ATOM      9  C   UNL A   1      36.683  23.300  25.863  1.00  0.00    -0.018 C 
ATOM     10  C   UNL A   1      37.343  23.258  24.698  1.00  0.00     0.005 C 
ENDBRANCH   8   9
ENDBRANCH   7   8
BRANCH   7  11
ATOM     11  S   UNL A   1      34.059  21.106  25.634  1.00  0.00     0.220 S 
ATOM     12  O   UNL A   1      35.138  20.324  25.059  1.00  0.00    -0.212 OA
ATOM     13  O   UNL A   1      33.870  21.135  27.071  1.00  0.00    -0.212 OA
BRANCH  11  14
ATOM     14  C   UNL A   1      32.511  20.548  24.858  1.00  0.00     0.214 C 
BRANCH  14  15
ATOM     15  C   UNL A   1      32.529  19.080  24.609  1.00  0.00     0.100 A 
ATOM     16  C   UNL A   1      32.539  18.015  25.545  1.00  0.00     0.073 A 
ATOM     17  N   UNL A   1      32.648  18.611  23.358  1.00  0.00    -0.084 NA
ATOM     18  C   UNL A   1      32.901  16.921  24.803  1.00  0.00     0.133 A 
ATOM     19  O   UNL A   1      32.909  17.256  23.487  1.00  0.00    -0.361 OA
ATOM     20  C   UNL A   1      33.348  15.563  25.156  1.00  0.00     0.091 C 
ENDBRANCH  14  15
ENDBRANCH  11  14
ENDBRANCH   7  11
ENDBRANCH   6   7
ENDBRANCH   4   6
ENDBRANCH   3   4
ENDBRANCH   2   3
ENDBRANCH   1   2
BRANCH   1  21
ATOM     21  O   UNL A   1      31.518  28.544  23.737  1.00  0.00    -0.374 OA
BRANCH  21  22
ATOM     22  C   UNL A   1      32.385  29.217  24.648  1.00  0.00     0.202 C 
BRANCH  22  23
ATOM     23  C   UNL A   1      31.735  30.247  25.580  1.00  0.00     0.261 C 
BRANCH  23  24
ATOM     24  O   UNL A   1      32.322  30.261  26.892  1.00  0.00    -0.460 OA
BRANCH  24  25
ATOM     25  C   UNL A   1      32.986  31.401  27.204  1.00  0.00     0.338 C 
ATOM     26  O   UNL A   1      32.562  32.542  27.202  1.00  0.00    -0.246 OA
BRANCH  25  27
ATOM     27  C   UNL A   1      34.338  31.070  27.683  1.00  0.00     0.060 A 
ATOM     28  C   UNL A   1      34.659  29.732  27.935  1.00  0.00     0.016 A 
ATOM     29  C   UNL A   1      35.231  32.087  28.010  1.00  0.00     0.016 A 
ATOM     30  C   UNL A   1      35.876  29.411  28.543  1.00  0.00     0.010 A 
ATOM     31  C   UNL A   1      36.460  31.763  28.593  1.00  0.00     0.010 A 
ATOM     32  C   UNL A   1      36.774  30.427  28.901  1.00  0.00    -0.014 A 
BRANCH  32  33
ATOM     33  C   UNL A   1      37.959  30.127  29.753  1.00  0.00     0.031 A 
ATOM     34  C   UNL A   1      39.025  29.211  29.212  1.00  0.00     0.074 A 
ATOM     35  C   UNL A   1      38.095  30.659  30.981  1.00  0.00     0.049 A 
ATOM     36  N   UNL A   1      40.074  28.706  29.811  1.00  0.00    -0.248 NA
ATOM     37  C   UNL A   1      38.885  28.805  27.805  1.00  0.00     0.031 C 
ATOM     38  C   UNL A   1      37.167  31.599  31.606  1.00  0.00     0.029 A 
ATOM     39  N   UNL A   1      39.071  30.470  31.930  1.00  0.00    -0.354 N 
ATOM     40  C   UNL A   1      40.700  27.905  28.863  1.00  0.00     0.074 A 
ATOM     41  C   UNL A   1      39.901  27.968  27.659  1.00  0.00     0.031 C 
ATOM     42  C   UNL A   1      37.617  31.905  32.836  1.00  0.00     0.029 A 
ATOM     43  C   UNL A   1      38.838  31.146  33.103  1.00  0.00     0.049 A 
ATOM     44  H   UNL A   1      39.864  29.905  31.783  1.00  0.00     0.167 HD
ATOM     45  C   UNL A   1      41.844  27.190  28.981  1.00  0.00     0.037 A 
ATOM     46  C   UNL A   1      39.518  31.133  34.268  1.00  0.00     0.037 A 
ATOM     47  C   UNL A   1      42.654  27.143  30.169  1.00  0.00     0.049 A 
ATOM     48  C   UNL A   1      40.754  30.276  34.396  1.00  0.00     0.074 A 
ATOM     49  C   UNL A   1      43.827  26.442  30.389  1.00  0.00     0.029 A 
ATOM     50  N   UNL A   1      42.375  27.835  31.338  1.00  0.00    -0.354 N 
ATOM     51  N   UNL A   1      41.331  29.514  33.499  1.00  0.00    -0.248 NA
ATOM     52  C   UNL A   1      41.431  30.277  35.701  1.00  0.00     0.031 C 
ATOM     53  C   UNL A   1      44.240  26.685  31.702  1.00  0.00     0.029 A 
ATOM     54  C   UNL A   1      43.351  27.573  32.284  1.00  0.00     0.049 A 
ATOM     55  H   UNL A   1      41.599  28.426  31.474  1.00  0.00     0.167 HD
ATOM     56  C   UNL A   1      42.456  28.981  34.115  1.00  0.00     0.074 A 
ATOM     57  C   UNL A   1      42.483  29.505  35.464  1.00  0.00     0.031 C 
ATOM     58  C   UNL A   1      43.385  28.135  33.609  1.00  0.00     0.037 A 
BRANCH  45  59
ATOM     59  C   UNL A   1      42.283  26.386  27.793  1.00  0.00     0.064 A 
ATOM     60  C   UNL A   1      43.286  26.843  26.925  1.00  0.00     0.173 A 
ATOM     61  C   UNL A   1      41.718  25.127  27.538  1.00  0.00     0.173 A 
ATOM     62  F   UNL A   1      43.847  28.046  27.118  1.00  0.00    -0.203 F 
ATOM     63  C   UNL A   1      43.687  26.081  25.831  1.00  0.00     0.198 A 
ATOM     64  C   UNL A   1      42.143  24.356  26.460  1.00  0.00     0.198 A 
ATOM     65  F   UNL A   1      40.760  24.640  28.342  1.00  0.00    -0.203 F 
ATOM     66  F   UNL A   1      44.615  26.559  24.989  1.00  0.00    -0.200 F 
ATOM     67  C   UNL A   1      43.121  24.836  25.604  1.00  0.00     0.200 A 
ATOM     68  F   UNL A   1      41.604  23.146  26.250  1.00  0.00    -0.200 F 
ATOM     69  F   UNL A   1      43.515  24.101  24.554  1.00  0.00    -0.200 F 
ENDBRANCH  45  59
BRANCH  46  70
ATOM     70  C   UNL A   1      39.048  31.947  35.420  1.00  0.00     0.064 A 
ATOM     71  C   UNL A   1      39.389  33.303  35.531  1.00  0.00     0.173 A 
ATOM     72  C   UNL A   1      38.282  31.381  36.449  1.00  0.00     0.173 A 
ATOM     73  F   UNL A   1      40.144  33.882  34.587  1.00  0.00    -0.203 F 
ATOM     74  C   UNL A   1      39.001  34.055  36.639  1.00  0.00     0.198 A 
ATOM     75  C   UNL A   1      37.870  32.141  37.543  1.00  0.00     0.198 A 
ATOM     76  F   UNL A   1      37.932  30.088  36.393  1.00  0.00    -0.203 F 
ATOM     77  F   UNL A   1      39.385  35.334  36.746  1.00  0.00    -0.200 F 
ATOM     78  C   UNL A   1      38.238  33.474  37.641  1.00  0.00     0.200 A 
ATOM     79  F   UNL A   1      37.124  31.580  38.503  1.00  0.00    -0.200 F 
ATOM     80  F   UNL A   1      37.866  34.197  38.706  1.00  0.00    -0.200 F 
ENDBRANCH  46  70
BRANCH  58  81
ATOM     81  C   UNL A   1      44.554  27.776  34.477  1.00  0.00     0.064 A 
ATOM     82  C   UNL A   1      44.550  26.633  35.288  1.00  0.00     0.173 A 
ATOM     83  C   UNL A   1      45.724  28.551  34.437  1.00  0.00     0.173 A 
ATOM     84  F   UNL A   1      43.451  25.868  35.371  1.00  0.00    -0.203 F 
ATOM     85  C   UNL A   1      45.671  26.285  36.037  1.00  0.00     0.198 A 
ATOM     86  C   UNL A   1      46.851  28.186  35.167  1.00  0.00     0.198 A 
ATOM     87  F   UNL A   1      45.779  29.652  33.672  1.00  0.00    -0.203 F 
ATOM     88  F   UNL A   1      45.636  25.204  36.829  1.00  0.00    -0.200 F 
ATOM     89  C   UNL A   1      46.823  27.055  35.968  1.00  0.00     0.200 A 
ATOM     90  F   UNL A   1      47.967  28.924  35.088  1.00  0.00    -0.200 F 
ATOM     91  F   UNL A   1      47.906  26.708  36.677  1.00  0.00    -0.200 F 
ENDBRANCH  58  81
ENDBRANCH  32  33
ENDBRANCH  25  27
ENDBRANCH  24  25
ENDBRANCH  23  24
ENDBRANCH  22  23
ENDBRANCH  21  22
ENDBRANCH   1  21
TORSDOF 20
ENDMDL
MODEL 2
REMARK VINA RESULT:     -10.3      4.398     10.235
REMARK SMILES C=CCN(CC(=O)OCCOCCOC(=O)c1ccc(-c2c3nc(c(-c4c(F)c(F)c(F)c(F)c4F)c4ccc([nH]4)c(-c4c(F)c(F)c(F)c(F)c4F)c4nc(c(-c5c(F)c(F)c(F)c(F)c5F)c5ccc2[nH]5)C=C4)C=C3)cc1)S(=O)(=O)Cc1cc(C)on1
REMARK SMILES IDX 10 1 9 2 8 3 6 4 7 5 5 6 4 7 3 8 2 9 1 10 80 11 81 12 82 13
REMARK SMILES IDX 83 14 84 15 85 16 89 17 86 18 88 19 87 20 11 21 12 22 13 23
REMARK SMILES IDX 14 24 15 25 16 26 17 27 18 28 79 29 19 30 78 31 20 32 21 33
REMARK SMILES IDX 22 34 72 35 23 36 77 37 71 38 73 39 24 40 76 41 70 42 69 43
REMARK SMILES IDX 25 45 57 46 37 47 56 48 38 49 41 50 55 51 74 52 39 53 40 54
REMARK SMILES IDX 54 56 75 57 42 58 26 59 27 60 35 61 28 62 29 63 33 64 36 65
REMARK SMILES IDX 30 66 31 67 34 68 32 69 58 70 59 71 67 72 60 73 61 74 65 75
REMARK SMILES IDX 68 76 62 77 63 78 66 79 64 80 43 81 44 82 52 83 45 84 46 85
REMARK SMILES IDX 50 86 53 87 47 88 48 89 51 90 49 91
REMARK H PARENT 73 44 41 55
REMARK Flexibility Score: inf
ROOT
ATOM      1  C   UNL A   1      33.934  21.156  25.830  1.00  0.00     0.202 C 
ENDROOT
BRANCH   1   2
ATOM      2  C   UNL A   1      33.300  22.431  26.396  1.00  0.00     0.261 C 
BRANCH   2   3
ATOM      3  O   UNL A   1      32.003  22.665  25.815  1.00  0.00    -0.462 OA
BRANCH   3   4
ATOM      4  C   UNL A   1      31.395  23.841  26.136  1.00  0.00     0.321 C 
ATOM      5  O   UNL A   1      31.408  24.347  27.252  1.00  0.00    -0.251 OA
BRANCH   4   6
ATOM      6  C   UNL A   1      30.733  24.523  24.941  1.00  0.00     0.225 C 
BRANCH   6   7
ATOM      7  N   UNL A   1      31.597  25.440  24.158  1.00  0.00    -0.187 NA
BRANCH   7   8
ATOM      8  C   UNL A   1      32.150  24.775  22.934  1.00  0.00     0.129 C 
BRANCH   8   9
ATOM      9  C   UNL A   1      33.603  24.415  23.012  1.00  0.00    -0.018 C 
ATOM     10  C   UNL A   1      34.431  24.810  23.988  1.00  0.00     0.005 C 
ENDBRANCH   8   9
ENDBRANCH   7   8
BRANCH   7  11
ATOM     11  S   UNL A   1      31.323  27.107  24.111  1.00  0.00     0.220 S 
ATOM     12  O   UNL A   1      31.026  27.496  25.476  1.00  0.00    -0.212 OA
ATOM     13  O   UNL A   1      32.451  27.698  23.418  1.00  0.00    -0.212 OA
BRANCH  11  14
ATOM     14  C   UNL A   1      29.822  27.395  23.124  1.00  0.00     0.214 C 
BRANCH  14  15
ATOM     15  C   UNL A   1      29.647  28.841  22.815  1.00  0.00     0.100 A 
ATOM     16  C   UNL A   1      29.005  29.847  23.579  1.00  0.00     0.073 A 
ATOM     17  N   UNL A   1      30.037  29.326  21.627  1.00  0.00    -0.084 NA
ATOM     18  C   UNL A   1      28.831  30.881  22.695  1.00  0.00     0.133 A 
ATOM     19  O   UNL A   1      29.498  30.601  21.545  1.00  0.00    -0.361 OA
ATOM     20  C   UNL A   1      28.027  32.113  22.726  1.00  0.00     0.091 C 
ENDBRANCH  14  15
ENDBRANCH  11  14
ENDBRANCH   7  11
ENDBRANCH   6   7
ENDBRANCH   4   6
ENDBRANCH   3   4
ENDBRANCH   2   3
ENDBRANCH   1   2
BRANCH   1  21
ATOM     21  O   UNL A   1      35.360  21.145  25.773  1.00  0.00    -0.374 OA
BRANCH  21  22
ATOM     22  C   UNL A   1      35.987  20.123  25.000  1.00  0.00     0.202 C 
BRANCH  22  23
ATOM     23  C   UNL A   1      37.501  20.250  24.793  1.00  0.00     0.261 C 
BRANCH  23  24
ATOM     24  O   UNL A   1      38.055  21.415  25.428  1.00  0.00    -0.460 OA
BRANCH  24  25
ATOM     25  C   UNL A   1      39.194  21.191  26.127  1.00  0.00     0.338 C 
ATOM     26  O   UNL A   1      39.816  20.151  26.240  1.00  0.00    -0.246 OA
BRANCH  25  27
ATOM     27  C   UNL A   1      39.688  22.461  26.687  1.00  0.00     0.060 A 
ATOM     28  C   UNL A   1      39.166  23.664  26.200  1.00  0.00     0.016 A 
ATOM     29  C   UNL A   1      40.754  22.461  27.582  1.00  0.00     0.016 A 
ATOM     30  C   UNL A   1      39.733  24.879  26.594  1.00  0.00     0.010 A 
ATOM     31  C   UNL A   1      41.304  23.678  27.998  1.00  0.00     0.010 A 
ATOM     32  C   UNL A   1      40.824  24.894  27.477  1.00  0.00    -0.014 A 
BRANCH  32  33
ATOM     33  C   UNL A   1      41.583  26.151  27.723  1.00  0.00     0.031 A 
ATOM     34  C   UNL A   1      40.926  27.250  28.516  1.00  0.00     0.074 A 
ATOM     35  C   UNL A   1      42.836  26.318  27.261  1.00  0.00     0.049 A 
ATOM     36  N   UNL A   1      41.334  28.472  28.746  1.00  0.00    -0.248 NA
ATOM     37  C   UNL A   1      39.625  26.927  29.124  1.00  0.00     0.031 C 
ATOM     38  C   UNL A   1      43.610  25.320  26.526  1.00  0.00     0.029 A 
ATOM     39  N   UNL A   1      43.675  27.404  27.335  1.00  0.00    -0.354 N 
ATOM     40  C   UNL A   1      40.332  29.068  29.503  1.00  0.00     0.074 A 
ATOM     41  C   UNL A   1      39.284  28.085  29.669  1.00  0.00     0.031 C 
ATOM     42  C   UNL A   1      44.811  25.839  26.215  1.00  0.00     0.029 A 
ATOM     43  C   UNL A   1      44.872  27.222  26.686  1.00  0.00     0.049 A 
ATOM     44  H   UNL A   1      43.441  28.235  27.809  1.00  0.00     0.167 HD
ATOM     45  C   UNL A   1      40.294  30.317  30.023  1.00  0.00     0.037 A 
ATOM     46  C   UNL A   1      45.889  28.082  26.475  1.00  0.00     0.037 A 
ATOM     47  C   UNL A   1      41.344  31.289  29.880  1.00  0.00     0.049 A 
ATOM     48  C   UNL A   1      45.794  29.490  27.007  1.00  0.00     0.074 A 
ATOM     49  C   UNL A   1      41.395  32.585  30.364  1.00  0.00     0.029 A 
ATOM     50  N   UNL A   1      42.535  31.066  29.206  1.00  0.00    -0.354 N 
ATOM     51  N   UNL A   1      44.838  30.047  27.711  1.00  0.00    -0.248 NA
ATOM     52  C   UNL A   1      46.919  30.390  26.713  1.00  0.00     0.031 C 
ATOM     53  C   UNL A   1      42.603  33.157  29.955  1.00  0.00     0.029 A 
ATOM     54  C   UNL A   1      43.325  32.202  29.257  1.00  0.00     0.049 A 
ATOM     55  H   UNL A   1      42.783  30.225  28.759  1.00  0.00     0.167 HD
ATOM     56  C   UNL A   1      45.264  31.343  27.977  1.00  0.00     0.074 A 
ATOM     57  C   UNL A   1      46.565  31.492  27.361  1.00  0.00     0.031 C 
ATOM     58  C   UNL A   1      44.635  32.320  28.673  1.00  0.00     0.037 A 
BRANCH  45  59
ATOM     59  C   UNL A   1      39.064  30.711  30.788  1.00  0.00     0.064 A 
ATOM     60  C   UNL A   1      38.986  30.566  32.180  1.00  0.00     0.173 A 
ATOM     61  C   UNL A   1      37.962  31.271  30.123  1.00  0.00     0.173 A 
ATOM     62  F   UNL A   1      40.007  30.023  32.860  1.00  0.00    -0.203 F 
ATOM     63  C   UNL A   1      37.840  30.944  32.876  1.00  0.00     0.198 A 
ATOM     64  C   UNL A   1      36.831  31.674  30.825  1.00  0.00     0.198 A 
ATOM     65  F   UNL A   1      37.988  31.438  28.791  1.00  0.00    -0.203 F 
ATOM     66  F   UNL A   1      37.770  30.754  34.201  1.00  0.00    -0.200 F 
ATOM     67  C   UNL A   1      36.767  31.503  32.199  1.00  0.00     0.200 A 
ATOM     68  F   UNL A   1      35.799  32.228  30.171  1.00  0.00    -0.200 F 
ATOM     69  F   UNL A   1      35.668  31.874  32.872  1.00  0.00    -0.200 F 
ENDBRANCH  45  59
BRANCH  46  70
ATOM     70  C   UNL A   1      47.090  27.649  25.713  1.00  0.00     0.064 A 
ATOM     71  C   UNL A   1      48.228  27.164  26.375  1.00  0.00     0.173 A 
ATOM     72  C   UNL A   1      47.142  27.744  24.315  1.00  0.00     0.173 A 
ATOM     73  F   UNL A   1      48.239  27.081  27.713  1.00  0.00    -0.203 F 
ATOM     74  C   UNL A   1      49.378  26.813  25.669  1.00  0.00     0.198 A 
ATOM     75  C   UNL A   1      48.282  27.366  23.608  1.00  0.00     0.198 A 
ATOM     76  F   UNL A   1      46.083  28.204  23.633  1.00  0.00    -0.203 F 
ATOM     77  F   UNL A   1      50.469  26.404  26.331  1.00  0.00    -0.200 F 
ATOM     78  C   UNL A   1      49.402  26.910  24.286  1.00  0.00     0.200 A 
ATOM     79  F   UNL A   1      48.297  27.450  22.271  1.00  0.00    -0.200 F 
ATOM     80  F   UNL A   1      50.508  26.573  23.608  1.00  0.00    -0.200 F 
ENDBRANCH  46  70
BRANCH  58  81
ATOM     81  C   UNL A   1      45.364  33.615  28.878  1.00  0.00     0.064 A 
ATOM     82  C   UNL A   1      46.234  33.812  29.958  1.00  0.00     0.173 A 
ATOM     83  C   UNL A   1      45.245  34.646  27.932  1.00  0.00     0.173 A 
ATOM     84  F   UNL A   1      46.372  32.863  30.896  1.00  0.00    -0.203 F 
ATOM     85  C   UNL A   1      46.949  35.000  30.092  1.00  0.00     0.198 A 
ATOM     86  C   UNL A   1      45.980  35.820  28.055  1.00  0.00     0.198 A 
ATOM     87  F   UNL A   1      44.429  34.503  26.876  1.00  0.00    -0.203 F 
ATOM     88  F   UNL A   1      47.754  35.180  31.149  1.00  0.00    -0.200 F 
ATOM     89  C   UNL A   1      46.830  35.998  29.136  1.00  0.00     0.200 A 
ATOM     90  F   UNL A   1      45.873  36.778  27.123  1.00  0.00    -0.200 F 
ATOM     91  F   UNL A   1      47.533  37.132  29.258  1.00  0.00    -0.200 F 
ENDBRANCH  58  81
ENDBRANCH  32  33
ENDBRANCH  25  27
ENDBRANCH  24  25
ENDBRANCH  23  24
ENDBRANCH  22  23
ENDBRANCH  21  22
ENDBRANCH   1  21
TORSDOF 20
ENDMDL
MODEL 3
REMARK VINA RESULT:     -10.3      1.588      3.203
REMARK SMILES C=CCN(CC(=O)OCCOCCOC(=O)c1ccc(-c2c3nc(c(-c4c(F)c(F)c(F)c(F)c4F)c4ccc([nH]4)c(-c4c(F)c(F)c(F)c(F)c4F)c4nc(c(-c5c(F)c(F)c(F)c(F)c5F)c5ccc2[nH]5)C=C4)C=C3)cc1)S(=O)(=O)Cc1cc(C)on1
REMARK SMILES IDX 10 1 9 2 8 3 6 4 7 5 5 6 4 7 3 8 2 9 1 10 80 11 81 12 82 13
REMARK SMILES IDX 83 14 84 15 85 16 89 17 86 18 88 19 87 20 11 21 12 22 13 23
REMARK SMILES IDX 14 24 15 25 16 26 17 27 18 28 79 29 19 30 78 31 20 32 21 33
REMARK SMILES IDX 22 34 72 35 23 36 77 37 71 38 73 39 24 40 76 41 70 42 69 43
REMARK SMILES IDX 25 45 57 46 37 47 56 48 38 49 41 50 55 51 74 52 39 53 40 54
REMARK SMILES IDX 54 56 75 57 42 58 26 59 27 60 35 61 28 62 29 63 33 64 36 65
REMARK SMILES IDX 30 66 31 67 34 68 32 69 58 70 59 71 67 72 60 73 61 74 65 75
REMARK SMILES IDX 68 76 62 77 63 78 66 79 64 80 43 81 44 82 52 83 45 84 46 85
REMARK SMILES IDX 50 86 53 87 47 88 48 89 51 90 49 91
REMARK H PARENT 73 44 41 55
REMARK Flexibility Score: inf
ROOT
ATOM      1  C   UNL A   1      30.590  27.111  24.829  1.00  0.00     0.202 C 
ENDROOT
BRANCH   1   2
ATOM      2  C   UNL A   1      30.717  26.066  25.944  1.00  0.00     0.261 C 
BRANCH   2   3
ATOM      3  O   UNL A   1      30.510  24.737  25.431  1.00  0.00    -0.462 OA
BRANCH   3   4
ATOM      4  C   UNL A   1      31.176  23.730  26.062  1.00  0.00     0.321 C 
ATOM      5  O   UNL A   1      31.398  23.693  27.266  1.00  0.00    -0.251 OA
BRANCH   4   6
ATOM      6  C   UNL A   1      31.576  22.592  25.125  1.00  0.00     0.225 C 
BRANCH   6   7
ATOM      7  N   UNL A   1      32.976  22.618  24.636  1.00  0.00    -0.187 NA
BRANCH   7   8
ATOM      8  C   UNL A   1      33.430  24.011  24.319  1.00  0.00     0.129 C 
BRANCH   8   9
ATOM      9  C   UNL A   1      33.336  24.393  22.873  1.00  0.00    -0.018 C 
ATOM     10  C   UNL A   1      32.303  25.047  22.327  1.00  0.00     0.005 C 
ENDBRANCH   8   9
ENDBRANCH   7   8
BRANCH   7  11
ATOM     11  S   UNL A   1      34.129  21.499  25.158  1.00  0.00     0.220 S 
ATOM     12  O   UNL A   1      34.373  21.806  26.555  1.00  0.00    -0.212 OA
ATOM     13  O   UNL A   1      33.643  20.187  24.779  1.00  0.00    -0.212 OA
BRANCH  11  14
ATOM     14  C   UNL A   1      35.672  21.828  24.252  1.00  0.00     0.214 C 
BRANCH  14  15
ATOM     15  C   UNL A   1      36.727  22.365  25.157  1.00  0.00     0.100 A 
ATOM     16  C   UNL A   1      36.900  23.685  25.644  1.00  0.00     0.073 A 
ATOM     17  N   UNL A   1      37.749  21.583  25.536  1.00  0.00    -0.084 NA
ATOM     18  C   UNL A   1      38.182  23.697  26.130  1.00  0.00     0.133 A 
ATOM     19  O   UNL A   1      38.674  22.431  26.125  1.00  0.00    -0.361 OA
ATOM     20  C   UNL A   1      39.097  24.775  26.540  1.00  0.00     0.091 C 
ENDBRANCH  14  15
ENDBRANCH  11  14
ENDBRANCH   7  11
ENDBRANCH   6   7
ENDBRANCH   4   6
ENDBRANCH   3   4
ENDBRANCH   2   3
ENDBRANCH   1   2
BRANCH   1  21
ATOM     21  O   UNL A   1      31.314  28.325  25.032  1.00  0.00    -0.374 OA
BRANCH  21  22
ATOM     22  C   UNL A   1      31.764  28.618  26.353  1.00  0.00     0.202 C 
BRANCH  22  23
ATOM     23  C   UNL A   1      31.876  30.100  26.727  1.00  0.00     0.261 C 
BRANCH  23  24
ATOM     24  O   UNL A   1      33.146  30.672  26.372  1.00  0.00    -0.460 OA
BRANCH  24  25
ATOM     25  C   UNL A   1      33.606  31.613  27.232  1.00  0.00     0.338 C 
ATOM     26  O   UNL A   1      33.033  32.609  27.632  1.00  0.00    -0.246 OA
BRANCH  25  27
ATOM     27  C   UNL A   1      34.925  31.210  27.746  1.00  0.00     0.060 A 
ATOM     28  C   UNL A   1      35.135  29.874  28.102  1.00  0.00     0.016 A 
ATOM     29  C   UNL A   1      35.898  32.172  28.002  1.00  0.00     0.016 A 
ATOM     30  C   UNL A   1      36.319  29.502  28.745  1.00  0.00     0.010 A 
ATOM     31  C   UNL A   1      37.095  31.795  28.619  1.00  0.00     0.010 A 
ATOM     32  C   UNL A   1      37.297  30.465  29.031  1.00  0.00    -0.014 A 
BRANCH  32  33
ATOM     33  C   UNL A   1      38.450  30.136  29.914  1.00  0.00     0.031 A 
ATOM     34  C   UNL A   1      39.520  29.212  29.393  1.00  0.00     0.074 A 
ATOM     35  C   UNL A   1      38.557  30.649  31.153  1.00  0.00     0.049 A 
ATOM     36  N   UNL A   1      40.542  28.683  30.016  1.00  0.00    -0.248 NA
ATOM     37  C   UNL A   1      39.416  28.827  27.976  1.00  0.00     0.031 C 
ATOM     38  C   UNL A   1      37.625  31.594  31.763  1.00  0.00     0.029 A 
ATOM     39  N   UNL A   1      39.502  30.433  32.129  1.00  0.00    -0.354 N 
ATOM     40  C   UNL A   1      41.185  27.886  29.076  1.00  0.00     0.074 A 
ATOM     41  C   UNL A   1      40.424  27.978  27.849  1.00  0.00     0.031 C 
ATOM     42  C   UNL A   1      38.041  31.876  33.011  1.00  0.00     0.029 A 
ATOM     43  C   UNL A   1      39.242  31.096  33.303  1.00  0.00     0.049 A 
ATOM     44  H   UNL A   1      40.290  29.858  31.998  1.00  0.00     0.167 HD
ATOM     45  C   UNL A   1      42.315  27.153  29.218  1.00  0.00     0.037 A 
ATOM     46  C   UNL A   1      39.887  31.056  34.488  1.00  0.00     0.037 A 
ATOM     47  C   UNL A   1      43.087  27.077  30.428  1.00  0.00     0.049 A 
ATOM     48  C   UNL A   1      41.106  30.180  34.641  1.00  0.00     0.074 A 
ATOM     49  C   UNL A   1      44.243  26.356  30.674  1.00  0.00     0.029 A 
ATOM     50  N   UNL A   1      42.783  27.757  31.598  1.00  0.00    -0.354 N 
ATOM     51  N   UNL A   1      41.698  29.422  33.751  1.00  0.00    -0.248 NA
ATOM     52  C   UNL A   1      41.743  30.152  35.966  1.00  0.00     0.031 C 
ATOM     53  C   UNL A   1      44.620  26.574  32.002  1.00  0.00     0.029 A 
ATOM     54  C   UNL A   1      43.726  27.467  32.570  1.00  0.00     0.049 A 
ATOM     55  H   UNL A   1      42.012  28.357  31.720  1.00  0.00     0.167 HD
ATOM     56  C   UNL A   1      42.797  28.863  34.393  1.00  0.00     0.074 A 
ATOM     57  C   UNL A   1      42.790  29.368  35.750  1.00  0.00     0.031 C 
ATOM     58  C   UNL A   1      43.728  28.011  33.903  1.00  0.00     0.037 A 
BRANCH  45  59
ATOM     59  C   UNL A   1      42.778  26.359  28.032  1.00  0.00     0.064 A 
ATOM     60  C   UNL A   1      42.386  25.026  27.841  1.00  0.00     0.173 A 
ATOM     61  C   UNL A   1      43.598  26.948  27.057  1.00  0.00     0.173 A 
ATOM     62  F   UNL A   1      41.614  24.413  28.751  1.00  0.00    -0.203 F 
ATOM     63  C   UNL A   1      42.818  24.305  26.732  1.00  0.00     0.198 A 
ATOM     64  C   UNL A   1      44.004  26.233  25.935  1.00  0.00     0.198 A 
ATOM     65  F   UNL A   1      43.996  28.223  27.189  1.00  0.00    -0.203 F 
ATOM     66  F   UNL A   1      42.468  23.018  26.593  1.00  0.00    -0.200 F 
ATOM     67  C   UNL A   1      43.621  24.910  25.777  1.00  0.00     0.200 A 
ATOM     68  F   UNL A   1      44.769  26.824  25.005  1.00  0.00    -0.200 F 
ATOM     69  F   UNL A   1      44.029  24.216  24.705  1.00  0.00    -0.200 F 
ENDBRANCH  45  59
BRANCH  46  70
ATOM     70  C   UNL A   1      39.394  31.861  35.636  1.00  0.00     0.064 A 
ATOM     71  C   UNL A   1      38.464  31.330  36.543  1.00  0.00     0.173 A 
ATOM     72  C   UNL A   1      39.811  33.185  35.833  1.00  0.00     0.173 A 
ATOM     73  F   UNL A   1      38.013  30.078  36.381  1.00  0.00    -0.203 F 
ATOM     74  C   UNL A   1      37.954  32.101  37.586  1.00  0.00     0.198 A 
ATOM     75  C   UNL A   1      39.322  33.946  36.893  1.00  0.00     0.198 A 
ATOM     76  F   UNL A   1      40.696  33.743  34.993  1.00  0.00    -0.203 F 
ATOM     77  F   UNL A   1      37.027  31.586  38.406  1.00  0.00    -0.200 F 
ATOM     78  C   UNL A   1      38.388  33.406  37.763  1.00  0.00     0.200 A 
ATOM     79  F   UNL A   1      39.751  35.202  37.068  1.00  0.00    -0.200 F 
ATOM     80  F   UNL A   1      37.896  34.146  38.767  1.00  0.00    -0.200 F 
ENDBRANCH  46  70
BRANCH  58  81
ATOM     81  C   UNL A   1      44.864  27.622  34.801  1.00  0.00     0.064 A 
ATOM     82  C   UNL A   1      46.033  28.390  34.892  1.00  0.00     0.173 A 
ATOM     83  C   UNL A   1      44.746  26.502  35.639  1.00  0.00     0.173 A 
ATOM     84  F   UNL A   1      46.199  29.462  34.103  1.00  0.00    -0.203 F 
ATOM     85  C   UNL A   1      47.047  28.044  35.782  1.00  0.00     0.198 A 
ATOM     86  C   UNL A   1      45.750  26.174  36.545  1.00  0.00     0.198 A 
ATOM     87  F   UNL A   1      43.644  25.737  35.594  1.00  0.00    -0.203 F 
ATOM     88  F   UNL A   1      48.170  28.776  35.832  1.00  0.00    -0.200 F 
ATOM     89  C   UNL A   1      46.901  26.944  36.613  1.00  0.00     0.200 A 
ATOM     90  F   UNL A   1      45.601  25.118  37.357  1.00  0.00    -0.200 F 
ATOM     91  F   UNL A   1      47.872  26.624  37.480  1.00  0.00    -0.200 F 
ENDBRANCH  58  81
ENDBRANCH  32  33
ENDBRANCH  25  27
ENDBRANCH  24  25
ENDBRANCH  23  24
ENDBRANCH  22  23
ENDBRANCH  21  22
ENDBRANCH   1  21
TORSDOF 20
ENDMDL
