MODEL 1
REMARK VINA RESULT:     -11.5      0.000      0.000
REMARK SMILES CCc1ccsc1CNC(=O)N1[C@@H]2CC[C@H]1[C@H](C(=O)OCCOCCOC(=O)c1ccc(-c3c4nc(c(-c5c(F)c(F)c(F)c(F)c5F)c5ccc([nH]5)c(-c5c(F)c(F)c(F)c(F)c5F)c5nc(c(-c6c(F)c(F)c(F)c(F)c6F)c6ccc3[nH]6)C=C5)C=C4)cc1)C2
REMARK SMILES IDX 22 1 21 2 20 3 18 4 19 5 17 6 12 7 13 8 16 9 14 10 92 11
REMARK SMILES IDX 15 12 10 13 9 14 11 16 8 17 7 18 3 19 4 20 5 21 6 22 2 23
REMARK SMILES IDX 1 24 23 25 24 26 25 27 26 28 27 29 28 30 29 31 30 32 91 33
REMARK SMILES IDX 31 34 90 35 32 36 33 37 34 38 84 39 35 40 89 41 83 42 85 43
REMARK SMILES IDX 36 44 88 45 82 46 81 47 37 49 69 50 49 51 68 52 50 53 53 54
REMARK SMILES IDX 67 55 86 56 51 57 52 58 66 60 87 61 54 62 38 63 39 64 47 65
REMARK SMILES IDX 40 66 41 67 45 68 48 69 42 70 43 71 46 72 44 73 70 74 71 75
REMARK SMILES IDX 79 76 72 77 73 78 77 79 80 80 74 81 75 82 78 83 76 84 55 85
REMARK SMILES IDX 56 86 64 87 57 88 58 89 62 90 65 91 59 92 60 93 63 94 61 95
REMARK H PARENT 9 15 85 48 53 59
REMARK Flexibility Score: inf
ROOT
ATOM      1  C   UNL A   1      33.189  29.186  26.967  1.00  0.00     0.202 C 
ENDROOT
BRANCH   1   2
ATOM      2  C   UNL A   1      31.839  28.554  27.324  1.00  0.00     0.261 C 
BRANCH   2   3
ATOM      3  O   UNL A   1      31.954  27.128  27.206  1.00  0.00    -0.463 OA
BRANCH   3   4
ATOM      4  C   UNL A   1      31.149  26.512  26.316  1.00  0.00     0.311 C 
ATOM      5  O   UNL A   1      30.436  25.546  26.563  1.00  0.00    -0.252 OA
BRANCH   4   6
ATOM      6  C   UNL A   1      31.153  27.190  24.969  1.00  0.00     0.124 C 
ATOM      7  N   UNL A   1      32.087  25.982  23.195  1.00  0.00    -0.318 N 
ATOM      8  C   UNL A   1      30.839  26.515  22.694  1.00  0.00     0.088 C 
ATOM      9  C   UNL A   1      32.435  27.055  24.106  1.00  0.00     0.101 C 
ATOM     10  C   UNL A   1      31.244  27.926  22.215  1.00  0.00     0.027 C 
ATOM     11  C   UNL A   1      30.067  26.638  24.018  1.00  0.00     0.042 C 
ATOM     12  C   UNL A   1      32.424  28.271  23.151  1.00  0.00     0.028 C 
BRANCH   7  13
ATOM     13  C   UNL A   1      32.937  25.259  22.418  1.00  0.00     0.318 C 
ATOM     14  N   UNL A   1      33.051  23.925  22.632  1.00  0.00    -0.333 N 
ATOM     15  H   UNL A   1      33.678  23.471  22.024  1.00  0.00     0.165 HD
ATOM     16  O   UNL A   1      33.536  25.749  21.462  1.00  0.00    -0.249 OA
BRANCH  14  17
ATOM     17  C   UNL A   1      32.415  23.046  23.593  1.00  0.00     0.165 C 
BRANCH  17  18
ATOM     18  C   UNL A   1      33.227  21.843  24.013  1.00  0.00     0.027 A 
ATOM     19  C   UNL A   1      34.550  21.799  24.469  1.00  0.00    -0.033 A 
ATOM     20  C   UNL A   1      34.901  20.482  24.922  1.00  0.00     0.016 A 
ATOM     21  C   UNL A   1      33.888  19.571  24.758  1.00  0.00     0.065 A 
ATOM     22  S   UNL A   1      32.513  20.280  24.061  1.00  0.00    -0.147 S 
BRANCH  19  23
ATOM     23  C   UNL A   1      35.544  22.927  24.526  1.00  0.00     0.033 C 
ATOM     24  C   UNL A   1      36.393  23.062  23.277  1.00  0.00     0.009 C 
ENDBRANCH  19  23
ENDBRANCH  17  18
ENDBRANCH  14  17
ENDBRANCH   7  13
ENDBRANCH   4   6
ENDBRANCH   3   4
ENDBRANCH   2   3
ENDBRANCH   1   2
BRANCH   1  25
ATOM     25  O   UNL A   1      33.119  30.562  26.593  1.00  0.00    -0.374 OA
BRANCH  25  26
ATOM     26  C   UNL A   1      31.809  31.120  26.509  1.00  0.00     0.202 C 
BRANCH  26  27
ATOM     27  C   UNL A   1      31.672  32.581  26.966  1.00  0.00     0.261 C 
BRANCH  27  28
ATOM     28  O   UNL A   1      32.897  33.350  26.879  1.00  0.00    -0.460 OA
BRANCH  28  29
ATOM     29  C   UNL A   1      33.372  33.813  28.063  1.00  0.00     0.338 C 
ATOM     30  O   UNL A   1      32.829  34.635  28.789  1.00  0.00    -0.246 OA
BRANCH  29  31
ATOM     31  C   UNL A   1      34.628  33.134  28.474  1.00  0.00     0.060 A 
ATOM     32  C   UNL A   1      34.502  31.924  29.168  1.00  0.00     0.016 A 
ATOM     33  C   UNL A   1      35.904  33.667  28.254  1.00  0.00     0.016 A 
ATOM     34  C   UNL A   1      35.630  31.230  29.610  1.00  0.00     0.010 A 
ATOM     35  C   UNL A   1      37.041  32.979  28.720  1.00  0.00     0.010 A 
ATOM     36  C   UNL A   1      36.912  31.756  29.402  1.00  0.00    -0.014 A 
BRANCH  36  37
ATOM     37  C   UNL A   1      38.070  31.091  30.060  1.00  0.00     0.031 A 
ATOM     38  C   UNL A   1      38.350  31.407  31.504  1.00  0.00     0.074 A 
ATOM     39  C   UNL A   1      38.809  30.158  29.428  1.00  0.00     0.049 A 
ATOM     40  N   UNL A   1      39.261  30.915  32.305  1.00  0.00    -0.248 NA
ATOM     41  C   UNL A   1      37.471  32.406  32.131  1.00  0.00     0.031 C 
ATOM     42  C   UNL A   1      38.612  29.714  28.052  1.00  0.00     0.029 A 
ATOM     43  N   UNL A   1      39.871  29.404  29.872  1.00  0.00    -0.354 N 
ATOM     44  C   UNL A   1      39.056  31.534  33.532  1.00  0.00     0.074 A 
ATOM     45  C   UNL A   1      37.952  32.453  33.365  1.00  0.00     0.031 C 
ATOM     46  C   UNL A   1      39.515  28.760  27.765  1.00  0.00     0.029 A 
ATOM     47  C   UNL A   1      40.386  28.556  28.921  1.00  0.00     0.049 A 
ATOM     48  H   UNL A   1      40.229  29.467  30.787  1.00  0.00     0.167 HD
ATOM     49  C   UNL A   1      39.728  31.352  34.694  1.00  0.00     0.037 A 
ATOM     50  C   UNL A   1      41.455  27.733  28.970  1.00  0.00     0.037 A 
ATOM     51  C   UNL A   1      40.852  30.469  34.856  1.00  0.00     0.049 A 
ATOM     52  C   UNL A   1      42.259  27.640  30.246  1.00  0.00     0.074 A 
ATOM     53  C   UNL A   1      41.615  30.241  35.988  1.00  0.00     0.029 A 
ATOM     54  N   UNL A   1      41.389  29.682  33.847  1.00  0.00    -0.354 N 
ATOM     55  N   UNL A   1      42.047  28.214  31.406  1.00  0.00    -0.248 NA
ATOM     56  C   UNL A   1      43.457  26.785  30.217  1.00  0.00     0.031 C 
ATOM     57  C   UNL A   1      42.650  29.365  35.649  1.00  0.00     0.029 A 
ATOM     58  C   UNL A   1      42.492  28.991  34.325  1.00  0.00     0.049 A 
ATOM     59  H   UNL A   1      41.039  29.624  32.928  1.00  0.00     0.167 HD
ATOM     60  C   UNL A   1      43.058  27.763  32.248  1.00  0.00     0.074 A 
ATOM     61  C   UNL A   1      43.875  26.856  31.473  1.00  0.00     0.031 C 
ATOM     62  C   UNL A   1      43.288  28.074  33.548  1.00  0.00     0.037 A 
BRANCH  49  63
ATOM     63  C   UNL A   1      39.288  32.165  35.877  1.00  0.00     0.064 A 
ATOM     64  C   UNL A   1      39.758  33.469  36.090  1.00  0.00     0.173 A 
ATOM     65  C   UNL A   1      38.367  31.639  36.795  1.00  0.00     0.173 A 
ATOM     66  F   UNL A   1      40.653  34.012  35.251  1.00  0.00    -0.203 F 
ATOM     67  C   UNL A   1      39.340  34.209  37.194  1.00  0.00     0.198 A 
ATOM     68  C   UNL A   1      37.928  32.392  37.881  1.00  0.00     0.198 A 
ATOM     69  F   UNL A   1      37.888  30.397  36.636  1.00  0.00    -0.203 F 
ATOM     70  F   UNL A   1      39.838  35.434  37.406  1.00  0.00    -0.200 F 
ATOM     71  C   UNL A   1      38.420  33.672  38.084  1.00  0.00     0.200 A 
ATOM     72  F   UNL A   1      37.032  31.876  38.733  1.00  0.00    -0.200 F 
ATOM     73  F   UNL A   1      38.015  34.386  39.143  1.00  0.00    -0.200 F 
ENDBRANCH  49  63
BRANCH  50  74
ATOM     74  C   UNL A   1      41.869  26.952  27.768  1.00  0.00     0.064 A 
ATOM     75  C   UNL A   1      41.409  25.644  27.552  1.00  0.00     0.173 A 
ATOM     76  C   UNL A   1      42.791  27.473  26.848  1.00  0.00     0.173 A 
ATOM     77  F   UNL A   1      40.552  25.084  28.418  1.00  0.00    -0.203 F 
ATOM     78  C   UNL A   1      41.878  24.881  26.483  1.00  0.00     0.198 A 
ATOM     79  C   UNL A   1      43.233  26.721  25.760  1.00  0.00     0.198 A 
ATOM     80  F   UNL A   1      43.275  28.713  27.010  1.00  0.00    -0.203 F 
ATOM     81  F   UNL A   1      41.474  23.610  26.342  1.00  0.00    -0.200 F 
ATOM     82  C   UNL A   1      42.786  25.422  25.585  1.00  0.00     0.200 A 
ATOM     83  F   UNL A   1      44.104  27.252  24.891  1.00  0.00    -0.200 F 
ATOM     84  F   UNL A   1      43.242  24.684  24.563  1.00  0.00    -0.200 F 
ENDBRANCH  50  74
BRANCH  62  85
ATOM     85  C   UNL A   1      44.438  27.393  34.238  1.00  0.00     0.064 A 
ATOM     86  C   UNL A   1      44.288  26.163  34.894  1.00  0.00     0.173 A 
ATOM     87  C   UNL A   1      45.722  27.959  34.195  1.00  0.00     0.173 A 
ATOM     88  F   UNL A   1      43.080  25.584  34.976  1.00  0.00    -0.203 F 
ATOM     89  C   UNL A   1      45.374  25.538  35.505  1.00  0.00     0.198 A 
ATOM     90  C   UNL A   1      46.812  27.314  34.775  1.00  0.00     0.198 A 
ATOM     91  F   UNL A   1      45.926  29.130  33.573  1.00  0.00    -0.203 F 
ATOM     92  F   UNL A   1      45.196  24.387  36.168  1.00  0.00    -0.200 F 
ATOM     93  C   UNL A   1      46.635  26.110  35.436  1.00  0.00     0.200 A 
ATOM     94  F   UNL A   1      48.033  27.859  34.690  1.00  0.00    -0.200 F 
ATOM     95  F   UNL A   1      47.681  25.500  36.012  1.00  0.00    -0.200 F 
ENDBRANCH  62  85
ENDBRANCH  36  37
ENDBRANCH  29  31
ENDBRANCH  28  29
ENDBRANCH  27  28
ENDBRANCH  26  27
ENDBRANCH  25  26
ENDBRANCH   1  25
TORSDOF 18
ENDMDL
MODEL 2
REMARK VINA RESULT:     -11.5      3.246      8.654
REMARK SMILES CCc1ccsc1CNC(=O)N1[C@@H]2CC[C@H]1[C@H](C(=O)OCCOCCOC(=O)c1ccc(-c3c4nc(c(-c5c(F)c(F)c(F)c(F)c5F)c5ccc([nH]5)c(-c5c(F)c(F)c(F)c(F)c5F)c5nc(c(-c6c(F)c(F)c(F)c(F)c6F)c6ccc3[nH]6)C=C5)C=C4)cc1)C2
REMARK SMILES IDX 22 1 21 2 20 3 18 4 19 5 17 6 12 7 13 8 16 9 14 10 92 11
REMARK SMILES IDX 15 12 10 13 9 14 11 16 8 17 7 18 3 19 4 20 5 21 6 22 2 23
REMARK SMILES IDX 1 24 23 25 24 26 25 27 26 28 27 29 28 30 29 31 30 32 91 33
REMARK SMILES IDX 31 34 90 35 32 36 33 37 34 38 84 39 35 40 89 41 83 42 85 43
REMARK SMILES IDX 36 44 88 45 82 46 81 47 37 49 69 50 49 51 68 52 50 53 53 54
REMARK SMILES IDX 67 55 86 56 51 57 52 58 66 60 87 61 54 62 38 63 39 64 47 65
REMARK SMILES IDX 40 66 41 67 45 68 48 69 42 70 43 71 46 72 44 73 70 74 71 75
REMARK SMILES IDX 79 76 72 77 73 78 77 79 80 80 74 81 75 82 78 83 76 84 55 85
REMARK SMILES IDX 56 86 64 87 57 88 58 89 62 90 65 91 59 92 60 93 63 94 61 95
REMARK H PARENT 9 15 85 48 53 59
REMARK Flexibility Score: inf
ROOT
ATOM      1  C   UNL A   1      40.367  21.029  26.536  1.00  0.00     0.202 C 
ENDROOT
BRANCH   1   2
ATOM      2  C   UNL A   1      39.281  22.110  26.486  1.00  0.00     0.261 C 
BRANCH   2   3
ATOM      3  O   UNL A   1      38.270  21.703  25.552  1.00  0.00    -0.463 OA
BRANCH   3   4
ATOM      4  C   UNL A   1      37.176  22.485  25.441  1.00  0.00     0.311 C 
ATOM      5  O   UNL A   1      37.173  23.635  25.018  1.00  0.00    -0.252 OA
BRANCH   4   6
ATOM      6  C   UNL A   1      35.910  21.762  25.829  1.00  0.00     0.124 C 
ATOM      7  N   UNL A   1      34.083  22.014  24.388  1.00  0.00    -0.318 N 
ATOM      8  C   UNL A   1      34.163  20.599  24.677  1.00  0.00     0.088 C 
ATOM      9  C   UNL A   1      34.571  22.526  25.654  1.00  0.00     0.101 C 
ATOM     10  C   UNL A   1      33.369  20.479  25.995  1.00  0.00     0.027 C 
ATOM     11  C   UNL A   1      35.665  20.490  24.986  1.00  0.00     0.042 C 
ATOM     12  C   UNL A   1      33.583  21.865  26.642  1.00  0.00     0.028 C 
BRANCH   7  13
ATOM     13  C   UNL A   1      33.099  22.546  23.613  1.00  0.00     0.318 C 
ATOM     14  N   UNL A   1      32.837  23.874  23.704  1.00  0.00    -0.333 N 
ATOM     15  H   UNL A   1      32.119  24.185  23.106  1.00  0.00     0.165 HD
ATOM     16  O   UNL A   1      32.502  21.891  22.762  1.00  0.00    -0.249 OA
BRANCH  14  17
ATOM     17  C   UNL A   1      33.423  24.918  24.519  1.00  0.00     0.165 C 
BRANCH  17  18
ATOM     18  C   UNL A   1      33.502  26.283  23.874  1.00  0.00     0.027 A 
ATOM     19  C   UNL A   1      33.728  27.523  24.480  1.00  0.00    -0.033 A 
ATOM     20  C   UNL A   1      33.892  28.560  23.500  1.00  0.00     0.016 A 
ATOM     21  C   UNL A   1      33.741  28.109  22.213  1.00  0.00     0.065 A 
ATOM     22  S   UNL A   1      33.400  26.448  22.165  1.00  0.00    -0.147 S 
BRANCH  19  23
ATOM     23  C   UNL A   1      33.814  27.829  25.951  1.00  0.00     0.033 C 
ATOM     24  C   UNL A   1      32.557  27.485  26.726  1.00  0.00     0.009 C 
ENDBRANCH  19  23
ENDBRANCH  17  18
ENDBRANCH  14  17
ENDBRANCH   7  13
ENDBRANCH   4   6
ENDBRANCH   3   4
ENDBRANCH   2   3
ENDBRANCH   1   2
BRANCH   1  25
ATOM     25  O   UNL A   1      41.388  21.168  25.550  1.00  0.00    -0.374 OA
BRANCH  25  26
ATOM     26  C   UNL A   1      42.727  20.981  26.006  1.00  0.00     0.202 C 
BRANCH  26  27
ATOM     27  C   UNL A   1      43.799  21.829  25.304  1.00  0.00     0.261 C 
BRANCH  27  28
ATOM     28  O   UNL A   1      43.282  22.997  24.619  1.00  0.00    -0.460 OA
BRANCH  28  29
ATOM     29  C   UNL A   1      43.931  24.158  24.888  1.00  0.00     0.338 C 
ATOM     30  O   UNL A   1      44.944  24.564  24.335  1.00  0.00    -0.246 OA
BRANCH  29  31
ATOM     31  C   UNL A   1      43.219  24.985  25.896  1.00  0.00     0.060 A 
ATOM     32  C   UNL A   1      43.785  26.224  26.220  1.00  0.00     0.016 A 
ATOM     33  C   UNL A   1      42.064  24.564  26.565  1.00  0.00     0.016 A 
ATOM     34  C   UNL A   1      43.192  27.056  27.173  1.00  0.00     0.010 A 
ATOM     35  C   UNL A   1      41.479  25.392  27.544  1.00  0.00     0.010 A 
ATOM     36  C   UNL A   1      42.041  26.643  27.855  1.00  0.00    -0.014 A 
BRANCH  36  37
ATOM     37  C   UNL A   1      41.558  27.464  28.999  1.00  0.00     0.031 A 
ATOM     38  C   UNL A   1      42.316  27.399  30.297  1.00  0.00     0.074 A 
ATOM     39  C   UNL A   1      40.525  28.321  28.875  1.00  0.00     0.049 A 
ATOM     40  N   UNL A   1      42.124  28.060  31.410  1.00  0.00    -0.248 NA
ATOM     41  C   UNL A   1      43.455  26.469  30.335  1.00  0.00     0.031 C 
ATOM     42  C   UNL A   1      39.740  28.528  27.663  1.00  0.00     0.029 A 
ATOM     43  N   UNL A   1      39.968  29.191  29.784  1.00  0.00    -0.354 N 
ATOM     44  C   UNL A   1      43.124  27.635  32.275  1.00  0.00     0.074 A 
ATOM     45  C   UNL A   1      43.907  26.645  31.568  1.00  0.00     0.031 C 
ATOM     46  C   UNL A   1      38.808  29.470  27.897  1.00  0.00     0.029 A 
ATOM     47  C   UNL A   1      38.899  29.900  29.291  1.00  0.00     0.049 A 
ATOM     48  H   UNL A   1      40.303  29.294  30.704  1.00  0.00     0.167 HD
ATOM     49  C   UNL A   1      43.371  28.036  33.545  1.00  0.00     0.037 A 
ATOM     50  C   UNL A   1      38.073  30.776  29.903  1.00  0.00     0.037 A 
ATOM     51  C   UNL A   1      42.572  28.991  34.268  1.00  0.00     0.049 A 
ATOM     52  C   UNL A   1      38.300  31.113  31.358  1.00  0.00     0.074 A 
ATOM     53  C   UNL A   1      42.727  29.436  35.569  1.00  0.00     0.029 A 
ATOM     54  N   UNL A   1      41.455  29.632  33.756  1.00  0.00    -0.354 N 
ATOM     55  N   UNL A   1      39.259  30.723  32.162  1.00  0.00    -0.248 NA
ATOM     56  C   UNL A   1      37.324  32.014  31.992  1.00  0.00     0.031 C 
ATOM     57  C   UNL A   1      41.668  30.299  35.864  1.00  0.00     0.029 A 
ATOM     58  C   UNL A   1      40.893  30.447  34.727  1.00  0.00     0.049 A 
ATOM     59  H   UNL A   1      41.110  29.524  32.840  1.00  0.00     0.167 HD
ATOM     60  C   UNL A   1      39.022  31.354  33.379  1.00  0.00     0.074 A 
ATOM     61  C   UNL A   1      37.838  32.166  33.204  1.00  0.00     0.031 C 
ATOM     62  C   UNL A   1      39.723  31.268  34.536  1.00  0.00     0.037 A 
BRANCH  49  63
ATOM     63  C   UNL A   1      44.532  27.401  34.254  1.00  0.00     0.064 A 
ATOM     64  C   UNL A   1      45.804  27.992  34.262  1.00  0.00     0.173 A 
ATOM     65  C   UNL A   1      44.361  26.196  34.953  1.00  0.00     0.173 A 
ATOM     66  F   UNL A   1      46.023  29.134  33.594  1.00  0.00    -0.203 F 
ATOM     67  C   UNL A   1      46.869  27.387  34.925  1.00  0.00     0.198 A 
ATOM     68  C   UNL A   1      45.422  25.610  35.639  1.00  0.00     0.198 A 
ATOM     69  F   UNL A   1      43.165  25.590  34.976  1.00  0.00    -0.203 F 
ATOM     70  F   UNL A   1      48.088  27.943  34.879  1.00  0.00    -0.200 F 
ATOM     71  C   UNL A   1      46.675  26.201  35.618  1.00  0.00     0.200 A 
ATOM     72  F   UNL A   1      45.230  24.471  36.318  1.00  0.00    -0.200 F 
ATOM     73  F   UNL A   1      47.700  25.623  36.260  1.00  0.00    -0.200 F 
ENDBRANCH  49  63
BRANCH  50  74
ATOM     74  C   UNL A   1      36.921  31.374  29.168  1.00  0.00     0.064 A 
ATOM     75  C   UNL A   1      36.896  32.736  28.831  1.00  0.00     0.173 A 
ATOM     76  C   UNL A   1      35.787  30.610  28.852  1.00  0.00     0.173 A 
ATOM     77  F   UNL A   1      37.938  33.521  29.140  1.00  0.00    -0.203 F 
ATOM     78  C   UNL A   1      35.774  33.313  28.237  1.00  0.00     0.198 A 
ATOM     79  C   UNL A   1      34.679  31.180  28.226  1.00  0.00     0.198 A 
ATOM     80  F   UNL A   1      35.748  29.306  29.161  1.00  0.00    -0.203 F 
ATOM     81  F   UNL A   1      35.752  34.631  27.991  1.00  0.00    -0.200 F 
ATOM     82  C   UNL A   1      34.669  32.534  27.931  1.00  0.00     0.200 A 
ATOM     83  F   UNL A   1      33.618  30.421  27.925  1.00  0.00    -0.200 F 
ATOM     84  F   UNL A   1      33.588  33.092  27.367  1.00  0.00    -0.200 F 
ENDBRANCH  50  74
BRANCH  62  85
ATOM     85  C   UNL A   1      39.267  32.109  35.696  1.00  0.00     0.064 A 
ATOM     86  C   UNL A   1      38.393  31.614  36.676  1.00  0.00     0.173 A 
ATOM     87  C   UNL A   1      39.755  33.416  35.855  1.00  0.00     0.173 A 
ATOM     88  F   UNL A   1      37.888  30.377  36.567  1.00  0.00    -0.203 F 
ATOM     89  C   UNL A   1      38.004  32.405  37.755  1.00  0.00     0.198 A 
ATOM     90  C   UNL A   1      39.392  34.191  36.954  1.00  0.00     0.198 A 
ATOM     91  F   UNL A   1      40.600  33.938  34.953  1.00  0.00    -0.203 F 
ATOM     92  F   UNL A   1      37.130  31.927  38.653  1.00  0.00    -0.200 F 
ATOM     93  C   UNL A   1      38.511  33.688  37.898  1.00  0.00     0.200 A 
ATOM     94  F   UNL A   1      39.899  35.423  37.100  1.00  0.00    -0.200 F 
ATOM     95  F   UNL A   1      38.146  34.442  38.945  1.00  0.00    -0.200 F 
ENDBRANCH  62  85
ENDBRANCH  36  37
ENDBRANCH  29  31
ENDBRANCH  28  29
ENDBRANCH  27  28
ENDBRANCH  26  27
ENDBRANCH  25  26
ENDBRANCH   1  25
TORSDOF 18
ENDMDL
MODEL 3
REMARK VINA RESULT:     -11.5      3.245      8.536
REMARK SMILES CCc1ccsc1CNC(=O)N1[C@@H]2CC[C@H]1[C@H](C(=O)OCCOCCOC(=O)c1ccc(-c3c4nc(c(-c5c(F)c(F)c(F)c(F)c5F)c5ccc([nH]5)c(-c5c(F)c(F)c(F)c(F)c5F)c5nc(c(-c6c(F)c(F)c(F)c(F)c6F)c6ccc3[nH]6)C=C5)C=C4)cc1)C2
REMARK SMILES IDX 22 1 21 2 20 3 18 4 19 5 17 6 12 7 13 8 16 9 14 10 92 11
REMARK SMILES IDX 15 12 10 13 9 14 11 16 8 17 7 18 3 19 4 20 5 21 6 22 2 23
REMARK SMILES IDX 1 24 23 25 24 26 25 27 26 28 27 29 28 30 29 31 30 32 91 33
REMARK SMILES IDX 31 34 90 35 32 36 33 37 34 38 84 39 35 40 89 41 83 42 85 43
REMARK SMILES IDX 36 44 88 45 82 46 81 47 37 49 69 50 49 51 68 52 50 53 53 54
REMARK SMILES IDX 67 55 86 56 51 57 52 58 66 60 87 61 54 62 38 63 39 64 47 65
REMARK SMILES IDX 40 66 41 67 45 68 48 69 42 70 43 71 46 72 44 73 70 74 71 75
REMARK SMILES IDX 79 76 72 77 73 78 77 79 80 80 74 81 75 82 78 83 76 84 55 85
REMARK SMILES IDX 56 86 64 87 57 88 58 89 62 90 65 91 59 92 60 93 63 94 61 95
REMARK H PARENT 9 15 85 48 53 59
REMARK Flexibility Score: inf
ROOT
ATOM      1  C   UNL A   1      39.967  21.432  26.598  1.00  0.00     0.202 C 
ENDROOT
BRANCH   1   2
ATOM      2  C   UNL A   1      38.836  22.416  26.278  1.00  0.00     0.261 C 
BRANCH   2   3
ATOM      3  O   UNL A   1      38.265  22.062  25.009  1.00  0.00    -0.463 OA
BRANCH   3   4
ATOM      4  C   UNL A   1      36.958  21.727  24.989  1.00  0.00     0.311 C 
ATOM      5  O   UNL A   1      36.503  20.643  25.336  1.00  0.00    -0.252 OA
BRANCH   4   6
ATOM      6  C   UNL A   1      36.076  22.872  24.556  1.00  0.00     0.124 C 
ATOM      7  N   UNL A   1      33.852  22.808  25.282  1.00  0.00    -0.318 N 
ATOM      8  C   UNL A   1      34.310  24.157  25.535  1.00  0.00     0.088 C 
ATOM      9  C   UNL A   1      34.636  22.528  24.094  1.00  0.00     0.101 C 
ATOM     10  C   UNL A   1      34.062  24.856  24.181  1.00  0.00     0.027 C 
ATOM     11  C   UNL A   1      35.815  23.888  25.692  1.00  0.00     0.042 C 
ATOM     12  C   UNL A   1      34.205  23.693  23.173  1.00  0.00     0.028 C 
BRANCH   7  13
ATOM     13  C   UNL A   1      32.576  22.411  25.534  1.00  0.00     0.318 C 
ATOM     14  N   UNL A   1      32.328  21.095  25.749  1.00  0.00    -0.333 N 
ATOM     15  H   UNL A   1      31.383  20.888  25.934  1.00  0.00     0.165 HD
ATOM     16  O   UNL A   1      31.651  23.208  25.672  1.00  0.00    -0.249 OA
BRANCH  14  17
ATOM     17  C   UNL A   1      33.201  19.939  25.759  1.00  0.00     0.165 C 
BRANCH  17  18
ATOM     18  C   UNL A   1      33.078  19.020  24.565  1.00  0.00     0.027 A 
ATOM     19  C   UNL A   1      33.291  17.638  24.502  1.00  0.00    -0.033 A 
ATOM     20  C   UNL A   1      32.910  17.110  23.222  1.00  0.00     0.016 A 
ATOM     21  C   UNL A   1      32.479  18.078  22.350  1.00  0.00     0.065 A 
ATOM     22  S   UNL A   1      32.527  19.622  23.052  1.00  0.00    -0.147 S 
BRANCH  19  23
ATOM     23  C   UNL A   1      33.832  16.737  25.580  1.00  0.00     0.033 C 
ATOM     24  C   UNL A   1      34.993  15.872  25.132  1.00  0.00     0.009 C 
ENDBRANCH  19  23
ENDBRANCH  17  18
ENDBRANCH  14  17
ENDBRANCH   7  13
ENDBRANCH   4   6
ENDBRANCH   3   4
ENDBRANCH   2   3
ENDBRANCH   1   2
BRANCH   1  25
ATOM     25  O   UNL A   1      41.008  21.387  25.623  1.00  0.00    -0.374 OA
BRANCH  25  26
ATOM     26  C   UNL A   1      42.316  21.106  26.118  1.00  0.00     0.202 C 
BRANCH  26  27
ATOM     27  C   UNL A   1      43.470  21.844  25.421  1.00  0.00     0.261 C 
BRANCH  27  28
ATOM     28  O   UNL A   1      43.062  23.014  24.669  1.00  0.00    -0.460 OA
BRANCH  28  29
ATOM     29  C   UNL A   1      43.751  24.149  24.950  1.00  0.00     0.338 C 
ATOM     30  O   UNL A   1      44.789  24.515  24.417  1.00  0.00    -0.246 OA
BRANCH  29  31
ATOM     31  C   UNL A   1      43.052  25.003  25.946  1.00  0.00     0.060 A 
ATOM     32  C   UNL A   1      43.703  26.176  26.348  1.00  0.00     0.016 A 
ATOM     33  C   UNL A   1      41.826  24.665  26.530  1.00  0.00     0.016 A 
ATOM     34  C   UNL A   1      43.127  27.025  27.296  1.00  0.00     0.010 A 
ATOM     35  C   UNL A   1      41.256  25.509  27.504  1.00  0.00     0.010 A 
ATOM     36  C   UNL A   1      41.904  26.695  27.894  1.00  0.00    -0.014 A 
BRANCH  36  37
ATOM     37  C   UNL A   1      41.425  27.518  29.038  1.00  0.00     0.031 A 
ATOM     38  C   UNL A   1      42.189  27.456  30.333  1.00  0.00     0.074 A 
ATOM     39  C   UNL A   1      40.392  28.374  28.916  1.00  0.00     0.049 A 
ATOM     40  N   UNL A   1      42.000  28.119  31.446  1.00  0.00    -0.248 NA
ATOM     41  C   UNL A   1      43.328  26.527  30.369  1.00  0.00     0.031 C 
ATOM     42  C   UNL A   1      39.601  28.577  27.706  1.00  0.00     0.029 A 
ATOM     43  N   UNL A   1      39.837  29.245  29.826  1.00  0.00    -0.354 N 
ATOM     44  C   UNL A   1      43.004  27.697  32.308  1.00  0.00     0.074 A 
ATOM     45  C   UNL A   1      43.784  26.706  31.600  1.00  0.00     0.031 C 
ATOM     46  C   UNL A   1      38.670  29.519  27.942  1.00  0.00     0.029 A 
ATOM     47  C   UNL A   1      38.766  29.953  29.334  1.00  0.00     0.049 A 
ATOM     48  H   UNL A   1      40.176  29.351  30.744  1.00  0.00     0.167 HD
ATOM     49  C   UNL A   1      43.255  28.101  33.576  1.00  0.00     0.037 A 
ATOM     50  C   UNL A   1      37.942  30.829  29.948  1.00  0.00     0.037 A 
ATOM     51  C   UNL A   1      42.459  29.057  34.300  1.00  0.00     0.049 A 
ATOM     52  C   UNL A   1      38.174  31.170  31.401  1.00  0.00     0.074 A 
ATOM     53  C   UNL A   1      42.618  29.505  35.599  1.00  0.00     0.029 A 
ATOM     54  N   UNL A   1      41.338  29.696  33.791  1.00  0.00    -0.354 N 
ATOM     55  N   UNL A   1      39.136  30.782  32.203  1.00  0.00    -0.248 NA
ATOM     56  C   UNL A   1      37.199  32.071  32.037  1.00  0.00     0.031 C 
ATOM     57  C   UNL A   1      41.559  30.368  35.897  1.00  0.00     0.029 A 
ATOM     58  C   UNL A   1      40.780  30.513  34.761  1.00  0.00     0.049 A 
ATOM     59  H   UNL A   1      40.991  29.586  32.876  1.00  0.00     0.167 HD
ATOM     60  C   UNL A   1      38.904  31.416  33.419  1.00  0.00     0.074 A 
ATOM     61  C   UNL A   1      37.719  32.227  33.246  1.00  0.00     0.031 C 
ATOM     62  C   UNL A   1      39.609  31.332  34.574  1.00  0.00     0.037 A 
BRANCH  49  63
ATOM     63  C   UNL A   1      44.419  27.468  34.282  1.00  0.00     0.064 A 
ATOM     64  C   UNL A   1      44.284  26.270  34.999  1.00  0.00     0.173 A 
ATOM     65  C   UNL A   1      45.690  28.058  34.220  1.00  0.00     0.173 A 
ATOM     66  F   UNL A   1      43.086  25.676  35.103  1.00  0.00    -0.203 F 
ATOM     67  C   UNL A   1      45.376  25.698  35.648  1.00  0.00     0.198 A 
ATOM     68  C   UNL A   1      46.786  27.468  34.845  1.00  0.00     0.198 A 
ATOM     69  F   UNL A   1      45.873  29.204  33.547  1.00  0.00    -0.203 F 
ATOM     70  F   UNL A   1      45.216  24.580  36.368  1.00  0.00    -0.200 F 
ATOM     71  C   UNL A   1      46.626  26.294  35.565  1.00  0.00     0.200 A 
ATOM     72  F   UNL A   1      47.994  28.039  34.753  1.00  0.00    -0.200 F 
ATOM     73  F   UNL A   1      47.677  25.740  36.185  1.00  0.00    -0.200 F 
ENDBRANCH  49  63
BRANCH  50  74
ATOM     74  C   UNL A   1      36.786  31.425  29.216  1.00  0.00     0.064 A 
ATOM     75  C   UNL A   1      36.755  32.788  28.884  1.00  0.00     0.173 A 
ATOM     76  C   UNL A   1      35.656  30.657  28.898  1.00  0.00     0.173 A 
ATOM     77  F   UNL A   1      37.794  33.577  29.195  1.00  0.00    -0.203 F 
ATOM     78  C   UNL A   1      35.630  33.363  28.293  1.00  0.00     0.198 A 
ATOM     79  C   UNL A   1      34.545  31.225  28.275  1.00  0.00     0.198 A 
ATOM     80  F   UNL A   1      35.623  29.352  29.202  1.00  0.00    -0.203 F 
ATOM     81  F   UNL A   1      35.602  34.681  28.052  1.00  0.00    -0.200 F 
ATOM     82  C   UNL A   1      34.528  32.580  27.985  1.00  0.00     0.200 A 
ATOM     83  F   UNL A   1      33.487  30.462  27.971  1.00  0.00    -0.200 F 
ATOM     84  F   UNL A   1      33.444  33.135  27.424  1.00  0.00    -0.200 F 
ENDBRANCH  50  74
BRANCH  62  85
ATOM     85  C   UNL A   1      39.156  32.176  35.734  1.00  0.00     0.064 A 
ATOM     86  C   UNL A   1      38.285  31.683  36.717  1.00  0.00     0.173 A 
ATOM     87  C   UNL A   1      39.645  33.483  35.889  1.00  0.00     0.173 A 
ATOM     88  F   UNL A   1      37.779  30.446  36.611  1.00  0.00    -0.203 F 
ATOM     89  C   UNL A   1      37.900  32.476  37.796  1.00  0.00     0.198 A 
ATOM     90  C   UNL A   1      39.286  34.260  36.988  1.00  0.00     0.198 A 
ATOM     91  F   UNL A   1      40.489  34.003  34.984  1.00  0.00    -0.203 F 
ATOM     92  F   UNL A   1      37.028  32.000  38.696  1.00  0.00    -0.200 F 
ATOM     93  C   UNL A   1      38.408  33.759  37.935  1.00  0.00     0.200 A 
ATOM     94  F   UNL A   1      39.794  35.491  37.130  1.00  0.00    -0.200 F 
ATOM     95  F   UNL A   1      38.046  34.515  38.982  1.00  0.00    -0.200 F 
ENDBRANCH  62  85
ENDBRANCH  36  37
ENDBRANCH  29  31
ENDBRANCH  28  29
ENDBRANCH  27  28
ENDBRANCH  26  27
ENDBRANCH  25  26
ENDBRANCH   1  25
TORSDOF 18
ENDMDL
