MODEL 1
REMARK VINA RESULT:     -10.6      0.000      0.000
REMARK SMILES CC(C)[C@H](NC(=O)OCc1ccccc1)C(=O)NCC(=O)OCCOCCOC(=O)c1ccc(-c2c3nc(c(-c4c(F)c(F)c(F)c(F)c4F)c4ccc([nH]4)c(-c4c(F)c(F)c(F)c(F)c4F)c4nc(c(-c5c(F)c(F)c(F)c(F)c5F)c5ccc2[nH]5)C=C4)C=C3)cc1
REMARK SMILES IDX 23 1 22 2 20 3 21 4 19 5 18 6 16 7 17 8 4 10 2 11 1 12 3 13
REMARK SMILES IDX 5 14 6 15 7 17 8 18 9 19 10 20 11 21 15 22 12 23 14 24 13 25
REMARK SMILES IDX 24 26 25 27 26 28 27 29 28 30 29 31 30 32 31 33 32 34 93 35
REMARK SMILES IDX 33 36 92 37 34 38 35 39 36 40 86 41 37 42 91 43 85 44 87 45
REMARK SMILES IDX 38 46 90 47 84 48 83 49 39 51 71 52 51 53 70 54 52 55 55 56
REMARK SMILES IDX 69 57 88 58 53 59 54 60 68 62 89 63 56 64 40 65 41 66 49 67
REMARK SMILES IDX 42 68 43 69 47 70 50 71 44 72 45 73 48 74 46 75 72 76 73 77
REMARK SMILES IDX 81 78 74 79 75 80 79 81 82 82 76 83 77 84 80 85 78 86 57 87
REMARK SMILES IDX 58 88 66 89 59 90 60 91 64 92 67 93 61 94 62 95 65 96 63 97
REMARK H PARENT 18 9 5 16 87 50 55 61
REMARK Flexibility Score: inf
ROOT
ATOM      1  C   UNL A   1      40.088  21.636  27.087  1.00  0.00     0.261 C 
ENDROOT
BRANCH   1   2
ATOM      2  O   UNL A   1      39.748  22.665  26.143  1.00  0.00    -0.462 OA
BRANCH   2   3
ATOM      3  C   UNL A   1      38.788  23.529  26.552  1.00  0.00     0.325 C 
ATOM      4  O   UNL A   1      38.921  24.373  27.430  1.00  0.00    -0.250 OA
BRANCH   3   5
ATOM      5  C   UNL A   1      37.457  23.298  25.860  1.00  0.00     0.238 C 
BRANCH   5   6
ATOM      6  N   UNL A   1      37.411  22.934  24.459  1.00  0.00    -0.343 N 
ATOM      7  C   UNL A   1      36.329  22.848  23.638  1.00  0.00     0.243 C 
ATOM      8  O   UNL A   1      36.551  22.949  22.426  1.00  0.00    -0.273 OA
ATOM      9  H   UNL A   1      38.279  22.720  24.045  1.00  0.00     0.164 HD
BRANCH   7  10
ATOM     10  C   UNL A   1      34.880  22.645  24.158  1.00  0.00     0.177 C 
BRANCH  10  11
ATOM     11  C   UNL A   1      34.512  21.301  24.824  1.00  0.00     0.015 C 
ATOM     12  C   UNL A   1      35.612  20.254  24.988  1.00  0.00     0.010 C 
ATOM     13  C   UNL A   1      33.813  21.532  26.164  1.00  0.00     0.010 C 
ENDBRANCH  10  11
BRANCH  10  14
ATOM     14  N   UNL A   1      33.891  23.102  23.185  1.00  0.00    -0.309 N 
ATOM     15  C   UNL A   1      32.933  24.046  23.441  1.00  0.00     0.408 C 
ATOM     16  H   UNL A   1      33.914  22.704  22.285  1.00  0.00     0.167 HD
ATOM     17  O   UNL A   1      32.179  24.440  22.564  1.00  0.00    -0.225 OA
BRANCH  15  18
ATOM     18  O   UNL A   1      32.987  24.508  24.716  1.00  0.00    -0.445 OA
BRANCH  18  19
ATOM     19  C   UNL A   1      31.871  25.297  25.165  1.00  0.00     0.270 C 
BRANCH  19  20
ATOM     20  C   UNL A   1      32.248  26.754  25.251  1.00  0.00    -0.011 A 
ATOM     21  C   UNL A   1      31.250  27.723  25.364  1.00  0.00     0.007 A 
ATOM     22  C   UNL A   1      33.585  27.155  25.094  1.00  0.00     0.007 A 
ATOM     23  C   UNL A   1      31.565  29.051  25.123  1.00  0.00     0.000 A 
ATOM     24  C   UNL A   1      33.890  28.467  24.792  1.00  0.00     0.000 A 
ATOM     25  C   UNL A   1      32.864  29.394  24.752  1.00  0.00     0.000 A 
ENDBRANCH  19  20
ENDBRANCH  18  19
ENDBRANCH  15  18
ENDBRANCH  10  14
ENDBRANCH   7  10
ENDBRANCH   5   6
ENDBRANCH   3   5
ENDBRANCH   2   3
ENDBRANCH   1   2
BRANCH   1  26
ATOM     26  C   UNL A   1      40.376  20.333  26.347  1.00  0.00     0.202 C 
BRANCH  26  27
ATOM     27  O   UNL A   1      41.455  20.400  25.413  1.00  0.00    -0.374 OA
BRANCH  27  28
ATOM     28  C   UNL A   1      42.772  20.249  25.943  1.00  0.00     0.202 C 
BRANCH  28  29
ATOM     29  C   UNL A   1      43.776  21.349  25.570  1.00  0.00     0.261 C 
BRANCH  29  30
ATOM     30  O   UNL A   1      43.133  22.557  25.127  1.00  0.00    -0.460 OA
BRANCH  30  31
ATOM     31  C   UNL A   1      43.936  23.652  25.074  1.00  0.00     0.338 C 
ATOM     32  O   UNL A   1      44.802  23.895  24.251  1.00  0.00    -0.246 OA
BRANCH  31  33
ATOM     33  C   UNL A   1      43.495  24.639  26.083  1.00  0.00     0.060 A 
ATOM     34  C   UNL A   1      44.117  25.897  26.109  1.00  0.00     0.016 A 
ATOM     35  C   UNL A   1      42.488  24.340  26.997  1.00  0.00     0.016 A 
ATOM     36  C   UNL A   1      43.725  26.870  27.040  1.00  0.00     0.010 A 
ATOM     37  C   UNL A   1      42.107  25.310  27.929  1.00  0.00     0.010 A 
ATOM     38  C   UNL A   1      42.713  26.589  27.963  1.00  0.00    -0.014 A 
BRANCH  38  39
ATOM     39  C   UNL A   1      42.273  27.557  29.013  1.00  0.00     0.031 A 
ATOM     40  C   UNL A   1      42.816  27.378  30.405  1.00  0.00     0.074 A 
ATOM     41  C   UNL A   1      41.315  28.486  28.803  1.00  0.00     0.049 A 
ATOM     42  N   UNL A   1      42.433  27.932  31.526  1.00  0.00    -0.248 NA
ATOM     43  C   UNL A   1      43.943  26.441  30.546  1.00  0.00     0.031 C 
ATOM     44  C   UNL A   1      40.695  28.825  27.522  1.00  0.00     0.029 A 
ATOM     45  N   UNL A   1      40.601  29.238  29.714  1.00  0.00    -0.354 N 
ATOM     46  C   UNL A   1      43.305  27.451  32.491  1.00  0.00     0.074 A 
ATOM     47  C   UNL A   1      44.150  26.466  31.853  1.00  0.00     0.031 C 
ATOM     48  C   UNL A   1      39.592  29.564  27.746  1.00  0.00     0.029 A 
ATOM     49  C   UNL A   1      39.461  29.798  29.181  1.00  0.00     0.049 A 
ATOM     50  H   UNL A   1      40.879  29.362  30.651  1.00  0.00     0.167 HD
ATOM     51  C   UNL A   1      43.445  27.848  33.777  1.00  0.00     0.037 A 
ATOM     52  C   UNL A   1      38.412  30.394  29.782  1.00  0.00     0.037 A 
ATOM     53  C   UNL A   1      42.616  28.826  34.422  1.00  0.00     0.049 A 
ATOM     54  C   UNL A   1      38.463  30.683  31.258  1.00  0.00     0.074 A 
ATOM     55  C   UNL A   1      42.746  29.373  35.686  1.00  0.00     0.029 A 
ATOM     56  N   UNL A   1      41.483  29.387  33.858  1.00  0.00    -0.354 N 
ATOM     57  N   UNL A   1      39.374  30.346  32.134  1.00  0.00    -0.248 NA
ATOM     58  C   UNL A   1      37.366  31.491  31.817  1.00  0.00     0.031 C 
ATOM     59  C   UNL A   1      41.666  30.235  35.903  1.00  0.00     0.029 A 
ATOM     60  C   UNL A   1      40.886  30.251  34.760  1.00  0.00     0.049 A 
ATOM     61  H   UNL A   1      41.153  29.201  32.949  1.00  0.00     0.167 HD
ATOM     62  C   UNL A   1      39.009  30.968  33.322  1.00  0.00     0.074 A 
ATOM     63  C   UNL A   1      37.772  31.672  33.067  1.00  0.00     0.031 C 
ATOM     64  C   UNL A   1      39.669  30.978  34.505  1.00  0.00     0.037 A 
BRANCH  51  65
ATOM     65  C   UNL A   1      44.595  27.270  34.541  1.00  0.00     0.064 A 
ATOM     66  C   UNL A   1      44.433  26.098  35.298  1.00  0.00     0.173 A 
ATOM     67  C   UNL A   1      45.864  27.861  34.500  1.00  0.00     0.173 A 
ATOM     68  F   UNL A   1      43.231  25.504  35.375  1.00  0.00    -0.203 F 
ATOM     69  C   UNL A   1      45.494  25.556  36.014  1.00  0.00     0.198 A 
ATOM     70  C   UNL A   1      46.931  27.299  35.196  1.00  0.00     0.198 A 
ATOM     71  F   UNL A   1      46.069  28.978  33.789  1.00  0.00    -0.203 F 
ATOM     72  F   UNL A   1      45.303  24.464  36.768  1.00  0.00    -0.200 F 
ATOM     73  C   UNL A   1      46.744  26.153  35.957  1.00  0.00     0.200 A 
ATOM     74  F   UNL A   1      48.142  27.870  35.135  1.00  0.00    -0.200 F 
ATOM     75  F   UNL A   1      47.768  25.627  36.642  1.00  0.00    -0.200 F 
ENDBRANCH  51  65
BRANCH  52  76
ATOM     76  C   UNL A   1      37.207  30.778  29.002  1.00  0.00     0.064 A 
ATOM     77  C   UNL A   1      37.005  32.100  28.585  1.00  0.00     0.173 A 
ATOM     78  C   UNL A   1      36.187  29.847  28.753  1.00  0.00     0.173 A 
ATOM     79  F   UNL A   1      37.935  33.030  28.840  1.00  0.00    -0.203 F 
ATOM     80  C   UNL A   1      35.812  32.486  27.975  1.00  0.00     0.198 A 
ATOM     81  C   UNL A   1      35.001  30.231  28.127  1.00  0.00     0.198 A 
ATOM     82  F   UNL A   1      36.327  28.575  29.154  1.00  0.00    -0.203 F 
ATOM     83  F   UNL A   1      35.616  33.769  27.646  1.00  0.00    -0.200 F 
ATOM     84  C   UNL A   1      34.811  31.552  27.748  1.00  0.00     0.200 A 
ATOM     85  F   UNL A   1      34.030  29.331  27.923  1.00  0.00    -0.200 F 
ATOM     86  F   UNL A   1      33.654  31.932  27.188  1.00  0.00    -0.200 F 
ENDBRANCH  52  76
BRANCH  64  87
ATOM     87  C   UNL A   1      39.125  31.843  35.600  1.00  0.00     0.064 A 
ATOM     88  C   UNL A   1      38.263  31.342  36.585  1.00  0.00     0.173 A 
ATOM     89  C   UNL A   1      39.516  33.190  35.692  1.00  0.00     0.173 A 
ATOM     90  F   UNL A   1      37.844  30.068  36.528  1.00  0.00    -0.203 F 
ATOM     91  C   UNL A   1      37.801  32.159  37.614  1.00  0.00     0.198 A 
ATOM     92  C   UNL A   1      39.075  33.995  36.738  1.00  0.00     0.198 A 
ATOM     93  F   UNL A   1      40.341  33.718  34.775  1.00  0.00    -0.203 F 
ATOM     94  F   UNL A   1      36.947  31.669  38.523  1.00  0.00    -0.200 F 
ATOM     95  C   UNL A   1      38.215  33.481  37.696  1.00  0.00     0.200 A 
ATOM     96  F   UNL A   1      39.487  35.267  36.821  1.00  0.00    -0.200 F 
ATOM     97  F   UNL A   1      37.780  34.260  38.695  1.00  0.00    -0.200 F 
ENDBRANCH  64  87
ENDBRANCH  38  39
ENDBRANCH  31  33
ENDBRANCH  30  31
ENDBRANCH  29  30
ENDBRANCH  28  29
ENDBRANCH  27  28
ENDBRANCH  26  27
ENDBRANCH   1  26
TORSDOF 21
ENDMDL
MODEL 2
REMARK VINA RESULT:     -10.5      1.226      3.318
REMARK SMILES CC(C)[C@H](NC(=O)OCc1ccccc1)C(=O)NCC(=O)OCCOCCOC(=O)c1ccc(-c2c3nc(c(-c4c(F)c(F)c(F)c(F)c4F)c4ccc([nH]4)c(-c4c(F)c(F)c(F)c(F)c4F)c4nc(c(-c5c(F)c(F)c(F)c(F)c5F)c5ccc2[nH]5)C=C4)C=C3)cc1
REMARK SMILES IDX 23 1 22 2 20 3 21 4 19 5 18 6 16 7 17 8 4 10 2 11 1 12 3 13
REMARK SMILES IDX 5 14 6 15 7 17 8 18 9 19 10 20 11 21 15 22 12 23 14 24 13 25
REMARK SMILES IDX 24 26 25 27 26 28 27 29 28 30 29 31 30 32 31 33 32 34 93 35
REMARK SMILES IDX 33 36 92 37 34 38 35 39 36 40 86 41 37 42 91 43 85 44 87 45
REMARK SMILES IDX 38 46 90 47 84 48 83 49 39 51 71 52 51 53 70 54 52 55 55 56
REMARK SMILES IDX 69 57 88 58 53 59 54 60 68 62 89 63 56 64 40 65 41 66 49 67
REMARK SMILES IDX 42 68 43 69 47 70 50 71 44 72 45 73 48 74 46 75 72 76 73 77
REMARK SMILES IDX 81 78 74 79 75 80 79 81 82 82 76 83 77 84 80 85 78 86 57 87
REMARK SMILES IDX 58 88 66 89 59 90 60 91 64 92 67 93 61 94 62 95 65 96 63 97
REMARK H PARENT 18 9 5 16 87 50 55 61
REMARK Flexibility Score: inf
ROOT
ATOM      1  C   UNL A   1      40.029  21.737  26.977  1.00  0.00     0.261 C 
ENDROOT
BRANCH   1   2
ATOM      2  O   UNL A   1      39.236  22.404  25.981  1.00  0.00    -0.462 OA
BRANCH   2   3
ATOM      3  C   UNL A   1      38.555  23.491  26.418  1.00  0.00     0.325 C 
ATOM      4  O   UNL A   1      38.898  24.219  27.342  1.00  0.00    -0.250 OA
BRANCH   3   5
ATOM      5  C   UNL A   1      37.238  23.688  25.690  1.00  0.00     0.238 C 
BRANCH   5   6
ATOM      6  N   UNL A   1      37.021  23.092  24.388  1.00  0.00    -0.343 N 
ATOM      7  C   UNL A   1      35.911  23.148  23.602  1.00  0.00     0.243 C 
ATOM      8  O   UNL A   1      36.086  22.955  22.394  1.00  0.00    -0.273 OA
ATOM      9  H   UNL A   1      37.778  22.578  24.023  1.00  0.00     0.164 HD
BRANCH   7  10
ATOM     10  C   UNL A   1      34.491  23.446  24.154  1.00  0.00     0.177 C 
BRANCH  10  11
ATOM     11  C   UNL A   1      33.862  24.830  23.878  1.00  0.00     0.015 C 
ATOM     12  C   UNL A   1      32.372  24.890  23.547  1.00  0.00     0.010 C 
ATOM     13  C   UNL A   1      34.180  25.806  25.012  1.00  0.00     0.010 C 
ENDBRANCH  10  11
BRANCH  10  14
ATOM     14  N   UNL A   1      34.353  23.012  25.542  1.00  0.00    -0.309 N 
ATOM     15  C   UNL A   1      33.984  21.751  25.925  1.00  0.00     0.408 C 
ATOM     16  H   UNL A   1      34.539  23.671  26.250  1.00  0.00     0.167 HD
ATOM     17  O   UNL A   1      33.956  21.428  27.103  1.00  0.00    -0.225 OA
BRANCH  15  18
ATOM     18  O   UNL A   1      33.738  20.938  24.867  1.00  0.00    -0.445 OA
BRANCH  18  19
ATOM     19  C   UNL A   1      34.667  19.862  24.650  1.00  0.00     0.270 C 
BRANCH  19  20
ATOM     20  C   UNL A   1      33.948  18.537  24.605  1.00  0.00    -0.011 A 
ATOM     21  C   UNL A   1      32.902  18.286  25.492  1.00  0.00     0.007 A 
ATOM     22  C   UNL A   1      34.403  17.508  23.764  1.00  0.00     0.007 A 
ATOM     23  C   UNL A   1      32.462  16.984  25.670  1.00  0.00     0.000 A 
ATOM     24  C   UNL A   1      34.012  16.203  23.983  1.00  0.00     0.000 A 
ATOM     25  C   UNL A   1      33.085  15.947  24.978  1.00  0.00     0.000 A 
ENDBRANCH  19  20
ENDBRANCH  18  19
ENDBRANCH  15  18
ENDBRANCH  10  14
ENDBRANCH   7  10
ENDBRANCH   5   6
ENDBRANCH   3   5
ENDBRANCH   2   3
ENDBRANCH   1   2
BRANCH   1  26
ATOM     26  C   UNL A   1      40.358  20.322  26.511  1.00  0.00     0.202 C 
BRANCH  26  27
ATOM     27  O   UNL A   1      41.420  20.235  25.560  1.00  0.00    -0.374 OA
BRANCH  27  28
ATOM     28  C   UNL A   1      42.742  20.114  26.084  1.00  0.00     0.202 C 
BRANCH  28  29
ATOM     29  C   UNL A   1      43.718  21.238  25.710  1.00  0.00     0.261 C 
BRANCH  29  30
ATOM     30  O   UNL A   1      43.055  22.376  25.129  1.00  0.00    -0.460 OA
BRANCH  30  31
ATOM     31  C   UNL A   1      43.825  23.487  24.996  1.00  0.00     0.338 C 
ATOM     32  O   UNL A   1      44.634  23.724  24.115  1.00  0.00    -0.246 OA
BRANCH  31  33
ATOM     33  C   UNL A   1      43.421  24.494  26.000  1.00  0.00     0.060 A 
ATOM     34  C   UNL A   1      44.076  25.735  26.009  1.00  0.00     0.016 A 
ATOM     35  C   UNL A   1      42.417  24.228  26.927  1.00  0.00     0.016 A 
ATOM     36  C   UNL A   1      43.720  26.726  26.935  1.00  0.00     0.010 A 
ATOM     37  C   UNL A   1      42.071  25.216  27.855  1.00  0.00     0.010 A 
ATOM     38  C   UNL A   1      42.710  26.479  27.871  1.00  0.00    -0.014 A 
BRANCH  38  39
ATOM     39  C   UNL A   1      42.308  27.467  28.917  1.00  0.00     0.031 A 
ATOM     40  C   UNL A   1      42.866  27.289  30.303  1.00  0.00     0.074 A 
ATOM     41  C   UNL A   1      41.368  28.416  28.711  1.00  0.00     0.049 A 
ATOM     42  N   UNL A   1      42.511  27.863  31.424  1.00  0.00    -0.248 NA
ATOM     43  C   UNL A   1      43.973  26.328  30.439  1.00  0.00     0.031 C 
ATOM     44  C   UNL A   1      40.739  28.757  27.435  1.00  0.00     0.029 A 
ATOM     45  N   UNL A   1      40.685  29.193  29.624  1.00  0.00    -0.354 N 
ATOM     46  C   UNL A   1      43.384  27.371  32.382  1.00  0.00     0.074 A 
ATOM     47  C   UNL A   1      44.198  26.361  31.742  1.00  0.00     0.031 C 
ATOM     48  C   UNL A   1      39.656  29.523  27.666  1.00  0.00     0.029 A 
ATOM     49  C   UNL A   1      39.551  29.774  29.100  1.00  0.00     0.049 A 
ATOM     50  H   UNL A   1      40.978  29.320  30.555  1.00  0.00     0.167 HD
ATOM     51  C   UNL A   1      43.551  27.778  33.661  1.00  0.00     0.037 A 
ATOM     52  C   UNL A   1      38.524  30.400  29.709  1.00  0.00     0.037 A 
ATOM     53  C   UNL A   1      42.753  28.780  34.308  1.00  0.00     0.049 A 
ATOM     54  C   UNL A   1      38.601  30.702  31.181  1.00  0.00     0.074 A 
ATOM     55  C   UNL A   1      42.914  29.336  35.565  1.00  0.00     0.029 A 
ATOM     56  N   UNL A   1      41.626  29.363  33.754  1.00  0.00    -0.354 N 
ATOM     57  N   UNL A   1      39.517  30.352  32.049  1.00  0.00    -0.248 NA
ATOM     58  C   UNL A   1      37.532  31.540  31.747  1.00  0.00     0.031 C 
ATOM     59  C   UNL A   1      41.857  30.226  35.788  1.00  0.00     0.029 A 
ATOM     60  C   UNL A   1      41.061  30.249  34.655  1.00  0.00     0.049 A 
ATOM     61  H   UNL A   1      41.279  29.175  32.851  1.00  0.00     0.167 HD
ATOM     62  C   UNL A   1      39.183  30.995  33.235  1.00  0.00     0.074 A 
ATOM     63  C   UNL A   1      37.959  31.724  32.990  1.00  0.00     0.031 C 
ATOM     64  C   UNL A   1      39.859  31.001  34.409  1.00  0.00     0.037 A 
BRANCH  51  65
ATOM     65  C   UNL A   1      44.698  27.180  34.416  1.00  0.00     0.064 A 
ATOM     66  C   UNL A   1      44.520  26.019  35.186  1.00  0.00     0.173 A 
ATOM     67  C   UNL A   1      45.979  27.742  34.354  1.00  0.00     0.173 A 
ATOM     68  F   UNL A   1      43.306  25.453  35.283  1.00  0.00    -0.203 F 
ATOM     69  C   UNL A   1      45.577  25.459  35.892  1.00  0.00     0.198 A 
ATOM     70  C   UNL A   1      47.043  27.162  35.041  1.00  0.00     0.198 A 
ATOM     71  F   UNL A   1      46.199  28.849  33.629  1.00  0.00    -0.203 F 
ATOM     72  F   UNL A   1      45.373  24.379  36.658  1.00  0.00    -0.200 F 
ATOM     73  C   UNL A   1      46.840  26.028  35.814  1.00  0.00     0.200 A 
ATOM     74  F   UNL A   1      48.265  27.705  34.959  1.00  0.00    -0.200 F 
ATOM     75  F   UNL A   1      47.860  25.485  36.490  1.00  0.00    -0.200 F 
ENDBRANCH  51  65
BRANCH  52  76
ATOM     76  C   UNL A   1      37.317  30.804  28.942  1.00  0.00     0.064 A 
ATOM     77  C   UNL A   1      37.093  32.143  28.597  1.00  0.00     0.173 A 
ATOM     78  C   UNL A   1      36.317  29.870  28.634  1.00  0.00     0.173 A 
ATOM     79  F   UNL A   1      38.005  33.075  28.910  1.00  0.00    -0.203 F 
ATOM     80  C   UNL A   1      35.898  32.540  27.999  1.00  0.00     0.198 A 
ATOM     81  C   UNL A   1      35.129  30.266  28.020  1.00  0.00     0.198 A 
ATOM     82  F   UNL A   1      36.478  28.580  28.965  1.00  0.00    -0.203 F 
ATOM     83  F   UNL A   1      35.681  33.836  27.739  1.00  0.00    -0.200 F 
ATOM     84  C   UNL A   1      34.917  31.602  27.713  1.00  0.00     0.200 A 
ATOM     85  F   UNL A   1      34.176  29.361  27.760  1.00  0.00    -0.200 F 
ATOM     86  F   UNL A   1      33.757  31.991  27.166  1.00  0.00    -0.200 F 
ENDBRANCH  52  76
BRANCH  64  87
ATOM     87  C   UNL A   1      39.350  31.889  35.503  1.00  0.00     0.064 A 
ATOM     88  C   UNL A   1      39.675  33.251  35.566  1.00  0.00     0.173 A 
ATOM     89  C   UNL A   1      38.478  31.375  36.478  1.00  0.00     0.173 A 
ATOM     90  F   UNL A   1      40.520  33.784  34.671  1.00  0.00    -0.203 F 
ATOM     91  C   UNL A   1      39.158  34.063  36.572  1.00  0.00     0.198 A 
ATOM     92  C   UNL A   1      37.941  32.196  37.465  1.00  0.00     0.198 A 
ATOM     93  F   UNL A   1      38.135  30.078  36.461  1.00  0.00    -0.203 F 
ATOM     94  F   UNL A   1      39.511  35.354  36.636  1.00  0.00    -0.200 F 
ATOM     95  C   UNL A   1      38.284  33.538  37.514  1.00  0.00     0.200 A 
ATOM     96  F   UNL A   1      37.088  31.688  38.365  1.00  0.00    -0.200 F 
ATOM     97  F   UNL A   1      37.777  34.325  38.472  1.00  0.00    -0.200 F 
ENDBRANCH  64  87
ENDBRANCH  38  39
ENDBRANCH  31  33
ENDBRANCH  30  31
ENDBRANCH  29  30
ENDBRANCH  28  29
ENDBRANCH  27  28
ENDBRANCH  26  27
ENDBRANCH   1  26
TORSDOF 21
ENDMDL
MODEL 3
REMARK VINA RESULT:     -10.4      4.806      7.154
REMARK SMILES CC(C)[C@H](NC(=O)OCc1ccccc1)C(=O)NCC(=O)OCCOCCOC(=O)c1ccc(-c2c3nc(c(-c4c(F)c(F)c(F)c(F)c4F)c4ccc([nH]4)c(-c4c(F)c(F)c(F)c(F)c4F)c4nc(c(-c5c(F)c(F)c(F)c(F)c5F)c5ccc2[nH]5)C=C4)C=C3)cc1
REMARK SMILES IDX 23 1 22 2 20 3 21 4 19 5 18 6 16 7 17 8 4 10 2 11 1 12 3 13
REMARK SMILES IDX 5 14 6 15 7 17 8 18 9 19 10 20 11 21 15 22 12 23 14 24 13 25
REMARK SMILES IDX 24 26 25 27 26 28 27 29 28 30 29 31 30 32 31 33 32 34 93 35
REMARK SMILES IDX 33 36 92 37 34 38 35 39 36 40 86 41 37 42 91 43 85 44 87 45
REMARK SMILES IDX 38 46 90 47 84 48 83 49 39 51 71 52 51 53 70 54 52 55 55 56
REMARK SMILES IDX 69 57 88 58 53 59 54 60 68 62 89 63 56 64 40 65 41 66 49 67
REMARK SMILES IDX 42 68 43 69 47 70 50 71 44 72 45 73 48 74 46 75 72 76 73 77
REMARK SMILES IDX 81 78 74 79 75 80 79 81 82 82 76 83 77 84 80 85 78 86 57 87
REMARK SMILES IDX 58 88 66 89 59 90 60 91 64 92 67 93 61 94 62 95 65 96 63 97
REMARK H PARENT 18 9 5 16 87 50 55 61
REMARK Flexibility Score: inf
ROOT
ATOM      1  C   UNL A   1      40.506  22.256  27.199  1.00  0.00     0.261 C 
ENDROOT
BRANCH   1   2
ATOM      2  O   UNL A   1      39.313  22.527  26.446  1.00  0.00    -0.462 OA
BRANCH   2   3
ATOM      3  C   UNL A   1      38.699  23.700  26.739  1.00  0.00     0.325 C 
ATOM      4  O   UNL A   1      38.974  24.426  27.687  1.00  0.00    -0.250 OA
BRANCH   3   5
ATOM      5  C   UNL A   1      37.544  24.007  25.804  1.00  0.00     0.238 C 
BRANCH   5   6
ATOM      6  N   UNL A   1      37.392  23.279  24.561  1.00  0.00    -0.343 N 
ATOM      7  C   UNL A   1      36.331  23.267  23.708  1.00  0.00     0.243 C 
ATOM      8  O   UNL A   1      36.572  22.944  22.540  1.00  0.00    -0.273 OA
ATOM      9  H   UNL A   1      38.157  22.718  24.298  1.00  0.00     0.164 HD
BRANCH   7  10
ATOM     10  C   UNL A   1      34.888  23.643  24.139  1.00  0.00     0.177 C 
BRANCH  10  11
ATOM     11  C   UNL A   1      34.113  22.674  25.060  1.00  0.00     0.015 C 
ATOM     12  C   UNL A   1      34.607  21.233  25.168  1.00  0.00     0.010 C 
ATOM     13  C   UNL A   1      33.949  23.270  26.459  1.00  0.00     0.010 C 
ENDBRANCH  10  11
BRANCH  10  14
ATOM     14  N   UNL A   1      34.098  24.126  23.010  1.00  0.00    -0.309 N 
ATOM     15  C   UNL A   1      33.622  25.404  22.890  1.00  0.00     0.408 C 
ATOM     16  H   UNL A   1      33.894  23.491  22.286  1.00  0.00     0.167 HD
ATOM     17  O   UNL A   1      33.028  25.769  21.886  1.00  0.00    -0.225 OA
BRANCH  15  18
ATOM     18  O   UNL A   1      33.949  26.182  23.953  1.00  0.00    -0.445 OA
BRANCH  18  19
ATOM     19  C   UNL A   1      33.674  27.589  23.832  1.00  0.00     0.270 C 
BRANCH  19  20
ATOM     20  C   UNL A   1      33.311  28.179  25.171  1.00  0.00    -0.011 A 
ATOM     21  C   UNL A   1      32.002  28.601  25.410  1.00  0.00     0.007 A 
ATOM     22  C   UNL A   1      34.302  28.422  26.136  1.00  0.00     0.007 A 
ATOM     23  C   UNL A   1      31.744  29.422  26.496  1.00  0.00     0.000 A 
ATOM     24  C   UNL A   1      34.061  29.289  27.182  1.00  0.00     0.000 A 
ATOM     25  C   UNL A   1      32.794  29.828  27.318  1.00  0.00     0.000 A 
ENDBRANCH  19  20
ENDBRANCH  18  19
ENDBRANCH  15  18
ENDBRANCH  10  14
ENDBRANCH   7  10
ENDBRANCH   5   6
ENDBRANCH   3   5
ENDBRANCH   2   3
ENDBRANCH   1   2
BRANCH   1  26
ATOM     26  C   UNL A   1      41.587  21.709  26.271  1.00  0.00     0.202 C 
BRANCH  26  27
ATOM     27  O   UNL A   1      41.433  20.333  25.916  1.00  0.00    -0.374 OA
BRANCH  27  28
ATOM     28  C   UNL A   1      42.261  19.397  26.605  1.00  0.00     0.202 C 
BRANCH  28  29
ATOM     29  C   UNL A   1      43.022  18.398  25.722  1.00  0.00     0.261 C 
BRANCH  29  30
ATOM     30  O   UNL A   1      44.436  18.664  25.676  1.00  0.00    -0.460 OA
BRANCH  30  31
ATOM     31  C   UNL A   1      44.861  19.335  24.574  1.00  0.00     0.338 C 
ATOM     32  O   UNL A   1      45.054  18.879  23.460  1.00  0.00    -0.246 OA
BRANCH  31  33
ATOM     33  C   UNL A   1      44.900  20.786  24.861  1.00  0.00     0.060 A 
ATOM     34  C   UNL A   1      44.545  21.681  23.840  1.00  0.00     0.016 A 
ATOM     35  C   UNL A   1      45.282  21.267  26.110  1.00  0.00     0.016 A 
ATOM     36  C   UNL A   1      44.555  23.065  24.068  1.00  0.00     0.010 A 
ATOM     37  C   UNL A   1      45.299  22.648  26.329  1.00  0.00     0.010 A 
ATOM     38  C   UNL A   1      44.931  23.567  25.317  1.00  0.00    -0.014 A 
BRANCH  38  39
ATOM     39  C   UNL A   1      45.011  25.028  25.620  1.00  0.00     0.031 A 
ATOM     40  C   UNL A   1      46.376  25.638  25.786  1.00  0.00     0.074 A 
ATOM     41  C   UNL A   1      43.924  25.784  25.887  1.00  0.00     0.049 A 
ATOM     42  N   UNL A   1      46.714  26.810  26.260  1.00  0.00    -0.248 NA
ATOM     43  C   UNL A   1      47.515  24.806  25.361  1.00  0.00     0.031 C 
ATOM     44  C   UNL A   1      42.525  25.379  25.752  1.00  0.00     0.029 A 
ATOM     45  N   UNL A   1      43.841  27.038  26.459  1.00  0.00    -0.354 N 
ATOM     46  C   UNL A   1      48.094  26.872  26.140  1.00  0.00     0.074 A 
ATOM     47  C   UNL A   1      48.542  25.579  25.671  1.00  0.00     0.031 C 
ATOM     48  C   UNL A   1      41.742  26.272  26.385  1.00  0.00     0.029 A 
ATOM     49  C   UNL A   1      42.579  27.341  26.920  1.00  0.00     0.049 A 
ATOM     50  H   UNL A   1      44.606  27.654  26.528  1.00  0.00     0.167 HD
ATOM     51  C   UNL A   1      48.910  27.934  26.326  1.00  0.00     0.037 A 
ATOM     52  C   UNL A   1      42.153  28.342  27.717  1.00  0.00     0.037 A 
ATOM     53  C   UNL A   1      48.479  29.223  26.787  1.00  0.00     0.049 A 
ATOM     54  C   UNL A   1      43.099  29.449  28.096  1.00  0.00     0.074 A 
ATOM     55  C   UNL A   1      49.212  30.391  26.904  1.00  0.00     0.029 A 
ATOM     56  N   UNL A   1      47.199  29.508  27.231  1.00  0.00    -0.354 N 
ATOM     57  N   UNL A   1      44.378  29.564  27.845  1.00  0.00    -0.248 NA
ATOM     58  C   UNL A   1      42.526  30.597  28.818  1.00  0.00     0.031 C 
ATOM     59  C   UNL A   1      48.384  31.373  27.460  1.00  0.00     0.029 A 
ATOM     60  C   UNL A   1      47.128  30.824  27.653  1.00  0.00     0.049 A 
ATOM     61  H   UNL A   1      46.449  28.869  27.242  1.00  0.00     0.167 HD
ATOM     62  C   UNL A   1      44.743  30.826  28.298  1.00  0.00     0.074 A 
ATOM     63  C   UNL A   1      43.561  31.425  28.876  1.00  0.00     0.031 C 
ATOM     64  C   UNL A   1      45.948  31.438  28.205  1.00  0.00     0.037 A 
BRANCH  51  65
ATOM     65  C   UNL A   1      50.348  27.755  25.951  1.00  0.00     0.064 A 
ATOM     66  C   UNL A   1      50.754  27.839  24.609  1.00  0.00     0.173 A 
ATOM     67  C   UNL A   1      51.329  27.528  26.925  1.00  0.00     0.173 A 
ATOM     68  F   UNL A   1      49.846  28.044  23.641  1.00  0.00    -0.203 F 
ATOM     69  C   UNL A   1      52.086  27.670  24.251  1.00  0.00     0.198 A 
ATOM     70  C   UNL A   1      52.667  27.388  26.566  1.00  0.00     0.198 A 
ATOM     71  F   UNL A   1      50.992  27.444  28.220  1.00  0.00    -0.203 F 
ATOM     72  F   UNL A   1      52.442  27.707  22.960  1.00  0.00    -0.200 F 
ATOM     73  C   UNL A   1      53.043  27.452  25.231  1.00  0.00     0.200 A 
ATOM     74  F   UNL A   1      53.595  27.185  27.512  1.00  0.00    -0.200 F 
ATOM     75  F   UNL A   1      54.328  27.295  24.887  1.00  0.00    -0.200 F 
ENDBRANCH  51  65
BRANCH  52  76
ATOM     76  C   UNL A   1      40.755  28.370  28.220  1.00  0.00     0.064 A 
ATOM     77  C   UNL A   1      39.726  28.953  27.469  1.00  0.00     0.173 A 
ATOM     78  C   UNL A   1      40.446  27.905  29.508  1.00  0.00     0.173 A 
ATOM     79  F   UNL A   1      39.987  29.447  26.251  1.00  0.00    -0.203 F 
ATOM     80  C   UNL A   1      38.445  29.101  27.999  1.00  0.00     0.198 A 
ATOM     81  C   UNL A   1      39.160  28.039  30.030  1.00  0.00     0.198 A 
ATOM     82  F   UNL A   1      41.404  27.359  30.272  1.00  0.00    -0.203 F 
ATOM     83  F   UNL A   1      37.496  29.723  27.286  1.00  0.00    -0.200 F 
ATOM     84  C   UNL A   1      38.164  28.646  29.279  1.00  0.00     0.200 A 
ATOM     85  F   UNL A   1      38.894  27.613  31.273  1.00  0.00    -0.200 F 
ATOM     86  F   UNL A   1      36.940  28.817  29.797  1.00  0.00    -0.200 F 
ENDBRANCH  52  76
BRANCH  64  87
ATOM     87  C   UNL A   1      46.043  32.864  28.656  1.00  0.00     0.064 A 
ATOM     88  C   UNL A   1      45.742  33.934  27.803  1.00  0.00     0.173 A 
ATOM     89  C   UNL A   1      46.394  33.159  29.984  1.00  0.00     0.173 A 
ATOM     90  F   UNL A   1      45.423  33.706  26.521  1.00  0.00    -0.203 F 
ATOM     91  C   UNL A   1      45.803  35.249  28.259  1.00  0.00     0.198 A 
ATOM     92  C   UNL A   1      46.424  34.471  30.444  1.00  0.00     0.198 A 
ATOM     93  F   UNL A   1      46.689  32.169  30.841  1.00  0.00    -0.203 F 
ATOM     94  F   UNL A   1      45.548  36.260  27.418  1.00  0.00    -0.200 F 
ATOM     95  C   UNL A   1      46.133  35.516  29.580  1.00  0.00     0.200 A 
ATOM     96  F   UNL A   1      46.732  34.725  31.723  1.00  0.00    -0.200 F 
ATOM     97  F   UNL A   1      46.176  36.781  30.019  1.00  0.00    -0.200 F 
ENDBRANCH  64  87
ENDBRANCH  38  39
ENDBRANCH  31  33
ENDBRANCH  30  31
ENDBRANCH  29  30
ENDBRANCH  28  29
ENDBRANCH  27  28
ENDBRANCH  26  27
ENDBRANCH   1  26
TORSDOF 21
ENDMDL
