MODEL 1
REMARK VINA RESULT:     -10.9      0.000      0.000
REMARK SMILES O=C(NC[C@@H]1CC[C@@H](C(=O)OCCOCCOC(=O)c2ccc(-c3c4nc(c(-c5c(F)c(F)c(F)c(F)c5F)c5ccc([nH]5)c(-c5c(F)c(F)c(F)c(F)c5F)c5nc(c(-c6c(F)c(F)c(F)c(F)c6F)c6ccc3[nH]6)C=C5)C=C4)cc2)O1)NC1CC1
REMARK SMILES IDX 13 1 12 2 11 3 9 4 10 5 8 6 5 7 6 8 83 9 7 10 4 11 3 12 1 13
REMARK SMILES IDX 2 14 84 15 85 18 86 19 87 20 14 21 15 22 16 23 17 24 18 25
REMARK SMILES IDX 19 26 20 27 21 28 82 29 22 30 81 31 23 32 24 33 25 34 75 35
REMARK SMILES IDX 26 36 80 37 74 38 76 39 27 40 79 41 73 42 72 43 28 45 60 46
REMARK SMILES IDX 40 47 59 48 41 49 44 50 58 51 77 52 42 53 43 54 57 56 78 57
REMARK SMILES IDX 45 58 29 59 30 60 38 61 31 62 32 63 36 64 39 65 33 66 34 67
REMARK SMILES IDX 37 68 35 69 61 70 62 71 70 72 63 73 64 74 68 75 71 76 65 77
REMARK SMILES IDX 66 78 69 79 67 80 46 81 47 82 55 83 48 84 49 85 53 86 56 87
REMARK SMILES IDX 50 88 51 89 54 90 52 91
REMARK H PARENT 3 16 84 17 76 44 44 55
REMARK Flexibility Score: inf
ROOT
ATOM      1  C   UNL A   1      33.317  28.183  25.441  1.00  0.00     0.202 C 
ENDROOT
BRANCH   1   2
ATOM      2  C   UNL A   1      32.191  27.512  26.230  1.00  0.00     0.261 C 
BRANCH   2   3
ATOM      3  O   UNL A   1      31.468  26.611  25.379  1.00  0.00    -0.461 OA
BRANCH   3   4
ATOM      4  C   UNL A   1      31.003  25.476  25.968  1.00  0.00     0.335 C 
ATOM      5  O   UNL A   1      29.911  25.362  26.511  1.00  0.00    -0.249 OA
BRANCH   4   6
ATOM      6  C   UNL A   1      31.982  24.309  25.795  1.00  0.00     0.228 C 
ATOM      7  C   UNL A   1      32.554  22.309  26.862  1.00  0.00     0.138 C 
ATOM      8  C   UNL A   1      32.183  21.990  25.423  1.00  0.00     0.037 C 
ATOM      9  O   UNL A   1      32.560  23.744  26.982  1.00  0.00    -0.361 OA
ATOM     10  C   UNL A   1      31.306  23.162  25.065  1.00  0.00     0.047 C 
BRANCH   7  11
ATOM     11  C   UNL A   1      33.880  21.704  27.349  1.00  0.00     0.149 C 
BRANCH  11  12
ATOM     12  N   UNL A   1      34.680  21.109  26.285  1.00  0.00    -0.336 N 
ATOM     13  O   UNL A   1      36.364  20.738  24.886  1.00  0.00    -0.249 OA
ATOM     14  C   UNL A   1      35.878  21.457  25.755  1.00  0.00     0.315 C 
ATOM     15  N   UNL A   1      36.476  22.583  26.231  1.00  0.00    -0.335 N 
ATOM     16  H   UNL A   1      34.277  20.308  25.877  1.00  0.00     0.165 HD
ATOM     17  H   UNL A   1      36.016  23.112  26.922  1.00  0.00     0.165 HD
BRANCH  15  18
ATOM     18  C   UNL A   1      37.750  23.024  25.758  1.00  0.00     0.084 C 
ATOM     19  C   UNL A   1      38.525  24.074  26.505  1.00  0.00     0.027 C 
ATOM     20  C   UNL A   1      39.013  22.657  26.489  1.00  0.00     0.027 C 
ENDBRANCH  15  18
ENDBRANCH  11  12
ENDBRANCH   7  11
ENDBRANCH   4   6
ENDBRANCH   3   4
ENDBRANCH   2   3
ENDBRANCH   1   2
BRANCH   1  21
ATOM     21  O   UNL A   1      33.069  29.538  25.062  1.00  0.00    -0.374 OA
BRANCH  21  22
ATOM     22  C   UNL A   1      31.786  30.079  25.389  1.00  0.00     0.202 C 
BRANCH  22  23
ATOM     23  C   UNL A   1      31.782  31.222  26.409  1.00  0.00     0.261 C 
BRANCH  23  24
ATOM     24  O   UNL A   1      32.784  31.038  27.425  1.00  0.00    -0.460 OA
BRANCH  24  25
ATOM     25  C   UNL A   1      33.590  32.105  27.625  1.00  0.00     0.338 C 
ATOM     26  O   UNL A   1      33.266  33.286  27.657  1.00  0.00    -0.246 OA
BRANCH  25  27
ATOM     27  C   UNL A   1      34.951  31.662  27.978  1.00  0.00     0.060 A 
ATOM     28  C   UNL A   1      35.133  30.297  28.225  1.00  0.00     0.016 A 
ATOM     29  C   UNL A   1      36.011  32.559  28.143  1.00  0.00     0.016 A 
ATOM     30  C   UNL A   1      36.354  29.830  28.701  1.00  0.00     0.010 A 
ATOM     31  C   UNL A   1      37.239  32.087  28.627  1.00  0.00     0.010 A 
ATOM     32  C   UNL A   1      37.400  30.728  28.947  1.00  0.00    -0.014 A 
BRANCH  32  33
ATOM     33  C   UNL A   1      38.595  30.242  29.682  1.00  0.00     0.031 A 
ATOM     34  C   UNL A   1      38.817  30.694  31.099  1.00  0.00     0.074 A 
ATOM     35  C   UNL A   1      39.424  29.344  29.122  1.00  0.00     0.049 A 
ATOM     36  N   UNL A   1      39.744  30.334  31.951  1.00  0.00    -0.248 NA
ATOM     37  C   UNL A   1      37.862  31.680  31.630  1.00  0.00     0.031 C 
ATOM     38  C   UNL A   1      39.302  28.815  27.766  1.00  0.00     0.029 A 
ATOM     39  N   UNL A   1      40.529  28.711  29.634  1.00  0.00    -0.354 N 
ATOM     40  C   UNL A   1      39.476  31.035  33.119  1.00  0.00     0.074 A 
ATOM     41  C   UNL A   1      38.329  31.878  32.854  1.00  0.00     0.031 C 
ATOM     42  C   UNL A   1      40.298  27.937  27.550  1.00  0.00     0.029 A 
ATOM     43  C   UNL A   1      41.130  27.852  28.749  1.00  0.00     0.049 A 
ATOM     44  H   UNL A   1      40.860  28.860  30.550  1.00  0.00     0.167 HD
ATOM     45  C   UNL A   1      40.113  30.968  34.313  1.00  0.00     0.037 A 
ATOM     46  C   UNL A   1      42.230  27.088  28.891  1.00  0.00     0.037 A 
ATOM     47  C   UNL A   1      41.260  30.139  34.576  1.00  0.00     0.049 A 
ATOM     48  C   UNL A   1      42.952  27.067  30.214  1.00  0.00     0.074 A 
ATOM     49  C   UNL A   1      41.982  30.009  35.750  1.00  0.00     0.029 A 
ATOM     50  N   UNL A   1      41.855  29.299  33.646  1.00  0.00    -0.354 N 
ATOM     51  N   UNL A   1      42.672  27.712  31.321  1.00  0.00    -0.248 NA
ATOM     52  C   UNL A   1      44.132  26.197  30.310  1.00  0.00     0.031 C 
ATOM     53  C   UNL A   1      43.038  29.118  35.518  1.00  0.00     0.029 A 
ATOM     54  C   UNL A   1      42.945  28.659  34.214  1.00  0.00     0.049 A 
ATOM     55  H   UNL A   1      41.549  29.176  32.718  1.00  0.00     0.167 HD
ATOM     56  C   UNL A   1      43.625  27.311  32.248  1.00  0.00     0.074 A 
ATOM     57  C   UNL A   1      44.478  26.350  31.580  1.00  0.00     0.031 C 
ATOM     58  C   UNL A   1      43.783  27.705  33.536  1.00  0.00     0.037 A 
BRANCH  45  59
ATOM     59  C   UNL A   1      39.586  31.824  35.426  1.00  0.00     0.064 A 
ATOM     60  C   UNL A   1      40.025  33.145  35.603  1.00  0.00     0.173 A 
ATOM     61  C   UNL A   1      38.610  31.333  36.304  1.00  0.00     0.173 A 
ATOM     62  F   UNL A   1      40.969  33.656  34.799  1.00  0.00    -0.203 F 
ATOM     63  C   UNL A   1      39.521  33.936  36.632  1.00  0.00     0.198 A 
ATOM     64  C   UNL A   1      38.087  32.135  37.317  1.00  0.00     0.198 A 
ATOM     65  F   UNL A   1      38.155  30.077  36.176  1.00  0.00    -0.203 F 
ATOM     66  F   UNL A   1      39.984  35.181  36.808  1.00  0.00    -0.200 F 
ATOM     67  C   UNL A   1      38.548  33.433  37.483  1.00  0.00     0.200 A 
ATOM     68  F   UNL A   1      37.141  31.651  38.132  1.00  0.00    -0.200 F 
ATOM     69  F   UNL A   1      38.058  34.197  38.470  1.00  0.00    -0.200 F 
ENDBRANCH  45  59
BRANCH  46  70
ATOM     70  C   UNL A   1      42.721  26.276  27.747  1.00  0.00     0.064 A 
ATOM     71  C   UNL A   1      43.653  26.791  26.836  1.00  0.00     0.173 A 
ATOM     72  C   UNL A   1      42.245  24.975  27.530  1.00  0.00     0.173 A 
ATOM     73  F   UNL A   1      44.118  28.041  26.986  1.00  0.00    -0.203 F 
ATOM     74  C   UNL A   1      44.074  26.042  25.738  1.00  0.00     0.198 A 
ATOM     75  C   UNL A   1      42.689  24.217  26.449  1.00  0.00     0.198 A 
ATOM     76  F   UNL A   1      41.352  24.438  28.373  1.00  0.00    -0.203 F 
ATOM     77  F   UNL A   1      44.928  26.576  24.854  1.00  0.00    -0.200 F 
ATOM     78  C   UNL A   1      43.597  24.754  25.549  1.00  0.00     0.200 A 
ATOM     79  F   UNL A   1      42.233  22.969  26.277  1.00  0.00    -0.200 F 
ATOM     80  F   UNL A   1      44.001  24.034  24.495  1.00  0.00    -0.200 F 
ENDBRANCH  46  70
BRANCH  58  81
ATOM     81  C   UNL A   1      44.905  27.077  34.312  1.00  0.00     0.064 A 
ATOM     82  C   UNL A   1      44.705  25.933  35.098  1.00  0.00     0.173 A 
ATOM     83  C   UNL A   1      46.200  27.615  34.253  1.00  0.00     0.173 A 
ATOM     84  F   UNL A   1      43.482  25.389  35.198  1.00  0.00    -0.203 F 
ATOM     85  C   UNL A   1      45.752  25.370  35.823  1.00  0.00     0.198 A 
ATOM     86  C   UNL A   1      47.250  27.033  34.956  1.00  0.00     0.198 A 
ATOM     87  F   UNL A   1      46.447  28.704  33.510  1.00  0.00    -0.203 F 
ATOM     88  F   UNL A   1      45.524  24.309  36.610  1.00  0.00    -0.200 F 
ATOM     89  C   UNL A   1      47.024  25.917  35.748  1.00  0.00     0.200 A 
ATOM     90  F   UNL A   1      48.482  27.555  34.873  1.00  0.00    -0.200 F 
ATOM     91  F   UNL A   1      48.030  25.373  36.446  1.00  0.00    -0.200 F 
ENDBRANCH  58  81
ENDBRANCH  32  33
ENDBRANCH  25  27
ENDBRANCH  24  25
ENDBRANCH  23  24
ENDBRANCH  22  23
ENDBRANCH  21  22
ENDBRANCH   1  21
TORSDOF 17
ENDMDL
MODEL 2
REMARK VINA RESULT:     -10.6      4.208     10.052
REMARK SMILES O=C(NC[C@@H]1CC[C@@H](C(=O)OCCOCCOC(=O)c2ccc(-c3c4nc(c(-c5c(F)c(F)c(F)c(F)c5F)c5ccc([nH]5)c(-c5c(F)c(F)c(F)c(F)c5F)c5nc(c(-c6c(F)c(F)c(F)c(F)c6F)c6ccc3[nH]6)C=C5)C=C4)cc2)O1)NC1CC1
REMARK SMILES IDX 13 1 12 2 11 3 9 4 10 5 8 6 5 7 6 8 83 9 7 10 4 11 3 12 1 13
REMARK SMILES IDX 2 14 84 15 85 18 86 19 87 20 14 21 15 22 16 23 17 24 18 25
REMARK SMILES IDX 19 26 20 27 21 28 82 29 22 30 81 31 23 32 24 33 25 34 75 35
REMARK SMILES IDX 26 36 80 37 74 38 76 39 27 40 79 41 73 42 72 43 28 45 60 46
REMARK SMILES IDX 40 47 59 48 41 49 44 50 58 51 77 52 42 53 43 54 57 56 78 57
REMARK SMILES IDX 45 58 29 59 30 60 38 61 31 62 32 63 36 64 39 65 33 66 34 67
REMARK SMILES IDX 37 68 35 69 61 70 62 71 70 72 63 73 64 74 68 75 71 76 65 77
REMARK SMILES IDX 66 78 69 79 67 80 46 81 47 82 55 83 48 84 49 85 53 86 56 87
REMARK SMILES IDX 50 88 51 89 54 90 52 91
REMARK H PARENT 3 16 84 17 76 44 44 55
REMARK Flexibility Score: inf
ROOT
ATOM      1  C   UNL A   1      35.367  22.735  26.209  1.00  0.00     0.202 C 
ENDROOT
BRANCH   1   2
ATOM      2  C   UNL A   1      34.068  23.213  26.862  1.00  0.00     0.261 C 
BRANCH   2   3
ATOM      3  O   UNL A   1      33.047  23.361  25.864  1.00  0.00    -0.461 OA
BRANCH   3   4
ATOM      4  C   UNL A   1      31.950  24.076  26.234  1.00  0.00     0.335 C 
ATOM      5  O   UNL A   1      31.390  23.995  27.321  1.00  0.00    -0.249 OA
BRANCH   4   6
ATOM      6  C   UNL A   1      31.540  25.081  25.152  1.00  0.00     0.228 C 
ATOM      7  C   UNL A   1      32.413  26.033  23.204  1.00  0.00     0.138 C 
ATOM      8  C   UNL A   1      31.085  25.377  22.858  1.00  0.00     0.037 C 
ATOM      9  O   UNL A   1      32.557  25.952  24.634  1.00  0.00    -0.361 OA
ATOM     10  C   UNL A   1      30.955  24.352  23.955  1.00  0.00     0.047 C 
BRANCH   7  11
ATOM     11  C   UNL A   1      32.580  27.478  22.708  1.00  0.00     0.149 C 
BRANCH  11  12
ATOM     12  N   UNL A   1      32.217  28.486  23.699  1.00  0.00    -0.336 N 
ATOM     13  O   UNL A   1      31.019  29.967  24.840  1.00  0.00    -0.249 OA
ATOM     14  C   UNL A   1      31.085  29.210  23.874  1.00  0.00     0.315 C 
ATOM     15  N   UNL A   1      30.082  29.046  22.970  1.00  0.00    -0.335 N 
ATOM     16  H   UNL A   1      32.922  28.673  24.360  1.00  0.00     0.165 HD
ATOM     17  H   UNL A   1      30.217  28.427  22.216  1.00  0.00     0.165 HD
BRANCH  15  18
ATOM     18  C   UNL A   1      28.840  29.742  23.077  1.00  0.00     0.084 C 
ATOM     19  C   UNL A   1      27.981  29.975  21.865  1.00  0.00     0.027 C 
ATOM     20  C   UNL A   1      27.532  29.015  22.925  1.00  0.00     0.027 C 
ENDBRANCH  15  18
ENDBRANCH  11  12
ENDBRANCH   7  11
ENDBRANCH   4   6
ENDBRANCH   3   4
ENDBRANCH   2   3
ENDBRANCH   1   2
BRANCH   1  21
ATOM     21  O   UNL A   1      35.507  21.317  26.101  1.00  0.00    -0.374 OA
BRANCH  21  22
ATOM     22  C   UNL A   1      36.101  20.814  24.901  1.00  0.00     0.202 C 
BRANCH  22  23
ATOM     23  C   UNL A   1      37.555  20.346  25.021  1.00  0.00     0.261 C 
BRANCH  23  24
ATOM     24  O   UNL A   1      38.455  21.443  25.255  1.00  0.00    -0.460 OA
BRANCH  24  25
ATOM     25  C   UNL A   1      39.467  21.173  26.109  1.00  0.00     0.338 C 
ATOM     26  O   UNL A   1      40.077  20.118  26.230  1.00  0.00    -0.246 OA
BRANCH  25  27
ATOM     27  C   UNL A   1      39.888  22.399  26.812  1.00  0.00     0.060 A 
ATOM     28  C   UNL A   1      39.242  23.589  26.458  1.00  0.00     0.016 A 
ATOM     29  C   UNL A   1      40.938  22.410  27.734  1.00  0.00     0.016 A 
ATOM     30  C   UNL A   1      39.684  24.803  26.974  1.00  0.00     0.010 A 
ATOM     31  C   UNL A   1      41.385  23.635  28.250  1.00  0.00     0.010 A 
ATOM     32  C   UNL A   1      40.786  24.838  27.838  1.00  0.00    -0.014 A 
BRANCH  32  33
ATOM     33  C   UNL A   1      41.384  26.155  28.172  1.00  0.00     0.031 A 
ATOM     34  C   UNL A   1      42.779  26.466  27.699  1.00  0.00     0.074 A 
ATOM     35  C   UNL A   1      40.664  27.091  28.814  1.00  0.00     0.049 A 
ATOM     36  N   UNL A   1      43.464  27.577  27.806  1.00  0.00    -0.248 NA
ATOM     37  C   UNL A   1      43.494  25.383  27.007  1.00  0.00     0.031 C 
ATOM     38  C   UNL A   1      39.300  26.916  29.302  1.00  0.00     0.029 A 
ATOM     39  N   UNL A   1      40.983  28.382  29.155  1.00  0.00    -0.354 N 
ATOM     40  C   UNL A   1      44.681  27.331  27.185  1.00  0.00     0.074 A 
ATOM     41  C   UNL A   1      44.660  25.953  26.744  1.00  0.00     0.031 C 
ATOM     42  C   UNL A   1      38.895  28.059  29.885  1.00  0.00     0.029 A 
ATOM     43  C   UNL A   1      39.978  29.039  29.818  1.00  0.00     0.049 A 
ATOM     44  H   UNL A   1      41.852  28.797  28.944  1.00  0.00     0.167 HD
ATOM     45  C   UNL A   1      45.714  28.183  26.979  1.00  0.00     0.037 A 
ATOM     46  C   UNL A   1      39.940  30.289  30.319  1.00  0.00     0.037 A 
ATOM     47  C   UNL A   1      45.741  29.551  27.425  1.00  0.00     0.049 A 
ATOM     48  C   UNL A   1      41.122  31.203  30.120  1.00  0.00     0.074 A 
ATOM     49  C   UNL A   1      46.746  30.490  27.274  1.00  0.00     0.029 A 
ATOM     50  N   UNL A   1      44.712  30.175  28.116  1.00  0.00    -0.354 N 
ATOM     51  N   UNL A   1      42.256  30.969  29.504  1.00  0.00    -0.248 NA
ATOM     52  C   UNL A   1      41.010  32.560  30.672  1.00  0.00     0.031 C 
ATOM     53  C   UNL A   1      46.340  31.672  27.907  1.00  0.00     0.029 A 
ATOM     54  C   UNL A   1      45.064  31.482  28.411  1.00  0.00     0.049 A 
ATOM     55  H   UNL A   1      43.858  29.751  28.361  1.00  0.00     0.167 HD
ATOM     56  C   UNL A   1      42.981  32.152  29.576  1.00  0.00     0.074 A 
ATOM     57  C   UNL A   1      42.149  33.108  30.275  1.00  0.00     0.031 C 
ATOM     58  C   UNL A   1      44.224  32.421  29.108  1.00  0.00     0.037 A 
BRANCH  45  59
ATOM     59  C   UNL A   1      46.909  27.653  26.243  1.00  0.00     0.064 A 
ATOM     60  C   UNL A   1      46.992  27.716  24.843  1.00  0.00     0.173 A 
ATOM     61  C   UNL A   1      47.994  27.106  26.941  1.00  0.00     0.173 A 
ATOM     62  F   UNL A   1      45.973  28.215  24.128  1.00  0.00    -0.203 F 
ATOM     63  C   UNL A   1      48.111  27.231  24.169  1.00  0.00     0.198 A 
ATOM     64  C   UNL A   1      49.124  26.647  26.267  1.00  0.00     0.198 A 
ATOM     65  F   UNL A   1      47.966  27.025  28.281  1.00  0.00    -0.203 F 
ATOM     66  F   UNL A   1      48.152  27.264  22.830  1.00  0.00    -0.200 F 
ATOM     67  C   UNL A   1      49.178  26.704  24.882  1.00  0.00     0.200 A 
ATOM     68  F   UNL A   1      50.157  26.146  26.957  1.00  0.00    -0.200 F 
ATOM     69  F   UNL A   1      50.257  26.244  24.233  1.00  0.00    -0.200 F 
ENDBRANCH  45  59
BRANCH  46  70
ATOM     70  C   UNL A   1      38.739  30.754  31.059  1.00  0.00     0.064 A 
ATOM     71  C   UNL A   1      37.644  31.319  30.391  1.00  0.00     0.173 A 
ATOM     72  C   UNL A   1      38.674  30.664  32.458  1.00  0.00     0.173 A 
ATOM     73  F   UNL A   1      37.670  31.451  29.055  1.00  0.00    -0.203 F 
ATOM     74  C   UNL A   1      36.539  31.796  31.094  1.00  0.00     0.198 A 
ATOM     75  C   UNL A   1      37.557  31.115  33.157  1.00  0.00     0.198 A 
ATOM     76  F   UNL A   1      39.696  30.133  33.144  1.00  0.00    -0.203 F 
ATOM     77  F   UNL A   1      35.528  32.377  30.435  1.00  0.00    -0.200 F 
ATOM     78  C   UNL A   1      36.495  31.689  32.476  1.00  0.00     0.200 A 
ATOM     79  F   UNL A   1      37.515  30.999  34.491  1.00  0.00    -0.200 F 
ATOM     80  F   UNL A   1      35.433  32.147  33.152  1.00  0.00    -0.200 F 
ENDBRANCH  46  70
BRANCH  58  81
ATOM     81  C   UNL A   1      44.748  33.813  29.316  1.00  0.00     0.064 A 
ATOM     82  C   UNL A   1      44.508  34.836  28.386  1.00  0.00     0.173 A 
ATOM     83  C   UNL A   1      45.482  34.133  30.469  1.00  0.00     0.173 A 
ATOM     84  F   UNL A   1      43.824  34.577  27.261  1.00  0.00    -0.203 F 
ATOM     85  C   UNL A   1      45.012  36.118  28.586  1.00  0.00     0.198 A 
ATOM     86  C   UNL A   1      45.959  35.423  30.680  1.00  0.00     0.198 A 
ATOM     87  F   UNL A   1      45.733  33.194  31.393  1.00  0.00    -0.203 F 
ATOM     88  F   UNL A   1      44.816  37.065  27.658  1.00  0.00    -0.200 F 
ATOM     89  C   UNL A   1      45.732  36.412  29.734  1.00  0.00     0.200 A 
ATOM     90  F   UNL A   1      46.645  35.709  31.796  1.00  0.00    -0.200 F 
ATOM     91  F   UNL A   1      46.216  37.647  29.925  1.00  0.00    -0.200 F 
ENDBRANCH  58  81
ENDBRANCH  32  33
ENDBRANCH  25  27
ENDBRANCH  24  25
ENDBRANCH  23  24
ENDBRANCH  22  23
ENDBRANCH  21  22
ENDBRANCH   1  21
TORSDOF 17
ENDMDL
MODEL 3
REMARK VINA RESULT:     -10.6      3.545      8.787
REMARK SMILES O=C(NC[C@@H]1CC[C@@H](C(=O)OCCOCCOC(=O)c2ccc(-c3c4nc(c(-c5c(F)c(F)c(F)c(F)c5F)c5ccc([nH]5)c(-c5c(F)c(F)c(F)c(F)c5F)c5nc(c(-c6c(F)c(F)c(F)c(F)c6F)c6ccc3[nH]6)C=C5)C=C4)cc2)O1)NC1CC1
REMARK SMILES IDX 13 1 12 2 11 3 9 4 10 5 8 6 5 7 6 8 83 9 7 10 4 11 3 12 1 13
REMARK SMILES IDX 2 14 84 15 85 18 86 19 87 20 14 21 15 22 16 23 17 24 18 25
REMARK SMILES IDX 19 26 20 27 21 28 82 29 22 30 81 31 23 32 24 33 25 34 75 35
REMARK SMILES IDX 26 36 80 37 74 38 76 39 27 40 79 41 73 42 72 43 28 45 60 46
REMARK SMILES IDX 40 47 59 48 41 49 44 50 58 51 77 52 42 53 43 54 57 56 78 57
REMARK SMILES IDX 45 58 29 59 30 60 38 61 31 62 32 63 36 64 39 65 33 66 34 67
REMARK SMILES IDX 37 68 35 69 61 70 62 71 70 72 63 73 64 74 68 75 71 76 65 77
REMARK SMILES IDX 66 78 69 79 67 80 46 81 47 82 55 83 48 84 49 85 53 86 56 87
REMARK SMILES IDX 50 88 51 89 54 90 52 91
REMARK H PARENT 3 16 84 17 76 44 44 55
REMARK Flexibility Score: inf
ROOT
ATOM      1  C   UNL A   1      42.066  21.042  26.988  1.00  0.00     0.202 C 
ENDROOT
BRANCH   1   2
ATOM      2  C   UNL A   1      40.811  21.800  27.427  1.00  0.00     0.261 C 
BRANCH   2   3
ATOM      3  O   UNL A   1      40.056  22.204  26.275  1.00  0.00    -0.461 OA
BRANCH   3   4
ATOM      4  C   UNL A   1      39.183  21.285  25.781  1.00  0.00     0.335 C 
ATOM      5  O   UNL A   1      39.342  20.070  25.820  1.00  0.00    -0.249 OA
BRANCH   4   6
ATOM      6  C   UNL A   1      37.912  21.948  25.239  1.00  0.00     0.228 C 
ATOM      7  C   UNL A   1      35.612  21.960  25.651  1.00  0.00     0.138 C 
ATOM      8  C   UNL A   1      36.118  23.391  25.739  1.00  0.00     0.037 C 
ATOM      9  O   UNL A   1      36.716  21.157  25.195  1.00  0.00    -0.361 OA
ATOM     10  C   UNL A   1      37.576  23.182  26.057  1.00  0.00     0.047 C 
BRANCH   7  11
ATOM     11  C   UNL A   1      34.371  21.755  24.767  1.00  0.00     0.149 C 
BRANCH  11  12
ATOM     12  N   UNL A   1      33.427  20.778  25.296  1.00  0.00    -0.336 N 
ATOM     13  O   UNL A   1      32.508  18.829  25.835  1.00  0.00    -0.249 OA
ATOM     14  C   UNL A   1      33.411  19.424  25.250  1.00  0.00     0.315 C 
ATOM     15  N   UNL A   1      34.408  18.802  24.564  1.00  0.00    -0.335 N 
ATOM     16  H   UNL A   1      32.662  21.174  25.774  1.00  0.00     0.165 HD
ATOM     17  H   UNL A   1      35.089  19.351  24.113  1.00  0.00     0.165 HD
BRANCH  15  18
ATOM     18  C   UNL A   1      34.497  17.379  24.475  1.00  0.00     0.084 C 
ATOM     19  C   UNL A   1      33.276  16.548  24.194  1.00  0.00     0.027 C 
ATOM     20  C   UNL A   1      34.347  16.678  23.153  1.00  0.00     0.027 C 
ENDBRANCH  15  18
ENDBRANCH  11  12
ENDBRANCH   7  11
ENDBRANCH   4   6
ENDBRANCH   3   4
ENDBRANCH   2   3
ENDBRANCH   1   2
BRANCH   1  21
ATOM     21  O   UNL A   1      43.155  21.865  26.564  1.00  0.00    -0.374 OA
BRANCH  21  22
ATOM     22  C   UNL A   1      43.830  21.479  25.363  1.00  0.00     0.202 C 
BRANCH  22  23
ATOM     23  C   UNL A   1      44.572  22.598  24.626  1.00  0.00     0.261 C 
BRANCH  23  24
ATOM     24  O   UNL A   1      43.794  23.807  24.560  1.00  0.00    -0.460 OA
BRANCH  24  25
ATOM     25  C   UNL A   1      44.426  24.912  25.014  1.00  0.00     0.338 C 
ATOM     26  O   UNL A   1      45.504  25.358  24.642  1.00  0.00    -0.246 OA
BRANCH  25  27
ATOM     27  C   UNL A   1      43.557  25.653  25.947  1.00  0.00     0.060 A 
ATOM     28  C   UNL A   1      43.928  26.967  26.255  1.00  0.00     0.016 A 
ATOM     29  C   UNL A   1      42.454  25.063  26.572  1.00  0.00     0.016 A 
ATOM     30  C   UNL A   1      43.239  27.675  27.234  1.00  0.00     0.010 A 
ATOM     31  C   UNL A   1      41.764  25.777  27.562  1.00  0.00     0.010 A 
ATOM     32  C   UNL A   1      42.182  27.068  27.925  1.00  0.00    -0.014 A 
BRANCH  32  33
ATOM     33  C   UNL A   1      41.632  27.752  29.123  1.00  0.00     0.031 A 
ATOM     34  C   UNL A   1      42.340  27.598  30.442  1.00  0.00     0.074 A 
ATOM     35  C   UNL A   1      40.568  28.566  29.019  1.00  0.00     0.049 A 
ATOM     36  N   UNL A   1      42.084  28.166  31.593  1.00  0.00    -0.248 NA
ATOM     37  C   UNL A   1      43.494  26.685  30.464  1.00  0.00     0.031 C 
ATOM     38  C   UNL A   1      39.812  28.813  27.794  1.00  0.00     0.029 A 
ATOM     39  N   UNL A   1      39.946  29.344  29.963  1.00  0.00    -0.354 N 
ATOM     40  C   UNL A   1      43.051  27.693  32.471  1.00  0.00     0.074 A 
ATOM     41  C   UNL A   1      43.870  26.755  31.733  1.00  0.00     0.031 C 
ATOM     42  C   UNL A   1      38.822  29.684  28.061  1.00  0.00     0.029 A 
ATOM     43  C   UNL A   1      38.871  30.045  29.476  1.00  0.00     0.049 A 
ATOM     44  H   UNL A   1      40.243  29.395  30.902  1.00  0.00     0.167 HD
ATOM     45  C   UNL A   1      43.253  28.026  33.768  1.00  0.00     0.037 A 
ATOM     46  C   UNL A   1      38.021  30.880  30.106  1.00  0.00     0.037 A 
ATOM     47  C   UNL A   1      42.434  28.950  34.507  1.00  0.00     0.049 A 
ATOM     48  C   UNL A   1      38.238  31.197  31.563  1.00  0.00     0.074 A 
ATOM     49  C   UNL A   1      42.552  29.345  35.829  1.00  0.00     0.029 A 
ATOM     50  N   UNL A   1      41.339  29.623  33.986  1.00  0.00    -0.354 N 
ATOM     51  N   UNL A   1      39.174  30.766  32.375  1.00  0.00    -0.248 NA
ATOM     52  C   UNL A   1      37.288  32.130  32.186  1.00  0.00     0.031 C 
ATOM     53  C   UNL A   1      41.505  30.228  36.117  1.00  0.00     0.029 A 
ATOM     54  C   UNL A   1      40.762  30.418  34.963  1.00  0.00     0.049 A 
ATOM     55  H   UNL A   1      41.017  29.546  33.058  1.00  0.00     0.167 HD
ATOM     56  C   UNL A   1      38.939  31.391  33.594  1.00  0.00     0.074 A 
ATOM     57  C   UNL A   1      37.786  32.247  33.408  1.00  0.00     0.031 C 
ATOM     58  C   UNL A   1      39.615  31.265  34.762  1.00  0.00     0.037 A 
BRANCH  45  59
ATOM     59  C   UNL A   1      44.406  27.377  34.475  1.00  0.00     0.064 A 
ATOM     60  C   UNL A   1      44.270  26.128  35.100  1.00  0.00     0.173 A 
ATOM     61  C   UNL A   1      45.666  27.991  34.502  1.00  0.00     0.173 A 
ATOM     62  F   UNL A   1      43.081  25.507  35.117  1.00  0.00    -0.203 F 
ATOM     63  C   UNL A   1      45.350  25.527  35.745  1.00  0.00     0.198 A 
ATOM     64  C   UNL A   1      46.751  27.376  35.123  1.00  0.00     0.198 A 
ATOM     65  F   UNL A   1      45.849  29.184  33.917  1.00  0.00    -0.203 F 
ATOM     66  F   UNL A   1      45.187  24.354  36.371  1.00  0.00    -0.200 F 
ATOM     67  C   UNL A   1      46.590  26.149  35.749  1.00  0.00     0.200 A 
ATOM     68  F   UNL A   1      47.950  27.973  35.120  1.00  0.00    -0.200 F 
ATOM     69  F   UNL A   1      47.630  25.567  36.364  1.00  0.00    -0.200 F 
ENDBRANCH  45  59
BRANCH  46  70
ATOM     70  C   UNL A   1      36.883  31.477  29.361  1.00  0.00     0.064 A 
ATOM     71  C   UNL A   1      36.854  32.843  29.048  1.00  0.00     0.173 A 
ATOM     72  C   UNL A   1      35.787  30.694  28.969  1.00  0.00     0.173 A 
ATOM     73  F   UNL A   1      37.866  33.639  29.425  1.00  0.00    -0.203 F 
ATOM     74  C   UNL A   1      35.761  33.407  28.390  1.00  0.00     0.198 A 
ATOM     75  C   UNL A   1      34.710  31.253  28.286  1.00  0.00     0.198 A 
ATOM     76  F   UNL A   1      35.767  29.382  29.246  1.00  0.00    -0.203 F 
ATOM     77  F   UNL A   1      35.736  34.724  28.148  1.00  0.00    -0.200 F 
ATOM     78  C   UNL A   1      34.694  32.611  28.005  1.00  0.00     0.200 A 
ATOM     79  F   UNL A   1      33.686  30.477  27.906  1.00  0.00    -0.200 F 
ATOM     80  F   UNL A   1      33.644  33.152  27.373  1.00  0.00    -0.200 F 
ENDBRANCH  46  70
BRANCH  58  81
ATOM     81  C   UNL A   1      39.138  32.091  35.922  1.00  0.00     0.064 A 
ATOM     82  C   UNL A   1      38.272  31.565  36.891  1.00  0.00     0.173 A 
ATOM     83  C   UNL A   1      39.570  33.417  36.077  1.00  0.00     0.173 A 
ATOM     84  F   UNL A   1      37.820  30.306  36.780  1.00  0.00    -0.203 F 
ATOM     85  C   UNL A   1      37.828  32.347  37.955  1.00  0.00     0.198 A 
ATOM     86  C   UNL A   1      39.147  34.187  37.157  1.00  0.00     0.198 A 
ATOM     87  F   UNL A   1      40.405  33.966  35.182  1.00  0.00    -0.203 F 
ATOM     88  F   UNL A   1      36.957  31.839  38.838  1.00  0.00    -0.200 F 
ATOM     89  C   UNL A   1      38.270  33.654  38.089  1.00  0.00     0.200 A 
ATOM     90  F   UNL A   1      39.585  35.447  37.293  1.00  0.00    -0.200 F 
ATOM     91  F   UNL A   1      37.841  34.405  39.114  1.00  0.00    -0.200 F 
ENDBRANCH  58  81
ENDBRANCH  32  33
ENDBRANCH  25  27
ENDBRANCH  24  25
ENDBRANCH  23  24
ENDBRANCH  22  23
ENDBRANCH  21  22
ENDBRANCH   1  21
TORSDOF 17
ENDMDL
