MODEL 1
REMARK VINA RESULT:     -12.3      0.000      0.000
REMARK SMILES CC(C)c1ccc(NC(=O)C(=O)N/N=C/c2ccccc2C(=O)OCCOCCOC(=O)c2ccc(-c3c4nc(c(-c5c(F)c(F)c(F)c(F)c5F)c5ccc([nH]5)c(-c5c(F)c(F)c(F)c(F)c5F)c5nc(c(-c6c(F)c(F)c(F)c(F)c6F)c6ccc3[nH]6)C=C5)C=C4)cc2)cc1
REMARK SMILES IDX 25 1 24 2 22 3 23 4 21 5 16 6 17 7 18 8 20 9 19 10 15 11
REMARK SMILES IDX 14 12 13 13 11 14 12 15 9 17 8 18 10 20 7 21 4 22 5 23 97 24
REMARK SMILES IDX 6 25 96 26 2 27 1 28 3 29 26 30 27 31 28 32 29 33 30 34
REMARK SMILES IDX 31 35 32 36 33 37 34 38 95 39 35 40 94 41 36 42 37 43 38 44
REMARK SMILES IDX 88 45 39 46 93 47 87 48 89 49 40 50 92 51 86 52 85 53 41 55
REMARK SMILES IDX 73 56 53 57 72 58 54 59 57 60 71 61 90 62 55 63 56 64 70 66
REMARK SMILES IDX 91 67 58 68 42 69 43 70 51 71 44 72 45 73 49 74 52 75 46 76
REMARK SMILES IDX 47 77 50 78 48 79 74 80 75 81 83 82 76 83 77 84 81 85 84 86
REMARK SMILES IDX 78 87 79 88 82 89 80 90 59 91 60 92 68 93 61 94 62 95 66 96
REMARK SMILES IDX 69 97 63 98 64 99 67 100 65 101
REMARK H PARENT 13 16 8 19 89 54 57 65
REMARK Flexibility Score: inf
ROOT
ATOM      1  C   UNL A   1      33.095  25.444  22.117  1.00  0.00     0.261 C 
ENDROOT
BRANCH   1   2
ATOM      2  O   UNL A   1      34.291  24.654  22.220  1.00  0.00    -0.460 OA
BRANCH   2   3
ATOM      3  C   UNL A   1      34.210  23.504  22.924  1.00  0.00     0.338 C 
ATOM      4  O   UNL A   1      33.457  22.571  22.683  1.00  0.00    -0.246 OA
BRANCH   3   5
ATOM      5  C   UNL A   1      35.267  23.430  23.971  1.00  0.00     0.068 A 
ATOM      6  C   UNL A   1      35.272  24.152  25.173  1.00  0.00     0.009 A 
ATOM      7  C   UNL A   1      36.303  23.998  26.107  1.00  0.00     0.010 A 
ATOM      8  C   UNL A   1      37.369  23.145  25.822  1.00  0.00     0.001 A 
ATOM      9  C   UNL A   1      36.352  22.579  23.701  1.00  0.00     0.016 A 
ATOM     10  C   UNL A   1      37.402  22.451  24.613  1.00  0.00     0.001 A 
BRANCH   6  11
ATOM     11  C   UNL A   1      34.320  25.233  25.415  1.00  0.00     0.142 C 
ATOM     12  N   UNL A   1      33.235  25.092  26.112  1.00  0.00    -0.180 NA
BRANCH  12  13
ATOM     13  N   UNL A   1      32.475  26.233  26.152  1.00  0.00    -0.239 N 
ATOM     14  C   UNL A   1      31.095  26.274  26.259  1.00  0.00     0.329 C 
ATOM     15  O   UNL A   1      30.553  27.127  26.951  1.00  0.00    -0.262 OA
ATOM     16  H   UNL A   1      32.950  27.094  26.100  1.00  0.00     0.194 HD
BRANCH  14  17
ATOM     17  C   UNL A   1      30.278  25.220  25.488  1.00  0.00     0.315 C 
ATOM     18  N   UNL A   1      29.410  25.580  24.478  1.00  0.00    -0.318 N 
ATOM     19  H   UNL A   1      28.926  24.814  24.094  1.00  0.00     0.170 HD
ATOM     20  O   UNL A   1      30.323  24.035  25.821  1.00  0.00    -0.263 OA
BRANCH  18  21
ATOM     21  C   UNL A   1      29.069  26.804  23.881  1.00  0.00     0.041 A 
ATOM     22  C   UNL A   1      28.163  29.293  22.834  1.00  0.00    -0.045 A 
ATOM     23  C   UNL A   1      29.516  28.937  22.812  1.00  0.00     0.006 A 
ATOM     24  C   UNL A   1      27.265  28.364  23.376  1.00  0.00     0.006 A 
ATOM     25  C   UNL A   1      29.960  27.703  23.310  1.00  0.00     0.026 A 
ATOM     26  C   UNL A   1      27.709  27.133  23.875  1.00  0.00     0.026 A 
BRANCH  22  27
ATOM     27  C   UNL A   1      27.652  30.637  22.321  1.00  0.00     0.013 C 
ATOM     28  C   UNL A   1      28.044  31.847  23.176  1.00  0.00     0.012 C 
ATOM     29  C   UNL A   1      28.100  30.900  20.879  1.00  0.00     0.012 C 
ENDBRANCH  22  27
ENDBRANCH  18  21
ENDBRANCH  14  17
ENDBRANCH  12  13
ENDBRANCH   6  11
ENDBRANCH   3   5
ENDBRANCH   2   3
ENDBRANCH   1   2
BRANCH   1  30
ATOM     30  C   UNL A   1      33.430  26.925  22.310  1.00  0.00     0.202 C 
BRANCH  30  31
ATOM     31  O   UNL A   1      32.991  27.488  23.547  1.00  0.00    -0.374 OA
BRANCH  31  32
ATOM     32  C   UNL A   1      33.542  28.754  23.908  1.00  0.00     0.202 C 
BRANCH  32  33
ATOM     33  C   UNL A   1      32.616  29.683  24.700  1.00  0.00     0.261 C 
BRANCH  33  34
ATOM     34  O   UNL A   1      32.794  29.545  26.120  1.00  0.00    -0.460 OA
BRANCH  34  35
ATOM     35  C   UNL A   1      33.165  30.679  26.758  1.00  0.00     0.338 C 
ATOM     36  O   UNL A   1      32.490  31.683  26.946  1.00  0.00    -0.246 OA
BRANCH  35  37
ATOM     37  C   UNL A   1      34.495  30.505  27.364  1.00  0.00     0.060 A 
ATOM     38  C   UNL A   1      34.920  29.200  27.641  1.00  0.00     0.016 A 
ATOM     39  C   UNL A   1      35.282  31.601  27.722  1.00  0.00     0.016 A 
ATOM     40  C   UNL A   1      36.128  28.986  28.301  1.00  0.00     0.010 A 
ATOM     41  C   UNL A   1      36.494  31.382  28.385  1.00  0.00     0.010 A 
ATOM     42  C   UNL A   1      36.916  30.076  28.696  1.00  0.00    -0.014 A 
BRANCH  42  43
ATOM     43  C   UNL A   1      38.118  29.855  29.539  1.00  0.00     0.031 A 
ATOM     44  C   UNL A   1      39.182  28.908  29.058  1.00  0.00     0.074 A 
ATOM     45  C   UNL A   1      38.267  30.491  30.716  1.00  0.00     0.049 A 
ATOM     46  N   UNL A   1      40.269  28.495  29.661  1.00  0.00    -0.248 NA
ATOM     47  C   UNL A   1      38.990  28.342  27.713  1.00  0.00     0.031 C 
ATOM     48  C   UNL A   1      37.307  31.423  31.301  1.00  0.00     0.029 A 
ATOM     49  N   UNL A   1      39.276  30.421  31.646  1.00  0.00    -0.354 N 
ATOM     50  C   UNL A   1      40.881  27.619  28.774  1.00  0.00     0.074 A 
ATOM     51  C   UNL A   1      40.026  27.524  27.611  1.00  0.00     0.031 C 
ATOM     52  C   UNL A   1      37.755  31.812  32.507  1.00  0.00     0.029 A 
ATOM     53  C   UNL A   1      39.015  31.128  32.793  1.00  0.00     0.049 A 
ATOM     54  H   UNL A   1      40.107  29.912  31.503  1.00  0.00     0.167 HD
ATOM     55  C   UNL A   1      42.061  26.968  28.907  1.00  0.00     0.037 A 
ATOM     56  C   UNL A   1      39.693  31.178  33.958  1.00  0.00     0.037 A 
ATOM     57  C   UNL A   1      42.916  27.068  30.059  1.00  0.00     0.049 A 
ATOM     58  C   UNL A   1      40.964  30.383  34.116  1.00  0.00     0.074 A 
ATOM     59  C   UNL A   1      44.151  26.482  30.272  1.00  0.00     0.029 A 
ATOM     60  N   UNL A   1      42.619  27.799  31.200  1.00  0.00    -0.354 N 
ATOM     61  N   UNL A   1      41.562  29.594  33.257  1.00  0.00    -0.248 NA
ATOM     62  C   UNL A   1      41.652  30.484  35.412  1.00  0.00     0.031 C 
ATOM     63  C   UNL A   1      44.577  26.815  31.561  1.00  0.00     0.029 A 
ATOM     64  C   UNL A   1      43.635  27.655  32.131  1.00  0.00     0.049 A 
ATOM     65  H   UNL A   1      41.806  28.340  31.329  1.00  0.00     0.167 HD
ATOM     66  C   UNL A   1      42.705  29.128  33.894  1.00  0.00     0.074 A 
ATOM     67  C   UNL A   1      42.726  29.733  35.209  1.00  0.00     0.031 C 
ATOM     68  C   UNL A   1      43.653  28.276  33.431  1.00  0.00     0.037 A 
BRANCH  55  69
ATOM     69  C   UNL A   1      42.493  26.078  27.776  1.00  0.00     0.064 A 
ATOM     70  C   UNL A   1      42.088  24.737  27.699  1.00  0.00     0.173 A 
ATOM     71  C   UNL A   1      43.295  26.582  26.742  1.00  0.00     0.173 A 
ATOM     72  F   UNL A   1      41.330  24.202  28.668  1.00  0.00    -0.203 F 
ATOM     73  C   UNL A   1      42.495  23.926  26.642  1.00  0.00     0.198 A 
ATOM     74  C   UNL A   1      43.674  25.777  25.671  1.00  0.00     0.198 A 
ATOM     75  F   UNL A   1      43.706  27.860  26.764  1.00  0.00    -0.203 F 
ATOM     76  F   UNL A   1      42.136  22.635  26.614  1.00  0.00    -0.200 F 
ATOM     77  C   UNL A   1      43.279  24.448  25.626  1.00  0.00     0.200 A 
ATOM     78  F   UNL A   1      44.421  26.288  24.682  1.00  0.00    -0.200 F 
ATOM     79  F   UNL A   1      43.664  23.669  24.605  1.00  0.00    -0.200 F 
ENDBRANCH  55  69
BRANCH  56  80
ATOM     80  C   UNL A   1      39.166  31.985  35.088  1.00  0.00     0.064 A 
ATOM     81  C   UNL A   1      39.420  33.360  35.175  1.00  0.00     0.173 A 
ATOM     82  C   UNL A   1      38.421  31.392  36.119  1.00  0.00     0.173 A 
ATOM     83  F   UNL A   1      40.154  33.964  34.229  1.00  0.00    -0.203 F 
ATOM     84  C   UNL A   1      38.967  34.109  36.259  1.00  0.00     0.198 A 
ATOM     85  C   UNL A   1      37.944  32.147  37.187  1.00  0.00     0.198 A 
ATOM     86  F   UNL A   1      38.153  30.078  36.085  1.00  0.00    -0.203 F 
ATOM     87  F   UNL A   1      39.268  35.413  36.342  1.00  0.00    -0.200 F 
ATOM     88  C   UNL A   1      38.224  33.504  37.261  1.00  0.00     0.200 A 
ATOM     89  F   UNL A   1      37.217  31.561  38.149  1.00  0.00    -0.200 F 
ATOM     90  F   UNL A   1      37.786  34.225  38.301  1.00  0.00    -0.200 F 
ENDBRANCH  56  80
BRANCH  68  91
ATOM     91  C   UNL A   1      44.825  27.989  34.325  1.00  0.00     0.064 A 
ATOM     92  C   UNL A   1      45.959  28.815  34.347  1.00  0.00     0.173 A 
ATOM     93  C   UNL A   1      44.793  26.896  35.206  1.00  0.00     0.173 A 
ATOM     94  F   UNL A   1      46.046  29.864  33.515  1.00  0.00    -0.203 F 
ATOM     95  C   UNL A   1      47.028  28.540  35.198  1.00  0.00     0.198 A 
ATOM     96  C   UNL A   1      45.849  26.644  36.077  1.00  0.00     0.198 A 
ATOM     97  F   UNL A   1      43.729  26.080  35.232  1.00  0.00    -0.203 F 
ATOM     98  F   UNL A   1      48.122  29.315  35.166  1.00  0.00    -0.200 F 
ATOM     99  C   UNL A   1      46.968  27.461  36.066  1.00  0.00     0.200 A 
ATOM    100  F   UNL A   1      45.783  25.609  36.927  1.00  0.00    -0.200 F 
ATOM    101  F   UNL A   1      47.995  27.205  36.890  1.00  0.00    -0.200 F 
ENDBRANCH  68  91
ENDBRANCH  42  43
ENDBRANCH  35  37
ENDBRANCH  34  35
ENDBRANCH  33  34
ENDBRANCH  32  33
ENDBRANCH  31  32
ENDBRANCH  30  31
ENDBRANCH   1  30
TORSDOF 19
ENDMDL
MODEL 2
REMARK VINA RESULT:     -12.2      2.395      7.199
REMARK SMILES CC(C)c1ccc(NC(=O)C(=O)N/N=C/c2ccccc2C(=O)OCCOCCOC(=O)c2ccc(-c3c4nc(c(-c5c(F)c(F)c(F)c(F)c5F)c5ccc([nH]5)c(-c5c(F)c(F)c(F)c(F)c5F)c5nc(c(-c6c(F)c(F)c(F)c(F)c6F)c6ccc3[nH]6)C=C5)C=C4)cc2)cc1
REMARK SMILES IDX 25 1 24 2 22 3 23 4 21 5 16 6 17 7 18 8 20 9 19 10 15 11
REMARK SMILES IDX 14 12 13 13 11 14 12 15 9 17 8 18 10 20 7 21 4 22 5 23 97 24
REMARK SMILES IDX 6 25 96 26 2 27 1 28 3 29 26 30 27 31 28 32 29 33 30 34
REMARK SMILES IDX 31 35 32 36 33 37 34 38 95 39 35 40 94 41 36 42 37 43 38 44
REMARK SMILES IDX 88 45 39 46 93 47 87 48 89 49 40 50 92 51 86 52 85 53 41 55
REMARK SMILES IDX 73 56 53 57 72 58 54 59 57 60 71 61 90 62 55 63 56 64 70 66
REMARK SMILES IDX 91 67 58 68 42 69 43 70 51 71 44 72 45 73 49 74 52 75 46 76
REMARK SMILES IDX 47 77 50 78 48 79 74 80 75 81 83 82 76 83 77 84 81 85 84 86
REMARK SMILES IDX 78 87 79 88 82 89 80 90 59 91 60 92 68 93 61 94 62 95 66 96
REMARK SMILES IDX 69 97 63 98 64 99 67 100 65 101
REMARK H PARENT 13 16 8 19 89 54 57 65
REMARK Flexibility Score: inf
ROOT
ATOM      1  C   UNL A   1      33.053  25.221  22.206  1.00  0.00     0.261 C 
ENDROOT
BRANCH   1   2
ATOM      2  O   UNL A   1      34.230  24.398  22.259  1.00  0.00    -0.460 OA
BRANCH   2   3
ATOM      3  C   UNL A   1      34.183  23.309  23.056  1.00  0.00     0.338 C 
ATOM      4  O   UNL A   1      33.390  22.383  22.955  1.00  0.00    -0.246 OA
BRANCH   3   5
ATOM      5  C   UNL A   1      35.325  23.284  24.013  1.00  0.00     0.068 A 
ATOM      6  C   UNL A   1      35.413  24.039  25.192  1.00  0.00     0.009 A 
ATOM      7  C   UNL A   1      36.521  23.931  26.040  1.00  0.00     0.010 A 
ATOM      8  C   UNL A   1      37.578  23.091  25.690  1.00  0.00     0.001 A 
ATOM      9  C   UNL A   1      36.401  22.447  23.677  1.00  0.00     0.016 A 
ATOM     10  C   UNL A   1      37.526  22.363  24.500  1.00  0.00     0.001 A 
BRANCH   6  11
ATOM     11  C   UNL A   1      34.462  25.108  25.484  1.00  0.00     0.142 C 
ATOM     12  N   UNL A   1      33.343  24.922  26.112  1.00  0.00    -0.180 NA
BRANCH  12  13
ATOM     13  N   UNL A   1      32.594  26.067  26.218  1.00  0.00    -0.239 N 
ATOM     14  C   UNL A   1      31.228  26.113  26.439  1.00  0.00     0.329 C 
ATOM     15  O   UNL A   1      30.749  26.966  27.175  1.00  0.00    -0.262 OA
ATOM     16  H   UNL A   1      33.067  26.925  26.129  1.00  0.00     0.194 HD
BRANCH  14  17
ATOM     17  C   UNL A   1      30.345  25.064  25.736  1.00  0.00     0.315 C 
ATOM     18  N   UNL A   1      29.457  25.422  24.742  1.00  0.00    -0.318 N 
ATOM     19  H   UNL A   1      28.931  24.663  24.403  1.00  0.00     0.170 HD
ATOM     20  O   UNL A   1      30.356  23.892  26.110  1.00  0.00    -0.263 OA
BRANCH  18  21
ATOM     21  C   UNL A   1      29.142  26.637  24.112  1.00  0.00     0.041 A 
ATOM     22  C   UNL A   1      28.269  29.095  22.967  1.00  0.00    -0.045 A 
ATOM     23  C   UNL A   1      29.629  28.798  23.121  1.00  0.00     0.006 A 
ATOM     24  C   UNL A   1      27.351  28.121  23.383  1.00  0.00     0.006 A 
ATOM     25  C   UNL A   1      30.059  27.580  23.667  1.00  0.00     0.026 A 
ATOM     26  C   UNL A   1      27.781  26.906  23.930  1.00  0.00     0.026 A 
BRANCH  22  27
ATOM     27  C   UNL A   1      27.770  30.420  22.399  1.00  0.00     0.013 C 
ATOM     28  C   UNL A   1      27.597  31.542  23.429  1.00  0.00     0.012 C 
ATOM     29  C   UNL A   1      28.679  30.933  21.276  1.00  0.00     0.012 C 
ENDBRANCH  22  27
ENDBRANCH  18  21
ENDBRANCH  14  17
ENDBRANCH  12  13
ENDBRANCH   6  11
ENDBRANCH   3   5
ENDBRANCH   2   3
ENDBRANCH   1   2
BRANCH   1  30
ATOM     30  C   UNL A   1      33.442  26.697  22.324  1.00  0.00     0.202 C 
BRANCH  30  31
ATOM     31  O   UNL A   1      33.149  27.299  23.586  1.00  0.00    -0.374 OA
BRANCH  31  32
ATOM     32  C   UNL A   1      33.773  28.554  23.859  1.00  0.00     0.202 C 
BRANCH  32  33
ATOM     33  C   UNL A   1      33.251  29.305  25.088  1.00  0.00     0.261 C 
BRANCH  33  34
ATOM     34  O   UNL A   1      33.913  28.893  26.297  1.00  0.00    -0.460 OA
BRANCH  34  35
ATOM     35  C   UNL A   1      34.122  29.883  27.195  1.00  0.00     0.338 C 
ATOM     36  O   UNL A   1      33.303  30.687  27.622  1.00  0.00    -0.246 OA
BRANCH  35  37
ATOM     37  C   UNL A   1      35.485  29.787  27.743  1.00  0.00     0.060 A 
ATOM     38  C   UNL A   1      36.557  29.970  26.861  1.00  0.00     0.016 A 
ATOM     39  C   UNL A   1      35.711  29.452  29.079  1.00  0.00     0.016 A 
ATOM     40  C   UNL A   1      37.864  29.795  27.308  1.00  0.00     0.010 A 
ATOM     41  C   UNL A   1      37.026  29.276  29.524  1.00  0.00     0.010 A 
ATOM     42  C   UNL A   1      38.109  29.427  28.639  1.00  0.00    -0.014 A 
BRANCH  42  43
ATOM     43  C   UNL A   1      39.488  29.083  29.071  1.00  0.00     0.031 A 
ATOM     44  C   UNL A   1      40.269  30.083  29.878  1.00  0.00     0.074 A 
ATOM     45  C   UNL A   1      40.038  27.896  28.756  1.00  0.00     0.049 A 
ATOM     46  N   UNL A   1      41.512  30.037  30.289  1.00  0.00    -0.248 NA
ATOM     47  C   UNL A   1      39.552  31.307  30.269  1.00  0.00     0.031 C 
ATOM     48  C   UNL A   1      39.393  26.846  27.972  1.00  0.00     0.029 A 
ATOM     49  N   UNL A   1      41.283  27.388  29.036  1.00  0.00    -0.354 N 
ATOM     50  C   UNL A   1      41.724  31.224  30.977  1.00  0.00     0.074 A 
ATOM     51  C   UNL A   1      40.500  31.990  30.893  1.00  0.00     0.031 C 
ATOM     52  C   UNL A   1      40.259  25.833  27.803  1.00  0.00     0.029 A 
ATOM     53  C   UNL A   1      41.531  26.179  28.436  1.00  0.00     0.049 A 
ATOM     54  H   UNL A   1      41.936  27.848  29.613  1.00  0.00     0.167 HD
ATOM     55  C   UNL A   1      42.833  31.632  31.639  1.00  0.00     0.037 A 
ATOM     56  C   UNL A   1      42.669  25.459  28.366  1.00  0.00     0.037 A 
ATOM     57  C   UNL A   1      44.048  30.868  31.731  1.00  0.00     0.049 A 
ATOM     58  C   UNL A   1      43.916  25.968  29.043  1.00  0.00     0.074 A 
ATOM     59  C   UNL A   1      45.212  31.174  32.413  1.00  0.00     0.029 A 
ATOM     60  N   UNL A   1      44.258  29.644  31.112  1.00  0.00    -0.354 N 
ATOM     61  N   UNL A   1      44.097  27.068  29.731  1.00  0.00    -0.248 NA
ATOM     62  C   UNL A   1      45.121  25.132  28.927  1.00  0.00     0.031 C 
ATOM     63  C   UNL A   1      46.144  30.163  32.165  1.00  0.00     0.029 A 
ATOM     64  C   UNL A   1      45.543  29.197  31.374  1.00  0.00     0.049 A 
ATOM     65  H   UNL A   1      43.593  29.165  30.567  1.00  0.00     0.167 HD
ATOM     66  C   UNL A   1      45.421  27.044  30.152  1.00  0.00     0.074 A 
ATOM     67  C   UNL A   1      45.996  25.813  29.653  1.00  0.00     0.031 C 
ATOM     68  C   UNL A   1      46.099  27.960  30.887  1.00  0.00     0.037 A 
BRANCH  55  69
ATOM     69  C   UNL A   1      42.786  32.975  32.310  1.00  0.00     0.064 A 
ATOM     70  C   UNL A   1      42.367  33.118  33.641  1.00  0.00     0.173 A 
ATOM     71  C   UNL A   1      43.197  34.126  31.624  1.00  0.00     0.173 A 
ATOM     72  F   UNL A   1      41.952  32.049  34.339  1.00  0.00    -0.203 F 
ATOM     73  C   UNL A   1      42.332  34.370  34.251  1.00  0.00     0.198 A 
ATOM     74  C   UNL A   1      43.191  35.372  32.246  1.00  0.00     0.198 A 
ATOM     75  F   UNL A   1      43.613  34.045  30.351  1.00  0.00    -0.203 F 
ATOM     76  F   UNL A   1      41.881  34.490  35.507  1.00  0.00    -0.200 F 
ATOM     77  C   UNL A   1      42.752  35.494  33.556  1.00  0.00     0.200 A 
ATOM     78  F   UNL A   1      43.610  36.456  31.578  1.00  0.00    -0.200 F 
ATOM     79  F   UNL A   1      42.726  36.697  34.146  1.00  0.00    -0.200 F 
ENDBRANCH  55  69
BRANCH  56  80
ATOM     80  C   UNL A   1      42.696  24.190  27.594  1.00  0.00     0.064 A 
ATOM     81  C   UNL A   1      42.424  22.962  28.213  1.00  0.00     0.173 A 
ATOM     82  C   UNL A   1      43.023  24.176  26.230  1.00  0.00     0.173 A 
ATOM     83  F   UNL A   1      42.137  22.923  29.522  1.00  0.00    -0.203 F 
ATOM     84  C   UNL A   1      42.496  21.767  27.501  1.00  0.00     0.198 A 
ATOM     85  C   UNL A   1      43.066  22.983  25.513  1.00  0.00     0.198 A 
ATOM     86  F   UNL A   1      43.296  25.324  25.593  1.00  0.00    -0.203 F 
ATOM     87  F   UNL A   1      42.280  20.602  28.129  1.00  0.00    -0.200 F 
ATOM     88  C   UNL A   1      42.811  21.778  26.151  1.00  0.00     0.200 A 
ATOM     89  F   UNL A   1      43.361  22.999  24.206  1.00  0.00    -0.200 F 
ATOM     90  F   UNL A   1      42.878  20.628  25.467  1.00  0.00    -0.200 F 
ENDBRANCH  56  80
BRANCH  68  91
ATOM     91  C   UNL A   1      47.523  27.644  31.248  1.00  0.00     0.064 A 
ATOM     92  C   UNL A   1      48.601  28.103  30.476  1.00  0.00     0.173 A 
ATOM     93  C   UNL A   1      47.812  26.908  32.408  1.00  0.00     0.173 A 
ATOM     94  F   UNL A   1      48.378  28.797  29.351  1.00  0.00    -0.203 F 
ATOM     95  C   UNL A   1      49.914  27.812  30.839  1.00  0.00     0.198 A 
ATOM     96  C   UNL A   1      49.127  26.648  32.784  1.00  0.00     0.198 A 
ATOM     97  F   UNL A   1      46.819  26.453  33.185  1.00  0.00    -0.203 F 
ATOM     98  F   UNL A   1      50.927  28.219  30.060  1.00  0.00    -0.200 F 
ATOM     99  C   UNL A   1      50.176  27.093  31.995  1.00  0.00     0.200 A 
ATOM    100  F   UNL A   1      49.378  25.966  33.910  1.00  0.00    -0.200 F 
ATOM    101  F   UNL A   1      51.441  26.824  32.346  1.00  0.00    -0.200 F 
ENDBRANCH  68  91
ENDBRANCH  42  43
ENDBRANCH  35  37
ENDBRANCH  34  35
ENDBRANCH  33  34
ENDBRANCH  32  33
ENDBRANCH  31  32
ENDBRANCH  30  31
ENDBRANCH   1  30
TORSDOF 19
ENDMDL
MODEL 3
REMARK VINA RESULT:     -12.1      2.328      5.196
REMARK SMILES CC(C)c1ccc(NC(=O)C(=O)N/N=C/c2ccccc2C(=O)OCCOCCOC(=O)c2ccc(-c3c4nc(c(-c5c(F)c(F)c(F)c(F)c5F)c5ccc([nH]5)c(-c5c(F)c(F)c(F)c(F)c5F)c5nc(c(-c6c(F)c(F)c(F)c(F)c6F)c6ccc3[nH]6)C=C5)C=C4)cc2)cc1
REMARK SMILES IDX 25 1 24 2 22 3 23 4 21 5 16 6 17 7 18 8 20 9 19 10 15 11
REMARK SMILES IDX 14 12 13 13 11 14 12 15 9 17 8 18 10 20 7 21 4 22 5 23 97 24
REMARK SMILES IDX 6 25 96 26 2 27 1 28 3 29 26 30 27 31 28 32 29 33 30 34
REMARK SMILES IDX 31 35 32 36 33 37 34 38 95 39 35 40 94 41 36 42 37 43 38 44
REMARK SMILES IDX 88 45 39 46 93 47 87 48 89 49 40 50 92 51 86 52 85 53 41 55
REMARK SMILES IDX 73 56 53 57 72 58 54 59 57 60 71 61 90 62 55 63 56 64 70 66
REMARK SMILES IDX 91 67 58 68 42 69 43 70 51 71 44 72 45 73 49 74 52 75 46 76
REMARK SMILES IDX 47 77 50 78 48 79 74 80 75 81 83 82 76 83 77 84 81 85 84 86
REMARK SMILES IDX 78 87 79 88 82 89 80 90 59 91 60 92 68 93 61 94 62 95 66 96
REMARK SMILES IDX 69 97 63 98 64 99 67 100 65 101
REMARK H PARENT 13 16 8 19 89 54 57 65
REMARK Flexibility Score: inf
ROOT
ATOM      1  C   UNL A   1      33.539  29.151  26.150  1.00  0.00     0.261 C 
ENDROOT
BRANCH   1   2
ATOM      2  O   UNL A   1      32.282  28.673  25.643  1.00  0.00    -0.460 OA
BRANCH   2   3
ATOM      3  C   UNL A   1      32.259  28.248  24.361  1.00  0.00     0.338 C 
ATOM      4  O   UNL A   1      33.185  27.711  23.769  1.00  0.00    -0.246 OA
BRANCH   3   5
ATOM      5  C   UNL A   1      30.898  28.376  23.768  1.00  0.00     0.068 A 
ATOM      6  C   UNL A   1      29.805  27.547  24.058  1.00  0.00     0.009 A 
ATOM      7  C   UNL A   1      28.555  27.761  23.464  1.00  0.00     0.010 A 
ATOM      8  C   UNL A   1      28.402  28.788  22.534  1.00  0.00     0.001 A 
ATOM      9  C   UNL A   1      30.723  29.403  22.826  1.00  0.00     0.016 A 
ATOM     10  C   UNL A   1      29.489  29.597  22.202  1.00  0.00     0.001 A 
BRANCH   6  11
ATOM     11  C   UNL A   1      29.966  26.317  24.828  1.00  0.00     0.142 C 
ATOM     12  N   UNL A   1      30.303  25.180  24.303  1.00  0.00    -0.180 NA
BRANCH  12  13
ATOM     13  N   UNL A   1      30.337  24.158  25.219  1.00  0.00    -0.239 N 
ATOM     14  C   UNL A   1      31.311  23.982  26.187  1.00  0.00     0.329 C 
ATOM     15  O   UNL A   1      31.006  23.592  27.307  1.00  0.00    -0.262 OA
ATOM     16  H   UNL A   1      29.609  23.497  25.184  1.00  0.00     0.194 HD
BRANCH  14  17
ATOM     17  C   UNL A   1      32.771  24.292  25.809  1.00  0.00     0.315 C 
ATOM     18  N   UNL A   1      33.578  23.342  25.216  1.00  0.00    -0.318 N 
ATOM     19  H   UNL A   1      34.497  23.659  25.060  1.00  0.00     0.170 HD
ATOM     20  O   UNL A   1      33.274  25.375  26.109  1.00  0.00    -0.263 OA
BRANCH  18  21
ATOM     21  C   UNL A   1      33.369  22.021  24.788  1.00  0.00     0.041 A 
ATOM     22  C   UNL A   1      32.976  19.267  24.178  1.00  0.00    -0.045 A 
ATOM     23  C   UNL A   1      32.423  20.280  23.387  1.00  0.00     0.006 A 
ATOM     24  C   UNL A   1      33.750  19.663  25.276  1.00  0.00     0.006 A 
ATOM     25  C   UNL A   1      32.633  21.636  23.676  1.00  0.00     0.026 A 
ATOM     26  C   UNL A   1      33.957  21.018  25.566  1.00  0.00     0.026 A 
BRANCH  22  27
ATOM     27  C   UNL A   1      32.747  17.784  23.903  1.00  0.00     0.013 C 
ATOM     28  C   UNL A   1      33.890  17.078  23.165  1.00  0.00     0.012 C 
ATOM     29  C   UNL A   1      32.453  17.007  25.192  1.00  0.00     0.012 C 
ENDBRANCH  22  27
ENDBRANCH  18  21
ENDBRANCH  14  17
ENDBRANCH  12  13
ENDBRANCH   6  11
ENDBRANCH   3   5
ENDBRANCH   2   3
ENDBRANCH   1   2
BRANCH   1  30
ATOM     30  C   UNL A   1      33.340  30.498  26.851  1.00  0.00     0.202 C 
BRANCH  30  31
ATOM     31  O   UNL A   1      31.983  30.934  26.946  1.00  0.00    -0.374 OA
BRANCH  31  32
ATOM     32  C   UNL A   1      31.752  32.338  26.828  1.00  0.00     0.202 C 
BRANCH  32  33
ATOM     33  C   UNL A   1      32.760  33.242  27.546  1.00  0.00     0.261 C 
BRANCH  33  34
ATOM     34  O   UNL A   1      32.169  34.482  27.972  1.00  0.00    -0.460 OA
BRANCH  34  35
ATOM     35  C   UNL A   1      32.991  35.286  28.687  1.00  0.00     0.338 C 
ATOM     36  O   UNL A   1      32.792  36.448  29.018  1.00  0.00    -0.246 OA
BRANCH  35  37
ATOM     37  C   UNL A   1      34.147  34.518  29.175  1.00  0.00     0.060 A 
ATOM     38  C   UNL A   1      33.949  33.658  30.262  1.00  0.00     0.016 A 
ATOM     39  C   UNL A   1      35.420  34.691  28.627  1.00  0.00     0.016 A 
ATOM     40  C   UNL A   1      35.029  32.982  30.822  1.00  0.00     0.010 A 
ATOM     41  C   UNL A   1      36.504  34.010  29.193  1.00  0.00     0.010 A 
ATOM     42  C   UNL A   1      36.320  33.167  30.305  1.00  0.00    -0.014 A 
BRANCH  42  43
ATOM     43  C   UNL A   1      37.490  32.576  31.002  1.00  0.00     0.031 A 
ATOM     44  C   UNL A   1      38.223  31.433  30.355  1.00  0.00     0.074 A 
ATOM     45  C   UNL A   1      37.901  33.050  32.192  1.00  0.00     0.049 A 
ATOM     46  N   UNL A   1      39.211  30.707  30.814  1.00  0.00    -0.248 NA
ATOM     47  C   UNL A   1      37.773  31.052  29.007  1.00  0.00     0.031 C 
ATOM     48  C   UNL A   1      37.273  34.143  32.931  1.00  0.00     0.029 A 
ATOM     49  N   UNL A   1      38.932  32.646  33.005  1.00  0.00    -0.354 N 
ATOM     50  C   UNL A   1      39.493  29.783  29.817  1.00  0.00     0.074 A 
ATOM     51  C   UNL A   1      38.547  30.009  28.747  1.00  0.00     0.031 C 
ATOM     52  C   UNL A   1      37.910  34.301  34.104  1.00  0.00     0.029 A 
ATOM     53  C   UNL A   1      38.966  33.296  34.213  1.00  0.00     0.049 A 
ATOM     54  H   UNL A   1      39.585  31.956  32.745  1.00  0.00     0.167 HD
ATOM     55  C   UNL A   1      40.468  28.844  29.785  1.00  0.00     0.037 A 
ATOM     56  C   UNL A   1      39.731  33.071  35.301  1.00  0.00     0.037 A 
ATOM     57  C   UNL A   1      41.416  28.623  30.845  1.00  0.00     0.049 A 
ATOM     58  C   UNL A   1      40.758  31.968  35.276  1.00  0.00     0.074 A 
ATOM     59  C   UNL A   1      42.467  27.726  30.891  1.00  0.00     0.029 A 
ATOM     60  N   UNL A   1      41.420  29.306  32.053  1.00  0.00    -0.354 N 
ATOM     61  N   UNL A   1      41.052  31.129  34.313  1.00  0.00    -0.248 NA
ATOM     62  C   UNL A   1      41.558  31.779  36.496  1.00  0.00     0.031 C 
ATOM     63  C   UNL A   1      43.075  27.828  32.146  1.00  0.00     0.029 A 
ATOM     64  C   UNL A   1      42.439  28.829  32.861  1.00  0.00     0.049 A 
ATOM     65  H   UNL A   1      40.792  30.023  32.299  1.00  0.00     0.167 HD
ATOM     66  C   UNL A   1      42.084  30.334  34.797  1.00  0.00     0.074 A 
ATOM     67  C   UNL A   1      42.376  30.800  36.137  1.00  0.00     0.031 C 
ATOM     68  C   UNL A   1      42.732  29.312  34.187  1.00  0.00     0.037 A 
BRANCH  55  69
ATOM     69  C   UNL A   1      40.553  27.973  28.564  1.00  0.00     0.064 A 
ATOM     70  C   UNL A   1      41.313  28.346  27.445  1.00  0.00     0.173 A 
ATOM     71  C   UNL A   1      39.894  26.736  28.527  1.00  0.00     0.173 A 
ATOM     72  F   UNL A   1      41.954  29.524  27.425  1.00  0.00    -0.203 F 
ATOM     73  C   UNL A   1      41.385  27.525  26.322  1.00  0.00     0.198 A 
ATOM     74  C   UNL A   1      39.993  25.903  27.415  1.00  0.00     0.198 A 
ATOM     75  F   UNL A   1      39.158  26.328  29.573  1.00  0.00    -0.203 F 
ATOM     76  F   UNL A   1      42.076  27.924  25.245  1.00  0.00    -0.200 F 
ATOM     77  C   UNL A   1      40.732  26.302  26.311  1.00  0.00     0.200 A 
ATOM     78  F   UNL A   1      39.372  24.715  27.411  1.00  0.00    -0.200 F 
ATOM     79  F   UNL A   1      40.807  25.510  25.233  1.00  0.00    -0.200 F 
ENDBRANCH  55  69
BRANCH  56  80
ATOM     80  C   UNL A   1      39.533  33.887  36.527  1.00  0.00     0.064 A 
ATOM     81  C   UNL A   1      40.163  35.130  36.678  1.00  0.00     0.173 A 
ATOM     82  C   UNL A   1      38.733  33.427  37.584  1.00  0.00     0.173 A 
ATOM     83  F   UNL A   1      40.961  35.596  35.707  1.00  0.00    -0.203 F 
ATOM     84  C   UNL A   1      40.016  35.873  37.847  1.00  0.00     0.198 A 
ATOM     85  C   UNL A   1      38.565  34.185  38.741  1.00  0.00     0.198 A 
ATOM     86  F   UNL A   1      38.113  32.242  37.491  1.00  0.00    -0.203 F 
ATOM     87  F   UNL A   1      40.670  37.035  37.985  1.00  0.00    -0.200 F 
ATOM     88  C   UNL A   1      39.213  35.404  38.875  1.00  0.00     0.200 A 
ATOM     89  F   UNL A   1      37.779  33.732  39.728  1.00  0.00    -0.200 F 
ATOM     90  F   UNL A   1      39.071  36.121  39.997  1.00  0.00    -0.200 F 
ENDBRANCH  56  80
BRANCH  68  91
ATOM     91  C   UNL A   1      43.860  28.661  34.934  1.00  0.00     0.064 A 
ATOM     92  C   UNL A   1      45.175  29.144  34.856  1.00  0.00     0.173 A 
ATOM     93  C   UNL A   1      43.612  27.563  35.774  1.00  0.00     0.173 A 
ATOM     94  F   UNL A   1      45.467  30.180  34.057  1.00  0.00    -0.203 F 
ATOM     95  C   UNL A   1      46.204  28.535  35.572  1.00  0.00     0.198 A 
ATOM     96  C   UNL A   1      44.638  26.978  36.512  1.00  0.00     0.198 A 
ATOM     97  F   UNL A   1      42.372  27.068  35.892  1.00  0.00    -0.203 F 
ATOM     98  F   UNL A   1      47.461  28.983  35.445  1.00  0.00    -0.200 F 
ATOM     99  C   UNL A   1      45.933  27.459  36.404  1.00  0.00     0.200 A 
ATOM    100  F   UNL A   1      44.372  25.949  37.329  1.00  0.00    -0.200 F 
ATOM    101  F   UNL A   1      46.924  26.882  37.099  1.00  0.00    -0.200 F 
ENDBRANCH  68  91
ENDBRANCH  42  43
ENDBRANCH  35  37
ENDBRANCH  34  35
ENDBRANCH  33  34
ENDBRANCH  32  33
ENDBRANCH  31  32
ENDBRANCH  30  31
ENDBRANCH   1  30
TORSDOF 19
ENDMDL
