MODEL 1
REMARK VINA RESULT:     -10.9      0.000      0.000
REMARK SMILES CCc1c(C)nc(Nc2cc(Cl)ccc2C)nc1OCC(=O)OCCOCCOC(=O)c1ccc(-c2c3nc(c(-c4c(F)c(F)c(F)c(F)c4F)c4ccc([nH]4)c(-c4c(F)c(F)c(F)c(F)c4F)c4nc(c(-c5c(F)c(F)c(F)c(F)c5F)c5ccc2[nH]5)C=C4)C=C3)cc1
REMARK SMILES IDX 25 1 24 2 23 3 21 4 22 5 20 6 19 7 18 8 3 9 4 10 5 11 6 12
REMARK SMILES IDX 17 13 7 14 2 15 1 16 8 17 9 19 10 20 15 21 11 22 14 23 16 24
REMARK SMILES IDX 12 25 13 26 26 27 27 28 28 29 29 30 30 31 31 32 32 33 33 34
REMARK SMILES IDX 94 35 34 36 93 37 35 38 36 39 37 40 87 41 38 42 92 43 86 44
REMARK SMILES IDX 88 45 39 46 91 47 85 48 84 49 40 51 72 52 52 53 71 54 53 55
REMARK SMILES IDX 56 56 70 57 89 58 54 59 55 60 69 62 90 63 57 64 41 65 42 66
REMARK SMILES IDX 50 67 43 68 44 69 48 70 51 71 45 72 46 73 49 74 47 75 73 76
REMARK SMILES IDX 74 77 82 78 75 79 76 80 80 81 83 82 77 83 78 84 81 85 79 86
REMARK SMILES IDX 58 87 59 88 67 89 60 90 61 91 65 92 68 93 62 94 63 95 66 96
REMARK SMILES IDX 64 97
REMARK H PARENT 8 18 88 50 56 61
REMARK Flexibility Score: inf
ROOT
ATOM      1  C   UNL A   1      35.299  32.899  28.090  1.00  0.00     0.202 C 
ENDROOT
BRANCH   1   2
ATOM      2  C   UNL A   1      34.255  31.831  28.438  1.00  0.00     0.261 C 
BRANCH   2   3
ATOM      3  O   UNL A   1      33.697  31.213  27.254  1.00  0.00    -0.461 OA
BRANCH   3   4
ATOM      4  C   UNL A   1      34.075  29.922  27.036  1.00  0.00     0.344 C 
ATOM      5  O   UNL A   1      35.035  29.379  27.573  1.00  0.00    -0.248 OA
BRANCH   4   6
ATOM      6  C   UNL A   1      33.192  29.184  26.020  1.00  0.00     0.353 C 
BRANCH   6   7
ATOM      7  O   UNL A   1      33.129  27.785  25.973  1.00  0.00    -0.465 OA
BRANCH   7   8
ATOM      8  C   UNL A   1      32.992  26.972  24.897  1.00  0.00     0.222 A 
ATOM      9  C   UNL A   1      33.443  25.653  24.692  1.00  0.00     0.035 A 
ATOM     10  C   UNL A   1      32.858  25.034  23.579  1.00  0.00     0.050 A 
ATOM     11  C   UNL A   1      32.821  23.577  23.229  1.00  0.00     0.067 C 
ATOM     12  N   UNL A   1      32.015  25.691  22.754  1.00  0.00    -0.218 NA
ATOM     13  N   UNL A   1      32.180  27.621  24.026  1.00  0.00    -0.177 NA
ATOM     14  C   UNL A   1      31.708  26.961  22.979  1.00  0.00     0.230 A 
BRANCH   9  15
ATOM     15  C   UNL A   1      34.474  25.016  25.591  1.00  0.00     0.040 C 
ATOM     16  C   UNL A   1      35.665  24.222  25.076  1.00  0.00     0.009 C 
ENDBRANCH   9  15
BRANCH  14  17
ATOM     17  N   UNL A   1      30.825  27.607  22.112  1.00  0.00    -0.324 N 
ATOM     18  H   UNL A   1      30.932  27.440  21.147  1.00  0.00     0.170 HD
BRANCH  17  19
ATOM     19  C   UNL A   1      29.798  28.476  22.513  1.00  0.00     0.045 A 
ATOM     20  C   UNL A   1      29.848  29.820  22.120  1.00  0.00     0.047 A 
ATOM     21  C   UNL A   1      28.651  28.000  23.189  1.00  0.00    -0.027 A 
ATOM     22  C   UNL A   1      28.758  30.660  22.342  1.00  0.00     0.043 A 
ATOM     23  C   UNL A   1      27.564  28.861  23.407  1.00  0.00     0.007 A 
ATOM     24  C   UNL A   1      28.572  26.584  23.697  1.00  0.00     0.046 C 
ATOM     25  Cl  UNL A   1      28.811  32.292  21.796  1.00  0.00    -0.084 Cl
ATOM     26  C   UNL A   1      27.613  30.186  22.974  1.00  0.00     0.021 A 
ENDBRANCH  17  19
ENDBRANCH  14  17
ENDBRANCH   7   8
ENDBRANCH   6   7
ENDBRANCH   4   6
ENDBRANCH   3   4
ENDBRANCH   2   3
ENDBRANCH   1   2
BRANCH   1  27
ATOM     27  O   UNL A   1      35.229  34.138  28.802  1.00  0.00    -0.374 OA
BRANCH  27  28
ATOM     28  C   UNL A   1      34.148  35.006  28.492  1.00  0.00     0.202 C 
BRANCH  28  29
ATOM     29  C   UNL A   1      33.048  35.174  29.542  1.00  0.00     0.261 C 
BRANCH  29  30
ATOM     30  O   UNL A   1      33.453  35.905  30.683  1.00  0.00    -0.460 OA
BRANCH  30  31
ATOM     31  C   UNL A   1      33.018  35.362  31.837  1.00  0.00     0.338 C 
ATOM     32  O   UNL A   1      31.882  35.243  32.249  1.00  0.00    -0.246 OA
BRANCH  31  33
ATOM     33  C   UNL A   1      34.184  34.747  32.459  1.00  0.00     0.060 A 
ATOM     34  C   UNL A   1      35.383  35.458  32.383  1.00  0.00     0.016 A 
ATOM     35  C   UNL A   1      34.087  33.514  33.109  1.00  0.00     0.016 A 
ATOM     36  C   UNL A   1      36.531  34.890  32.897  1.00  0.00     0.010 A 
ATOM     37  C   UNL A   1      35.241  32.944  33.628  1.00  0.00     0.010 A 
ATOM     38  C   UNL A   1      36.466  33.612  33.468  1.00  0.00    -0.014 A 
BRANCH  38  39
ATOM     39  C   UNL A   1      37.730  32.897  33.695  1.00  0.00     0.031 A 
ATOM     40  C   UNL A   1      38.472  33.173  34.967  1.00  0.00     0.074 A 
ATOM     41  C   UNL A   1      38.137  31.972  32.814  1.00  0.00     0.049 A 
ATOM     42  N   UNL A   1      39.573  32.637  35.418  1.00  0.00    -0.248 NA
ATOM     43  C   UNL A   1      37.891  34.197  35.854  1.00  0.00     0.031 C 
ATOM     44  C   UNL A   1      37.440  31.628  31.575  1.00  0.00     0.029 A 
ATOM     45  N   UNL A   1      39.226  31.148  32.836  1.00  0.00    -0.354 N 
ATOM     46  C   UNL A   1      39.818  33.260  36.635  1.00  0.00     0.074 A 
ATOM     47  C   UNL A   1      38.780  34.244  36.833  1.00  0.00     0.031 C 
ATOM     48  C   UNL A   1      38.122  30.652  30.953  1.00  0.00     0.029 A 
ATOM     49  C   UNL A   1      39.313  30.335  31.737  1.00  0.00     0.049 A 
ATOM     50  H   UNL A   1      39.883  31.139  33.569  1.00  0.00     0.167 HD
ATOM     51  C   UNL A   1      40.820  33.014  37.509  1.00  0.00     0.037 A 
ATOM     52  C   UNL A   1      40.265  29.445  31.406  1.00  0.00     0.037 A 
ATOM     53  C   UNL A   1      41.842  32.030  37.275  1.00  0.00     0.049 A 
ATOM     54  C   UNL A   1      41.403  29.231  32.369  1.00  0.00     0.074 A 
ATOM     55  C   UNL A   1      42.906  31.678  38.083  1.00  0.00     0.029 A 
ATOM     56  N   UNL A   1      41.928  31.246  36.130  1.00  0.00    -0.354 N 
ATOM     57  N   UNL A   1      41.622  29.799  33.531  1.00  0.00    -0.248 NA
ATOM     58  C   UNL A   1      42.418  28.247  31.980  1.00  0.00     0.031 C 
ATOM     59  C   UNL A   1      43.671  30.728  37.397  1.00  0.00     0.029 A 
ATOM     60  C   UNL A   1      43.045  30.432  36.195  1.00  0.00     0.049 A 
ATOM     61  H   UNL A   1      41.287  31.267  35.382  1.00  0.00     0.167 HD
ATOM     62  C   UNL A   1      42.785  29.227  34.026  1.00  0.00     0.074 A 
ATOM     63  C   UNL A   1      43.213  28.253  33.040  1.00  0.00     0.031 C 
ATOM     64  C   UNL A   1      43.440  29.476  35.189  1.00  0.00     0.037 A 
BRANCH  51  65
ATOM     65  C   UNL A   1      40.874  33.855  38.752  1.00  0.00     0.064 A 
ATOM     66  C   UNL A   1      40.155  33.522  39.911  1.00  0.00     0.173 A 
ATOM     67  C   UNL A   1      41.645  35.027  38.779  1.00  0.00     0.173 A 
ATOM     68  F   UNL A   1      39.383  32.423  39.936  1.00  0.00    -0.203 F 
ATOM     69  C   UNL A   1      40.175  34.348  41.033  1.00  0.00     0.198 A 
ATOM     70  C   UNL A   1      41.691  35.832  39.914  1.00  0.00     0.198 A 
ATOM     71  F   UNL A   1      42.351  35.398  37.700  1.00  0.00    -0.203 F 
ATOM     72  F   UNL A   1      39.425  34.044  42.102  1.00  0.00    -0.200 F 
ATOM     73  C   UNL A   1      40.948  35.499  41.036  1.00  0.00     0.200 A 
ATOM     74  F   UNL A   1      42.449  36.939  39.918  1.00  0.00    -0.200 F 
ATOM     75  F   UNL A   1      40.966  36.294  42.115  1.00  0.00    -0.200 F 
ENDBRANCH  51  65
BRANCH  52  76
ATOM     76  C   UNL A   1      40.168  28.708  30.122  1.00  0.00     0.064 A 
ATOM     77  C   UNL A   1      40.729  29.220  28.945  1.00  0.00     0.173 A 
ATOM     78  C   UNL A   1      39.541  27.454  30.053  1.00  0.00     0.173 A 
ATOM     79  F   UNL A   1      41.328  30.419  28.955  1.00  0.00    -0.203 F 
ATOM     80  C   UNL A   1      40.653  28.513  27.745  1.00  0.00     0.198 A 
ATOM     81  C   UNL A   1      39.491  26.736  28.862  1.00  0.00     0.198 A 
ATOM     82  F   UNL A   1      38.996  26.914  31.154  1.00  0.00    -0.203 F 
ATOM     83  F   UNL A   1      41.166  29.041  26.626  1.00  0.00    -0.200 F 
ATOM     84  C   UNL A   1      40.042  27.268  27.706  1.00  0.00     0.200 A 
ATOM     85  F   UNL A   1      38.919  25.525  28.835  1.00  0.00    -0.200 F 
ATOM     86  F   UNL A   1      39.981  26.583  26.557  1.00  0.00    -0.200 F 
ENDBRANCH  52  76
BRANCH  64  87
ATOM     87  C   UNL A   1      44.666  28.656  35.466  1.00  0.00     0.064 A 
ATOM     88  C   UNL A   1      45.944  29.082  35.079  1.00  0.00     0.173 A 
ATOM     89  C   UNL A   1      44.560  27.444  36.168  1.00  0.00     0.173 A 
ATOM     90  F   UNL A   1      46.096  30.226  34.395  1.00  0.00    -0.203 F 
ATOM     91  C   UNL A   1      47.069  28.310  35.353  1.00  0.00     0.198 A 
ATOM     92  C   UNL A   1      45.691  26.694  36.474  1.00  0.00     0.198 A 
ATOM     93  F   UNL A   1      43.361  26.998  36.571  1.00  0.00    -0.203 F 
ATOM     94  F   UNL A   1      48.273  28.707  34.922  1.00  0.00    -0.200 F 
ATOM     95  C   UNL A   1      46.942  27.122  36.058  1.00  0.00     0.200 A 
ATOM     96  F   UNL A   1      45.568  25.557  37.173  1.00  0.00    -0.200 F 
ATOM     97  F   UNL A   1      48.026  26.383  36.330  1.00  0.00    -0.200 F 
ENDBRANCH  64  87
ENDBRANCH  38  39
ENDBRANCH  31  33
ENDBRANCH  30  31
ENDBRANCH  29  30
ENDBRANCH  28  29
ENDBRANCH  27  28
ENDBRANCH   1  27
TORSDOF 19
ENDMDL
MODEL 2
REMARK VINA RESULT:     -10.6      5.124      8.438
REMARK SMILES CCc1c(C)nc(Nc2cc(Cl)ccc2C)nc1OCC(=O)OCCOCCOC(=O)c1ccc(-c2c3nc(c(-c4c(F)c(F)c(F)c(F)c4F)c4ccc([nH]4)c(-c4c(F)c(F)c(F)c(F)c4F)c4nc(c(-c5c(F)c(F)c(F)c(F)c5F)c5ccc2[nH]5)C=C4)C=C3)cc1
REMARK SMILES IDX 25 1 24 2 23 3 21 4 22 5 20 6 19 7 18 8 3 9 4 10 5 11 6 12
REMARK SMILES IDX 17 13 7 14 2 15 1 16 8 17 9 19 10 20 15 21 11 22 14 23 16 24
REMARK SMILES IDX 12 25 13 26 26 27 27 28 28 29 29 30 30 31 31 32 32 33 33 34
REMARK SMILES IDX 94 35 34 36 93 37 35 38 36 39 37 40 87 41 38 42 92 43 86 44
REMARK SMILES IDX 88 45 39 46 91 47 85 48 84 49 40 51 72 52 52 53 71 54 53 55
REMARK SMILES IDX 56 56 70 57 89 58 54 59 55 60 69 62 90 63 57 64 41 65 42 66
REMARK SMILES IDX 50 67 43 68 44 69 48 70 51 71 45 72 46 73 49 74 47 75 73 76
REMARK SMILES IDX 74 77 82 78 75 79 76 80 80 81 83 82 77 83 78 84 81 85 79 86
REMARK SMILES IDX 58 87 59 88 67 89 60 90 61 91 65 92 68 93 62 94 63 95 66 96
REMARK SMILES IDX 64 97
REMARK H PARENT 8 18 88 50 56 61
REMARK Flexibility Score: inf
ROOT
ATOM      1  C   UNL A   1      33.957  35.981  32.232  1.00  0.00     0.202 C 
ENDROOT
BRANCH   1   2
ATOM      2  C   UNL A   1      34.202  34.939  31.135  1.00  0.00     0.261 C 
BRANCH   2   3
ATOM      3  O   UNL A   1      33.013  34.688  30.349  1.00  0.00    -0.461 OA
BRANCH   3   4
ATOM      4  C   UNL A   1      33.040  35.175  29.076  1.00  0.00     0.344 C 
ATOM      5  O   UNL A   1      33.038  36.367  28.788  1.00  0.00    -0.248 OA
BRANCH   4   6
ATOM      6  C   UNL A   1      33.054  34.082  27.998  1.00  0.00     0.353 C 
BRANCH   6   7
ATOM      7  O   UNL A   1      33.005  32.720  28.326  1.00  0.00    -0.465 OA
BRANCH   7   8
ATOM      8  C   UNL A   1      33.781  31.705  27.874  1.00  0.00     0.222 A 
ATOM      9  C   UNL A   1      35.134  31.411  28.135  1.00  0.00     0.035 A 
ATOM     10  C   UNL A   1      35.509  30.121  27.733  1.00  0.00     0.050 A 
ATOM     11  C   UNL A   1      36.723  29.334  28.123  1.00  0.00     0.067 C 
ATOM     12  N   UNL A   1      34.659  29.297  27.084  1.00  0.00    -0.218 NA
ATOM     13  N   UNL A   1      32.964  30.876  27.178  1.00  0.00    -0.177 NA
ATOM     14  C   UNL A   1      33.423  29.690  26.806  1.00  0.00     0.230 A 
BRANCH   9  15
ATOM     15  C   UNL A   1      36.061  32.421  28.765  1.00  0.00     0.040 C 
ATOM     16  C   UNL A   1      36.653  33.603  28.015  1.00  0.00     0.009 C 
ENDBRANCH   9  15
BRANCH  14  17
ATOM     17  N   UNL A   1      32.568  28.809  26.143  1.00  0.00    -0.324 N 
ATOM     18  H   UNL A   1      31.603  28.888  26.324  1.00  0.00     0.170 HD
BRANCH  17  19
ATOM     19  C   UNL A   1      32.981  27.819  25.237  1.00  0.00     0.045 A 
ATOM     20  C   UNL A   1      33.763  26.753  25.700  1.00  0.00     0.047 A 
ATOM     21  C   UNL A   1      32.517  27.802  23.901  1.00  0.00    -0.027 A 
ATOM     22  C   UNL A   1      34.032  25.664  24.872  1.00  0.00     0.043 A 
ATOM     23  C   UNL A   1      32.800  26.698  23.081  1.00  0.00     0.007 A 
ATOM     24  C   UNL A   1      31.733  28.953  23.329  1.00  0.00     0.046 C 
ATOM     25  Cl  UNL A   1      34.942  24.333  25.478  1.00  0.00    -0.084 Cl
ATOM     26  C   UNL A   1      33.546  25.626  23.569  1.00  0.00     0.021 A 
ENDBRANCH  17  19
ENDBRANCH  14  17
ENDBRANCH   7   8
ENDBRANCH   6   7
ENDBRANCH   4   6
ENDBRANCH   3   4
ENDBRANCH   2   3
ENDBRANCH   1   2
BRANCH   1  27
ATOM     27  O   UNL A   1      34.469  35.690  33.536  1.00  0.00    -0.374 OA
BRANCH  27  28
ATOM     28  C   UNL A   1      34.751  34.330  33.835  1.00  0.00     0.202 C 
BRANCH  28  29
ATOM     29  C   UNL A   1      36.216  33.936  34.031  1.00  0.00     0.261 C 
BRANCH  29  30
ATOM     30  O   UNL A   1      36.642  32.879  33.193  1.00  0.00    -0.460 OA
BRANCH  30  31
ATOM     31  C   UNL A   1      37.415  31.980  33.834  1.00  0.00     0.338 C 
ATOM     32  O   UNL A   1      37.404  31.654  35.003  1.00  0.00    -0.246 OA
BRANCH  31  33
ATOM     33  C   UNL A   1      38.186  31.300  32.801  1.00  0.00     0.060 A 
ATOM     34  C   UNL A   1      39.168  30.407  33.236  1.00  0.00     0.016 A 
ATOM     35  C   UNL A   1      37.933  31.530  31.446  1.00  0.00     0.016 A 
ATOM     36  C   UNL A   1      39.970  29.788  32.299  1.00  0.00     0.010 A 
ATOM     37  C   UNL A   1      38.740  30.906  30.504  1.00  0.00     0.010 A 
ATOM     38  C   UNL A   1      39.790  30.082  30.941  1.00  0.00    -0.014 A 
BRANCH  38  39
ATOM     39  C   UNL A   1      40.853  29.686  30.007  1.00  0.00     0.031 A 
ATOM     40  C   UNL A   1      41.941  30.676  29.725  1.00  0.00     0.074 A 
ATOM     41  C   UNL A   1      40.869  28.442  29.507  1.00  0.00     0.049 A 
ATOM     42  N   UNL A   1      43.009  30.547  28.985  1.00  0.00    -0.248 NA
ATOM     43  C   UNL A   1      41.807  31.996  30.367  1.00  0.00     0.031 C 
ATOM     44  C   UNL A   1      39.860  27.417  29.773  1.00  0.00     0.029 A 
ATOM     45  N   UNL A   1      41.770  27.831  28.682  1.00  0.00    -0.354 N 
ATOM     46  C   UNL A   1      43.667  31.767  29.068  1.00  0.00     0.074 A 
ATOM     47  C   UNL A   1      42.863  32.638  29.892  1.00  0.00     0.031 C 
ATOM     48  C   UNL A   1      40.205  26.294  29.124  1.00  0.00     0.029 A 
ATOM     49  C   UNL A   1      41.434  26.539  28.376  1.00  0.00     0.049 A 
ATOM     50  H   UNL A   1      42.581  28.275  28.343  1.00  0.00     0.167 HD
ATOM     51  C   UNL A   1      44.850  32.114  28.510  1.00  0.00     0.037 A 
ATOM     52  C   UNL A   1      42.057  25.665  27.565  1.00  0.00     0.037 A 
ATOM     53  C   UNL A   1      45.622  31.222  27.688  1.00  0.00     0.049 A 
ATOM     54  C   UNL A   1      43.341  26.095  26.908  1.00  0.00     0.074 A 
ATOM     55  C   UNL A   1      46.838  31.447  27.073  1.00  0.00     0.029 A 
ATOM     56  N   UNL A   1      45.236  29.927  27.360  1.00  0.00    -0.354 N 
ATOM     57  N   UNL A   1      43.979  27.238  27.006  1.00  0.00    -0.248 NA
ATOM     58  C   UNL A   1      43.996  25.114  26.038  1.00  0.00     0.031 C 
ATOM     59  C   UNL A   1      47.155  30.312  26.319  1.00  0.00     0.029 A 
ATOM     60  C   UNL A   1      46.175  29.351  26.524  1.00  0.00     0.049 A 
ATOM     61  H   UNL A   1      44.415  29.486  27.677  1.00  0.00     0.167 HD
ATOM     62  C   UNL A   1      45.123  27.107  26.233  1.00  0.00     0.074 A 
ATOM     63  C   UNL A   1      45.096  25.764  25.686  1.00  0.00     0.031 C 
ATOM     64  C   UNL A   1      46.111  28.010  25.996  1.00  0.00     0.037 A 
BRANCH  51  65
ATOM     65  C   UNL A   1      45.333  33.518  28.735  1.00  0.00     0.064 A 
ATOM     66  C   UNL A   1      44.974  34.578  27.887  1.00  0.00     0.173 A 
ATOM     67  C   UNL A   1      46.188  33.807  29.811  1.00  0.00     0.173 A 
ATOM     68  F   UNL A   1      44.176  34.357  26.830  1.00  0.00    -0.203 F 
ATOM     69  C   UNL A   1      45.482  35.861  28.082  1.00  0.00     0.198 A 
ATOM     70  C   UNL A   1      46.666  35.097  30.024  1.00  0.00     0.198 A 
ATOM     71  F   UNL A   1      46.568  32.833  30.653  1.00  0.00    -0.203 F 
ATOM     72  F   UNL A   1      45.179  36.840  27.219  1.00  0.00    -0.200 F 
ATOM     73  C   UNL A   1      46.322  36.120  29.155  1.00  0.00     0.200 A 
ATOM     74  F   UNL A   1      47.469  35.347  31.068  1.00  0.00    -0.200 F 
ATOM     75  F   UNL A   1      46.810  37.354  29.342  1.00  0.00    -0.200 F 
ENDBRANCH  51  65
BRANCH  52  76
ATOM     76  C   UNL A   1      41.470  24.320  27.345  1.00  0.00     0.064 A 
ATOM     77  C   UNL A   1      42.059  23.171  27.888  1.00  0.00     0.173 A 
ATOM     78  C   UNL A   1      40.284  24.160  26.611  1.00  0.00     0.173 A 
ATOM     79  F   UNL A   1      43.199  23.269  28.586  1.00  0.00    -0.203 F 
ATOM     80  C   UNL A   1      41.491  21.912  27.695  1.00  0.00     0.198 A 
ATOM     81  C   UNL A   1      39.702  22.906  26.444  1.00  0.00     0.198 A 
ATOM     82  F   UNL A   1      39.674  25.229  26.077  1.00  0.00    -0.203 F 
ATOM     83  F   UNL A   1      42.094  20.825  28.196  1.00  0.00    -0.200 F 
ATOM     84  C   UNL A   1      40.309  21.781  26.981  1.00  0.00     0.200 A 
ATOM     85  F   UNL A   1      38.549  22.789  25.772  1.00  0.00    -0.200 F 
ATOM     86  F   UNL A   1      39.757  20.573  26.808  1.00  0.00    -0.200 F 
ENDBRANCH  52  76
BRANCH  64  87
ATOM     87  C   UNL A   1      47.254  27.555  25.136  1.00  0.00     0.064 A 
ATOM     88  C   UNL A   1      47.325  27.871  23.772  1.00  0.00     0.173 A 
ATOM     89  C   UNL A   1      48.313  26.825  25.700  1.00  0.00     0.173 A 
ATOM     90  F   UNL A   1      46.331  28.555  23.185  1.00  0.00    -0.203 F 
ATOM     91  C   UNL A   1      48.398  27.446  22.995  1.00  0.00     0.198 A 
ATOM     92  C   UNL A   1      49.403  26.435  24.928  1.00  0.00     0.198 A 
ATOM     93  F   UNL A   1      48.298  26.506  27.003  1.00  0.00    -0.203 F 
ATOM     94  F   UNL A   1      48.418  27.709  21.682  1.00  0.00    -0.200 F 
ATOM     95  C   UNL A   1      49.440  26.737  23.576  1.00  0.00     0.200 A 
ATOM     96  F   UNL A   1      50.417  25.767  25.495  1.00  0.00    -0.200 F 
ATOM     97  F   UNL A   1      50.477  26.335  22.828  1.00  0.00    -0.200 F 
ENDBRANCH  64  87
ENDBRANCH  38  39
ENDBRANCH  31  33
ENDBRANCH  30  31
ENDBRANCH  29  30
ENDBRANCH  28  29
ENDBRANCH  27  28
ENDBRANCH   1  27
TORSDOF 19
ENDMDL
MODEL 3
REMARK VINA RESULT:     -10.6      1.692      3.520
REMARK SMILES CCc1c(C)nc(Nc2cc(Cl)ccc2C)nc1OCC(=O)OCCOCCOC(=O)c1ccc(-c2c3nc(c(-c4c(F)c(F)c(F)c(F)c4F)c4ccc([nH]4)c(-c4c(F)c(F)c(F)c(F)c4F)c4nc(c(-c5c(F)c(F)c(F)c(F)c5F)c5ccc2[nH]5)C=C4)C=C3)cc1
REMARK SMILES IDX 25 1 24 2 23 3 21 4 22 5 20 6 19 7 18 8 3 9 4 10 5 11 6 12
REMARK SMILES IDX 17 13 7 14 2 15 1 16 8 17 9 19 10 20 15 21 11 22 14 23 16 24
REMARK SMILES IDX 12 25 13 26 26 27 27 28 28 29 29 30 30 31 31 32 32 33 33 34
REMARK SMILES IDX 94 35 34 36 93 37 35 38 36 39 37 40 87 41 38 42 92 43 86 44
REMARK SMILES IDX 88 45 39 46 91 47 85 48 84 49 40 51 72 52 52 53 71 54 53 55
REMARK SMILES IDX 56 56 70 57 89 58 54 59 55 60 69 62 90 63 57 64 41 65 42 66
REMARK SMILES IDX 50 67 43 68 44 69 48 70 51 71 45 72 46 73 49 74 47 75 73 76
REMARK SMILES IDX 74 77 82 78 75 79 76 80 80 81 83 82 77 83 78 84 81 85 79 86
REMARK SMILES IDX 58 87 59 88 67 89 60 90 61 91 65 92 68 93 62 94 63 95 66 96
REMARK SMILES IDX 64 97
REMARK H PARENT 8 18 88 50 56 61
REMARK Flexibility Score: inf
ROOT
ATOM      1  C   UNL A   1      35.463  33.016  28.133  1.00  0.00     0.202 C 
ENDROOT
BRANCH   1   2
ATOM      2  C   UNL A   1      34.447  31.896  28.390  1.00  0.00     0.261 C 
BRANCH   2   3
ATOM      3  O   UNL A   1      34.200  31.105  27.203  1.00  0.00    -0.461 OA
BRANCH   3   4
ATOM      4  C   UNL A   1      34.491  29.778  27.315  1.00  0.00     0.344 C 
ATOM      5  O   UNL A   1      35.387  29.320  28.016  1.00  0.00    -0.248 OA
BRANCH   4   6
ATOM      6  C   UNL A   1      33.596  28.877  26.453  1.00  0.00     0.353 C 
BRANCH   6   7
ATOM      7  O   UNL A   1      34.043  28.332  25.241  1.00  0.00    -0.465 OA
BRANCH   7   8
ATOM      8  C   UNL A   1      33.464  27.382  24.467  1.00  0.00     0.222 A 
ATOM      9  C   UNL A   1      32.533  27.510  23.417  1.00  0.00     0.035 A 
ATOM     10  C   UNL A   1      32.390  26.341  22.657  1.00  0.00     0.050 A 
ATOM     11  C   UNL A   1      31.773  26.174  21.302  1.00  0.00     0.067 C 
ATOM     12  N   UNL A   1      33.030  25.196  22.976  1.00  0.00    -0.218 NA
ATOM     13  N   UNL A   1      34.056  26.206  24.793  1.00  0.00    -0.177 NA
ATOM     14  C   UNL A   1      33.829  25.144  24.034  1.00  0.00     0.230 A 
BRANCH   9  15
ATOM     15  C   UNL A   1      31.767  28.789  23.184  1.00  0.00     0.040 C 
ATOM     16  C   UNL A   1      30.255  28.897  23.293  1.00  0.00     0.009 C 
ENDBRANCH   9  15
BRANCH  14  17
ATOM     17  N   UNL A   1      34.482  23.947  24.330  1.00  0.00    -0.324 N 
ATOM     18  H   UNL A   1      35.465  23.942  24.282  1.00  0.00     0.170 HD
BRANCH  17  19
ATOM     19  C   UNL A   1      33.841  22.751  24.689  1.00  0.00     0.045 A 
ATOM     20  C   UNL A   1      33.272  21.954  23.687  1.00  0.00     0.047 A 
ATOM     21  C   UNL A   1      33.873  22.267  26.017  1.00  0.00    -0.027 A 
ATOM     22  C   UNL A   1      32.795  20.678  23.987  1.00  0.00     0.043 A 
ATOM     23  C   UNL A   1      33.385  20.982  26.301  1.00  0.00     0.007 A 
ATOM     24  C   UNL A   1      34.408  23.109  27.145  1.00  0.00     0.046 C 
ATOM     25  Cl  UNL A   1      32.156  19.687  22.732  1.00  0.00    -0.084 Cl
ATOM     26  C   UNL A   1      32.858  20.184  25.286  1.00  0.00     0.021 A 
ENDBRANCH  17  19
ENDBRANCH  14  17
ENDBRANCH   7   8
ENDBRANCH   6   7
ENDBRANCH   4   6
ENDBRANCH   3   4
ENDBRANCH   2   3
ENDBRANCH   1   2
BRANCH   1  27
ATOM     27  O   UNL A   1      35.287  34.236  28.858  1.00  0.00    -0.374 OA
BRANCH  27  28
ATOM     28  C   UNL A   1      34.210  35.076  28.468  1.00  0.00     0.202 C 
BRANCH  28  29
ATOM     29  C   UNL A   1      33.050  35.245  29.451  1.00  0.00     0.261 C 
BRANCH  29  30
ATOM     30  O   UNL A   1      33.378  35.999  30.601  1.00  0.00    -0.460 OA
BRANCH  30  31
ATOM     31  C   UNL A   1      32.925  35.442  31.741  1.00  0.00     0.338 C 
ATOM     32  O   UNL A   1      31.782  35.313  32.130  1.00  0.00    -0.246 OA
BRANCH  31  33
ATOM     33  C   UNL A   1      34.082  34.829  32.381  1.00  0.00     0.060 A 
ATOM     34  C   UNL A   1      35.291  35.521  32.286  1.00  0.00     0.016 A 
ATOM     35  C   UNL A   1      33.968  33.614  33.062  1.00  0.00     0.016 A 
ATOM     36  C   UNL A   1      36.430  34.952  32.817  1.00  0.00     0.010 A 
ATOM     37  C   UNL A   1      35.114  33.043  33.597  1.00  0.00     0.010 A 
ATOM     38  C   UNL A   1      36.348  33.690  33.421  1.00  0.00    -0.014 A 
BRANCH  38  39
ATOM     39  C   UNL A   1      37.603  32.965  33.667  1.00  0.00     0.031 A 
ATOM     40  C   UNL A   1      38.318  33.222  34.958  1.00  0.00     0.074 A 
ATOM     41  C   UNL A   1      38.022  32.046  32.786  1.00  0.00     0.049 A 
ATOM     42  N   UNL A   1      39.406  32.674  35.427  1.00  0.00    -0.248 NA
ATOM     43  C   UNL A   1      37.725  34.240  35.843  1.00  0.00     0.031 C 
ATOM     44  C   UNL A   1      37.351  31.720  31.528  1.00  0.00     0.029 A 
ATOM     45  N   UNL A   1      39.106  31.215  32.822  1.00  0.00    -0.354 N 
ATOM     46  C   UNL A   1      39.628  33.283  36.656  1.00  0.00     0.074 A 
ATOM     47  C   UNL A   1      38.591  34.271  36.842  1.00  0.00     0.031 C 
ATOM     48  C   UNL A   1      38.040  30.747  30.911  1.00  0.00     0.029 A 
ATOM     49  C   UNL A   1      39.211  30.413  31.716  1.00  0.00     0.049 A 
ATOM     50  H   UNL A   1      39.747  31.194  33.569  1.00  0.00     0.167 HD
ATOM     51  C   UNL A   1      40.609  33.021  37.548  1.00  0.00     0.037 A 
ATOM     52  C   UNL A   1      40.165  29.521  31.397  1.00  0.00     0.037 A 
ATOM     53  C   UNL A   1      41.630  32.033  37.326  1.00  0.00     0.049 A 
ATOM     54  C   UNL A   1      41.280  29.289  32.382  1.00  0.00     0.074 A 
ATOM     55  C   UNL A   1      42.673  31.665  38.154  1.00  0.00     0.029 A 
ATOM     56  N   UNL A   1      41.735  31.260  36.175  1.00  0.00    -0.354 N 
ATOM     57  N   UNL A   1      41.478  29.843  33.555  1.00  0.00    -0.248 NA
ATOM     58  C   UNL A   1      42.297  28.302  32.004  1.00  0.00     0.031 C 
ATOM     59  C   UNL A   1      43.447  30.717  37.475  1.00  0.00     0.029 A 
ATOM     60  C   UNL A   1      42.846  30.439  36.256  1.00  0.00     0.049 A 
ATOM     61  H   UNL A   1      41.111  31.294  35.414  1.00  0.00     0.167 HD
ATOM     62  C   UNL A   1      42.625  29.258  34.069  1.00  0.00     0.074 A 
ATOM     63  C   UNL A   1      43.069  28.292  33.082  1.00  0.00     0.031 C 
ATOM     64  C   UNL A   1      43.257  29.491  35.249  1.00  0.00     0.037 A 
BRANCH  51  65
ATOM     65  C   UNL A   1      40.641  33.848  38.802  1.00  0.00     0.064 A 
ATOM     66  C   UNL A   1      41.403  35.022  38.904  1.00  0.00     0.173 A 
ATOM     67  C   UNL A   1      39.907  33.448  39.930  1.00  0.00     0.173 A 
ATOM     68  F   UNL A   1      42.141  35.442  37.864  1.00  0.00    -0.203 F 
ATOM     69  C   UNL A   1      41.461  35.741  40.096  1.00  0.00     0.198 A 
ATOM     70  C   UNL A   1      39.940  34.187  41.109  1.00  0.00     0.198 A 
ATOM     71  F   UNL A   1      39.163  32.332  39.893  1.00  0.00    -0.203 F 
ATOM     72  F   UNL A   1      42.251  36.821  40.189  1.00  0.00    -0.200 F 
ATOM     73  C   UNL A   1      40.725  35.326  41.196  1.00  0.00     0.200 A 
ATOM     74  F   UNL A   1      39.218  33.791  42.167  1.00  0.00    -0.200 F 
ATOM     75  F   UNL A   1      40.782  36.018  42.342  1.00  0.00    -0.200 F 
ENDBRANCH  51  65
BRANCH  52  76
ATOM     76  C   UNL A   1      40.092  28.798  30.103  1.00  0.00     0.064 A 
ATOM     77  C   UNL A   1      40.671  29.324  28.942  1.00  0.00     0.173 A 
ATOM     78  C   UNL A   1      39.468  27.544  30.010  1.00  0.00     0.173 A 
ATOM     79  F   UNL A   1      41.268  30.524  28.976  1.00  0.00    -0.203 F 
ATOM     80  C   UNL A   1      40.617  28.631  27.733  1.00  0.00     0.198 A 
ATOM     81  C   UNL A   1      39.441  26.839  28.810  1.00  0.00     0.198 A 
ATOM     82  F   UNL A   1      38.906  26.990  31.095  1.00  0.00    -0.203 F 
ATOM     83  F   UNL A   1      41.148  29.173  26.629  1.00  0.00    -0.200 F 
ATOM     84  C   UNL A   1      40.009  27.385  27.670  1.00  0.00     0.200 A 
ATOM     85  F   UNL A   1      38.871  25.627  28.760  1.00  0.00    -0.200 F 
ATOM     86  F   UNL A   1      39.970  26.714  26.511  1.00  0.00    -0.200 F 
ENDBRANCH  52  76
BRANCH  64  87
ATOM     87  C   UNL A   1      44.471  28.660  35.544  1.00  0.00     0.064 A 
ATOM     88  C   UNL A   1      44.379  27.415  36.182  1.00  0.00     0.173 A 
ATOM     89  C   UNL A   1      45.742  29.101  35.141  1.00  0.00     0.173 A 
ATOM     90  F   UNL A   1      43.189  26.955  36.597  1.00  0.00    -0.203 F 
ATOM     91  C   UNL A   1      45.518  26.658  36.439  1.00  0.00     0.198 A 
ATOM     92  C   UNL A   1      46.873  28.324  35.365  1.00  0.00     0.198 A 
ATOM     93  F   UNL A   1      45.883  30.280  34.517  1.00  0.00    -0.203 F 
ATOM     94  F   UNL A   1      45.413  25.499  37.103  1.00  0.00    -0.200 F 
ATOM     95  C   UNL A   1      46.762  27.108  36.022  1.00  0.00     0.200 A 
ATOM     96  F   UNL A   1      48.072  28.752  34.944  1.00  0.00    -0.200 F 
ATOM     97  F   UNL A   1      47.857  26.374  36.262  1.00  0.00    -0.200 F 
ENDBRANCH  64  87
ENDBRANCH  38  39
ENDBRANCH  31  33
ENDBRANCH  30  31
ENDBRANCH  29  30
ENDBRANCH  28  29
ENDBRANCH  27  28
ENDBRANCH   1  27
TORSDOF 19
ENDMDL
