MODEL 1
REMARK VINA RESULT:     -11.8      0.000      0.000
REMARK SMILES CC(=O)c1nnn(-c2ccc(C(=O)OCCOCCOC(=O)c3ccc(-c4c5nc(c(-c6c(F)c(F)c(F)c(F)c6F)c6ccc([nH]6)c(-c6c(F)c(F)c(F)c(F)c6F)c6nc(c(-c7c(F)c(F)c(F)c(F)c7F)c7ccc4[nH]7)C=C6)C=C5)cc3)cc2)c1C
REMARK SMILES IDX 17 1 16 2 15 3 14 4 12 5 13 6 11 7 8 8 9 9 87 10 10 11 86 12
REMARK SMILES IDX 7 13 4 14 5 15 88 16 6 17 89 18 2 19 1 20 3 21 18 22 19 23
REMARK SMILES IDX 20 24 21 25 22 26 23 27 24 28 85 29 25 30 84 31 26 32 27 33
REMARK SMILES IDX 28 34 78 35 29 36 83 37 77 38 79 39 30 40 82 41 76 42 75 43
REMARK SMILES IDX 31 45 63 46 43 47 62 48 44 49 47 50 61 51 80 52 45 53 46 54
REMARK SMILES IDX 60 56 81 57 48 58 32 59 33 60 41 61 34 62 35 63 39 64 42 65
REMARK SMILES IDX 36 66 37 67 40 68 38 69 64 70 65 71 73 72 66 73 67 74 71 75
REMARK SMILES IDX 74 76 68 77 69 78 72 79 70 80 49 81 50 82 58 83 51 84 52 85
REMARK SMILES IDX 56 86 59 87 53 88 54 89 57 90 55 91
REMARK H PARENT 79 44 47 55
REMARK Flexibility Score: inf
ROOT
ATOM      1  O   UNL A   1      40.639  21.173  26.975  1.00  0.00    -0.374 OA
ENDROOT
BRANCH   1   2
ATOM      2  C   UNL A   1      39.493  21.052  26.135  1.00  0.00     0.202 C 
BRANCH   2   3
ATOM      3  C   UNL A   1      38.560  22.253  25.974  1.00  0.00     0.261 C 
BRANCH   3   4
ATOM      4  O   UNL A   1      37.755  22.173  24.789  1.00  0.00    -0.460 OA
BRANCH   4   5
ATOM      5  C   UNL A   1      36.437  21.970  25.030  1.00  0.00     0.338 C 
ATOM      6  O   UNL A   1      35.936  21.058  25.666  1.00  0.00    -0.246 OA
BRANCH   5   7
ATOM      7  C   UNL A   1      35.641  23.104  24.524  1.00  0.00     0.060 A 
ATOM      8  C   UNL A   1      33.777  25.031  23.867  1.00  0.00     0.067 A 
ATOM      9  C   UNL A   1      34.494  25.176  25.054  1.00  0.00     0.029 A 
ATOM     10  C   UNL A   1      34.097  24.027  22.939  1.00  0.00     0.029 A 
ATOM     11  C   UNL A   1      35.410  24.183  25.394  1.00  0.00     0.018 A 
ATOM     12  C   UNL A   1      35.046  23.063  23.263  1.00  0.00     0.018 A 
BRANCH   8  13
ATOM     13  N   UNL A   1      32.582  25.757  23.702  1.00  0.00    -0.217 N 
ATOM     14  C   UNL A   1      31.109  27.310  23.295  1.00  0.00     0.151 A 
ATOM     15  N   UNL A   1      30.474  26.182  23.763  1.00  0.00    -0.126 NA
ATOM     16  C   UNL A   1      32.463  27.036  23.170  1.00  0.00     0.073 A 
ATOM     17  N   UNL A   1      31.369  25.212  23.887  1.00  0.00    -0.061 NA
ATOM     18  C   UNL A   1      33.618  27.764  22.589  1.00  0.00     0.069 C 
BRANCH  14  19
ATOM     19  C   UNL A   1      30.356  28.521  22.984  1.00  0.00     0.181 C 
ATOM     20  C   UNL A   1      30.382  29.674  23.955  1.00  0.00     0.095 C 
ATOM     21  O   UNL A   1      29.704  28.618  21.944  1.00  0.00    -0.293 OA
ENDBRANCH  14  19
ENDBRANCH   8  13
ENDBRANCH   5   7
ENDBRANCH   4   5
ENDBRANCH   3   4
ENDBRANCH   2   3
ENDBRANCH   1   2
BRANCH   1  22
ATOM     22  C   UNL A   1      41.417  20.031  27.318  1.00  0.00     0.202 C 
BRANCH  22  23
ATOM     23  C   UNL A   1      42.284  19.384  26.246  1.00  0.00     0.261 C 
BRANCH  23  24
ATOM     24  O   UNL A   1      42.714  20.327  25.278  1.00  0.00    -0.460 OA
BRANCH  24  25
ATOM     25  C   UNL A   1      44.058  20.482  25.226  1.00  0.00     0.338 C 
ATOM     26  O   UNL A   1      44.908  19.620  25.310  1.00  0.00    -0.246 OA
BRANCH  25  27
ATOM     27  C   UNL A   1      44.352  21.920  25.176  1.00  0.00     0.060 A 
ATOM     28  C   UNL A   1      45.330  22.358  26.068  1.00  0.00     0.016 A 
ATOM     29  C   UNL A   1      43.450  22.799  24.558  1.00  0.00     0.016 A 
ATOM     30  C   UNL A   1      45.190  23.620  26.589  1.00  0.00     0.010 A 
ATOM     31  C   UNL A   1      43.324  24.066  25.066  1.00  0.00     0.010 A 
ATOM     32  C   UNL A   1      44.106  24.400  26.164  1.00  0.00    -0.014 A 
BRANCH  32  33
ATOM     33  C   UNL A   1      43.812  25.597  26.911  1.00  0.00     0.031 A 
ATOM     34  C   UNL A   1      44.801  26.664  26.681  1.00  0.00     0.074 A 
ATOM     35  C   UNL A   1      42.731  25.708  27.704  1.00  0.00     0.049 A 
ATOM     36  N   UNL A   1      45.695  27.086  27.509  1.00  0.00    -0.248 NA
ATOM     37  C   UNL A   1      44.945  27.174  25.311  1.00  0.00     0.031 C 
ATOM     38  C   UNL A   1      41.581  24.811  27.847  1.00  0.00     0.029 A 
ATOM     39  N   UNL A   1      42.418  26.736  28.535  1.00  0.00    -0.354 N 
ATOM     40  C   UNL A   1      46.408  28.055  26.819  1.00  0.00     0.074 A 
ATOM     41  C   UNL A   1      46.025  27.945  25.435  1.00  0.00     0.031 C 
ATOM     42  C   UNL A   1      40.601  25.445  28.535  1.00  0.00     0.029 A 
ATOM     43  C   UNL A   1      41.112  26.722  29.003  1.00  0.00     0.049 A 
ATOM     44  H   UNL A   1      43.065  27.435  28.785  1.00  0.00     0.167 HD
ATOM     45  C   UNL A   1      47.076  29.032  27.486  1.00  0.00     0.037 A 
ATOM     46  C   UNL A   1      40.504  27.745  29.656  1.00  0.00     0.037 A 
ATOM     47  C   UNL A   1      47.289  28.680  28.866  1.00  0.00     0.049 A 
ATOM     48  C   UNL A   1      41.583  28.589  30.240  1.00  0.00     0.074 A 
ATOM     49  C   UNL A   1      48.007  27.692  29.511  1.00  0.00     0.029 A 
ATOM     50  N   UNL A   1      46.399  29.160  29.795  1.00  0.00    -0.354 N 
ATOM     51  N   UNL A   1      42.373  28.175  31.195  1.00  0.00    -0.248 NA
ATOM     52  C   UNL A   1      42.110  29.675  29.425  1.00  0.00     0.031 C 
ATOM     53  C   UNL A   1      47.196  27.308  30.621  1.00  0.00     0.029 A 
ATOM     54  C   UNL A   1      46.062  28.120  30.626  1.00  0.00     0.049 A 
ATOM     55  H   UNL A   1      46.063  30.083  29.855  1.00  0.00     0.167 HD
ATOM     56  C   UNL A   1      43.634  28.637  30.842  1.00  0.00     0.074 A 
ATOM     57  C   UNL A   1      43.399  29.605  29.773  1.00  0.00     0.031 C 
ATOM     58  C   UNL A   1      44.763  27.979  31.241  1.00  0.00     0.037 A 
BRANCH  45  59
ATOM     59  C   UNL A   1      47.178  30.444  26.986  1.00  0.00     0.064 A 
ATOM     60  C   UNL A   1      48.420  31.099  27.036  1.00  0.00     0.173 A 
ATOM     61  C   UNL A   1      46.055  31.269  26.754  1.00  0.00     0.173 A 
ATOM     62  F   UNL A   1      49.547  30.409  27.270  1.00  0.00    -0.203 F 
ATOM     63  C   UNL A   1      48.519  32.489  26.939  1.00  0.00     0.198 A 
ATOM     64  C   UNL A   1      46.163  32.647  26.602  1.00  0.00     0.198 A 
ATOM     65  F   UNL A   1      44.802  30.795  26.781  1.00  0.00    -0.203 F 
ATOM     66  F   UNL A   1      49.706  33.085  27.118  1.00  0.00    -0.200 F 
ATOM     67  C   UNL A   1      47.389  33.261  26.729  1.00  0.00     0.200 A 
ATOM     68  F   UNL A   1      45.054  33.377  26.419  1.00  0.00    -0.200 F 
ATOM     69  F   UNL A   1      47.473  34.597  26.701  1.00  0.00    -0.200 F 
ENDBRANCH  45  59
BRANCH  46  70
ATOM     70  C   UNL A   1      39.132  28.253  29.408  1.00  0.00     0.064 A 
ATOM     71  C   UNL A   1      38.221  28.448  30.459  1.00  0.00     0.173 A 
ATOM     72  C   UNL A   1      38.781  28.817  28.165  1.00  0.00     0.173 A 
ATOM     73  F   UNL A   1      38.506  27.997  31.689  1.00  0.00    -0.203 F 
ATOM     74  C   UNL A   1      37.035  29.170  30.277  1.00  0.00     0.198 A 
ATOM     75  C   UNL A   1      37.598  29.534  27.983  1.00  0.00     0.198 A 
ATOM     76  F   UNL A   1      39.625  28.766  27.125  1.00  0.00    -0.203 F 
ATOM     77  F   UNL A   1      36.213  29.382  31.315  1.00  0.00    -0.200 F 
ATOM     78  C   UNL A   1      36.728  29.719  29.042  1.00  0.00     0.200 A 
ATOM     79  F   UNL A   1      37.338  30.097  26.795  1.00  0.00    -0.200 F 
ATOM     80  F   UNL A   1      35.622  30.459  28.881  1.00  0.00    -0.200 F 
ENDBRANCH  46  70
BRANCH  58  81
ATOM     81  C   UNL A   1      44.599  26.868  32.242  1.00  0.00     0.064 A 
ATOM     82  C   UNL A   1      44.426  25.517  31.891  1.00  0.00     0.173 A 
ATOM     83  C   UNL A   1      44.756  27.163  33.601  1.00  0.00     0.173 A 
ATOM     84  F   UNL A   1      44.374  25.141  30.609  1.00  0.00    -0.203 F 
ATOM     85  C   UNL A   1      44.361  24.517  32.863  1.00  0.00     0.198 A 
ATOM     86  C   UNL A   1      44.728  26.160  34.566  1.00  0.00     0.198 A 
ATOM     87  F   UNL A   1      44.988  28.426  33.991  1.00  0.00    -0.203 F 
ATOM     88  F   UNL A   1      44.182  23.237  32.501  1.00  0.00    -0.200 F 
ATOM     89  C   UNL A   1      44.518  24.840  34.199  1.00  0.00     0.200 A 
ATOM     90  F   UNL A   1      44.932  26.470  35.854  1.00  0.00    -0.200 F 
ATOM     91  F   UNL A   1      44.493  23.877  35.132  1.00  0.00    -0.200 F 
ENDBRANCH  58  81
ENDBRANCH  32  33
ENDBRANCH  25  27
ENDBRANCH  24  25
ENDBRANCH  23  24
ENDBRANCH  22  23
ENDBRANCH   1  22
TORSDOF 16
ENDMDL
MODEL 2
REMARK VINA RESULT:     -11.7      2.800      4.005
REMARK SMILES CC(=O)c1nnn(-c2ccc(C(=O)OCCOCCOC(=O)c3ccc(-c4c5nc(c(-c6c(F)c(F)c(F)c(F)c6F)c6ccc([nH]6)c(-c6c(F)c(F)c(F)c(F)c6F)c6nc(c(-c7c(F)c(F)c(F)c(F)c7F)c7ccc4[nH]7)C=C6)C=C5)cc3)cc2)c1C
REMARK SMILES IDX 17 1 16 2 15 3 14 4 12 5 13 6 11 7 8 8 9 9 87 10 10 11 86 12
REMARK SMILES IDX 7 13 4 14 5 15 88 16 6 17 89 18 2 19 1 20 3 21 18 22 19 23
REMARK SMILES IDX 20 24 21 25 22 26 23 27 24 28 85 29 25 30 84 31 26 32 27 33
REMARK SMILES IDX 28 34 78 35 29 36 83 37 77 38 79 39 30 40 82 41 76 42 75 43
REMARK SMILES IDX 31 45 63 46 43 47 62 48 44 49 47 50 61 51 80 52 45 53 46 54
REMARK SMILES IDX 60 56 81 57 48 58 32 59 33 60 41 61 34 62 35 63 39 64 42 65
REMARK SMILES IDX 36 66 37 67 40 68 38 69 64 70 65 71 73 72 66 73 67 74 71 75
REMARK SMILES IDX 74 76 68 77 69 78 72 79 70 80 49 81 50 82 58 83 51 84 52 85
REMARK SMILES IDX 56 86 59 87 53 88 54 89 57 90 55 91
REMARK H PARENT 79 44 47 55
REMARK Flexibility Score: inf
ROOT
ATOM      1  O   UNL A   1      36.800  20.807  24.740  1.00  0.00    -0.374 OA
ENDROOT
BRANCH   1   2
ATOM      2  C   UNL A   1      35.403  20.744  25.020  1.00  0.00     0.202 C 
BRANCH   2   3
ATOM      3  C   UNL A   1      34.717  21.953  25.657  1.00  0.00     0.261 C 
BRANCH   3   4
ATOM      4  O   UNL A   1      33.479  21.613  26.297  1.00  0.00    -0.460 OA
BRANCH   4   5
ATOM      5  C   UNL A   1      32.465  21.355  25.436  1.00  0.00     0.338 C 
ATOM      6  O   UNL A   1      32.052  20.261  25.088  1.00  0.00    -0.246 OA
BRANCH   5   7
ATOM      7  C   UNL A   1      31.792  22.608  25.044  1.00  0.00     0.060 A 
ATOM      8  C   UNL A   1      30.998  25.096  24.151  1.00  0.00     0.067 A 
ATOM      9  C   UNL A   1      31.102  24.059  23.224  1.00  0.00     0.029 A 
ATOM     10  C   UNL A   1      31.131  24.861  25.528  1.00  0.00     0.029 A 
ATOM     11  C   UNL A   1      31.534  22.814  23.678  1.00  0.00     0.018 A 
ATOM     12  C   UNL A   1      31.518  23.604  25.982  1.00  0.00     0.018 A 
BRANCH   8  13
ATOM     13  N   UNL A   1      30.982  26.425  23.684  1.00  0.00    -0.217 N 
ATOM     14  C   UNL A   1      30.373  28.386  22.956  1.00  0.00     0.151 A 
ATOM     15  N   UNL A   1      31.748  28.309  22.983  1.00  0.00    -0.126 NA
ATOM     16  C   UNL A   1      29.854  27.211  23.479  1.00  0.00     0.073 A 
ATOM     17  N   UNL A   1      32.097  27.159  23.542  1.00  0.00    -0.061 NA
ATOM     18  C   UNL A   1      28.491  26.757  23.855  1.00  0.00     0.069 C 
BRANCH  14  19
ATOM     19  C   UNL A   1      29.698  29.584  22.467  1.00  0.00     0.181 C 
ATOM     20  C   UNL A   1      29.118  30.559  23.459  1.00  0.00     0.095 C 
ATOM     21  O   UNL A   1      29.595  29.812  21.261  1.00  0.00    -0.293 OA
ENDBRANCH  14  19
ENDBRANCH   8  13
ENDBRANCH   5   7
ENDBRANCH   4   5
ENDBRANCH   3   4
ENDBRANCH   2   3
ENDBRANCH   1   2
BRANCH   1  22
ATOM     22  C   UNL A   1      37.565  21.954  25.094  1.00  0.00     0.202 C 
BRANCH  22  23
ATOM     23  C   UNL A   1      38.815  21.770  25.943  1.00  0.00     0.261 C 
BRANCH  23  24
ATOM     24  O   UNL A   1      39.127  22.941  26.679  1.00  0.00    -0.460 OA
BRANCH  24  25
ATOM     25  C   UNL A   1      40.317  22.882  27.321  1.00  0.00     0.338 C 
ATOM     26  O   UNL A   1      40.764  21.960  27.971  1.00  0.00    -0.246 OA
BRANCH  25  27
ATOM     27  C   UNL A   1      40.960  24.198  27.218  1.00  0.00     0.060 A 
ATOM     28  C   UNL A   1      41.890  24.486  28.217  1.00  0.00     0.016 A 
ATOM     29  C   UNL A   1      40.391  25.195  26.411  1.00  0.00     0.016 A 
ATOM     30  C   UNL A   1      41.998  25.793  28.623  1.00  0.00     0.010 A 
ATOM     31  C   UNL A   1      40.515  26.502  26.806  1.00  0.00     0.010 A 
ATOM     32  C   UNL A   1      41.204  26.755  27.985  1.00  0.00    -0.014 A 
BRANCH  32  33
ATOM     33  C   UNL A   1      41.119  28.059  28.594  1.00  0.00     0.031 A 
ATOM     34  C   UNL A   1      42.249  28.929  28.228  1.00  0.00     0.074 A 
ATOM     35  C   UNL A   1      40.093  28.422  29.386  1.00  0.00     0.049 A 
ATOM     36  N   UNL A   1      43.223  29.299  28.989  1.00  0.00    -0.248 NA
ATOM     37  C   UNL A   1      42.423  29.256  26.808  1.00  0.00     0.031 C 
ATOM     38  C   UNL A   1      38.826  27.733  29.649  1.00  0.00     0.029 A 
ATOM     39  N   UNL A   1      39.966  29.571  30.099  1.00  0.00    -0.354 N 
ATOM     40  C   UNL A   1      44.052  30.064  28.182  1.00  0.00     0.074 A 
ATOM     41  C   UNL A   1      43.611  29.862  26.826  1.00  0.00     0.031 C 
ATOM     42  C   UNL A   1      37.977  28.582  30.275  1.00  0.00     0.029 A 
ATOM     43  C   UNL A   1      38.689  29.809  30.586  1.00  0.00     0.049 A 
ATOM     44  H   UNL A   1      40.719  30.186  30.257  1.00  0.00     0.167 HD
ATOM     45  C   UNL A   1      44.880  30.994  28.723  1.00  0.00     0.037 A 
ATOM     46  C   UNL A   1      38.264  30.979  31.126  1.00  0.00     0.037 A 
ATOM     47  C   UNL A   1      45.083  30.769  30.130  1.00  0.00     0.049 A 
ATOM     48  C   UNL A   1      39.477  31.707  31.594  1.00  0.00     0.074 A 
ATOM     49  C   UNL A   1      45.664  29.760  30.873  1.00  0.00     0.029 A 
ATOM     50  N   UNL A   1      44.306  31.480  31.012  1.00  0.00    -0.354 N 
ATOM     51  N   UNL A   1      40.226  31.285  32.577  1.00  0.00    -0.248 NA
ATOM     52  C   UNL A   1      40.134  32.602  30.651  1.00  0.00     0.031 C 
ATOM     53  C   UNL A   1      44.842  29.630  32.032  1.00  0.00     0.029 A 
ATOM     54  C   UNL A   1      43.844  30.602  31.961  1.00  0.00     0.049 A 
ATOM     55  H   UNL A   1      44.115  32.444  30.971  1.00  0.00     0.167 HD
ATOM     56  C   UNL A   1      41.529  31.506  32.155  1.00  0.00     0.074 A 
ATOM     57  C   UNL A   1      41.408  32.374  30.986  1.00  0.00     0.031 C 
ATOM     58  C   UNL A   1      42.559  30.731  32.608  1.00  0.00     0.037 A 
BRANCH  45  59
ATOM     59  C   UNL A   1      45.178  32.310  28.063  1.00  0.00     0.064 A 
ATOM     60  C   UNL A   1      44.132  33.225  27.857  1.00  0.00     0.173 A 
ATOM     61  C   UNL A   1      46.374  32.571  27.357  1.00  0.00     0.173 A 
ATOM     62  F   UNL A   1      42.948  33.057  28.466  1.00  0.00    -0.203 F 
ATOM     63  C   UNL A   1      44.250  34.279  26.948  1.00  0.00     0.198 A 
ATOM     64  C   UNL A   1      46.506  33.653  26.494  1.00  0.00     0.198 A 
ATOM     65  F   UNL A   1      47.416  31.730  27.380  1.00  0.00    -0.203 F 
ATOM     66  F   UNL A   1      43.188  35.052  26.686  1.00  0.00    -0.200 F 
ATOM     67  C   UNL A   1      45.435  34.488  26.263  1.00  0.00     0.200 A 
ATOM     68  F   UNL A   1      47.657  33.825  25.827  1.00  0.00    -0.200 F 
ATOM     69  F   UNL A   1      45.529  35.457  25.344  1.00  0.00    -0.200 F 
ENDBRANCH  45  59
BRANCH  46  70
ATOM     70  C   UNL A   1      36.977  31.661  30.844  1.00  0.00     0.064 A 
ATOM     71  C   UNL A   1      36.034  31.898  31.857  1.00  0.00     0.173 A 
ATOM     72  C   UNL A   1      36.768  32.339  29.626  1.00  0.00     0.173 A 
ATOM     73  F   UNL A   1      36.191  31.340  33.066  1.00  0.00    -0.203 F 
ATOM     74  C   UNL A   1      34.951  32.766  31.663  1.00  0.00     0.198 A 
ATOM     75  C   UNL A   1      35.688  33.202  29.432  1.00  0.00     0.198 A 
ATOM     76  F   UNL A   1      37.661  32.253  28.629  1.00  0.00    -0.203 F 
ATOM     77  F   UNL A   1      34.099  33.009  32.669  1.00  0.00    -0.200 F 
ATOM     78  C   UNL A   1      34.784  33.423  30.454  1.00  0.00     0.200 A 
ATOM     79  F   UNL A   1      35.567  33.865  28.274  1.00  0.00    -0.200 F 
ATOM     80  F   UNL A   1      33.782  34.298  30.288  1.00  0.00    -0.200 F 
ENDBRANCH  46  70
BRANCH  58  81
ATOM     81  C   UNL A   1      42.262  29.776  33.732  1.00  0.00     0.064 A 
ATOM     82  C   UNL A   1      41.757  28.477  33.544  1.00  0.00     0.173 A 
ATOM     83  C   UNL A   1      42.627  30.140  35.034  1.00  0.00     0.173 A 
ATOM     84  F   UNL A   1      41.485  28.016  32.318  1.00  0.00    -0.203 F 
ATOM     85  C   UNL A   1      41.578  27.604  34.618  1.00  0.00     0.198 A 
ATOM     86  C   UNL A   1      42.482  29.255  36.099  1.00  0.00     0.198 A 
ATOM     87  F   UNL A   1      43.173  31.343  35.266  1.00  0.00    -0.203 F 
ATOM     88  F   UNL A   1      41.082  26.374  34.411  1.00  0.00    -0.200 F 
ATOM     89  C   UNL A   1      41.946  27.993  35.894  1.00  0.00     0.200 A 
ATOM     90  F   UNL A   1      42.887  29.617  37.324  1.00  0.00    -0.200 F 
ATOM     91  F   UNL A   1      41.809  27.144  36.922  1.00  0.00    -0.200 F 
ENDBRANCH  58  81
ENDBRANCH  32  33
ENDBRANCH  25  27
ENDBRANCH  24  25
ENDBRANCH  23  24
ENDBRANCH  22  23
ENDBRANCH   1  22
TORSDOF 16
ENDMDL
MODEL 3
REMARK VINA RESULT:     -11.6      5.101     10.804
REMARK SMILES CC(=O)c1nnn(-c2ccc(C(=O)OCCOCCOC(=O)c3ccc(-c4c5nc(c(-c6c(F)c(F)c(F)c(F)c6F)c6ccc([nH]6)c(-c6c(F)c(F)c(F)c(F)c6F)c6nc(c(-c7c(F)c(F)c(F)c(F)c7F)c7ccc4[nH]7)C=C6)C=C5)cc3)cc2)c1C
REMARK SMILES IDX 17 1 16 2 15 3 14 4 12 5 13 6 11 7 8 8 9 9 87 10 10 11 86 12
REMARK SMILES IDX 7 13 4 14 5 15 88 16 6 17 89 18 2 19 1 20 3 21 18 22 19 23
REMARK SMILES IDX 20 24 21 25 22 26 23 27 24 28 85 29 25 30 84 31 26 32 27 33
REMARK SMILES IDX 28 34 78 35 29 36 83 37 77 38 79 39 30 40 82 41 76 42 75 43
REMARK SMILES IDX 31 45 63 46 43 47 62 48 44 49 47 50 61 51 80 52 45 53 46 54
REMARK SMILES IDX 60 56 81 57 48 58 32 59 33 60 41 61 34 62 35 63 39 64 42 65
REMARK SMILES IDX 36 66 37 67 40 68 38 69 64 70 65 71 73 72 66 73 67 74 71 75
REMARK SMILES IDX 74 76 68 77 69 78 72 79 70 80 49 81 50 82 58 83 51 84 52 85
REMARK SMILES IDX 56 86 59 87 53 88 54 89 57 90 55 91
REMARK H PARENT 79 44 47 55
REMARK Flexibility Score: inf
ROOT
ATOM      1  O   UNL A   1      34.086  33.678  30.616  1.00  0.00    -0.374 OA
ENDROOT
BRANCH   1   2
ATOM      2  C   UNL A   1      34.454  34.201  31.891  1.00  0.00     0.202 C 
BRANCH   2   3
ATOM      3  C   UNL A   1      34.413  33.281  33.112  1.00  0.00     0.261 C 
BRANCH   3   4
ATOM      4  O   UNL A   1      35.703  33.099  33.711  1.00  0.00    -0.460 OA
BRANCH   4   5
ATOM      5  C   UNL A   1      36.500  32.225  33.050  1.00  0.00     0.338 C 
ATOM      6  O   UNL A   1      36.180  31.147  32.579  1.00  0.00    -0.246 OA
BRANCH   5   7
ATOM      7  C   UNL A   1      37.838  32.809  32.836  1.00  0.00     0.060 A 
ATOM      8  C   UNL A   1      40.265  33.774  31.945  1.00  0.00     0.067 A 
ATOM      9  C   UNL A   1      39.137  34.584  31.810  1.00  0.00     0.029 A 
ATOM     10  C   UNL A   1      40.216  32.567  32.660  1.00  0.00     0.029 A 
ATOM     11  C   UNL A   1      37.911  34.076  32.233  1.00  0.00     0.018 A 
ATOM     12  C   UNL A   1      38.996  32.086  33.122  1.00  0.00     0.018 A 
BRANCH   8  13
ATOM     13  N   UNL A   1      41.405  34.063  31.169  1.00  0.00    -0.217 N 
ATOM     14  C   UNL A   1      43.313  34.825  30.445  1.00  0.00     0.151 A 
ATOM     15  N   UNL A   1      42.702  34.091  29.453  1.00  0.00    -0.126 NA
ATOM     16  C   UNL A   1      42.533  34.756  31.590  1.00  0.00     0.073 A 
ATOM     17  N   UNL A   1      41.607  33.535  29.950  1.00  0.00    -0.061 NA
ATOM     18  C   UNL A   1      42.718  35.190  32.998  1.00  0.00     0.069 C 
BRANCH  14  19
ATOM     19  C   UNL A   1      44.591  35.488  30.210  1.00  0.00     0.181 C 
ATOM     20  C   UNL A   1      45.870  34.721  30.430  1.00  0.00     0.095 C 
ATOM     21  O   UNL A   1      44.644  36.660  29.834  1.00  0.00    -0.293 OA
ENDBRANCH  14  19
ENDBRANCH   8  13
ENDBRANCH   5   7
ENDBRANCH   4   5
ENDBRANCH   3   4
ENDBRANCH   2   3
ENDBRANCH   1   2
BRANCH   1  22
ATOM     22  C   UNL A   1      34.213  34.467  29.438  1.00  0.00     0.202 C 
BRANCH  22  23
ATOM     23  C   UNL A   1      34.417  33.766  28.103  1.00  0.00     0.261 C 
BRANCH  23  24
ATOM     24  O   UNL A   1      35.679  33.123  28.034  1.00  0.00    -0.460 OA
BRANCH  24  25
ATOM     25  C   UNL A   1      35.602  31.773  27.989  1.00  0.00     0.338 C 
ATOM     26  O   UNL A   1      34.843  31.094  27.329  1.00  0.00    -0.246 OA
BRANCH  25  27
ATOM     27  C   UNL A   1      36.525  31.227  28.993  1.00  0.00     0.060 A 
ATOM     28  C   UNL A   1      37.696  31.959  29.186  1.00  0.00     0.016 A 
ATOM     29  C   UNL A   1      36.393  29.895  29.414  1.00  0.00     0.016 A 
ATOM     30  C   UNL A   1      38.834  31.260  29.500  1.00  0.00     0.010 A 
ATOM     31  C   UNL A   1      37.528  29.202  29.747  1.00  0.00     0.010 A 
ATOM     32  C   UNL A   1      38.742  29.869  29.648  1.00  0.00    -0.014 A 
BRANCH  32  33
ATOM     33  C   UNL A   1      39.973  29.121  29.701  1.00  0.00     0.031 A 
ATOM     34  C   UNL A   1      40.481  28.966  31.075  1.00  0.00     0.074 A 
ATOM     35  C   UNL A   1      40.558  28.611  28.602  1.00  0.00     0.049 A 
ATOM     36  N   UNL A   1      41.510  29.546  31.593  1.00  0.00    -0.248 NA
ATOM     37  C   UNL A   1      39.634  28.248  32.036  1.00  0.00     0.031 C 
ATOM     38  C   UNL A   1      40.049  28.517  27.230  1.00  0.00     0.029 A 
ATOM     39  N   UNL A   1      41.766  27.994  28.519  1.00  0.00    -0.354 N 
ATOM     40  C   UNL A   1      41.549  29.120  32.912  1.00  0.00     0.074 A 
ATOM     41  C   UNL A   1      40.289  28.473  33.175  1.00  0.00     0.031 C 
ATOM     42  C   UNL A   1      40.842  27.683  26.515  1.00  0.00     0.029 A 
ATOM     43  C   UNL A   1      41.984  27.311  27.331  1.00  0.00     0.049 A 
ATOM     44  H   UNL A   1      42.432  28.028  29.243  1.00  0.00     0.167 HD
ATOM     45  C   UNL A   1      42.715  29.122  33.608  1.00  0.00     0.037 A 
ATOM     46  C   UNL A   1      43.003  26.445  27.104  1.00  0.00     0.037 A 
ATOM     47  C   UNL A   1      43.700  29.969  32.988  1.00  0.00     0.049 A 
ATOM     48  C   UNL A   1      44.080  26.777  28.078  1.00  0.00     0.074 A 
ATOM     49  C   UNL A   1      43.794  31.327  32.749  1.00  0.00     0.029 A 
ATOM     50  N   UNL A   1      44.621  29.380  32.157  1.00  0.00    -0.354 N 
ATOM     51  N   UNL A   1      44.751  27.897  28.044  1.00  0.00    -0.248 NA
ATOM     52  C   UNL A   1      44.054  26.107  29.372  1.00  0.00     0.031 C 
ATOM     53  C   UNL A   1      44.409  31.436  31.466  1.00  0.00     0.029 A 
ATOM     54  C   UNL A   1      44.709  30.147  31.023  1.00  0.00     0.049 A 
ATOM     55  H   UNL A   1      45.127  28.556  32.342  1.00  0.00     0.167 HD
ATOM     56  C   UNL A   1      44.864  28.287  29.371  1.00  0.00     0.074 A 
ATOM     57  C   UNL A   1      44.467  27.114  30.147  1.00  0.00     0.031 C 
ATOM     58  C   UNL A   1      44.982  29.605  29.712  1.00  0.00     0.037 A 
BRANCH  45  59
ATOM     59  C   UNL A   1      43.073  28.062  34.610  1.00  0.00     0.064 A 
ATOM     60  C   UNL A   1      43.405  28.444  35.921  1.00  0.00     0.173 A 
ATOM     61  C   UNL A   1      43.401  26.735  34.252  1.00  0.00     0.173 A 
ATOM     62  F   UNL A   1      43.153  29.689  36.354  1.00  0.00    -0.203 F 
ATOM     63  C   UNL A   1      44.086  27.583  36.784  1.00  0.00     0.198 A 
ATOM     64  C   UNL A   1      44.030  25.863  35.133  1.00  0.00     0.198 A 
ATOM     65  F   UNL A   1      43.235  26.268  33.009  1.00  0.00    -0.203 F 
ATOM     66  F   UNL A   1      44.496  28.028  37.980  1.00  0.00    -0.200 F 
ATOM     67  C   UNL A   1      44.404  26.296  36.386  1.00  0.00     0.200 A 
ATOM     68  F   UNL A   1      44.345  24.626  34.720  1.00  0.00    -0.200 F 
ATOM     69  F   UNL A   1      45.114  25.491  37.187  1.00  0.00    -0.200 F 
ENDBRANCH  45  59
BRANCH  46  70
ATOM     70  C   UNL A   1      42.900  25.121  26.442  1.00  0.00     0.064 A 
ATOM     71  C   UNL A   1      43.710  24.784  25.345  1.00  0.00     0.173 A 
ATOM     72  C   UNL A   1      42.195  24.061  27.045  1.00  0.00     0.173 A 
ATOM     73  F   UNL A   1      44.462  25.722  24.751  1.00  0.00    -0.203 F 
ATOM     74  C   UNL A   1      43.813  23.464  24.887  1.00  0.00     0.198 A 
ATOM     75  C   UNL A   1      42.294  22.747  26.587  1.00  0.00     0.198 A 
ATOM     76  F   UNL A   1      41.467  24.263  28.153  1.00  0.00    -0.203 F 
ATOM     77  F   UNL A   1      44.636  23.170  23.871  1.00  0.00    -0.200 F 
ATOM     78  C   UNL A   1      43.111  22.446  25.513  1.00  0.00     0.200 A 
ATOM     79  F   UNL A   1      41.646  21.767  27.232  1.00  0.00    -0.200 F 
ATOM     80  F   UNL A   1      43.254  21.175  25.112  1.00  0.00    -0.200 F 
ENDBRANCH  46  70
BRANCH  58  81
ATOM     81  C   UNL A   1      45.196  30.591  28.596  1.00  0.00     0.064 A 
ATOM     82  C   UNL A   1      44.150  31.212  27.889  1.00  0.00     0.173 A 
ATOM     83  C   UNL A   1      46.499  31.023  28.324  1.00  0.00     0.173 A 
ATOM     84  F   UNL A   1      42.872  30.932  28.166  1.00  0.00    -0.203 F 
ATOM     85  C   UNL A   1      44.406  32.181  26.918  1.00  0.00     0.198 A 
ATOM     86  C   UNL A   1      46.750  32.016  27.381  1.00  0.00     0.198 A 
ATOM     87  F   UNL A   1      47.532  30.512  29.012  1.00  0.00    -0.203 F 
ATOM     88  F   UNL A   1      43.390  32.748  26.249  1.00  0.00    -0.200 F 
ATOM     89  C   UNL A   1      45.706  32.585  26.669  1.00  0.00     0.200 A 
ATOM     90  F   UNL A   1      48.005  32.441  27.180  1.00  0.00    -0.200 F 
ATOM     91  F   UNL A   1      45.952  33.543  25.763  1.00  0.00    -0.200 F 
ENDBRANCH  58  81
ENDBRANCH  32  33
ENDBRANCH  25  27
ENDBRANCH  24  25
ENDBRANCH  23  24
ENDBRANCH  22  23
ENDBRANCH   1  22
TORSDOF 16
ENDMDL
