MODEL 1
REMARK VINA RESULT:      -9.7      0.000      0.000
REMARK SMILES C[N@@H+](CCCCC(=O)OCCOCCOC(=O)c1ccc(-c2c3nc(c(-c4c(F)c(F)c(F)c(F)c4F)c4ccc([nH]4)c(-c4c(F)c(F)c(F)c(F)c4F)c4nc(c(-c5c(F)c(F)c(F)c(F)c5F)c5ccc2[nH]5)C=C4)C=C3)cc1)CC(C)(C)O
REMARK SMILES IDX 10 1 9 2 7 3 8 4 6 5 5 6 4 7 3 8 2 9 1 10 81 12 82 13 83 14
REMARK SMILES IDX 84 15 85 16 11 18 12 19 13 20 14 21 15 22 16 23 17 24 18 25
REMARK SMILES IDX 19 26 80 27 20 28 79 29 21 30 22 31 23 32 73 33 24 34 78 35
REMARK SMILES IDX 72 36 74 37 25 38 77 39 71 40 70 41 26 43 58 44 38 45 57 46
REMARK SMILES IDX 39 47 42 48 56 49 75 50 40 51 41 52 55 54 76 55 43 56 27 57
REMARK SMILES IDX 28 58 36 59 29 60 30 61 34 62 37 63 31 64 32 65 35 66 33 67
REMARK SMILES IDX 59 68 60 69 68 70 61 71 62 72 66 73 69 74 63 75 64 76 67 77
REMARK SMILES IDX 65 78 44 79 45 80 53 81 46 82 47 83 51 84 54 85 48 86 49 87
REMARK SMILES IDX 52 88 50 89
REMARK H PARENT 2 11 85 17 74 42 42 53
REMARK Flexibility Score: inf
ROOT
ATOM      1  C   UNL A   1      34.602  29.680  27.074  1.00  0.00     0.261 C 
ENDROOT
BRANCH   1   2
ATOM      2  O   UNL A   1      34.114  29.231  25.796  1.00  0.00    -0.463 OA
BRANCH   2   3
ATOM      3  C   UNL A   1      33.697  27.943  25.720  1.00  0.00     0.305 C 
ATOM      4  O   UNL A   1      33.422  27.232  26.678  1.00  0.00    -0.252 OA
BRANCH   3   5
ATOM      5  C   UNL A   1      33.634  27.461  24.292  1.00  0.00     0.123 C 
BRANCH   5   6
ATOM      6  C   UNL A   1      32.280  26.896  23.862  1.00  0.00     0.017 C 
BRANCH   6   7
ATOM      7  C   UNL A   1      31.053  27.712  24.283  1.00  0.00     0.062 C 
BRANCH   7   8
ATOM      8  C   UNL A   1      30.851  29.029  23.520  1.00  0.00     0.262 C 
BRANCH   8   9
ATOM      9  N   UNL A   1      29.514  29.402  23.046  1.00  0.00    -0.335 N 
ATOM     10  C   UNL A   1      28.577  28.297  23.002  1.00  0.00     0.332 C 
ATOM     11  H   UNL A   1      29.171  29.994  23.803  1.00  0.00     0.347 HD
BRANCH   9  12
ATOM     12  C   UNL A   1      29.432  30.361  21.937  1.00  0.00     0.296 C 
BRANCH  12  13
ATOM     13  C   UNL A   1      28.715  31.758  22.072  1.00  0.00     0.108 C 
ATOM     14  C   UNL A   1      27.959  32.156  20.800  1.00  0.00     0.048 C 
ATOM     15  C   UNL A   1      27.711  31.702  23.238  1.00  0.00     0.048 C 
BRANCH  13  16
ATOM     16  O   UNL A   1      29.644  32.807  22.365  1.00  0.00    -0.385 OA
ATOM     17  H   UNL A   1      29.219  33.666  22.210  1.00  0.00     0.211 HD
ENDBRANCH  13  16
ENDBRANCH  12  13
ENDBRANCH   9  12
ENDBRANCH   8   9
ENDBRANCH   7   8
ENDBRANCH   6   7
ENDBRANCH   5   6
ENDBRANCH   3   5
ENDBRANCH   2   3
ENDBRANCH   1   2
BRANCH   1  18
ATOM     18  C   UNL A   1      33.707  30.807  27.593  1.00  0.00     0.202 C 
BRANCH  18  19
ATOM     19  O   UNL A   1      32.356  30.794  27.125  1.00  0.00    -0.374 OA
BRANCH  19  20
ATOM     20  C   UNL A   1      31.762  32.062  26.857  1.00  0.00     0.202 C 
BRANCH  20  21
ATOM     21  C   UNL A   1      32.601  33.290  27.241  1.00  0.00     0.261 C 
BRANCH  21  22
ATOM     22  O   UNL A   1      32.245  33.834  28.524  1.00  0.00    -0.460 OA
BRANCH  22  23
ATOM     23  C   UNL A   1      32.944  34.944  28.868  1.00  0.00     0.338 C 
ATOM     24  O   UNL A   1      32.612  36.107  28.714  1.00  0.00    -0.246 OA
BRANCH  23  25
ATOM     25  C   UNL A   1      34.142  34.577  29.645  1.00  0.00     0.060 A 
ATOM     26  C   UNL A   1      35.368  34.628  28.973  1.00  0.00     0.016 A 
ATOM     27  C   UNL A   1      34.069  34.097  30.955  1.00  0.00     0.016 A 
ATOM     28  C   UNL A   1      36.519  34.146  29.586  1.00  0.00     0.010 A 
ATOM     29  C   UNL A   1      35.230  33.605  31.569  1.00  0.00     0.010 A 
ATOM     30  C   UNL A   1      36.452  33.590  30.872  1.00  0.00    -0.014 A 
BRANCH  30  31
ATOM     31  C   UNL A   1      37.646  32.873  31.387  1.00  0.00     0.031 A 
ATOM     32  C   UNL A   1      38.185  33.220  32.749  1.00  0.00     0.074 A 
ATOM     33  C   UNL A   1      38.173  31.845  30.699  1.00  0.00     0.049 A 
ATOM     34  N   UNL A   1      39.139  32.644  33.438  1.00  0.00    -0.248 NA
ATOM     35  C   UNL A   1      37.561  34.366  33.429  1.00  0.00     0.031 C 
ATOM     36  C   UNL A   1      37.726  31.395  29.382  1.00  0.00     0.029 A 
ATOM     37  N   UNL A   1      39.190  30.980  31.023  1.00  0.00    -0.354 N 
ATOM     38  C   UNL A   1      39.216  33.344  34.636  1.00  0.00     0.074 A 
ATOM     39  C   UNL A   1      38.249  34.417  34.561  1.00  0.00     0.031 C 
ATOM     40  C   UNL A   1      38.460  30.333  29.011  1.00  0.00     0.029 A 
ATOM     41  C   UNL A   1      39.440  30.039  30.057  1.00  0.00     0.049 A 
ATOM     42  H   UNL A   1      39.693  31.032  31.868  1.00  0.00     0.167 HD
ATOM     43  C   UNL A   1      40.004  33.099  35.710  1.00  0.00     0.037 A 
ATOM     44  C   UNL A   1      40.357  29.052  30.018  1.00  0.00     0.037 A 
ATOM     45  C   UNL A   1      40.975  32.039  35.783  1.00  0.00     0.049 A 
ATOM     46  C   UNL A   1      41.259  28.835  31.206  1.00  0.00     0.074 A 
ATOM     47  C   UNL A   1      41.828  31.716  36.826  1.00  0.00     0.029 A 
ATOM     48  N   UNL A   1      41.225  31.126  34.768  1.00  0.00    -0.354 N 
ATOM     49  N   UNL A   1      41.302  29.483  32.345  1.00  0.00    -0.248 NA
ATOM     50  C   UNL A   1      42.230  27.735  31.107  1.00  0.00     0.031 C 
ATOM     51  C   UNL A   1      42.625  30.638  36.424  1.00  0.00     0.029 A 
ATOM     52  C   UNL A   1      42.231  30.253  35.153  1.00  0.00     0.049 A 
ATOM     53  H   UNL A   1      40.757  31.102  33.903  1.00  0.00     0.167 HD
ATOM     54  C   UNL A   1      42.285  28.860  33.103  1.00  0.00     0.074 A 
ATOM     55  C   UNL A   1      42.794  27.764  32.306  1.00  0.00     0.031 C 
ATOM     56  C   UNL A   1      42.730  29.168  34.347  1.00  0.00     0.037 A 
BRANCH  43  57
ATOM     57  C   UNL A   1      39.855  34.006  36.897  1.00  0.00     0.064 A 
ATOM     58  C   UNL A   1      40.524  35.238  36.969  1.00  0.00     0.173 A 
ATOM     59  C   UNL A   1      39.002  33.662  37.956  1.00  0.00     0.173 A 
ATOM     60  F   UNL A   1      41.362  35.607  35.988  1.00  0.00    -0.203 F 
ATOM     61  C   UNL A   1      40.361  36.080  38.065  1.00  0.00     0.198 A 
ATOM     62  C   UNL A   1      38.821  34.519  39.039  1.00  0.00     0.198 A 
ATOM     63  F   UNL A   1      38.334  32.498  37.937  1.00  0.00    -0.203 F 
ATOM     64  F   UNL A   1      41.044  37.232  38.131  1.00  0.00    -0.200 F 
ATOM     65  C   UNL A   1      39.505  35.724  39.095  1.00  0.00     0.200 A 
ATOM     66  F   UNL A   1      37.981  34.179  40.027  1.00  0.00    -0.200 F 
ATOM     67  F   UNL A   1      39.342  36.540  40.147  1.00  0.00    -0.200 F 
ENDBRANCH  43  57
BRANCH  44  68
ATOM     68  C   UNL A   1      40.474  28.194  28.810  1.00  0.00     0.064 A 
ATOM     69  C   UNL A   1      41.256  28.579  27.712  1.00  0.00     0.173 A 
ATOM     70  C   UNL A   1      39.777  26.980  28.720  1.00  0.00     0.173 A 
ATOM     71  F   UNL A   1      41.920  29.743  27.737  1.00  0.00    -0.203 F 
ATOM     72  C   UNL A   1      41.316  27.794  26.561  1.00  0.00     0.198 A 
ATOM     73  C   UNL A   1      39.865  26.181  27.583  1.00  0.00     0.198 A 
ATOM     74  F   UNL A   1      39.015  26.566  29.742  1.00  0.00    -0.203 F 
ATOM     75  F   UNL A   1      42.027  28.212  25.505  1.00  0.00    -0.200 F 
ATOM     76  C   UNL A   1      40.626  26.593  26.500  1.00  0.00     0.200 A 
ATOM     77  F   UNL A   1      39.205  25.016  27.534  1.00  0.00    -0.200 F 
ATOM     78  F   UNL A   1      40.685  25.839  25.394  1.00  0.00    -0.200 F 
ENDBRANCH  44  68
BRANCH  56  79
ATOM     79  C   UNL A   1      43.806  28.294  34.927  1.00  0.00     0.064 A 
ATOM     80  C   UNL A   1      45.167  28.595  34.766  1.00  0.00     0.173 A 
ATOM     81  C   UNL A   1      43.471  27.147  35.664  1.00  0.00     0.173 A 
ATOM     82  F   UNL A   1      45.540  29.674  34.060  1.00  0.00    -0.203 F 
ATOM     83  C   UNL A   1      46.152  27.761  35.287  1.00  0.00     0.198 A 
ATOM     84  C   UNL A   1      44.460  26.333  36.210  1.00  0.00     0.198 A 
ATOM     85  F   UNL A   1      42.186  26.817  35.856  1.00  0.00    -0.203 F 
ATOM     86  F   UNL A   1      47.446  28.037  35.067  1.00  0.00    -0.200 F 
ATOM     87  C   UNL A   1      45.798  26.634  36.012  1.00  0.00     0.200 A 
ATOM     88  F   UNL A   1      44.116  25.251  36.924  1.00  0.00    -0.200 F 
ATOM     89  F   UNL A   1      46.748  25.831  36.512  1.00  0.00    -0.200 F 
ENDBRANCH  56  79
ENDBRANCH  30  31
ENDBRANCH  23  25
ENDBRANCH  22  23
ENDBRANCH  21  22
ENDBRANCH  20  21
ENDBRANCH  19  20
ENDBRANCH  18  19
ENDBRANCH   1  18
TORSDOF 21
ENDMDL
MODEL 2
REMARK VINA RESULT:      -9.5      4.922     10.366
REMARK SMILES C[N@@H+](CCCCC(=O)OCCOCCOC(=O)c1ccc(-c2c3nc(c(-c4c(F)c(F)c(F)c(F)c4F)c4ccc([nH]4)c(-c4c(F)c(F)c(F)c(F)c4F)c4nc(c(-c5c(F)c(F)c(F)c(F)c5F)c5ccc2[nH]5)C=C4)C=C3)cc1)CC(C)(C)O
REMARK SMILES IDX 10 1 9 2 7 3 8 4 6 5 5 6 4 7 3 8 2 9 1 10 81 12 82 13 83 14
REMARK SMILES IDX 84 15 85 16 11 18 12 19 13 20 14 21 15 22 16 23 17 24 18 25
REMARK SMILES IDX 19 26 80 27 20 28 79 29 21 30 22 31 23 32 73 33 24 34 78 35
REMARK SMILES IDX 72 36 74 37 25 38 77 39 71 40 70 41 26 43 58 44 38 45 57 46
REMARK SMILES IDX 39 47 42 48 56 49 75 50 40 51 41 52 55 54 76 55 43 56 27 57
REMARK SMILES IDX 28 58 36 59 29 60 30 61 34 62 37 63 31 64 32 65 35 66 33 67
REMARK SMILES IDX 59 68 60 69 68 70 61 71 62 72 66 73 69 74 63 75 64 76 67 77
REMARK SMILES IDX 65 78 44 79 45 80 53 81 46 82 47 83 51 84 54 85 48 86 49 87
REMARK SMILES IDX 52 88 50 89
REMARK H PARENT 2 11 85 17 74 42 42 53
REMARK Flexibility Score: inf
ROOT
ATOM      1  C   UNL A   1      34.728  24.487  24.538  1.00  0.00     0.261 C 
ENDROOT
BRANCH   1   2
ATOM      2  O   UNL A   1      33.323  24.697  24.771  1.00  0.00    -0.463 OA
BRANCH   2   3
ATOM      3  C   UNL A   1      32.991  25.649  25.676  1.00  0.00     0.305 C 
ATOM      4  O   UNL A   1      33.758  26.485  26.138  1.00  0.00    -0.252 OA
BRANCH   3   5
ATOM      5  C   UNL A   1      31.542  25.548  26.086  1.00  0.00     0.123 C 
BRANCH   5   6
ATOM      6  C   UNL A   1      30.568  25.265  24.942  1.00  0.00     0.017 C 
BRANCH   6   7
ATOM      7  C   UNL A   1      29.872  26.489  24.339  1.00  0.00     0.062 C 
BRANCH   7   8
ATOM      8  C   UNL A   1      30.812  27.555  23.758  1.00  0.00     0.262 C 
BRANCH   8   9
ATOM      9  N   UNL A   1      30.745  28.935  24.251  1.00  0.00    -0.335 N 
ATOM     10  C   UNL A   1      29.830  29.780  23.510  1.00  0.00     0.332 C 
ATOM     11  H   UNL A   1      30.301  28.821  25.162  1.00  0.00     0.347 HD
BRANCH   9  12
ATOM     12  C   UNL A   1      32.002  29.565  24.676  1.00  0.00     0.296 C 
BRANCH  12  13
ATOM     13  C   UNL A   1      32.249  30.060  26.151  1.00  0.00     0.108 C 
ATOM     14  C   UNL A   1      31.504  31.362  26.466  1.00  0.00     0.048 C 
ATOM     15  C   UNL A   1      31.775  28.977  27.136  1.00  0.00     0.048 C 
BRANCH  13  16
ATOM     16  O   UNL A   1      33.638  30.288  26.411  1.00  0.00    -0.385 OA
ATOM     17  H   UNL A   1      34.172  29.718  25.835  1.00  0.00     0.211 HD
ENDBRANCH  13  16
ENDBRANCH  12  13
ENDBRANCH   9  12
ENDBRANCH   8   9
ENDBRANCH   7   8
ENDBRANCH   6   7
ENDBRANCH   5   6
ENDBRANCH   3   5
ENDBRANCH   2   3
ENDBRANCH   1   2
BRANCH   1  18
ATOM     18  C   UNL A   1      35.012  22.986  24.460  1.00  0.00     0.202 C 
BRANCH  18  19
ATOM     19  O   UNL A   1      35.525  22.386  25.653  1.00  0.00    -0.374 OA
BRANCH  19  20
ATOM     20  C   UNL A   1      35.851  21.000  25.581  1.00  0.00     0.202 C 
BRANCH  20  21
ATOM     21  C   UNL A   1      37.211  20.663  24.950  1.00  0.00     0.261 C 
BRANCH  21  22
ATOM     22  O   UNL A   1      38.198  21.687  25.166  1.00  0.00    -0.460 OA
BRANCH  22  23
ATOM     23  C   UNL A   1      39.180  21.334  26.032  1.00  0.00     0.338 C 
ATOM     24  O   UNL A   1      39.723  20.248  26.134  1.00  0.00    -0.246 OA
BRANCH  23  25
ATOM     25  C   UNL A   1      39.668  22.517  26.765  1.00  0.00     0.060 A 
ATOM     26  C   UNL A   1      39.045  23.736  26.479  1.00  0.00     0.016 A 
ATOM     27  C   UNL A   1      40.767  22.465  27.626  1.00  0.00     0.016 A 
ATOM     28  C   UNL A   1      39.552  24.918  27.007  1.00  0.00     0.010 A 
ATOM     29  C   UNL A   1      41.280  23.659  28.153  1.00  0.00     0.010 A 
ATOM     30  C   UNL A   1      40.700  24.895  27.812  1.00  0.00    -0.014 A 
BRANCH  30  31
ATOM     31  C   UNL A   1      41.342  26.189  28.153  1.00  0.00     0.031 A 
ATOM     32  C   UNL A   1      42.744  26.464  27.682  1.00  0.00     0.074 A 
ATOM     33  C   UNL A   1      40.641  27.155  28.774  1.00  0.00     0.049 A 
ATOM     34  N   UNL A   1      43.450  27.566  27.766  1.00  0.00    -0.248 NA
ATOM     35  C   UNL A   1      43.446  25.352  27.023  1.00  0.00     0.031 C 
ATOM     36  C   UNL A   1      39.268  27.020  29.257  1.00  0.00     0.029 A 
ATOM     37  N   UNL A   1      40.985  28.446  29.089  1.00  0.00    -0.354 N 
ATOM     38  C   UNL A   1      44.665  27.284  27.155  1.00  0.00     0.074 A 
ATOM     39  C   UNL A   1      44.623  25.896  26.750  1.00  0.00     0.031 C 
ATOM     40  C   UNL A   1      38.882  28.186  29.803  1.00  0.00     0.029 A 
ATOM     41  C   UNL A   1      39.985  29.142  29.722  1.00  0.00     0.049 A 
ATOM     42  H   UNL A   1      41.865  28.836  28.881  1.00  0.00     0.167 HD
ATOM     43  C   UNL A   1      45.712  28.114  26.931  1.00  0.00     0.037 A 
ATOM     44  C   UNL A   1      39.964  30.407  30.186  1.00  0.00     0.037 A 
ATOM     45  C   UNL A   1      45.761  29.493  27.342  1.00  0.00     0.049 A 
ATOM     46  C   UNL A   1      41.163  31.294  29.971  1.00  0.00     0.074 A 
ATOM     47  C   UNL A   1      46.782  30.412  27.168  1.00  0.00     0.029 A 
ATOM     48  N   UNL A   1      44.742  30.153  28.014  1.00  0.00    -0.354 N 
ATOM     49  N   UNL A   1      42.295  31.026  29.365  1.00  0.00    -0.248 NA
ATOM     50  C   UNL A   1      41.073  32.666  30.490  1.00  0.00     0.031 C 
ATOM     51  C   UNL A   1      46.399  31.614  27.774  1.00  0.00     0.029 A 
ATOM     52  C   UNL A   1      45.118  31.461  28.278  1.00  0.00     0.049 A 
ATOM     53  H   UNL A   1      43.880  29.751  28.266  1.00  0.00     0.167 HD
ATOM     54  C   UNL A   1      43.041  32.198  29.412  1.00  0.00     0.074 A 
ATOM     55  C   UNL A   1      42.222  33.187  30.081  1.00  0.00     0.031 C 
ATOM     56  C   UNL A   1      44.293  32.434  28.948  1.00  0.00     0.037 A 
BRANCH  43  57
ATOM     57  C   UNL A   1      46.902  27.547  26.211  1.00  0.00     0.064 A 
ATOM     58  C   UNL A   1      47.018  27.619  24.815  1.00  0.00     0.173 A 
ATOM     59  C   UNL A   1      47.958  26.963  26.927  1.00  0.00     0.173 A 
ATOM     60  F   UNL A   1      46.029  28.156  24.083  1.00  0.00    -0.203 F 
ATOM     61  C   UNL A   1      48.135  27.108  24.160  1.00  0.00     0.198 A 
ATOM     62  C   UNL A   1      49.086  26.477  26.271  1.00  0.00     0.198 A 
ATOM     63  F   UNL A   1      47.901  26.873  28.264  1.00  0.00    -0.203 F 
ATOM     64  F   UNL A   1      48.204  27.149  22.822  1.00  0.00    -0.200 F 
ATOM     65  C   UNL A   1      49.171  26.544  24.888  1.00  0.00     0.200 A 
ATOM     66  F   UNL A   1      50.093  25.946  26.978  1.00  0.00    -0.200 F 
ATOM     67  F   UNL A   1      50.251  26.061  24.258  1.00  0.00    -0.200 F 
ENDBRANCH  43  57
BRANCH  44  68
ATOM     68  C   UNL A   1      38.767  30.913  30.907  1.00  0.00     0.064 A 
ATOM     69  C   UNL A   1      38.662  30.828  32.303  1.00  0.00     0.173 A 
ATOM     70  C   UNL A   1      37.685  31.467  30.206  1.00  0.00     0.173 A 
ATOM     71  F   UNL A   1      39.656  30.282  33.017  1.00  0.00    -0.203 F 
ATOM     72  C   UNL A   1      37.512  31.255  32.965  1.00  0.00     0.198 A 
ATOM     73  C   UNL A   1      36.551  31.923  30.872  1.00  0.00     0.198 A 
ATOM     74  F   UNL A   1      37.734  31.571  28.870  1.00  0.00    -0.203 F 
ATOM     75  F   UNL A   1      37.416  31.111  34.295  1.00  0.00    -0.200 F 
ATOM     76  C   UNL A   1      36.460  31.808  32.251  1.00  0.00     0.200 A 
ATOM     77  F   UNL A   1      35.542  32.468  30.177  1.00  0.00    -0.200 F 
ATOM     78  F   UNL A   1      35.356  32.218  32.889  1.00  0.00    -0.200 F 
ENDBRANCH  44  68
BRANCH  56  79
ATOM     79  C   UNL A   1      44.841  33.821  29.128  1.00  0.00     0.064 A 
ATOM     80  C   UNL A   1      44.634  34.825  28.170  1.00  0.00     0.173 A 
ATOM     81  C   UNL A   1      45.573  34.154  30.279  1.00  0.00     0.173 A 
ATOM     82  F   UNL A   1      43.952  34.555  27.046  1.00  0.00    -0.203 F 
ATOM     83  C   UNL A   1      45.171  36.099  28.338  1.00  0.00     0.198 A 
ATOM     84  C   UNL A   1      46.080  35.438  30.459  1.00  0.00     0.198 A 
ATOM     85  F   UNL A   1      45.792  33.236  31.231  1.00  0.00    -0.203 F 
ATOM     86  F   UNL A   1      45.011  37.023  27.381  1.00  0.00    -0.200 F 
ATOM     87  C   UNL A   1      45.889  36.405  29.484  1.00  0.00     0.200 A 
ATOM     88  F   UNL A   1      46.762  35.737  31.574  1.00  0.00    -0.200 F 
ATOM     89  F   UNL A   1      46.406  37.632  29.645  1.00  0.00    -0.200 F 
ENDBRANCH  56  79
ENDBRANCH  30  31
ENDBRANCH  23  25
ENDBRANCH  22  23
ENDBRANCH  21  22
ENDBRANCH  20  21
ENDBRANCH  19  20
ENDBRANCH  18  19
ENDBRANCH   1  18
TORSDOF 21
ENDMDL
MODEL 3
REMARK VINA RESULT:      -9.5      5.069     10.380
REMARK SMILES C[N@@H+](CCCCC(=O)OCCOCCOC(=O)c1ccc(-c2c3nc(c(-c4c(F)c(F)c(F)c(F)c4F)c4ccc([nH]4)c(-c4c(F)c(F)c(F)c(F)c4F)c4nc(c(-c5c(F)c(F)c(F)c(F)c5F)c5ccc2[nH]5)C=C4)C=C3)cc1)CC(C)(C)O
REMARK SMILES IDX 10 1 9 2 7 3 8 4 6 5 5 6 4 7 3 8 2 9 1 10 81 12 82 13 83 14
REMARK SMILES IDX 84 15 85 16 11 18 12 19 13 20 14 21 15 22 16 23 17 24 18 25
REMARK SMILES IDX 19 26 80 27 20 28 79 29 21 30 22 31 23 32 73 33 24 34 78 35
REMARK SMILES IDX 72 36 74 37 25 38 77 39 71 40 70 41 26 43 58 44 38 45 57 46
REMARK SMILES IDX 39 47 42 48 56 49 75 50 40 51 41 52 55 54 76 55 43 56 27 57
REMARK SMILES IDX 28 58 36 59 29 60 30 61 34 62 37 63 31 64 32 65 35 66 33 67
REMARK SMILES IDX 59 68 60 69 68 70 61 71 62 72 66 73 69 74 63 75 64 76 67 77
REMARK SMILES IDX 65 78 44 79 45 80 53 81 46 82 47 83 51 84 54 85 48 86 49 87
REMARK SMILES IDX 52 88 50 89
REMARK H PARENT 2 11 85 17 74 42 42 53
REMARK Flexibility Score: inf
ROOT
ATOM      1  C   UNL A   1      32.460  21.202  25.196  1.00  0.00     0.261 C 
ENDROOT
BRANCH   1   2
ATOM      2  O   UNL A   1      32.467  22.530  24.638  1.00  0.00    -0.463 OA
BRANCH   2   3
ATOM      3  C   UNL A   1      31.911  22.678  23.411  1.00  0.00     0.305 C 
ATOM      4  O   UNL A   1      31.564  21.762  22.676  1.00  0.00    -0.252 OA
BRANCH   3   5
ATOM      5  C   UNL A   1      31.789  24.132  23.026  1.00  0.00     0.123 C 
BRANCH   5   6
ATOM      6  C   UNL A   1      33.074  24.766  22.493  1.00  0.00     0.017 C 
BRANCH   6   7
ATOM      7  C   UNL A   1      33.000  26.265  22.183  1.00  0.00     0.062 C 
BRANCH   7   8
ATOM      8  C   UNL A   1      31.582  26.849  22.118  1.00  0.00     0.262 C 
BRANCH   8   9
ATOM      9  N   UNL A   1      31.191  27.921  23.040  1.00  0.00    -0.335 N 
ATOM     10  C   UNL A   1      31.719  27.766  24.380  1.00  0.00     0.332 C 
ATOM     11  H   UNL A   1      31.691  28.727  22.663  1.00  0.00     0.347 HD
BRANCH   9  12
ATOM     12  C   UNL A   1      29.816  28.428  22.945  1.00  0.00     0.296 C 
BRANCH  12  13
ATOM     13  C   UNL A   1      29.475  29.866  22.399  1.00  0.00     0.108 C 
ATOM     14  C   UNL A   1      28.185  29.891  21.572  1.00  0.00     0.048 C 
ATOM     15  C   UNL A   1      29.311  30.833  23.586  1.00  0.00     0.048 C 
BRANCH  13  16
ATOM     16  O   UNL A   1      30.524  30.386  21.574  1.00  0.00    -0.385 OA
ATOM     17  H   UNL A   1      31.258  30.683  22.135  1.00  0.00     0.211 HD
ENDBRANCH  13  16
ENDBRANCH  12  13
ENDBRANCH   9  12
ENDBRANCH   8   9
ENDBRANCH   7   8
ENDBRANCH   6   7
ENDBRANCH   5   6
ENDBRANCH   3   5
ENDBRANCH   2   3
ENDBRANCH   1   2
BRANCH   1  18
ATOM     18  C   UNL A   1      33.776  20.501  24.855  1.00  0.00     0.202 C 
BRANCH  18  19
ATOM     19  O   UNL A   1      34.907  21.356  24.668  1.00  0.00    -0.374 OA
BRANCH  19  20
ATOM     20  C   UNL A   1      35.945  21.262  25.641  1.00  0.00     0.202 C 
BRANCH  20  21
ATOM     21  C   UNL A   1      37.302  20.755  25.128  1.00  0.00     0.261 C 
BRANCH  21  22
ATOM     22  O   UNL A   1      38.343  21.742  25.229  1.00  0.00    -0.460 OA
BRANCH  22  23
ATOM     23  C   UNL A   1      39.339  21.409  26.087  1.00  0.00     0.338 C 
ATOM     24  O   UNL A   1      39.915  20.338  26.174  1.00  0.00    -0.246 OA
BRANCH  23  25
ATOM     25  C   UNL A   1      39.794  22.596  26.833  1.00  0.00     0.060 A 
ATOM     26  C   UNL A   1      39.191  23.815  26.504  1.00  0.00     0.016 A 
ATOM     27  C   UNL A   1      40.846  22.548  27.751  1.00  0.00     0.016 A 
ATOM     28  C   UNL A   1      39.676  25.000  27.047  1.00  0.00     0.010 A 
ATOM     29  C   UNL A   1      41.337  23.746  28.292  1.00  0.00     0.010 A 
ATOM     30  C   UNL A   1      40.780  24.980  27.911  1.00  0.00    -0.014 A 
BRANCH  30  31
ATOM     31  C   UNL A   1      41.410  26.275  28.272  1.00  0.00     0.031 A 
ATOM     32  C   UNL A   1      42.809  26.571  27.806  1.00  0.00     0.074 A 
ATOM     33  C   UNL A   1      40.699  27.224  28.908  1.00  0.00     0.049 A 
ATOM     34  N   UNL A   1      43.504  27.678  27.907  1.00  0.00    -0.248 NA
ATOM     35  C   UNL A   1      43.522  25.477  27.130  1.00  0.00     0.031 C 
ATOM     36  C   UNL A   1      39.328  27.068  29.389  1.00  0.00     0.029 A 
ATOM     37  N   UNL A   1      41.030  28.514  29.244  1.00  0.00    -0.354 N 
ATOM     38  C   UNL A   1      44.722  27.418  27.293  1.00  0.00     0.074 A 
ATOM     39  C   UNL A   1      44.694  26.036  26.866  1.00  0.00     0.031 C 
ATOM     40  C   UNL A   1      38.930  28.221  29.953  1.00  0.00     0.029 A 
ATOM     41  C   UNL A   1      40.024  29.190  29.887  1.00  0.00     0.049 A 
ATOM     42  H   UNL A   1      41.906  28.915  29.043  1.00  0.00     0.167 HD
ATOM     43  C   UNL A   1      45.761  28.262  27.082  1.00  0.00     0.037 A 
ATOM     44  C   UNL A   1      39.990  30.447  30.372  1.00  0.00     0.037 A 
ATOM     45  C   UNL A   1      45.797  29.634  27.515  1.00  0.00     0.049 A 
ATOM     46  C   UNL A   1      41.181  31.349  30.171  1.00  0.00     0.074 A 
ATOM     47  C   UNL A   1      46.808  30.566  27.356  1.00  0.00     0.029 A 
ATOM     48  N   UNL A   1      44.771  30.273  28.198  1.00  0.00    -0.354 N 
ATOM     49  N   UNL A   1      42.315  31.101  29.562  1.00  0.00    -0.248 NA
ATOM     50  C   UNL A   1      41.077  32.711  30.712  1.00  0.00     0.031 C 
ATOM     51  C   UNL A   1      46.414  31.755  27.981  1.00  0.00     0.029 A 
ATOM     52  C   UNL A   1      45.134  31.581  28.482  1.00  0.00     0.049 A 
ATOM     53  H   UNL A   1      43.913  29.859  28.443  1.00  0.00     0.167 HD
ATOM     54  C   UNL A   1      43.050  32.279  29.627  1.00  0.00     0.074 A 
ATOM     55  C   UNL A   1      42.221  33.249  30.311  1.00  0.00     0.031 C 
ATOM     56  C   UNL A   1      44.300  32.535  29.167  1.00  0.00     0.037 A 
BRANCH  43  57
ATOM     57  C   UNL A   1      46.956  27.717  26.354  1.00  0.00     0.064 A 
ATOM     58  C   UNL A   1      48.002  27.077  27.037  1.00  0.00     0.173 A 
ATOM     59  C   UNL A   1      47.039  27.798  24.956  1.00  0.00     0.173 A 
ATOM     60  F   UNL A   1      47.977  26.985  28.375  1.00  0.00    -0.203 F 
ATOM     61  C   UNL A   1      49.095  26.557  26.349  1.00  0.00     0.198 A 
ATOM     62  C   UNL A   1      48.121  27.253  24.269  1.00  0.00     0.198 A 
ATOM     63  F   UNL A   1      46.065  28.396  24.254  1.00  0.00    -0.203 F 
ATOM     64  F   UNL A   1      50.103  25.987  27.026  1.00  0.00    -0.200 F 
ATOM     65  C   UNL A   1      49.151  26.639  24.966  1.00  0.00     0.200 A 
ATOM     66  F   UNL A   1      48.166  27.321  22.931  1.00  0.00    -0.200 F 
ATOM     67  F   UNL A   1      50.200  26.130  24.304  1.00  0.00    -0.200 F 
ENDBRANCH  43  57
BRANCH  44  68
ATOM     68  C   UNL A   1      38.788  30.929  31.101  1.00  0.00     0.064 A 
ATOM     69  C   UNL A   1      38.706  30.868  32.499  1.00  0.00     0.173 A 
ATOM     70  C   UNL A   1      37.680  31.436  30.404  1.00  0.00     0.173 A 
ATOM     71  F   UNL A   1      39.726  30.367  33.209  1.00  0.00    -0.203 F 
ATOM     72  C   UNL A   1      37.552  31.272  33.170  1.00  0.00     0.198 A 
ATOM     73  C   UNL A   1      36.542  31.870  31.079  1.00  0.00     0.198 A 
ATOM     74  F   UNL A   1      37.708  31.515  29.066  1.00  0.00    -0.203 F 
ATOM     75  F   UNL A   1      37.479  31.151  34.503  1.00  0.00    -0.200 F 
ATOM     76  C   UNL A   1      36.474  31.778  32.460  1.00  0.00     0.200 A 
ATOM     77  F   UNL A   1      35.507  32.369  30.388  1.00  0.00    -0.200 F 
ATOM     78  F   UNL A   1      35.367  32.167  33.106  1.00  0.00    -0.200 F 
ENDBRANCH  44  68
BRANCH  56  79
ATOM     79  C   UNL A   1      44.834  33.924  29.370  1.00  0.00     0.064 A 
ATOM     80  C   UNL A   1      44.582  34.952  28.448  1.00  0.00     0.173 A 
ATOM     81  C   UNL A   1      45.598  34.235  30.505  1.00  0.00     0.173 A 
ATOM     82  F   UNL A   1      43.868  34.704  27.339  1.00  0.00    -0.203 F 
ATOM     83  C   UNL A   1      45.107  36.228  28.636  1.00  0.00     0.198 A 
ATOM     84  C   UNL A   1      46.093  35.521  30.706  1.00  0.00     0.198 A 
ATOM     85  F   UNL A   1      45.861  33.294  31.423  1.00  0.00    -0.203 F 
ATOM     86  F   UNL A   1      44.903  37.177  27.711  1.00  0.00    -0.200 F 
ATOM     87  C   UNL A   1      45.857  36.512  29.766  1.00  0.00     0.200 A 
ATOM     88  F   UNL A   1      46.807  35.798  31.807  1.00  0.00    -0.200 F 
ATOM     89  F   UNL A   1      46.363  37.741  29.945  1.00  0.00    -0.200 F 
ENDBRANCH  56  79
ENDBRANCH  30  31
ENDBRANCH  23  25
ENDBRANCH  22  23
ENDBRANCH  21  22
ENDBRANCH  20  21
ENDBRANCH  19  20
ENDBRANCH  18  19
ENDBRANCH   1  18
TORSDOF 21
ENDMDL
