MODEL 1
REMARK VINA RESULT:     -12.5      0.000      0.000
REMARK SMILES Nc1c(Nc2ccc(I)cc2)ncnc1Nc1ccc(C(=O)OCCOCCOC(=O)c2ccc(-c3c4nc(c(-c5c(F)c(F)c(F)c(F)c5F)c5ccc([nH]5)c(-c5c(F)c(F)c(F)c(F)c5F)c5nc(c(-c6c(F)c(F)c(F)c(F)c6F)c6ccc3[nH]6)C=C5)C=C4)cc2)cc1
REMARK SMILES IDX 25 1 24 2 23 3 21 4 22 5 20 6 17 7 18 8 96 9 19 10 95 11
REMARK SMILES IDX 16 12 15 14 2 15 3 16 12 17 14 18 13 19 1 20 4 23 5 25 6 26
REMARK SMILES IDX 11 27 7 28 10 29 8 30 9 31 26 32 27 33 28 34 29 35 30 36
REMARK SMILES IDX 31 37 32 38 33 39 94 40 34 41 93 42 35 43 36 44 37 45 87 46
REMARK SMILES IDX 38 47 92 48 86 49 88 50 39 51 91 52 85 53 84 54 40 56 72 57
REMARK SMILES IDX 52 58 71 59 53 60 56 61 70 62 89 63 54 64 55 65 69 67 90 68
REMARK SMILES IDX 57 69 41 70 42 71 50 72 43 73 44 74 48 75 51 76 45 77 46 78
REMARK SMILES IDX 49 79 47 80 73 81 74 82 82 83 75 84 76 85 80 86 83 87 77 88
REMARK SMILES IDX 78 89 81 90 79 91 58 92 59 93 67 94 60 95 61 96 65 97 68 98
REMARK SMILES IDX 62 99 63 100 66 101 64 102
REMARK H PARENT 16 13 1 21 1 22 4 24 88 55 56 66
REMARK Flexibility Score: inf
ROOT
ATOM      1  C   UNL A   1      40.962  20.483  26.281  1.00  0.00     0.202 C 
ENDROOT
BRANCH   1   2
ATOM      2  C   UNL A   1      40.245  21.829  26.142  1.00  0.00     0.261 C 
BRANCH   2   3
ATOM      3  O   UNL A   1      38.833  21.650  25.961  1.00  0.00    -0.460 OA
BRANCH   3   4
ATOM      4  C   UNL A   1      38.119  22.801  25.985  1.00  0.00     0.338 C 
ATOM      5  O   UNL A   1      38.519  23.903  26.330  1.00  0.00    -0.246 OA
BRANCH   4   6
ATOM      6  C   UNL A   1      36.789  22.595  25.376  1.00  0.00     0.060 A 
ATOM      7  C   UNL A   1      34.156  22.454  24.446  1.00  0.00     0.040 A 
ATOM      8  C   UNL A   1      34.904  23.620  24.255  1.00  0.00     0.027 A 
ATOM      9  C   UNL A   1      34.775  21.326  25.010  1.00  0.00     0.027 A 
ATOM     10  C   UNL A   1      36.211  23.694  24.728  1.00  0.00     0.018 A 
ATOM     11  C   UNL A   1      36.094  21.388  25.468  1.00  0.00     0.018 A 
BRANCH   7  12
ATOM     12  N   UNL A   1      32.748  22.528  24.340  1.00  0.00    -0.338 N 
ATOM     13  H   UNL A   1      32.257  21.785  23.921  1.00  0.00     0.168 HD
BRANCH  12  14
ATOM     14  C   UNL A   1      32.024  23.655  24.825  1.00  0.00     0.159 A 
ATOM     15  C   UNL A   1      30.942  24.148  24.085  1.00  0.00     0.118 A 
ATOM     16  C   UNL A   1      30.326  25.285  24.628  1.00  0.00     0.159 A 
ATOM     17  N   UNL A   1      30.765  25.889  25.749  1.00  0.00    -0.217 NA
ATOM     18  N   UNL A   1      32.432  24.228  25.976  1.00  0.00    -0.217 NA
ATOM     19  C   UNL A   1      31.793  25.323  26.373  1.00  0.00     0.226 A 
BRANCH  15  20
ATOM     20  N   UNL A   1      30.491  23.546  22.906  1.00  0.00    -0.393 N 
ATOM     21  H   UNL A   1      31.118  23.034  22.344  1.00  0.00     0.156 HD
ATOM     22  H   UNL A   1      29.548  23.634  22.636  1.00  0.00     0.156 HD
ENDBRANCH  15  20
BRANCH  16  23
ATOM     23  N   UNL A   1      29.176  25.806  23.981  1.00  0.00    -0.338 N 
ATOM     24  H   UNL A   1      28.431  25.183  23.820  1.00  0.00     0.168 HD
BRANCH  23  25
ATOM     25  C   UNL A   1      29.006  27.134  23.549  1.00  0.00     0.040 A 
ATOM     26  C   UNL A   1      30.097  27.827  23.011  1.00  0.00     0.027 A 
ATOM     27  C   UNL A   1      27.745  27.747  23.523  1.00  0.00     0.027 A 
ATOM     28  C   UNL A   1      29.930  29.091  22.439  1.00  0.00     0.017 A 
ATOM     29  C   UNL A   1      27.573  29.015  22.963  1.00  0.00     0.017 A 
ATOM     30  C   UNL A   1      28.667  29.678  22.412  1.00  0.00     0.013 A 
ATOM     31  I   UNL A   1      28.409  31.535  21.516  1.00  0.00    -0.044 I 
ENDBRANCH  23  25
ENDBRANCH  16  23
ENDBRANCH  12  14
ENDBRANCH   7  12
ENDBRANCH   4   6
ENDBRANCH   3   4
ENDBRANCH   2   3
ENDBRANCH   1   2
BRANCH   1  32
ATOM     32  O   UNL A   1      42.272  20.396  25.723  1.00  0.00    -0.374 OA
BRANCH  32  33
ATOM     33  C   UNL A   1      43.226  21.383  26.122  1.00  0.00     0.202 C 
BRANCH  33  34
ATOM     34  C   UNL A   1      43.852  22.223  25.003  1.00  0.00     0.261 C 
BRANCH  34  35
ATOM     35  O   UNL A   1      43.145  23.462  24.808  1.00  0.00    -0.460 OA
BRANCH  35  36
ATOM     36  C   UNL A   1      43.852  24.577  25.098  1.00  0.00     0.338 C 
ATOM     37  O   UNL A   1      44.889  24.960  24.573  1.00  0.00    -0.246 OA
BRANCH  36  38
ATOM     38  C   UNL A   1      43.091  25.415  26.041  1.00  0.00     0.060 A 
ATOM     39  C   UNL A   1      43.526  26.733  26.231  1.00  0.00     0.016 A 
ATOM     40  C   UNL A   1      42.020  24.906  26.777  1.00  0.00     0.016 A 
ATOM     41  C   UNL A   1      42.916  27.536  27.191  1.00  0.00     0.010 A 
ATOM     42  C   UNL A   1      41.417  25.708  27.751  1.00  0.00     0.010 A 
ATOM     43  C   UNL A   1      41.886  27.014  27.984  1.00  0.00    -0.014 A 
BRANCH  43  44
ATOM     44  C   UNL A   1      41.413  27.789  29.156  1.00  0.00     0.031 A 
ATOM     45  C   UNL A   1      42.180  27.699  30.444  1.00  0.00     0.074 A 
ATOM     46  C   UNL A   1      40.350  28.606  29.055  1.00  0.00     0.049 A 
ATOM     47  N   UNL A   1      41.956  28.295  31.588  1.00  0.00    -0.248 NA
ATOM     48  C   UNL A   1      43.363  26.823  30.444  1.00  0.00     0.031 C 
ATOM     49  C   UNL A   1      39.560  28.815  27.845  1.00  0.00     0.029 A 
ATOM     50  N   UNL A   1      39.758  29.417  29.991  1.00  0.00    -0.354 N 
ATOM     51  C   UNL A   1      42.972  27.875  32.437  1.00  0.00     0.074 A 
ATOM     52  C   UNL A   1      43.792  26.944  31.692  1.00  0.00     0.031 C 
ATOM     53  C   UNL A   1      38.586  29.703  28.109  1.00  0.00     0.029 A 
ATOM     54  C   UNL A   1      38.669  30.102  29.514  1.00  0.00     0.049 A 
ATOM     55  H   UNL A   1      40.084  29.501  30.916  1.00  0.00     0.167 HD
ATOM     56  C   UNL A   1      43.209  28.247  33.715  1.00  0.00     0.037 A 
ATOM     57  C   UNL A   1      37.828  30.945  30.145  1.00  0.00     0.037 A 
ATOM     58  C   UNL A   1      42.391  29.171  34.456  1.00  0.00     0.049 A 
ATOM     59  C   UNL A   1      38.057  31.268  31.599  1.00  0.00     0.074 A 
ATOM     60  C   UNL A   1      42.552  29.612  35.757  1.00  0.00     0.029 A 
ATOM     61  N   UNL A   1      41.254  29.792  33.958  1.00  0.00    -0.354 N 
ATOM     62  N   UNL A   1      39.025  30.876  32.391  1.00  0.00    -0.248 NA
ATOM     63  C   UNL A   1      37.073  32.147  32.248  1.00  0.00     0.031 C 
ATOM     64  C   UNL A   1      41.485  30.462  36.064  1.00  0.00     0.029 A 
ATOM     65  C   UNL A   1      40.688  30.591  34.937  1.00  0.00     0.049 A 
ATOM     66  H   UNL A   1      40.903  29.681  33.045  1.00  0.00     0.167 HD
ATOM     67  C   UNL A   1      38.784  31.477  33.619  1.00  0.00     0.074 A 
ATOM     68  C   UNL A   1      37.582  32.271  33.467  1.00  0.00     0.031 C 
ATOM     69  C   UNL A   1      39.494  31.379  34.770  1.00  0.00     0.037 A 
BRANCH  56  70
ATOM     70  C   UNL A   1      44.400  27.650  34.404  1.00  0.00     0.064 A 
ATOM     71  C   UNL A   1      45.605  28.356  34.527  1.00  0.00     0.173 A 
ATOM     72  C   UNL A   1      44.316  26.382  35.000  1.00  0.00     0.173 A 
ATOM     73  F   UNL A   1      45.738  29.566  33.964  1.00  0.00    -0.203 F 
ATOM     74  C   UNL A   1      46.689  27.809  35.209  1.00  0.00     0.198 A 
ATOM     75  C   UNL A   1      45.393  25.849  35.703  1.00  0.00     0.198 A 
ATOM     76  F   UNL A   1      43.184  25.668  34.913  1.00  0.00    -0.203 F 
ATOM     77  F   UNL A   1      47.841  28.487  35.285  1.00  0.00    -0.200 F 
ATOM     78  C   UNL A   1      46.579  26.560  35.803  1.00  0.00     0.200 A 
ATOM     79  F   UNL A   1      45.281  24.648  36.286  1.00  0.00    -0.200 F 
ATOM     80  F   UNL A   1      47.618  26.041  36.470  1.00  0.00    -0.200 F 
ENDBRANCH  56  70
BRANCH  57  81
ATOM     81  C   UNL A   1      36.695  31.552  29.400  1.00  0.00     0.064 A 
ATOM     82  C   UNL A   1      36.691  32.916  29.081  1.00  0.00     0.173 A 
ATOM     83  C   UNL A   1      35.599  30.781  28.986  1.00  0.00     0.173 A 
ATOM     84  F   UNL A   1      37.704  33.700  29.479  1.00  0.00    -0.203 F 
ATOM     85  C   UNL A   1      35.630  33.489  28.381  1.00  0.00     0.198 A 
ATOM     86  C   UNL A   1      34.552  31.349  28.264  1.00  0.00     0.198 A 
ATOM     87  F   UNL A   1      35.553  29.472  29.270  1.00  0.00    -0.203 F 
ATOM     88  F   UNL A   1      35.635  34.802  28.119  1.00  0.00    -0.200 F 
ATOM     89  C   UNL A   1      34.566  32.703  27.966  1.00  0.00     0.200 A 
ATOM     90  F   UNL A   1      33.530  30.584  27.854  1.00  0.00    -0.200 F 
ATOM     91  F   UNL A   1      33.551  33.252  27.284  1.00  0.00    -0.200 F 
ENDBRANCH  57  81
BRANCH  69  92
ATOM     92  C   UNL A   1      39.010  32.156  35.960  1.00  0.00     0.064 A 
ATOM     93  C   UNL A   1      38.186  31.569  36.930  1.00  0.00     0.173 A 
ATOM     94  C   UNL A   1      39.446  33.472  36.175  1.00  0.00     0.173 A 
ATOM     95  F   UNL A   1      37.733  30.317  36.763  1.00  0.00    -0.203 F 
ATOM     96  C   UNL A   1      37.809  32.276  38.069  1.00  0.00     0.198 A 
ATOM     97  C   UNL A   1      39.090  34.165  37.329  1.00  0.00     0.198 A 
ATOM     98  F   UNL A   1      40.244  34.075  35.281  1.00  0.00    -0.203 F 
ATOM     99  F   UNL A   1      36.997  31.704  38.970  1.00  0.00    -0.200 F 
ATOM    100  C   UNL A   1      38.270  33.567  38.273  1.00  0.00     0.200 A 
ATOM    101  F   UNL A   1      39.550  35.407  37.532  1.00  0.00    -0.200 F 
ATOM    102  F   UNL A   1      37.922  34.238  39.380  1.00  0.00    -0.200 F 
ENDBRANCH  69  92
ENDBRANCH  43  44
ENDBRANCH  36  38
ENDBRANCH  35  36
ENDBRANCH  34  35
ENDBRANCH  33  34
ENDBRANCH  32  33
ENDBRANCH   1  32
TORSDOF 19
ENDMDL
MODEL 2
REMARK VINA RESULT:     -12.1      3.994      9.318
REMARK SMILES Nc1c(Nc2ccc(I)cc2)ncnc1Nc1ccc(C(=O)OCCOCCOC(=O)c2ccc(-c3c4nc(c(-c5c(F)c(F)c(F)c(F)c5F)c5ccc([nH]5)c(-c5c(F)c(F)c(F)c(F)c5F)c5nc(c(-c6c(F)c(F)c(F)c(F)c6F)c6ccc3[nH]6)C=C5)C=C4)cc2)cc1
REMARK SMILES IDX 25 1 24 2 23 3 21 4 22 5 20 6 17 7 18 8 96 9 19 10 95 11
REMARK SMILES IDX 16 12 15 14 2 15 3 16 12 17 14 18 13 19 1 20 4 23 5 25 6 26
REMARK SMILES IDX 11 27 7 28 10 29 8 30 9 31 26 32 27 33 28 34 29 35 30 36
REMARK SMILES IDX 31 37 32 38 33 39 94 40 34 41 93 42 35 43 36 44 37 45 87 46
REMARK SMILES IDX 38 47 92 48 86 49 88 50 39 51 91 52 85 53 84 54 40 56 72 57
REMARK SMILES IDX 52 58 71 59 53 60 56 61 70 62 89 63 54 64 55 65 69 67 90 68
REMARK SMILES IDX 57 69 41 70 42 71 50 72 43 73 44 74 48 75 51 76 45 77 46 78
REMARK SMILES IDX 49 79 47 80 73 81 74 82 82 83 75 84 76 85 80 86 83 87 77 88
REMARK SMILES IDX 78 89 81 90 79 91 58 92 59 93 67 94 60 95 61 96 65 97 68 98
REMARK SMILES IDX 62 99 63 100 66 101 64 102
REMARK H PARENT 16 13 1 21 1 22 4 24 88 55 56 66
REMARK Flexibility Score: inf
ROOT
ATOM      1  C   UNL A   1      34.665  31.968  29.102  1.00  0.00     0.202 C 
ENDROOT
BRANCH   1   2
ATOM      2  C   UNL A   1      34.553  31.565  27.629  1.00  0.00     0.261 C 
BRANCH   2   3
ATOM      3  O   UNL A   1      33.694  30.428  27.464  1.00  0.00    -0.460 OA
BRANCH   3   4
ATOM      4  C   UNL A   1      32.472  30.723  26.959  1.00  0.00     0.338 C 
ATOM      5  O   UNL A   1      31.967  31.832  26.864  1.00  0.00    -0.246 OA
BRANCH   4   6
ATOM      6  C   UNL A   1      31.853  29.518  26.371  1.00  0.00     0.060 A 
ATOM      7  C   UNL A   1      30.993  27.081  25.302  1.00  0.00     0.040 A 
ATOM      8  C   UNL A   1      31.353  27.166  26.651  1.00  0.00     0.027 A 
ATOM      9  C   UNL A   1      30.966  28.250  24.524  1.00  0.00     0.027 A 
ATOM     10  C   UNL A   1      31.791  28.376  27.179  1.00  0.00     0.018 A 
ATOM     11  C   UNL A   1      31.385  29.473  25.056  1.00  0.00     0.018 A 
BRANCH   7  12
ATOM     12  N   UNL A   1      30.949  25.807  24.692  1.00  0.00    -0.338 N 
ATOM     13  H   UNL A   1      30.124  25.273  24.750  1.00  0.00     0.168 HD
BRANCH  12  14
ATOM     14  C   UNL A   1      32.074  25.276  23.996  1.00  0.00     0.159 A 
ATOM     15  C   UNL A   1      32.780  24.201  24.549  1.00  0.00     0.118 A 
ATOM     16  C   UNL A   1      33.895  23.784  23.807  1.00  0.00     0.159 A 
ATOM     17  N   UNL A   1      34.287  24.395  22.672  1.00  0.00    -0.217 NA
ATOM     18  N   UNL A   1      32.434  25.856  22.833  1.00  0.00    -0.217 NA
ATOM     19  C   UNL A   1      33.530  25.397  22.236  1.00  0.00     0.226 A 
BRANCH  15  20
ATOM     20  N   UNL A   1      32.399  23.574  25.740  1.00  0.00    -0.393 N 
ATOM     21  H   UNL A   1      32.825  22.727  26.008  1.00  0.00     0.156 HD
ATOM     22  H   UNL A   1      31.705  23.978  26.310  1.00  0.00     0.156 HD
ENDBRANCH  15  20
BRANCH  16  23
ATOM     23  N   UNL A   1      34.624  22.654  24.257  1.00  0.00    -0.338 N 
ATOM     24  H   UNL A   1      34.168  21.783  24.223  1.00  0.00     0.168 HD
BRANCH  23  25
ATOM     25  C   UNL A   1      35.943  22.669  24.750  1.00  0.00     0.040 A 
ATOM     26  C   UNL A   1      36.398  23.786  25.460  1.00  0.00     0.027 A 
ATOM     27  C   UNL A   1      36.777  21.546  24.661  1.00  0.00     0.027 A 
ATOM     28  C   UNL A   1      37.647  23.774  26.088  1.00  0.00     0.017 A 
ATOM     29  C   UNL A   1      38.032  21.531  25.276  1.00  0.00     0.017 A 
ATOM     30  C   UNL A   1      38.457  22.643  25.997  1.00  0.00     0.013 A 
ATOM     31  I   UNL A   1      40.291  22.606  26.972  1.00  0.00    -0.044 I 
ENDBRANCH  23  25
ENDBRANCH  16  23
ENDBRANCH  12  14
ENDBRANCH   7  12
ENDBRANCH   4   6
ENDBRANCH   3   4
ENDBRANCH   2   3
ENDBRANCH   1   2
BRANCH   1  32
ATOM     32  O   UNL A   1      34.758  33.364  29.378  1.00  0.00    -0.374 OA
BRANCH  32  33
ATOM     33  C   UNL A   1      33.927  34.244  28.618  1.00  0.00     0.202 C 
BRANCH  33  34
ATOM     34  C   UNL A   1      33.278  35.403  29.380  1.00  0.00     0.261 C 
BRANCH  34  35
ATOM     35  O   UNL A   1      32.533  34.938  30.521  1.00  0.00    -0.460 OA
BRANCH  35  36
ATOM     36  C   UNL A   1      32.830  35.552  31.689  1.00  0.00     0.338 C 
ATOM     37  O   UNL A   1      32.185  36.419  32.261  1.00  0.00    -0.246 OA
BRANCH  36  38
ATOM     38  C   UNL A   1      33.987  34.888  32.316  1.00  0.00     0.060 A 
ATOM     39  C   UNL A   1      35.214  35.563  32.285  1.00  0.00     0.016 A 
ATOM     40  C   UNL A   1      33.892  33.607  32.860  1.00  0.00     0.016 A 
ATOM     41  C   UNL A   1      36.364  34.938  32.761  1.00  0.00     0.010 A 
ATOM     42  C   UNL A   1      35.050  32.975  33.325  1.00  0.00     0.010 A 
ATOM     43  C   UNL A   1      36.295  33.626  33.246  1.00  0.00    -0.014 A 
BRANCH  43  44
ATOM     44  C   UNL A   1      37.552  32.890  33.522  1.00  0.00     0.031 A 
ATOM     45  C   UNL A   1      38.285  33.161  34.805  1.00  0.00     0.074 A 
ATOM     46  C   UNL A   1      38.001  31.953  32.669  1.00  0.00     0.049 A 
ATOM     47  N   UNL A   1      39.391  32.629  35.258  1.00  0.00    -0.248 NA
ATOM     48  C   UNL A   1      37.688  34.163  35.703  1.00  0.00     0.031 C 
ATOM     49  C   UNL A   1      37.348  31.568  31.421  1.00  0.00     0.029 A 
ATOM     50  N   UNL A   1      39.113  31.151  32.732  1.00  0.00    -0.354 N 
ATOM     51  C   UNL A   1      39.617  33.222  36.493  1.00  0.00     0.074 A 
ATOM     52  C   UNL A   1      38.556  34.183  36.704  1.00  0.00     0.031 C 
ATOM     53  C   UNL A   1      38.069  30.597  30.834  1.00  0.00     0.029 A 
ATOM     54  C   UNL A   1      39.248  30.314  31.653  1.00  0.00     0.049 A 
ATOM     55  H   UNL A   1      39.753  31.173  33.480  1.00  0.00     0.167 HD
ATOM     56  C   UNL A   1      40.609  32.975  37.378  1.00  0.00     0.037 A 
ATOM     57  C   UNL A   1      40.221  29.430  31.356  1.00  0.00     0.037 A 
ATOM     58  C   UNL A   1      41.666  32.021  37.166  1.00  0.00     0.049 A 
ATOM     59  C   UNL A   1      41.368  29.243  32.314  1.00  0.00     0.074 A 
ATOM     60  C   UNL A   1      42.716  31.698  38.005  1.00  0.00     0.029 A 
ATOM     61  N   UNL A   1      41.807  31.241  36.027  1.00  0.00    -0.354 N 
ATOM     62  N   UNL A   1      41.568  29.798  33.484  1.00  0.00    -0.248 NA
ATOM     63  C   UNL A   1      42.428  28.308  31.907  1.00  0.00     0.031 C 
ATOM     64  C   UNL A   1      43.520  30.757  37.355  1.00  0.00     0.029 A 
ATOM     65  C   UNL A   1      42.943  30.456  36.131  1.00  0.00     0.049 A 
ATOM     66  H   UNL A   1      41.190  31.244  35.259  1.00  0.00     0.167 HD
ATOM     67  C   UNL A   1      42.758  29.266  33.964  1.00  0.00     0.074 A 
ATOM     68  C   UNL A   1      43.231  28.332  32.963  1.00  0.00     0.031 C 
ATOM     69  C   UNL A   1      43.400  29.528  35.128  1.00  0.00     0.037 A 
BRANCH  56  70
ATOM     70  C   UNL A   1      40.608  33.752  38.660  1.00  0.00     0.064 A 
ATOM     71  C   UNL A   1      39.824  33.358  39.754  1.00  0.00     0.173 A 
ATOM     72  C   UNL A   1      41.445  34.866  38.818  1.00  0.00     0.173 A 
ATOM     73  F   UNL A   1      38.997  32.307  39.648  1.00  0.00    -0.203 F 
ATOM     74  C   UNL A   1      39.865  34.062  40.955  1.00  0.00     0.198 A 
ATOM     75  C   UNL A   1      41.504  35.553  40.028  1.00  0.00     0.198 A 
ATOM     76  F   UNL A   1      42.218  35.282  37.803  1.00  0.00    -0.203 F 
ATOM     77  F   UNL A   1      39.082  33.689  41.975  1.00  0.00    -0.200 F 
ATOM     78  C   UNL A   1      40.712  35.152  41.094  1.00  0.00     0.200 A 
ATOM     79  F   UNL A   1      42.330  36.598  40.165  1.00  0.00    -0.200 F 
ATOM     80  F   UNL A   1      40.761  35.820  42.254  1.00  0.00    -0.200 F 
ENDBRANCH  56  70
BRANCH  57  81
ATOM     81  C   UNL A   1      40.145  28.645  30.096  1.00  0.00     0.064 A 
ATOM     82  C   UNL A   1      40.722  29.124  28.914  1.00  0.00     0.173 A 
ATOM     83  C   UNL A   1      39.499  27.401  30.051  1.00  0.00     0.173 A 
ATOM     84  F   UNL A   1      41.328  30.321  28.901  1.00  0.00    -0.203 F 
ATOM     85  C   UNL A   1      40.654  28.391  27.730  1.00  0.00     0.198 A 
ATOM     86  C   UNL A   1      39.453  26.657  28.874  1.00  0.00     0.198 A 
ATOM     87  F   UNL A   1      38.926  26.900  31.154  1.00  0.00    -0.203 F 
ATOM     88  F   UNL A   1      41.186  28.887  26.606  1.00  0.00    -0.200 F 
ATOM     89  C   UNL A   1      40.027  27.155  27.713  1.00  0.00     0.200 A 
ATOM     90  F   UNL A   1      38.856  25.457  28.864  1.00  0.00    -0.200 F 
ATOM     91  F   UNL A   1      39.970  26.445  26.578  1.00  0.00    -0.200 F 
ENDBRANCH  57  81
BRANCH  69  92
ATOM     92  C   UNL A   1      44.678  28.790  35.405  1.00  0.00     0.064 A 
ATOM     93  C   UNL A   1      45.924  29.332  35.059  1.00  0.00     0.173 A 
ATOM     94  C   UNL A   1      44.660  27.572  36.100  1.00  0.00     0.173 A 
ATOM     95  F   UNL A   1      45.993  30.490  34.383  1.00  0.00    -0.203 F 
ATOM     96  C   UNL A   1      47.106  28.676  35.392  1.00  0.00     0.198 A 
ATOM     97  C   UNL A   1      45.845  26.932  36.456  1.00  0.00     0.198 A 
ATOM     98  F   UNL A   1      43.493  27.017  36.462  1.00  0.00    -0.203 F 
ATOM     99  F   UNL A   1      48.285  29.198  35.027  1.00  0.00    -0.200 F 
ATOM    100  C   UNL A   1      47.065  27.483  36.099  1.00  0.00     0.200 A 
ATOM    101  F   UNL A   1      45.804  25.789  37.154  1.00  0.00    -0.200 F 
ATOM    102  F   UNL A   1      48.205  26.864  36.437  1.00  0.00    -0.200 F 
ENDBRANCH  69  92
ENDBRANCH  43  44
ENDBRANCH  36  38
ENDBRANCH  35  36
ENDBRANCH  34  35
ENDBRANCH  33  34
ENDBRANCH  32  33
ENDBRANCH   1  32
TORSDOF 19
ENDMDL
MODEL 3
REMARK VINA RESULT:     -12.0      1.099      2.170
REMARK SMILES Nc1c(Nc2ccc(I)cc2)ncnc1Nc1ccc(C(=O)OCCOCCOC(=O)c2ccc(-c3c4nc(c(-c5c(F)c(F)c(F)c(F)c5F)c5ccc([nH]5)c(-c5c(F)c(F)c(F)c(F)c5F)c5nc(c(-c6c(F)c(F)c(F)c(F)c6F)c6ccc3[nH]6)C=C5)C=C4)cc2)cc1
REMARK SMILES IDX 25 1 24 2 23 3 21 4 22 5 20 6 17 7 18 8 96 9 19 10 95 11
REMARK SMILES IDX 16 12 15 14 2 15 3 16 12 17 14 18 13 19 1 20 4 23 5 25 6 26
REMARK SMILES IDX 11 27 7 28 10 29 8 30 9 31 26 32 27 33 28 34 29 35 30 36
REMARK SMILES IDX 31 37 32 38 33 39 94 40 34 41 93 42 35 43 36 44 37 45 87 46
REMARK SMILES IDX 38 47 92 48 86 49 88 50 39 51 91 52 85 53 84 54 40 56 72 57
REMARK SMILES IDX 52 58 71 59 53 60 56 61 70 62 89 63 54 64 55 65 69 67 90 68
REMARK SMILES IDX 57 69 41 70 42 71 50 72 43 73 44 74 48 75 51 76 45 77 46 78
REMARK SMILES IDX 49 79 47 80 73 81 74 82 82 83 75 84 76 85 80 86 83 87 77 88
REMARK SMILES IDX 78 89 81 90 79 91 58 92 59 93 67 94 60 95 61 96 65 97 68 98
REMARK SMILES IDX 62 99 63 100 66 101 64 102
REMARK H PARENT 16 13 1 21 1 22 4 24 88 55 56 66
REMARK Flexibility Score: inf
ROOT
ATOM      1  C   UNL A   1      42.537  21.066  25.941  1.00  0.00     0.202 C 
ENDROOT
BRANCH   1   2
ATOM      2  C   UNL A   1      41.665  19.999  26.608  1.00  0.00     0.261 C 
BRANCH   2   3
ATOM      3  O   UNL A   1      40.272  20.234  26.357  1.00  0.00    -0.460 OA
BRANCH   3   4
ATOM      4  C   UNL A   1      39.807  21.405  26.854  1.00  0.00     0.338 C 
ATOM      5  O   UNL A   1      40.233  22.007  27.829  1.00  0.00    -0.246 OA
BRANCH   4   6
ATOM      6  C   UNL A   1      38.781  21.976  25.957  1.00  0.00     0.060 A 
ATOM      7  C   UNL A   1      36.647  23.106  24.548  1.00  0.00     0.040 A 
ATOM      8  C   UNL A   1      37.378  23.882  25.453  1.00  0.00     0.027 A 
ATOM      9  C   UNL A   1      37.063  21.791  24.279  1.00  0.00     0.027 A 
ATOM     10  C   UNL A   1      38.433  23.316  26.162  1.00  0.00     0.018 A 
ATOM     11  C   UNL A   1      38.136  21.224  24.973  1.00  0.00     0.018 A 
BRANCH   7  12
ATOM     12  N   UNL A   1      35.363  23.551  24.156  1.00  0.00    -0.338 N 
ATOM     13  H   UNL A   1      35.220  23.849  23.229  1.00  0.00     0.168 HD
BRANCH  12  14
ATOM     14  C   UNL A   1      34.273  23.580  25.073  1.00  0.00     0.159 A 
ATOM     15  C   UNL A   1      33.690  24.807  25.410  1.00  0.00     0.118 A 
ATOM     16  C   UNL A   1      32.654  24.729  26.353  1.00  0.00     0.159 A 
ATOM     17  N   UNL A   1      32.277  23.571  26.928  1.00  0.00    -0.217 NA
ATOM     18  N   UNL A   1      33.861  22.413  25.610  1.00  0.00    -0.217 NA
ATOM     19  C   UNL A   1      32.894  22.468  26.520  1.00  0.00     0.226 A 
BRANCH  15  20
ATOM     20  N   UNL A   1      34.089  26.020  24.839  1.00  0.00    -0.393 N 
ATOM     21  H   UNL A   1      33.642  26.858  25.101  1.00  0.00     0.156 HD
ATOM     22  H   UNL A   1      34.817  26.037  24.176  1.00  0.00     0.156 HD
ENDBRANCH  15  20
BRANCH  16  23
ATOM     23  N   UNL A   1      31.959  25.917  26.695  1.00  0.00    -0.338 N 
ATOM     24  H   UNL A   1      31.941  26.168  27.646  1.00  0.00     0.168 HD
BRANCH  23  25
ATOM     25  C   UNL A   1      31.291  26.767  25.794  1.00  0.00     0.040 A 
ATOM     26  C   UNL A   1      31.640  28.122  25.740  1.00  0.00     0.027 A 
ATOM     27  C   UNL A   1      30.372  26.274  24.857  1.00  0.00     0.027 A 
ATOM     28  C   UNL A   1      31.104  28.960  24.759  1.00  0.00     0.017 A 
ATOM     29  C   UNL A   1      29.823  27.110  23.880  1.00  0.00     0.017 A 
ATOM     30  C   UNL A   1      30.200  28.449  23.829  1.00  0.00     0.013 A 
ATOM     31  I   UNL A   1      29.441  29.682  22.339  1.00  0.00    -0.044 I 
ENDBRANCH  23  25
ENDBRANCH  16  23
ENDBRANCH  12  14
ENDBRANCH   7  12
ENDBRANCH   4   6
ENDBRANCH   3   4
ENDBRANCH   2   3
ENDBRANCH   1   2
BRANCH   1  32
ATOM     32  O   UNL A   1      43.575  20.598  25.083  1.00  0.00    -0.374 OA
BRANCH  32  33
ATOM     33  C   UNL A   1      44.676  21.477  24.839  1.00  0.00     0.202 C 
BRANCH  33  34
ATOM     34  C   UNL A   1      44.374  22.747  24.037  1.00  0.00     0.261 C 
BRANCH  34  35
ATOM     35  O   UNL A   1      43.617  23.697  24.811  1.00  0.00    -0.460 OA
BRANCH  35  36
ATOM     36  C   UNL A   1      44.280  24.831  25.133  1.00  0.00     0.338 C 
ATOM     37  O   UNL A   1      45.315  25.256  24.637  1.00  0.00    -0.246 OA
BRANCH  36  38
ATOM     38  C   UNL A   1      43.471  25.628  26.071  1.00  0.00     0.060 A 
ATOM     39  C   UNL A   1      43.854  26.958  26.287  1.00  0.00     0.016 A 
ATOM     40  C   UNL A   1      42.404  25.071  26.778  1.00  0.00     0.016 A 
ATOM     41  C   UNL A   1      43.196  27.725  27.244  1.00  0.00     0.010 A 
ATOM     42  C   UNL A   1      41.753  25.838  27.750  1.00  0.00     0.010 A 
ATOM     43  C   UNL A   1      42.170  27.156  28.010  1.00  0.00    -0.014 A 
BRANCH  43  44
ATOM     44  C   UNL A   1      41.645  27.898  29.181  1.00  0.00     0.031 A 
ATOM     45  C   UNL A   1      42.390  27.819  30.483  1.00  0.00     0.074 A 
ATOM     46  C   UNL A   1      40.555  28.676  29.069  1.00  0.00     0.049 A 
ATOM     47  N   UNL A   1      42.122  28.391  31.629  1.00  0.00    -0.248 NA
ATOM     48  C   UNL A   1      43.604  26.987  30.496  1.00  0.00     0.031 C 
ATOM     49  C   UNL A   1      39.782  28.872  27.846  1.00  0.00     0.029 A 
ATOM     50  N   UNL A   1      39.915  29.453  30.003  1.00  0.00    -0.354 N 
ATOM     51  C   UNL A   1      43.136  27.997  32.493  1.00  0.00     0.074 A 
ATOM     52  C   UNL A   1      44.003  27.107  31.754  1.00  0.00     0.031 C 
ATOM     53  C   UNL A   1      38.771  29.720  28.101  1.00  0.00     0.029 A 
ATOM     54  C   UNL A   1      38.811  30.103  29.513  1.00  0.00     0.049 A 
ATOM     55  H   UNL A   1      40.220  29.536  30.936  1.00  0.00     0.167 HD
ATOM     56  C   UNL A   1      43.333  28.361  33.781  1.00  0.00     0.037 A 
ATOM     57  C   UNL A   1      37.928  30.907  30.137  1.00  0.00     0.037 A 
ATOM     58  C   UNL A   1      42.468  29.244  34.517  1.00  0.00     0.049 A 
ATOM     59  C   UNL A   1      38.116  31.218  31.599  1.00  0.00     0.074 A 
ATOM     60  C   UNL A   1      42.586  29.673  35.826  1.00  0.00     0.029 A 
ATOM     61  N   UNL A   1      41.319  29.829  34.004  1.00  0.00    -0.354 N 
ATOM     62  N   UNL A   1      39.082  30.852  32.405  1.00  0.00    -0.248 NA
ATOM     63  C   UNL A   1      37.087  32.052  32.239  1.00  0.00     0.031 C 
ATOM     64  C   UNL A   1      41.483  30.480  36.122  1.00  0.00     0.029 A 
ATOM     65  C   UNL A   1      40.704  30.594  34.981  1.00  0.00     0.049 A 
ATOM     66  H   UNL A   1      40.990  29.718  33.083  1.00  0.00     0.167 HD
ATOM     67  C   UNL A   1      38.794  31.427  33.636  1.00  0.00     0.074 A 
ATOM     68  C   UNL A   1      37.568  32.179  33.469  1.00  0.00     0.031 C 
ATOM     69  C   UNL A   1      39.485  31.340  34.800  1.00  0.00     0.037 A 
BRANCH  56  70
ATOM     70  C   UNL A   1      44.531  27.798  34.486  1.00  0.00     0.064 A 
ATOM     71  C   UNL A   1      44.477  26.566  35.152  1.00  0.00     0.173 A 
ATOM     72  C   UNL A   1      45.762  28.471  34.445  1.00  0.00     0.173 A 
ATOM     73  F   UNL A   1      43.320  25.891  35.231  1.00  0.00    -0.203 F 
ATOM     74  C   UNL A   1      45.609  26.033  35.766  1.00  0.00     0.198 A 
ATOM     75  C   UNL A   1      46.897  27.924  35.036  1.00  0.00     0.198 A 
ATOM     76  F   UNL A   1      45.867  29.652  33.818  1.00  0.00    -0.203 F 
ATOM     77  F   UNL A   1      45.526  24.870  36.425  1.00  0.00    -0.200 F 
ATOM     78  C   UNL A   1      46.819  26.708  35.699  1.00  0.00     0.200 A 
ATOM     79  F   UNL A   1      48.068  28.570  34.962  1.00  0.00    -0.200 F 
ATOM     80  F   UNL A   1      47.910  26.188  36.277  1.00  0.00    -0.200 F 
ENDBRANCH  56  70
BRANCH  57  81
ATOM     81  C   UNL A   1      36.788  31.482  29.377  1.00  0.00     0.064 A 
ATOM     82  C   UNL A   1      35.713  30.679  28.975  1.00  0.00     0.173 A 
ATOM     83  C   UNL A   1      36.748  32.843  29.042  1.00  0.00     0.173 A 
ATOM     84  F   UNL A   1      35.718  29.366  29.249  1.00  0.00    -0.203 F 
ATOM     85  C   UNL A   1      34.641  31.215  28.263  1.00  0.00     0.198 A 
ATOM     86  C   UNL A   1      35.665  33.383  28.352  1.00  0.00     0.198 A 
ATOM     87  F   UNL A   1      37.755  33.653  29.399  1.00  0.00    -0.203 F 
ATOM     88  F   UNL A   1      33.641  30.419  27.862  1.00  0.00    -0.200 F 
ATOM     89  C   UNL A   1      34.614  32.568  27.959  1.00  0.00     0.200 A 
ATOM     90  F   UNL A   1      35.637  34.693  28.070  1.00  0.00    -0.200 F 
ATOM     91  F   UNL A   1      33.579  33.085  27.283  1.00  0.00    -0.200 F 
ENDBRANCH  57  81
BRANCH  69  92
ATOM     92  C   UNL A   1      38.949  32.083  35.989  1.00  0.00     0.064 A 
ATOM     93  C   UNL A   1      38.131  31.453  36.937  1.00  0.00     0.173 A 
ATOM     94  C   UNL A   1      39.331  33.412  36.228  1.00  0.00     0.173 A 
ATOM     95  F   UNL A   1      37.730  30.186  36.747  1.00  0.00    -0.203 F 
ATOM     96  C   UNL A   1      37.706  32.130  38.077  1.00  0.00     0.198 A 
ATOM     97  C   UNL A   1      38.927  34.077  37.383  1.00  0.00     0.198 A 
ATOM     98  F   UNL A   1      40.121  34.057  35.356  1.00  0.00    -0.203 F 
ATOM     99  F   UNL A   1      36.900  31.517  38.955  1.00  0.00    -0.200 F 
ATOM    100  C   UNL A   1      38.113  33.436  38.304  1.00  0.00     0.200 A 
ATOM    101  F   UNL A   1      39.335  35.333  37.610  1.00  0.00    -0.200 F 
ATOM    102  F   UNL A   1      37.719  34.078  39.413  1.00  0.00    -0.200 F 
ENDBRANCH  69  92
ENDBRANCH  43  44
ENDBRANCH  36  38
ENDBRANCH  35  36
ENDBRANCH  34  35
ENDBRANCH  33  34
ENDBRANCH  32  33
ENDBRANCH   1  32
TORSDOF 19
ENDMDL
