MODEL 1
REMARK VINA RESULT:     -11.8      0.000      0.000
REMARK SMILES COc1cc(/C=N/c2cccc(F)c2)ccc1OCc1cccc(C(=O)OCCOCCOC(=O)c2ccc(-c3c4nc(c(-c5c(F)c(F)c(F)c(F)c5F)c5ccc([nH]5)c(-c5c(F)c(F)c(F)c(F)c5F)c5nc(c(-c6c(F)c(F)c(F)c(F)c6F)c6ccc3[nH]6)C=C5)C=C4)cc2)c1
REMARK SMILES IDX 28 1 27 2 25 3 26 4 24 5 20 6 21 7 99 8 22 9 23 10 19 11
REMARK SMILES IDX 18 12 17 13 3 14 4 15 5 16 16 17 15 18 2 19 1 20 6 21 7 22
REMARK SMILES IDX 8 23 9 24 14 25 10 26 12 27 11 28 13 29 29 30 30 31 31 32
REMARK SMILES IDX 32 33 33 34 34 35 35 36 36 37 37 38 98 39 38 40 97 41 39 42
REMARK SMILES IDX 40 43 41 44 91 45 42 46 96 47 90 48 92 49 43 50 95 51 89 52
REMARK SMILES IDX 88 53 44 55 76 56 56 57 75 58 57 59 60 60 74 61 93 62 58 63
REMARK SMILES IDX 59 64 73 66 94 67 61 68 45 69 46 70 54 71 47 72 48 73 52 74
REMARK SMILES IDX 55 75 49 76 50 77 53 78 51 79 77 80 78 81 86 82 79 83 80 84
REMARK SMILES IDX 84 85 87 86 81 87 82 88 85 89 83 90 62 91 63 92 71 93 64 94
REMARK SMILES IDX 65 95 69 96 72 97 66 98 67 99 70 100 68 101
REMARK H PARENT 92 54 60 65
REMARK Flexibility Score: inf
ROOT
ATOM      1  C   UNL A   1      33.238  28.847  25.699  1.00  0.00     0.261 C 
ENDROOT
BRANCH   1   2
ATOM      2  O   UNL A   1      33.129  27.697  26.554  1.00  0.00    -0.460 OA
BRANCH   2   3
ATOM      3  C   UNL A   1      31.860  27.257  26.742  1.00  0.00     0.338 C 
ATOM      4  O   UNL A   1      31.103  27.577  27.648  1.00  0.00    -0.246 OA
BRANCH   3   5
ATOM      5  C   UNL A   1      31.424  26.397  25.622  1.00  0.00     0.060 A 
ATOM      6  C   UNL A   1      31.277  24.235  24.546  1.00  0.00    -0.010 A 
ATOM      7  C   UNL A   1      30.289  24.744  23.689  1.00  0.00     0.007 A 
ATOM      8  C   UNL A   1      31.908  25.098  25.456  1.00  0.00     0.023 A 
ATOM      9  C   UNL A   1      29.860  26.064  23.805  1.00  0.00     0.001 A 
ATOM     10  C   UNL A   1      30.405  26.881  24.792  1.00  0.00     0.016 A 
BRANCH   6  11
ATOM     11  C   UNL A   1      31.583  22.751  24.579  1.00  0.00     0.265 C 
BRANCH  11  12
ATOM     12  O   UNL A   1      32.619  22.355  23.672  1.00  0.00    -0.485 OA
BRANCH  12  13
ATOM     13  C   UNL A   1      33.803  21.842  24.138  1.00  0.00     0.161 A 
ATOM     14  C   UNL A   1      34.129  20.507  24.429  1.00  0.00     0.161 A 
ATOM     15  C   UNL A   1      35.414  20.206  24.899  1.00  0.00     0.060 A 
ATOM     16  C   UNL A   1      36.380  21.206  25.059  1.00  0.00    -0.003 A 
ATOM     17  C   UNL A   1      34.780  22.840  24.320  1.00  0.00     0.051 A 
ATOM     18  C   UNL A   1      36.066  22.529  24.770  1.00  0.00     0.014 A 
BRANCH  14  19
ATOM     19  O   UNL A   1      33.173  19.530  24.321  1.00  0.00    -0.493 OA
ATOM     20  C   UNL A   1      32.740  18.957  25.558  1.00  0.00     0.278 C 
ENDBRANCH  14  19
BRANCH  16  21
ATOM     21  C   UNL A   1      37.708  20.859  25.607  1.00  0.00     0.120 C 
ATOM     22  N   UNL A   1      38.615  21.772  25.752  1.00  0.00    -0.256 NA
BRANCH  22  23
ATOM     23  C   UNL A   1      39.908  21.406  26.142  1.00  0.00     0.066 A 
ATOM     24  C   UNL A   1      40.827  22.411  26.465  1.00  0.00     0.028 A 
ATOM     25  C   UNL A   1      40.354  20.085  26.059  1.00  0.00     0.067 A 
ATOM     26  C   UNL A   1      42.171  22.107  26.698  1.00  0.00     0.005 A 
ATOM     27  C   UNL A   1      41.692  19.788  26.295  1.00  0.00     0.125 A 
ATOM     28  C   UNL A   1      42.606  20.788  26.609  1.00  0.00     0.039 A 
ATOM     29  F   UNL A   1      42.112  18.520  26.190  1.00  0.00    -0.207 F 
ENDBRANCH  22  23
ENDBRANCH  16  21
ENDBRANCH  12  13
ENDBRANCH  11  12
ENDBRANCH   6  11
ENDBRANCH   3   5
ENDBRANCH   2   3
ENDBRANCH   1   2
BRANCH   1  30
ATOM     30  C   UNL A   1      32.943  30.158  26.434  1.00  0.00     0.202 C 
BRANCH  30  31
ATOM     31  O   UNL A   1      31.741  30.860  26.129  1.00  0.00    -0.374 OA
BRANCH  31  32
ATOM     32  C   UNL A   1      31.554  32.165  26.666  1.00  0.00     0.202 C 
BRANCH  32  33
ATOM     33  C   UNL A   1      32.547  32.693  27.712  1.00  0.00     0.261 C 
BRANCH  33  34
ATOM     34  O   UNL A   1      33.058  34.007  27.446  1.00  0.00    -0.460 OA
BRANCH  34  35
ATOM     35  C   UNL A   1      33.152  34.803  28.540  1.00  0.00     0.338 C 
ATOM     36  O   UNL A   1      32.364  35.660  28.909  1.00  0.00    -0.246 OA
BRANCH  35  37
ATOM     37  C   UNL A   1      34.303  34.394  29.361  1.00  0.00     0.060 A 
ATOM     38  C   UNL A   1      35.572  34.417  28.767  1.00  0.00     0.016 A 
ATOM     39  C   UNL A   1      34.134  33.918  30.662  1.00  0.00     0.016 A 
ATOM     40  C   UNL A   1      36.678  33.941  29.467  1.00  0.00     0.010 A 
ATOM     41  C   UNL A   1      35.243  33.428  31.358  1.00  0.00     0.010 A 
ATOM     42  C   UNL A   1      36.515  33.415  30.756  1.00  0.00    -0.014 A 
BRANCH  42  43
ATOM     43  C   UNL A   1      37.656  32.754  31.433  1.00  0.00     0.031 A 
ATOM     44  C   UNL A   1      38.327  31.585  30.769  1.00  0.00     0.074 A 
ATOM     45  C   UNL A   1      38.093  33.201  32.622  1.00  0.00     0.049 A 
ATOM     46  N   UNL A   1      39.298  30.825  31.210  1.00  0.00    -0.248 NA
ATOM     47  C   UNL A   1      37.838  31.225  29.431  1.00  0.00     0.031 C 
ATOM     48  C   UNL A   1      37.551  34.351  33.340  1.00  0.00     0.029 A 
ATOM     49  N   UNL A   1      39.090  32.731  33.439  1.00  0.00    -0.354 N 
ATOM     50  C   UNL A   1      39.532  29.895  30.206  1.00  0.00     0.074 A 
ATOM     51  C   UNL A   1      38.583  30.166  29.147  1.00  0.00     0.031 C 
ATOM     52  C   UNL A   1      38.213  34.492  34.501  1.00  0.00     0.029 A 
ATOM     53  C   UNL A   1      39.198  33.418  34.622  1.00  0.00     0.049 A 
ATOM     54  H   UNL A   1      39.672  31.973  33.200  1.00  0.00     0.167 HD
ATOM     55  C   UNL A   1      40.460  28.908  30.171  1.00  0.00     0.037 A 
ATOM     56  C   UNL A   1      39.982  33.187  35.693  1.00  0.00     0.037 A 
ATOM     57  C   UNL A   1      41.398  28.641  31.230  1.00  0.00     0.049 A 
ATOM     58  C   UNL A   1      40.941  32.024  35.667  1.00  0.00     0.074 A 
ATOM     59  C   UNL A   1      42.397  27.685  31.277  1.00  0.00     0.029 A 
ATOM     60  N   UNL A   1      41.443  29.325  32.437  1.00  0.00    -0.354 N 
ATOM     61  N   UNL A   1      41.178  31.166  34.705  1.00  0.00    -0.248 NA
ATOM     62  C   UNL A   1      41.738  31.798  36.882  1.00  0.00     0.031 C 
ATOM     63  C   UNL A   1      43.008  27.751  32.534  1.00  0.00     0.029 A 
ATOM     64  C   UNL A   1      42.427  28.785  33.250  1.00  0.00     0.049 A 
ATOM     65  H   UNL A   1      40.862  30.081  32.679  1.00  0.00     0.167 HD
ATOM     66  C   UNL A   1      42.160  30.311  35.188  1.00  0.00     0.074 A 
ATOM     67  C   UNL A   1      42.488  30.766  36.523  1.00  0.00     0.031 C 
ATOM     68  C   UNL A   1      42.736  29.244  34.581  1.00  0.00     0.037 A 
BRANCH  55  69
ATOM     69  C   UNL A   1      40.483  28.023  28.959  1.00  0.00     0.064 A 
ATOM     70  C   UNL A   1      41.268  28.326  27.837  1.00  0.00     0.173 A 
ATOM     71  C   UNL A   1      39.729  26.839  28.931  1.00  0.00     0.173 A 
ATOM     72  F   UNL A   1      41.999  29.452  27.808  1.00  0.00    -0.203 F 
ATOM     73  C   UNL A   1      41.277  27.493  26.721  1.00  0.00     0.198 A 
ATOM     74  C   UNL A   1      39.761  25.994  27.825  1.00  0.00     0.198 A 
ATOM     75  F   UNL A   1      38.964  26.501  29.979  1.00  0.00    -0.203 F 
ATOM     76  F   UNL A   1      41.997  27.827  25.642  1.00  0.00    -0.200 F 
ATOM     77  C   UNL A   1      40.529  26.325  26.719  1.00  0.00     0.200 A 
ATOM     78  F   UNL A   1      39.047  24.860  27.831  1.00  0.00    -0.200 F 
ATOM     79  F   UNL A   1      40.541  25.521  25.647  1.00  0.00    -0.200 F 
ENDBRANCH  55  69
BRANCH  56  80
ATOM     80  C   UNL A   1      39.877  34.060  36.890  1.00  0.00     0.064 A 
ATOM     81  C   UNL A   1      39.026  33.729  37.953  1.00  0.00     0.173 A 
ATOM     82  C   UNL A   1      40.617  35.247  36.992  1.00  0.00     0.173 A 
ATOM     83  F   UNL A   1      38.277  32.618  37.888  1.00  0.00    -0.203 F 
ATOM     84  C   UNL A   1      38.911  34.557  39.068  1.00  0.00     0.198 A 
ATOM     85  C   UNL A   1      40.524  36.060  38.118  1.00  0.00     0.198 A 
ATOM     86  F   UNL A   1      41.444  35.611  36.000  1.00  0.00    -0.203 F 
ATOM     87  F   UNL A   1      38.060  34.239  40.051  1.00  0.00    -0.200 F 
ATOM     88  C   UNL A   1      39.666  35.718  39.153  1.00  0.00     0.200 A 
ATOM     89  F   UNL A   1      41.264  37.174  38.202  1.00  0.00    -0.200 F 
ATOM     90  F   UNL A   1      39.560  36.511  40.228  1.00  0.00    -0.200 F 
ENDBRANCH  56  80
BRANCH  68  91
ATOM     91  C   UNL A   1      43.790  28.500  35.351  1.00  0.00     0.064 A 
ATOM     92  C   UNL A   1      43.455  27.493  36.268  1.00  0.00     0.173 A 
ATOM     93  C   UNL A   1      45.151  28.769  35.141  1.00  0.00     0.173 A 
ATOM     94  F   UNL A   1      42.167  27.209  36.518  1.00  0.00    -0.203 F 
ATOM     95  C   UNL A   1      44.442  26.798  36.962  1.00  0.00     0.198 A 
ATOM     96  C   UNL A   1      46.137  28.051  35.813  1.00  0.00     0.198 A 
ATOM     97  F   UNL A   1      45.525  29.719  34.270  1.00  0.00    -0.203 F 
ATOM     98  F   UNL A   1      44.098  25.871  37.867  1.00  0.00    -0.200 F 
ATOM     99  C   UNL A   1      45.782  27.072  36.727  1.00  0.00     0.200 A 
ATOM    100  F   UNL A   1      47.430  28.309  35.576  1.00  0.00    -0.200 F 
ATOM    101  F   UNL A   1      46.731  26.397  37.390  1.00  0.00    -0.200 F 
ENDBRANCH  68  91
ENDBRANCH  42  43
ENDBRANCH  35  37
ENDBRANCH  34  35
ENDBRANCH  33  34
ENDBRANCH  32  33
ENDBRANCH  31  32
ENDBRANCH  30  31
ENDBRANCH   1  30
TORSDOF 20
ENDMDL
MODEL 2
REMARK VINA RESULT:     -11.0      5.459      9.316
REMARK SMILES COc1cc(/C=N/c2cccc(F)c2)ccc1OCc1cccc(C(=O)OCCOCCOC(=O)c2ccc(-c3c4nc(c(-c5c(F)c(F)c(F)c(F)c5F)c5ccc([nH]5)c(-c5c(F)c(F)c(F)c(F)c5F)c5nc(c(-c6c(F)c(F)c(F)c(F)c6F)c6ccc3[nH]6)C=C5)C=C4)cc2)c1
REMARK SMILES IDX 28 1 27 2 25 3 26 4 24 5 20 6 21 7 99 8 22 9 23 10 19 11
REMARK SMILES IDX 18 12 17 13 3 14 4 15 5 16 16 17 15 18 2 19 1 20 6 21 7 22
REMARK SMILES IDX 8 23 9 24 14 25 10 26 12 27 11 28 13 29 29 30 30 31 31 32
REMARK SMILES IDX 32 33 33 34 34 35 35 36 36 37 37 38 98 39 38 40 97 41 39 42
REMARK SMILES IDX 40 43 41 44 91 45 42 46 96 47 90 48 92 49 43 50 95 51 89 52
REMARK SMILES IDX 88 53 44 55 76 56 56 57 75 58 57 59 60 60 74 61 93 62 58 63
REMARK SMILES IDX 59 64 73 66 94 67 61 68 45 69 46 70 54 71 47 72 48 73 52 74
REMARK SMILES IDX 55 75 49 76 50 77 53 78 51 79 77 80 78 81 86 82 79 83 80 84
REMARK SMILES IDX 84 85 87 86 81 87 82 88 85 89 83 90 62 91 63 92 71 93 64 94
REMARK SMILES IDX 65 95 69 96 72 97 66 98 67 99 70 100 68 101
REMARK H PARENT 92 54 60 65
REMARK Flexibility Score: inf
ROOT
ATOM      1  C   UNL A   1      36.179  31.871  29.730  1.00  0.00     0.261 C 
ENDROOT
BRANCH   1   2
ATOM      2  O   UNL A   1      36.342  30.451  29.872  1.00  0.00    -0.460 OA
BRANCH   2   3
ATOM      3  C   UNL A   1      36.978  29.853  28.833  1.00  0.00     0.338 C 
ATOM      4  O   UNL A   1      36.704  29.967  27.647  1.00  0.00    -0.246 OA
BRANCH   3   5
ATOM      5  C   UNL A   1      38.165  29.103  29.297  1.00  0.00     0.060 A 
ATOM      6  C   UNL A   1      40.543  28.664  29.247  1.00  0.00    -0.010 A 
ATOM      7  C   UNL A   1      40.420  27.934  30.439  1.00  0.00     0.007 A 
ATOM      8  C   UNL A   1      39.389  29.173  28.630  1.00  0.00     0.023 A 
ATOM      9  C   UNL A   1      39.182  27.801  31.065  1.00  0.00     0.001 A 
ATOM     10  C   UNL A   1      38.060  28.412  30.510  1.00  0.00     0.016 A 
BRANCH   6  11
ATOM     11  C   UNL A   1      41.910  29.005  28.687  1.00  0.00     0.265 C 
BRANCH  11  12
ATOM     12  O   UNL A   1      42.971  28.206  29.225  1.00  0.00    -0.485 OA
BRANCH  12  13
ATOM     13  C   UNL A   1      43.500  27.165  28.505  1.00  0.00     0.161 A 
ATOM     14  C   UNL A   1      44.554  27.184  27.578  1.00  0.00     0.161 A 
ATOM     15  C   UNL A   1      44.936  25.989  26.955  1.00  0.00     0.060 A 
ATOM     16  C   UNL A   1      44.302  24.779  27.259  1.00  0.00    -0.003 A 
ATOM     17  C   UNL A   1      42.861  25.943  28.788  1.00  0.00     0.051 A 
ATOM     18  C   UNL A   1      43.260  24.751  28.178  1.00  0.00     0.014 A 
BRANCH  14  19
ATOM     19  O   UNL A   1      45.147  28.374  27.240  1.00  0.00    -0.493 OA
ATOM     20  C   UNL A   1      45.674  28.440  25.912  1.00  0.00     0.278 C 
ENDBRANCH  14  19
BRANCH  16  21
ATOM     21  C   UNL A   1      44.696  23.547  26.542  1.00  0.00     0.120 C 
ATOM     22  N   UNL A   1      43.819  22.628  26.292  1.00  0.00    -0.256 NA
BRANCH  22  23
ATOM     23  C   UNL A   1      44.233  21.411  25.736  1.00  0.00     0.066 A 
ATOM     24  C   UNL A   1      43.348  20.326  25.751  1.00  0.00     0.028 A 
ATOM     25  C   UNL A   1      45.550  21.204  25.321  1.00  0.00     0.067 A 
ATOM     26  C   UNL A   1      43.769  19.052  25.362  1.00  0.00     0.005 A 
ATOM     27  C   UNL A   1      45.962  19.934  24.933  1.00  0.00     0.125 A 
ATOM     28  C   UNL A   1      45.086  18.854  24.954  1.00  0.00     0.039 A 
ATOM     29  F   UNL A   1      47.235  19.742  24.558  1.00  0.00    -0.207 F 
ENDBRANCH  22  23
ENDBRANCH  16  21
ENDBRANCH  12  13
ENDBRANCH  11  12
ENDBRANCH   6  11
ENDBRANCH   3   5
ENDBRANCH   2   3
ENDBRANCH   1   2
BRANCH   1  30
ATOM     30  C   UNL A   1      35.248  32.467  30.790  1.00  0.00     0.202 C 
BRANCH  30  31
ATOM     31  O   UNL A   1      35.187  33.883  30.932  1.00  0.00    -0.374 OA
BRANCH  31  32
ATOM     32  C   UNL A   1      35.548  34.464  32.180  1.00  0.00     0.202 C 
BRANCH  32  33
ATOM     33  C   UNL A   1      37.035  34.670  32.507  1.00  0.00     0.261 C 
BRANCH  33  34
ATOM     34  O   UNL A   1      37.423  34.255  33.825  1.00  0.00    -0.460 OA
BRANCH  34  35
ATOM     35  C   UNL A   1      37.637  32.922  33.951  1.00  0.00     0.338 C 
ATOM     36  O   UNL A   1      36.859  32.078  34.371  1.00  0.00    -0.246 OA
BRANCH  35  37
ATOM     37  C   UNL A   1      38.932  32.561  33.352  1.00  0.00     0.060 A 
ATOM     38  C   UNL A   1      38.920  31.786  32.184  1.00  0.00     0.016 A 
ATOM     39  C   UNL A   1      40.136  32.902  33.968  1.00  0.00     0.016 A 
ATOM     40  C   UNL A   1      40.117  31.330  31.638  1.00  0.00     0.010 A 
ATOM     41  C   UNL A   1      41.336  32.431  33.426  1.00  0.00     0.010 A 
ATOM     42  C   UNL A   1      41.330  31.624  32.273  1.00  0.00    -0.014 A 
BRANCH  42  43
ATOM     43  C   UNL A   1      42.585  31.000  31.791  1.00  0.00     0.031 A 
ATOM     44  C   UNL A   1      43.416  31.715  30.764  1.00  0.00     0.074 A 
ATOM     45  C   UNL A   1      42.982  29.811  32.276  1.00  0.00     0.049 A 
ATOM     46  N   UNL A   1      44.511  31.324  30.163  1.00  0.00    -0.248 NA
ATOM     47  C   UNL A   1      42.949  33.049  30.360  1.00  0.00     0.031 C 
ATOM     48  C   UNL A   1      42.284  29.045  33.305  1.00  0.00     0.029 A 
ATOM     49  N   UNL A   1      44.069  29.036  31.956  1.00  0.00    -0.354 N 
ATOM     50  C   UNL A   1      44.861  32.360  29.308  1.00  0.00     0.074 A 
ATOM     51  C   UNL A   1      43.846  33.383  29.445  1.00  0.00     0.031 C 
ATOM     52  C   UNL A   1      42.952  27.900  33.525  1.00  0.00     0.029 A 
ATOM     53  C   UNL A   1      44.102  27.837  32.624  1.00  0.00     0.049 A 
ATOM     54  H   UNL A   1      44.758  29.313  31.310  1.00  0.00     0.167 HD
ATOM     55  C   UNL A   1      45.935  32.450  28.488  1.00  0.00     0.037 A 
ATOM     56  C   UNL A   1      44.949  26.797  32.499  1.00  0.00     0.037 A 
ATOM     57  C   UNL A   1      46.939  31.426  28.352  1.00  0.00     0.049 A 
ATOM     58  C   UNL A   1      46.082  26.883  31.511  1.00  0.00     0.074 A 
ATOM     59  C   UNL A   1      48.081  31.434  27.572  1.00  0.00     0.029 A 
ATOM     60  N   UNL A   1      46.912  30.202  29.006  1.00  0.00    -0.354 N 
ATOM     61  N   UNL A   1      46.424  27.876  30.726  1.00  0.00    -0.248 NA
ATOM     62  C   UNL A   1      46.945  25.698  31.389  1.00  0.00     0.031 C 
ATOM     63  C   UNL A   1      48.714  30.194  27.708  1.00  0.00     0.029 A 
ATOM     64  C   UNL A   1      47.996  29.433  28.616  1.00  0.00     0.049 A 
ATOM     65  H   UNL A   1      46.223  29.922  29.651  1.00  0.00     0.167 HD
ATOM     66  C   UNL A   1      47.548  27.445  30.031  1.00  0.00     0.074 A 
ATOM     67  C   UNL A   1      47.842  26.108  30.503  1.00  0.00     0.031 C 
ATOM     68  C   UNL A   1      48.270  28.098  29.088  1.00  0.00     0.037 A 
BRANCH  55  69
ATOM     69  C   UNL A   1      46.062  33.687  27.647  1.00  0.00     0.064 A 
ATOM     70  C   UNL A   1      45.552  33.750  26.342  1.00  0.00     0.173 A 
ATOM     71  C   UNL A   1      46.679  34.836  28.166  1.00  0.00     0.173 A 
ATOM     72  F   UNL A   1      44.964  32.675  25.794  1.00  0.00    -0.203 F 
ATOM     73  C   UNL A   1      45.679  34.907  25.577  1.00  0.00     0.198 A 
ATOM     74  C   UNL A   1      46.779  36.000  27.409  1.00  0.00     0.198 A 
ATOM     75  F   UNL A   1      47.180  34.831  29.410  1.00  0.00    -0.203 F 
ATOM     76  F   UNL A   1      45.227  34.928  24.316  1.00  0.00    -0.200 F 
ATOM     77  C   UNL A   1      46.287  36.033  26.113  1.00  0.00     0.200 A 
ATOM     78  F   UNL A   1      47.356  37.090  27.934  1.00  0.00    -0.200 F 
ATOM     79  F   UNL A   1      46.405  37.147  25.378  1.00  0.00    -0.200 F 
ENDBRANCH  55  69
BRANCH  56  80
ATOM     80  C   UNL A   1      44.741  25.573  33.315  1.00  0.00     0.064 A 
ATOM     81  C   UNL A   1      45.130  25.527  34.661  1.00  0.00     0.173 A 
ATOM     82  C   UNL A   1      44.158  24.422  32.765  1.00  0.00     0.173 A 
ATOM     83  F   UNL A   1      45.718  26.594  35.224  1.00  0.00    -0.203 F 
ATOM     84  C   UNL A   1      44.954  24.374  35.422  1.00  0.00     0.198 A 
ATOM     85  C   UNL A   1      43.956  23.279  33.534  1.00  0.00     0.198 A 
ATOM     86  F   UNL A   1      43.771  24.414  31.480  1.00  0.00    -0.203 F 
ATOM     87  F   UNL A   1      45.372  24.343  36.694  1.00  0.00    -0.200 F 
ATOM     88  C   UNL A   1      44.360  23.254  34.860  1.00  0.00     0.200 A 
ATOM     89  F   UNL A   1      43.371  22.203  32.990  1.00  0.00    -0.200 F 
ATOM     90  F   UNL A   1      44.184  22.146  35.594  1.00  0.00    -0.200 F 
ENDBRANCH  56  80
BRANCH  68  91
ATOM     91  C   UNL A   1      49.455  27.381  28.509  1.00  0.00     0.064 A 
ATOM     92  C   UNL A   1      50.705  27.394  29.146  1.00  0.00     0.173 A 
ATOM     93  C   UNL A   1      49.332  26.636  27.325  1.00  0.00     0.173 A 
ATOM     94  F   UNL A   1      50.880  28.105  30.272  1.00  0.00    -0.203 F 
ATOM     95  C   UNL A   1      51.792  26.710  28.609  1.00  0.00     0.198 A 
ATOM     96  C   UNL A   1      50.413  25.927  26.807  1.00  0.00     0.198 A 
ATOM     97  F   UNL A   1      48.158  26.585  26.679  1.00  0.00    -0.203 F 
ATOM     98  F   UNL A   1      52.987  26.775  29.211  1.00  0.00    -0.200 F 
ATOM     99  C   UNL A   1      51.642  25.970  27.445  1.00  0.00     0.200 A 
ATOM    100  F   UNL A   1      50.263  25.203  25.689  1.00  0.00    -0.200 F 
ATOM    101  F   UNL A   1      52.687  25.305  26.934  1.00  0.00    -0.200 F 
ENDBRANCH  68  91
ENDBRANCH  42  43
ENDBRANCH  35  37
ENDBRANCH  34  35
ENDBRANCH  33  34
ENDBRANCH  32  33
ENDBRANCH  31  32
ENDBRANCH  30  31
ENDBRANCH   1  30
TORSDOF 20
ENDMDL
MODEL 3
REMARK VINA RESULT:     -10.9      5.557     11.239
REMARK SMILES COc1cc(/C=N/c2cccc(F)c2)ccc1OCc1cccc(C(=O)OCCOCCOC(=O)c2ccc(-c3c4nc(c(-c5c(F)c(F)c(F)c(F)c5F)c5ccc([nH]5)c(-c5c(F)c(F)c(F)c(F)c5F)c5nc(c(-c6c(F)c(F)c(F)c(F)c6F)c6ccc3[nH]6)C=C5)C=C4)cc2)c1
REMARK SMILES IDX 28 1 27 2 25 3 26 4 24 5 20 6 21 7 99 8 22 9 23 10 19 11
REMARK SMILES IDX 18 12 17 13 3 14 4 15 5 16 16 17 15 18 2 19 1 20 6 21 7 22
REMARK SMILES IDX 8 23 9 24 14 25 10 26 12 27 11 28 13 29 29 30 30 31 31 32
REMARK SMILES IDX 32 33 33 34 34 35 35 36 36 37 37 38 98 39 38 40 97 41 39 42
REMARK SMILES IDX 40 43 41 44 91 45 42 46 96 47 90 48 92 49 43 50 95 51 89 52
REMARK SMILES IDX 88 53 44 55 76 56 56 57 75 58 57 59 60 60 74 61 93 62 58 63
REMARK SMILES IDX 59 64 73 66 94 67 61 68 45 69 46 70 54 71 47 72 48 73 52 74
REMARK SMILES IDX 55 75 49 76 50 77 53 78 51 79 77 80 78 81 86 82 79 83 80 84
REMARK SMILES IDX 84 85 87 86 81 87 82 88 85 89 83 90 62 91 63 92 71 93 64 94
REMARK SMILES IDX 65 95 69 96 72 97 66 98 67 99 70 100 68 101
REMARK H PARENT 92 54 60 65
REMARK Flexibility Score: inf
ROOT
ATOM      1  C   UNL A   1      42.757  20.007  26.165  1.00  0.00     0.261 C 
ENDROOT
BRANCH   1   2
ATOM      2  O   UNL A   1      41.480  20.555  25.796  1.00  0.00    -0.460 OA
BRANCH   2   3
ATOM      3  C   UNL A   1      40.694  20.899  26.846  1.00  0.00     0.338 C 
ATOM      4  O   UNL A   1      40.764  20.461  27.985  1.00  0.00    -0.246 OA
BRANCH   3   5
ATOM      5  C   UNL A   1      39.771  21.995  26.482  1.00  0.00     0.060 A 
ATOM      6  C   UNL A   1      37.607  22.782  25.742  1.00  0.00    -0.010 A 
ATOM      7  C   UNL A   1      37.954  24.080  26.150  1.00  0.00     0.007 A 
ATOM      8  C   UNL A   1      38.560  21.756  25.829  1.00  0.00     0.023 A 
ATOM      9  C   UNL A   1      39.194  24.332  26.732  1.00  0.00     0.001 A 
ATOM     10  C   UNL A   1      40.090  23.284  26.927  1.00  0.00     0.016 A 
BRANCH   6  11
ATOM     11  C   UNL A   1      36.187  22.457  25.322  1.00  0.00     0.265 C 
BRANCH  11  12
ATOM     12  O   UNL A   1      35.187  23.026  26.176  1.00  0.00    -0.485 OA
BRANCH  12  13
ATOM     13  C   UNL A   1      34.064  23.613  25.649  1.00  0.00     0.161 A 
ATOM     14  C   UNL A   1      32.845  23.015  25.293  1.00  0.00     0.161 A 
ATOM     15  C   UNL A   1      31.821  23.815  24.768  1.00  0.00     0.060 A 
ATOM     16  C   UNL A   1      31.986  25.197  24.618  1.00  0.00    -0.003 A 
ATOM     17  C   UNL A   1      34.221  25.002  25.477  1.00  0.00     0.051 A 
ATOM     18  C   UNL A   1      33.189  25.797  24.972  1.00  0.00     0.014 A 
BRANCH  14  19
ATOM     19  O   UNL A   1      32.694  21.656  25.392  1.00  0.00    -0.493 OA
ATOM     20  C   UNL A   1      32.339  20.989  24.177  1.00  0.00     0.278 C 
ENDBRANCH  14  19
BRANCH  16  21
ATOM     21  C   UNL A   1      30.904  26.001  24.012  1.00  0.00     0.120 C 
ATOM     22  N   UNL A   1      31.169  27.137  23.450  1.00  0.00    -0.256 NA
BRANCH  22  23
ATOM     23  C   UNL A   1      30.120  27.949  23.003  1.00  0.00     0.066 A 
ATOM     24  C   UNL A   1      30.424  29.123  22.304  1.00  0.00     0.028 A 
ATOM     25  C   UNL A   1      28.795  27.708  23.376  1.00  0.00     0.067 A 
ATOM     26  C   UNL A   1      29.425  30.047  21.984  1.00  0.00     0.005 A 
ATOM     27  C   UNL A   1      27.806  28.630  23.052  1.00  0.00     0.125 A 
ATOM     28  C   UNL A   1      28.109  29.800  22.364  1.00  0.00     0.039 A 
ATOM     29  F   UNL A   1      26.543  28.399  23.435  1.00  0.00    -0.207 F 
ENDBRANCH  22  23
ENDBRANCH  16  21
ENDBRANCH  12  13
ENDBRANCH  11  12
ENDBRANCH   6  11
ENDBRANCH   3   5
ENDBRANCH   2   3
ENDBRANCH   1   2
BRANCH   1  30
ATOM     30  C   UNL A   1      42.911  18.540  25.751  1.00  0.00     0.202 C 
BRANCH  30  31
ATOM     31  O   UNL A   1      44.144  18.116  25.176  1.00  0.00    -0.374 OA
BRANCH  31  32
ATOM     32  C   UNL A   1      45.356  18.692  25.650  1.00  0.00     0.202 C 
BRANCH  32  33
ATOM     33  C   UNL A   1      46.259  19.450  24.665  1.00  0.00     0.261 C 
BRANCH  33  34
ATOM     34  O   UNL A   1      46.376  20.858  24.920  1.00  0.00    -0.460 OA
BRANCH  34  35
ATOM     35  C   UNL A   1      45.330  21.596  24.471  1.00  0.00     0.338 C 
ATOM     36  O   UNL A   1      44.535  21.304  23.591  1.00  0.00    -0.246 OA
BRANCH  35  37
ATOM     37  C   UNL A   1      45.161  22.792  25.312  1.00  0.00     0.060 A 
ATOM     38  C   UNL A   1      45.123  24.039  24.675  1.00  0.00     0.016 A 
ATOM     39  C   UNL A   1      45.126  22.701  26.704  1.00  0.00     0.016 A 
ATOM     40  C   UNL A   1      45.070  25.207  25.432  1.00  0.00     0.010 A 
ATOM     41  C   UNL A   1      45.087  23.876  27.463  1.00  0.00     0.010 A 
ATOM     42  C   UNL A   1      45.083  25.133  26.831  1.00  0.00    -0.014 A 
BRANCH  42  43
ATOM     43  C   UNL A   1      45.199  26.373  27.634  1.00  0.00     0.031 A 
ATOM     44  C   UNL A   1      43.954  27.027  28.162  1.00  0.00     0.074 A 
ATOM     45  C   UNL A   1      46.406  26.902  27.898  1.00  0.00     0.049 A 
ATOM     46  N   UNL A   1      43.822  28.144  28.832  1.00  0.00    -0.248 NA
ATOM     47  C   UNL A   1      42.688  26.328  27.900  1.00  0.00     0.031 C 
ATOM     48  C   UNL A   1      47.684  26.334  27.477  1.00  0.00     0.029 A 
ATOM     49  N   UNL A   1      46.750  28.045  28.576  1.00  0.00    -0.354 N 
ATOM     50  C   UNL A   1      42.462  28.284  29.066  1.00  0.00     0.074 A 
ATOM     51  C   UNL A   1      41.806  27.154  28.442  1.00  0.00     0.031 C 
ATOM     52  C   UNL A   1      48.677  27.138  27.895  1.00  0.00     0.029 A 
ATOM     53  C   UNL A   1      48.099  28.295  28.578  1.00  0.00     0.049 A 
ATOM     54  H   UNL A   1      46.092  28.629  29.018  1.00  0.00     0.167 HD
ATOM     55  C   UNL A   1      41.819  29.264  29.746  1.00  0.00     0.037 A 
ATOM     56  C   UNL A   1      48.785  29.353  29.051  1.00  0.00     0.037 A 
ATOM     57  C   UNL A   1      42.477  30.388  30.360  1.00  0.00     0.049 A 
ATOM     58  C   UNL A   1      48.039  30.477  29.720  1.00  0.00     0.074 A 
ATOM     59  C   UNL A   1      41.920  31.418  31.098  1.00  0.00     0.029 A 
ATOM     60  N   UNL A   1      43.841  30.637  30.297  1.00  0.00    -0.354 N 
ATOM     61  N   UNL A   1      46.755  30.590  29.964  1.00  0.00    -0.248 NA
ATOM     62  C   UNL A   1      48.839  31.623  30.176  1.00  0.00     0.031 C 
ATOM     63  C   UNL A   1      42.936  32.319  31.430  1.00  0.00     0.029 A 
ATOM     64  C   UNL A   1      44.137  31.824  30.949  1.00  0.00     0.049 A 
ATOM     65  H   UNL A   1      44.500  30.055  29.855  1.00  0.00     0.167 HD
ATOM     66  C   UNL A   1      46.595  31.807  30.615  1.00  0.00     0.074 A 
ATOM     67  C   UNL A   1      47.916  32.386  30.746  1.00  0.00     0.031 C 
ATOM     68  C   UNL A   1      45.457  32.392  31.062  1.00  0.00     0.037 A 
BRANCH  55  69
ATOM     69  C   UNL A   1      40.323  29.181  29.832  1.00  0.00     0.064 A 
ATOM     70  C   UNL A   1      39.500  29.518  28.748  1.00  0.00     0.173 A 
ATOM     71  C   UNL A   1      39.705  28.728  31.009  1.00  0.00     0.173 A 
ATOM     72  F   UNL A   1      40.040  29.967  27.604  1.00  0.00    -0.203 F 
ATOM     73  C   UNL A   1      38.113  29.434  28.847  1.00  0.00     0.198 A 
ATOM     74  C   UNL A   1      38.320  28.618  31.095  1.00  0.00     0.198 A 
ATOM     75  F   UNL A   1      40.446  28.389  32.074  1.00  0.00    -0.203 F 
ATOM     76  F   UNL A   1      37.345  29.807  27.814  1.00  0.00    -0.200 F 
ATOM     77  C   UNL A   1      37.525  28.978  30.017  1.00  0.00     0.200 A 
ATOM     78  F   UNL A   1      37.755  28.166  32.223  1.00  0.00    -0.200 F 
ATOM     79  F   UNL A   1      36.191  28.893  30.110  1.00  0.00    -0.200 F 
ENDBRANCH  55  69
BRANCH  56  80
ATOM     80  C   UNL A   1      50.261  29.411  28.887  1.00  0.00     0.064 A 
ATOM     81  C   UNL A   1      50.839  30.000  27.755  1.00  0.00     0.173 A 
ATOM     82  C   UNL A   1      51.122  28.872  29.854  1.00  0.00     0.173 A 
ATOM     83  F   UNL A   1      50.056  30.505  26.790  1.00  0.00    -0.203 F 
ATOM     84  C   UNL A   1      52.222  30.038  27.590  1.00  0.00     0.198 A 
ATOM     85  C   UNL A   1      52.505  28.935  29.702  1.00  0.00     0.198 A 
ATOM     86  F   UNL A   1      50.619  28.293  30.955  1.00  0.00    -0.203 F 
ATOM     87  F   UNL A   1      52.748  30.571  26.479  1.00  0.00    -0.200 F 
ATOM     88  C   UNL A   1      53.054  29.513  28.567  1.00  0.00     0.200 A 
ATOM     89  F   UNL A   1      53.305  28.436  30.654  1.00  0.00    -0.200 F 
ATOM     90  F   UNL A   1      54.384  29.555  28.412  1.00  0.00    -0.200 F 
ENDBRANCH  56  80
BRANCH  68  91
ATOM     91  C   UNL A   1      45.589  33.723  31.745  1.00  0.00     0.064 A 
ATOM     92  C   UNL A   1      45.834  33.820  33.123  1.00  0.00     0.173 A 
ATOM     93  C   UNL A   1      45.512  34.915  31.008  1.00  0.00     0.173 A 
ATOM     94  F   UNL A   1      45.899  32.710  33.876  1.00  0.00    -0.203 F 
ATOM     95  C   UNL A   1      45.973  35.059  33.742  1.00  0.00     0.198 A 
ATOM     96  C   UNL A   1      45.683  36.152  31.625  1.00  0.00     0.198 A 
ATOM     97  F   UNL A   1      45.287  34.879  29.687  1.00  0.00    -0.203 F 
ATOM     98  F   UNL A   1      46.160  35.128  35.067  1.00  0.00    -0.200 F 
ATOM     99  C   UNL A   1      45.906  36.223  32.990  1.00  0.00     0.200 A 
ATOM    100  F   UNL A   1      45.630  37.275  30.895  1.00  0.00    -0.200 F 
ATOM    101  F   UNL A   1      46.049  37.415  33.586  1.00  0.00    -0.200 F 
ENDBRANCH  68  91
ENDBRANCH  42  43
ENDBRANCH  35  37
ENDBRANCH  34  35
ENDBRANCH  33  34
ENDBRANCH  32  33
ENDBRANCH  31  32
ENDBRANCH  30  31
ENDBRANCH   1  30
TORSDOF 20
ENDMDL
