MODEL 1
REMARK VINA RESULT:     -11.8      0.000      0.000
REMARK SMILES C[C@H](O)[C@H](C)[N@H+]1Cc2ccccc2C[C@@H]1C(=O)OCCOCCOC(=O)c1ccc(-c2c3nc(c(-c4c(F)c(F)c(F)c(F)c4F)c4ccc([nH]4)c(-c4c(F)c(F)c(F)c(F)c4F)c4nc(c(-c5c(F)c(F)c(F)c(F)c5F)c5ccc2[nH]5)C=C4)C=C3)cc1
REMARK SMILES IDX 20 1 19 2 18 3 16 4 17 5 15 6 6 7 7 8 8 10 14 11 9 12 13 13
REMARK SMILES IDX 10 14 12 15 11 16 4 17 5 18 2 19 1 20 3 21 21 23 22 24 23 25
REMARK SMILES IDX 24 26 25 27 26 28 27 29 28 30 89 31 29 32 88 33 30 34 31 35
REMARK SMILES IDX 32 36 82 37 33 38 87 39 81 40 83 41 34 42 86 43 80 44 79 45
REMARK SMILES IDX 35 47 67 48 47 49 66 50 48 51 51 52 65 53 84 54 49 55 50 56
REMARK SMILES IDX 64 58 85 59 52 60 36 61 37 62 45 63 38 64 39 65 43 66 46 67
REMARK SMILES IDX 40 68 41 69 44 70 42 71 68 72 69 73 77 74 70 75 71 76 75 77
REMARK SMILES IDX 78 78 72 79 73 80 76 81 74 82 53 83 54 84 62 85 55 86 56 87
REMARK SMILES IDX 60 88 63 89 57 90 58 91 61 92 59 93
REMARK H PARENT 6 9 3 22 83 46 51 57
REMARK Flexibility Score: inf
ROOT
ATOM      1  C   UNL A   1      34.210  21.391  26.280  1.00  0.00     0.202 C 
ENDROOT
BRANCH   1   2
ATOM      2  C   UNL A   1      33.697  22.345  27.366  1.00  0.00     0.261 C 
BRANCH   2   3
ATOM      3  O   UNL A   1      33.503  23.703  26.935  1.00  0.00    -0.459 OA
BRANCH   3   4
ATOM      4  C   UNL A   1      32.219  23.979  26.554  1.00  0.00     0.365 C 
ATOM      5  O   UNL A   1      31.246  23.696  27.248  1.00  0.00    -0.245 OA
BRANCH   4   6
ATOM      6  C   UNL A   1      32.119  24.562  25.110  1.00  0.00     0.300 C 
ATOM      7  N   UNL A   1      33.454  24.842  24.526  1.00  0.00    -0.315 N 
ATOM      8  C   UNL A   1      33.960  26.219  24.621  1.00  0.00     0.300 C 
ATOM      9  H   UNL A   1      33.968  24.312  25.230  1.00  0.00     0.349 HD
ATOM     10  C   UNL A   1      33.306  27.080  25.670  1.00  0.00     0.010 A 
ATOM     11  C   UNL A   1      31.207  25.811  25.222  1.00  0.00     0.113 C 
ATOM     12  C   UNL A   1      34.022  28.075  26.342  1.00  0.00     0.010 A 
ATOM     13  C   UNL A   1      31.937  26.923  25.930  1.00  0.00    -0.033 A 
ATOM     14  C   UNL A   1      33.386  28.883  27.286  1.00  0.00     0.001 A 
ATOM     15  C   UNL A   1      31.299  27.741  26.867  1.00  0.00     0.004 A 
ATOM     16  C   UNL A   1      32.026  28.713  27.549  1.00  0.00     0.000 A 
BRANCH   7  17
ATOM     17  C   UNL A   1      33.858  24.169  23.274  1.00  0.00     0.210 C 
ATOM     18  C   UNL A   1      35.218  23.471  23.442  1.00  0.00     0.078 C 
BRANCH  17  19
ATOM     19  C   UNL A   1      32.829  23.304  22.446  1.00  0.00     0.169 C 
ATOM     20  C   UNL A   1      32.613  21.852  22.840  1.00  0.00     0.045 C 
BRANCH  19  21
ATOM     21  O   UNL A   1      33.128  23.311  21.046  1.00  0.00    -0.387 OA
ATOM     22  H   UNL A   1      33.169  24.227  20.728  1.00  0.00     0.211 HD
ENDBRANCH  19  21
ENDBRANCH  17  19
ENDBRANCH   7  17
ENDBRANCH   4   6
ENDBRANCH   3   4
ENDBRANCH   2   3
ENDBRANCH   1   2
BRANCH   1  23
ATOM     23  O   UNL A   1      35.609  21.302  26.050  1.00  0.00    -0.374 OA
BRANCH  23  24
ATOM     24  C   UNL A   1      36.062  20.322  25.114  1.00  0.00     0.202 C 
BRANCH  24  25
ATOM     25  C   UNL A   1      37.570  20.248  24.843  1.00  0.00     0.261 C 
BRANCH  25  26
ATOM     26  O   UNL A   1      38.255  21.434  25.292  1.00  0.00    -0.460 OA
BRANCH  26  27
ATOM     27  C   UNL A   1      39.297  21.211  26.123  1.00  0.00     0.338 C 
ATOM     28  O   UNL A   1      39.949  20.180  26.241  1.00  0.00    -0.246 OA
BRANCH  27  29
ATOM     29  C   UNL A   1      39.708  22.473  26.763  1.00  0.00     0.060 A 
ATOM     30  C   UNL A   1      39.005  23.634  26.413  1.00  0.00     0.016 A 
ATOM     31  C   UNL A   1      40.808  22.539  27.620  1.00  0.00     0.016 A 
ATOM     32  C   UNL A   1      39.432  24.875  26.876  1.00  0.00     0.010 A 
ATOM     33  C   UNL A   1      41.245  23.788  28.072  1.00  0.00     0.010 A 
ATOM     34  C   UNL A   1      40.584  24.963  27.668  1.00  0.00    -0.014 A 
BRANCH  34  35
ATOM     35  C   UNL A   1      41.188  26.293  27.917  1.00  0.00     0.031 A 
ATOM     36  C   UNL A   1      42.588  26.552  27.432  1.00  0.00     0.074 A 
ATOM     37  C   UNL A   1      40.491  27.267  28.527  1.00  0.00     0.049 A 
ATOM     38  N   UNL A   1      43.324  27.627  27.550  1.00  0.00    -0.248 NA
ATOM     39  C   UNL A   1      43.247  25.448  26.716  1.00  0.00     0.031 C 
ATOM     40  C   UNL A   1      39.115  27.148  29.003  1.00  0.00     0.029 A 
ATOM     41  N   UNL A   1      40.853  28.549  28.854  1.00  0.00    -0.354 N 
ATOM     42  C   UNL A   1      44.531  27.327  26.933  1.00  0.00     0.074 A 
ATOM     43  C   UNL A   1      44.441  25.962  26.462  1.00  0.00     0.031 C 
ATOM     44  C   UNL A   1      38.752  28.309  29.575  1.00  0.00     0.029 A 
ATOM     45  C   UNL A   1      39.878  29.240  29.529  1.00  0.00     0.049 A 
ATOM     46  H   UNL A   1      41.728  28.938  28.624  1.00  0.00     0.167 HD
ATOM     47  C   UNL A   1      45.615  28.122  26.765  1.00  0.00     0.037 A 
ATOM     48  C   UNL A   1      39.904  30.475  30.067  1.00  0.00     0.037 A 
ATOM     49  C   UNL A   1      45.699  29.482  27.226  1.00  0.00     0.049 A 
ATOM     50  C   UNL A   1      41.145  31.318  29.920  1.00  0.00     0.074 A 
ATOM     51  C   UNL A   1      46.742  30.380  27.081  1.00  0.00     0.029 A 
ATOM     52  N   UNL A   1      44.701  30.137  27.933  1.00  0.00    -0.354 N 
ATOM     53  N   UNL A   1      42.269  31.039  29.307  1.00  0.00    -0.248 NA
ATOM     54  C   UNL A   1      41.117  32.652  30.539  1.00  0.00     0.031 C 
ATOM     55  C   UNL A   1      46.395  31.563  27.742  1.00  0.00     0.029 A 
ATOM     56  C   UNL A   1      45.115  31.420  28.255  1.00  0.00     0.049 A 
ATOM     57  H   UNL A   1      43.829  29.749  28.170  1.00  0.00     0.167 HD
ATOM     58  C   UNL A   1      43.070  32.167  29.440  1.00  0.00     0.074 A 
ATOM     59  C   UNL A   1      42.297  33.140  30.184  1.00  0.00     0.031 C 
ATOM     60  C   UNL A   1      44.330  32.379  28.988  1.00  0.00     0.037 A 
BRANCH  47  61
ATOM     61  C   UNL A   1      46.809  27.531  26.078  1.00  0.00     0.064 A 
ATOM     62  C   UNL A   1      46.980  27.620  24.688  1.00  0.00     0.173 A 
ATOM     63  C   UNL A   1      47.814  26.899  26.824  1.00  0.00     0.173 A 
ATOM     64  F   UNL A   1      46.040  28.201  23.928  1.00  0.00    -0.203 F 
ATOM     65  C   UNL A   1      48.104  27.077  24.070  1.00  0.00     0.198 A 
ATOM     66  C   UNL A   1      48.950  26.382  26.207  1.00  0.00     0.198 A 
ATOM     67  F   UNL A   1      47.700  26.791  28.157  1.00  0.00    -0.203 F 
ATOM     68  F   UNL A   1      48.228  27.138  22.736  1.00  0.00    -0.200 F 
ATOM     69  C   UNL A   1      49.091  26.467  24.830  1.00  0.00     0.200 A 
ATOM     70  F   UNL A   1      49.906  25.802  26.943  1.00  0.00    -0.200 F 
ATOM     71  F   UNL A   1      50.176  25.953  24.234  1.00  0.00    -0.200 F 
ENDBRANCH  47  61
BRANCH  48  72
ATOM     72  C   UNL A   1      38.724  30.986  30.811  1.00  0.00     0.064 A 
ATOM     73  C   UNL A   1      38.624  30.845  32.202  1.00  0.00     0.173 A 
ATOM     74  C   UNL A   1      37.659  31.608  30.140  1.00  0.00     0.173 A 
ATOM     75  F   UNL A   1      39.604  30.234  32.884  1.00  0.00    -0.203 F 
ATOM     76  C   UNL A   1      37.497  31.290  32.891  1.00  0.00     0.198 A 
ATOM     77  C   UNL A   1      36.546  32.076  30.834  1.00  0.00     0.198 A 
ATOM     78  F   UNL A   1      37.704  31.765  28.809  1.00  0.00    -0.203 F 
ATOM     79  F   UNL A   1      37.406  31.100  34.214  1.00  0.00    -0.200 F 
ATOM     80  C   UNL A   1      36.462  31.910  32.208  1.00  0.00     0.200 A 
ATOM     81  F   UNL A   1      35.553  32.684  30.171  1.00  0.00    -0.200 F 
ATOM     82  F   UNL A   1      35.380  32.338  32.872  1.00  0.00    -0.200 F 
ENDBRANCH  48  72
BRANCH  60  83
ATOM     83  C   UNL A   1      44.943  33.723  29.253  1.00  0.00     0.064 A 
ATOM     84  C   UNL A   1      44.755  34.802  28.377  1.00  0.00     0.173 A 
ATOM     85  C   UNL A   1      45.689  33.945  30.420  1.00  0.00     0.173 A 
ATOM     86  F   UNL A   1      44.062  34.636  27.240  1.00  0.00    -0.203 F 
ATOM     87  C   UNL A   1      45.312  36.049  28.649  1.00  0.00     0.198 A 
ATOM     88  C   UNL A   1      46.219  35.200  30.704  1.00  0.00     0.198 A 
ATOM     89  F   UNL A   1      45.890  32.948  31.295  1.00  0.00    -0.203 F 
ATOM     90  F   UNL A   1      45.159  37.054  27.776  1.00  0.00    -0.200 F 
ATOM     91  C   UNL A   1      46.037  36.249  29.815  1.00  0.00     0.200 A 
ATOM     92  F   UNL A   1      46.907  35.396  31.837  1.00  0.00    -0.200 F 
ATOM     93  F   UNL A   1      46.565  37.452  30.079  1.00  0.00    -0.200 F 
ENDBRANCH  60  83
ENDBRANCH  34  35
ENDBRANCH  27  29
ENDBRANCH  26  27
ENDBRANCH  25  26
ENDBRANCH  24  25
ENDBRANCH  23  24
ENDBRANCH   1  23
TORSDOF 17
ENDMDL
MODEL 2
REMARK VINA RESULT:     -11.7      4.415      9.664
REMARK SMILES C[C@H](O)[C@H](C)[N@H+]1Cc2ccccc2C[C@@H]1C(=O)OCCOCCOC(=O)c1ccc(-c2c3nc(c(-c4c(F)c(F)c(F)c(F)c4F)c4ccc([nH]4)c(-c4c(F)c(F)c(F)c(F)c4F)c4nc(c(-c5c(F)c(F)c(F)c(F)c5F)c5ccc2[nH]5)C=C4)C=C3)cc1
REMARK SMILES IDX 20 1 19 2 18 3 16 4 17 5 15 6 6 7 7 8 8 10 14 11 9 12 13 13
REMARK SMILES IDX 10 14 12 15 11 16 4 17 5 18 2 19 1 20 3 21 21 23 22 24 23 25
REMARK SMILES IDX 24 26 25 27 26 28 27 29 28 30 89 31 29 32 88 33 30 34 31 35
REMARK SMILES IDX 32 36 82 37 33 38 87 39 81 40 83 41 34 42 86 43 80 44 79 45
REMARK SMILES IDX 35 47 67 48 47 49 66 50 48 51 51 52 65 53 84 54 49 55 50 56
REMARK SMILES IDX 64 58 85 59 52 60 36 61 37 62 45 63 38 64 39 65 43 66 46 67
REMARK SMILES IDX 40 68 41 69 44 70 42 71 68 72 69 73 77 74 70 75 71 76 75 77
REMARK SMILES IDX 78 78 72 79 73 80 76 81 74 82 53 83 54 84 62 85 55 86 56 87
REMARK SMILES IDX 60 88 63 89 57 90 58 91 61 92 59 93
REMARK H PARENT 6 9 3 22 83 46 51 57
REMARK Flexibility Score: inf
ROOT
ATOM      1  C   UNL A   1      33.503  29.327  24.546  1.00  0.00     0.202 C 
ENDROOT
BRANCH   1   2
ATOM      2  C   UNL A   1      33.888  28.079  23.740  1.00  0.00     0.261 C 
BRANCH   2   3
ATOM      3  O   UNL A   1      33.284  27.989  22.439  1.00  0.00    -0.459 OA
BRANCH   3   4
ATOM      4  C   UNL A   1      32.962  26.712  22.071  1.00  0.00     0.365 C 
ATOM      5  O   UNL A   1      33.795  25.914  21.649  1.00  0.00    -0.245 OA
BRANCH   4   6
ATOM      6  C   UNL A   1      31.429  26.426  22.120  1.00  0.00     0.300 C 
ATOM      7  N   UNL A   1      30.723  27.326  23.066  1.00  0.00    -0.315 N 
ATOM      8  C   UNL A   1      30.460  26.814  24.419  1.00  0.00     0.300 C 
ATOM      9  H   UNL A   1      31.503  27.975  23.165  1.00  0.00     0.349 HD
ATOM     10  C   UNL A   1      31.309  25.647  24.848  1.00  0.00     0.010 A 
ATOM     11  C   UNL A   1      31.291  24.920  22.463  1.00  0.00     0.113 C 
ATOM     12  C   UNL A   1      31.686  25.474  26.184  1.00  0.00     0.010 A 
ATOM     13  C   UNL A   1      31.674  24.680  23.901  1.00  0.00    -0.033 A 
ATOM     14  C   UNL A   1      32.444  24.365  26.562  1.00  0.00     0.001 A 
ATOM     15  C   UNL A   1      32.423  23.564  24.284  1.00  0.00     0.004 A 
ATOM     16  C   UNL A   1      32.814  23.413  25.612  1.00  0.00     0.000 A 
BRANCH   7  17
ATOM     17  C   UNL A   1      29.646  28.207  22.567  1.00  0.00     0.210 C 
ATOM     18  C   UNL A   1      28.336  27.957  23.334  1.00  0.00     0.078 C 
BRANCH  17  19
ATOM     19  C   UNL A   1      29.908  29.739  22.293  1.00  0.00     0.169 C 
ATOM     20  C   UNL A   1      28.840  30.543  21.569  1.00  0.00     0.045 C 
BRANCH  19  21
ATOM     21  O   UNL A   1      31.136  29.955  21.588  1.00  0.00    -0.387 OA
ATOM     22  H   UNL A   1      30.946  30.099  20.647  1.00  0.00     0.211 HD
ENDBRANCH  19  21
ENDBRANCH  17  19
ENDBRANCH   7  17
ENDBRANCH   4   6
ENDBRANCH   3   4
ENDBRANCH   2   3
ENDBRANCH   1   2
BRANCH   1  23
ATOM     23  O   UNL A   1      32.551  29.201  25.592  1.00  0.00    -0.374 OA
BRANCH  23  24
ATOM     24  C   UNL A   1      31.514  30.180  25.661  1.00  0.00     0.202 C 
BRANCH  24  25
ATOM     25  C   UNL A   1      31.727  31.371  26.604  1.00  0.00     0.261 C 
BRANCH  25  26
ATOM     26  O   UNL A   1      32.821  31.144  27.515  1.00  0.00    -0.460 OA
BRANCH  26  27
ATOM     27  C   UNL A   1      33.690  32.173  27.631  1.00  0.00     0.338 C 
ATOM     28  O   UNL A   1      33.432  33.371  27.623  1.00  0.00    -0.246 OA
BRANCH  27  29
ATOM     29  C   UNL A   1      35.028  31.664  27.979  1.00  0.00     0.060 A 
ATOM     30  C   UNL A   1      35.167  30.280  28.155  1.00  0.00     0.016 A 
ATOM     31  C   UNL A   1      36.104  32.522  28.212  1.00  0.00     0.016 A 
ATOM     32  C   UNL A   1      36.369  29.753  28.619  1.00  0.00     0.010 A 
ATOM     33  C   UNL A   1      37.305  31.992  28.693  1.00  0.00     0.010 A 
ATOM     34  C   UNL A   1      37.428  30.612  28.937  1.00  0.00    -0.014 A 
BRANCH  34  35
ATOM     35  C   UNL A   1      38.588  30.078  29.689  1.00  0.00     0.031 A 
ATOM     36  C   UNL A   1      38.805  30.539  31.104  1.00  0.00     0.074 A 
ATOM     37  C   UNL A   1      39.411  29.169  29.139  1.00  0.00     0.049 A 
ATOM     38  N   UNL A   1      39.755  30.223  31.946  1.00  0.00    -0.248 NA
ATOM     39  C   UNL A   1      37.813  31.484  31.643  1.00  0.00     0.031 C 
ATOM     40  C   UNL A   1      39.279  28.617  27.793  1.00  0.00     0.029 A 
ATOM     41  N   UNL A   1      40.528  28.556  29.649  1.00  0.00    -0.354 N 
ATOM     42  C   UNL A   1      39.482  30.935  33.107  1.00  0.00     0.074 A 
ATOM     43  C   UNL A   1      38.291  31.718  32.856  1.00  0.00     0.031 C 
ATOM     44  C   UNL A   1      40.287  27.753  27.577  1.00  0.00     0.029 A 
ATOM     45  C   UNL A   1      41.147  27.714  28.759  1.00  0.00     0.049 A 
ATOM     46  H   UNL A   1      40.853  28.704  30.567  1.00  0.00     0.167 HD
ATOM     47  C   UNL A   1      40.158  30.929  34.280  1.00  0.00     0.037 A 
ATOM     48  C   UNL A   1      42.291  27.013  28.880  1.00  0.00     0.037 A 
ATOM     49  C   UNL A   1      41.337  30.143  34.531  1.00  0.00     0.049 A 
ATOM     50  C   UNL A   1      43.059  27.070  30.176  1.00  0.00     0.074 A 
ATOM     51  C   UNL A   1      42.078  30.045  35.695  1.00  0.00     0.029 A 
ATOM     52  N   UNL A   1      41.951  29.325  33.594  1.00  0.00    -0.354 N 
ATOM     53  N   UNL A   1      42.775  27.719  31.279  1.00  0.00    -0.248 NA
ATOM     54  C   UNL A   1      44.305  26.293  30.243  1.00  0.00     0.031 C 
ATOM     55  C   UNL A   1      43.169  29.206  35.448  1.00  0.00     0.029 A 
ATOM     56  C   UNL A   1      43.079  28.740  34.146  1.00  0.00     0.049 A 
ATOM     57  H   UNL A   1      41.632  29.181  32.673  1.00  0.00     0.167 HD
ATOM     58  C   UNL A   1      43.788  27.408  32.178  1.00  0.00     0.074 A 
ATOM     59  C   UNL A   1      44.688  26.502  31.494  1.00  0.00     0.031 C 
ATOM     60  C   UNL A   1      43.959  27.833  33.453  1.00  0.00     0.037 A 
BRANCH  47  61
ATOM     61  C   UNL A   1      39.655  31.821  35.375  1.00  0.00     0.064 A 
ATOM     62  C   UNL A   1      40.118  33.136  35.528  1.00  0.00     0.173 A 
ATOM     63  C   UNL A   1      38.669  31.365  36.263  1.00  0.00     0.173 A 
ATOM     64  F   UNL A   1      41.072  33.615  34.715  1.00  0.00    -0.203 F 
ATOM     65  C   UNL A   1      39.627  33.954  36.543  1.00  0.00     0.198 A 
ATOM     66  C   UNL A   1      38.160  32.194  37.259  1.00  0.00     0.198 A 
ATOM     67  F   UNL A   1      38.190  30.116  36.157  1.00  0.00    -0.203 F 
ATOM     68  F   UNL A   1      40.114  35.194  36.696  1.00  0.00    -0.200 F 
ATOM     69  C   UNL A   1      38.644  33.485  37.401  1.00  0.00     0.200 A 
ATOM     70  F   UNL A   1      37.203  31.742  38.080  1.00  0.00    -0.200 F 
ATOM     71  F   UNL A   1      38.166  34.277  38.372  1.00  0.00    -0.200 F 
ENDBRANCH  47  61
BRANCH  48  72
ATOM     72  C   UNL A   1      42.792  26.207  27.737  1.00  0.00     0.064 A 
ATOM     73  C   UNL A   1      43.716  26.734  26.824  1.00  0.00     0.173 A 
ATOM     74  C   UNL A   1      42.339  24.896  27.521  1.00  0.00     0.173 A 
ATOM     75  F   UNL A   1      44.158  27.992  26.973  1.00  0.00    -0.203 F 
ATOM     76  C   UNL A   1      44.153  25.989  25.730  1.00  0.00     0.198 A 
ATOM     77  C   UNL A   1      42.797  24.142  26.444  1.00  0.00     0.198 A 
ATOM     78  F   UNL A   1      41.452  24.344  28.364  1.00  0.00    -0.203 F 
ATOM     79  F   UNL A   1      45.000  26.535  24.847  1.00  0.00    -0.200 F 
ATOM     80  C   UNL A   1      43.699  24.693  25.544  1.00  0.00     0.200 A 
ATOM     81  F   UNL A   1      42.364  22.886  26.274  1.00  0.00    -0.200 F 
ATOM     82  F   UNL A   1      44.120  23.977  24.493  1.00  0.00    -0.200 F 
ENDBRANCH  48  72
BRANCH  60  83
ATOM     83  C   UNL A   1      45.142  27.300  34.208  1.00  0.00     0.064 A 
ATOM     84  C   UNL A   1      46.369  27.979  34.227  1.00  0.00     0.173 A 
ATOM     85  C   UNL A   1      45.031  26.118  34.957  1.00  0.00     0.173 A 
ATOM     86  F   UNL A   1      46.529  29.105  33.515  1.00  0.00    -0.203 F 
ATOM     87  C   UNL A   1      47.449  27.482  34.951  1.00  0.00     0.198 A 
ATOM     88  C   UNL A   1      46.104  25.640  35.702  1.00  0.00     0.198 A 
ATOM     89  F   UNL A   1      43.877  25.436  34.978  1.00  0.00    -0.203 F 
ATOM     90  F   UNL A   1      48.626  28.122  34.920  1.00  0.00    -0.200 F 
ATOM     91  C   UNL A   1      47.315  26.317  35.694  1.00  0.00     0.200 A 
ATOM     92  F   UNL A   1      45.968  24.523  36.431  1.00  0.00    -0.200 F 
ATOM     93  F   UNL A   1      48.354  25.845  36.396  1.00  0.00    -0.200 F 
ENDBRANCH  60  83
ENDBRANCH  34  35
ENDBRANCH  27  29
ENDBRANCH  26  27
ENDBRANCH  25  26
ENDBRANCH  24  25
ENDBRANCH  23  24
ENDBRANCH   1  23
TORSDOF 17
ENDMDL
MODEL 3
REMARK VINA RESULT:     -11.6      0.541      2.049
REMARK SMILES C[C@H](O)[C@H](C)[N@H+]1Cc2ccccc2C[C@@H]1C(=O)OCCOCCOC(=O)c1ccc(-c2c3nc(c(-c4c(F)c(F)c(F)c(F)c4F)c4ccc([nH]4)c(-c4c(F)c(F)c(F)c(F)c4F)c4nc(c(-c5c(F)c(F)c(F)c(F)c5F)c5ccc2[nH]5)C=C4)C=C3)cc1
REMARK SMILES IDX 20 1 19 2 18 3 16 4 17 5 15 6 6 7 7 8 8 10 14 11 9 12 13 13
REMARK SMILES IDX 10 14 12 15 11 16 4 17 5 18 2 19 1 20 3 21 21 23 22 24 23 25
REMARK SMILES IDX 24 26 25 27 26 28 27 29 28 30 89 31 29 32 88 33 30 34 31 35
REMARK SMILES IDX 32 36 82 37 33 38 87 39 81 40 83 41 34 42 86 43 80 44 79 45
REMARK SMILES IDX 35 47 67 48 47 49 66 50 48 51 51 52 65 53 84 54 49 55 50 56
REMARK SMILES IDX 64 58 85 59 52 60 36 61 37 62 45 63 38 64 39 65 43 66 46 67
REMARK SMILES IDX 40 68 41 69 44 70 42 71 68 72 69 73 77 74 70 75 71 76 75 77
REMARK SMILES IDX 78 78 72 79 73 80 76 81 74 82 53 83 54 84 62 85 55 86 56 87
REMARK SMILES IDX 60 88 63 89 57 90 58 91 61 92 59 93
REMARK H PARENT 6 9 3 22 83 46 51 57
REMARK Flexibility Score: inf
ROOT
ATOM      1  C   UNL A   1      33.512  21.380  26.020  1.00  0.00     0.202 C 
ENDROOT
BRANCH   1   2
ATOM      2  C   UNL A   1      33.616  22.609  26.932  1.00  0.00     0.261 C 
BRANCH   2   3
ATOM      3  O   UNL A   1      33.269  23.857  26.309  1.00  0.00    -0.459 OA
BRANCH   3   4
ATOM      4  C   UNL A   1      31.930  24.132  26.338  1.00  0.00     0.365 C 
ATOM      5  O   UNL A   1      31.197  23.759  27.250  1.00  0.00    -0.245 OA
BRANCH   4   6
ATOM      6  C   UNL A   1      31.420  24.842  25.046  1.00  0.00     0.300 C 
ATOM      7  N   UNL A   1      32.515  25.086  24.073  1.00  0.00    -0.315 N 
ATOM      8  C   UNL A   1      33.143  26.415  24.080  1.00  0.00     0.300 C 
ATOM      9  H   UNL A   1      33.180  24.466  24.535  1.00  0.00     0.349 HD
ATOM     10  C   UNL A   1      32.942  27.222  25.336  1.00  0.00     0.010 A 
ATOM     11  C   UNL A   1      30.708  26.132  25.527  1.00  0.00     0.113 C 
ATOM     12  C   UNL A   1      33.922  28.108  25.794  1.00  0.00     0.010 A 
ATOM     13  C   UNL A   1      31.723  27.131  26.021  1.00  0.00    -0.033 A 
ATOM     14  C   UNL A   1      33.698  28.870  26.941  1.00  0.00     0.001 A 
ATOM     15  C   UNL A   1      31.496  27.904  27.164  1.00  0.00     0.004 A 
ATOM     16  C   UNL A   1      32.488  28.765  27.627  1.00  0.00     0.000 A 
BRANCH   7  17
ATOM     17  C   UNL A   1      32.431  24.499  22.720  1.00  0.00     0.210 C 
ATOM     18  C   UNL A   1      32.650  25.574  21.642  1.00  0.00     0.078 C 
BRANCH  17  19
ATOM     19  C   UNL A   1      33.151  23.137  22.376  1.00  0.00     0.169 C 
ATOM     20  C   UNL A   1      32.395  21.836  22.597  1.00  0.00     0.045 C 
BRANCH  19  21
ATOM     21  O   UNL A   1      34.404  23.006  23.057  1.00  0.00    -0.387 OA
ATOM     22  H   UNL A   1      34.530  23.764  23.650  1.00  0.00     0.211 HD
ENDBRANCH  19  21
ENDBRANCH  17  19
ENDBRANCH   7  17
ENDBRANCH   4   6
ENDBRANCH   3   4
ENDBRANCH   2   3
ENDBRANCH   1   2
BRANCH   1  23
ATOM     23  O   UNL A   1      34.657  20.974  25.285  1.00  0.00    -0.374 OA
BRANCH  23  24
ATOM     24  C   UNL A   1      35.931  21.424  25.747  1.00  0.00     0.202 C 
BRANCH  24  25
ATOM     25  C   UNL A   1      37.173  20.703  25.209  1.00  0.00     0.261 C 
BRANCH  25  26
ATOM     26  O   UNL A   1      38.320  21.576  25.156  1.00  0.00    -0.460 OA
BRANCH  26  27
ATOM     27  C   UNL A   1      39.279  21.314  26.072  1.00  0.00     0.338 C 
ATOM     28  O   UNL A   1      39.877  20.259  26.245  1.00  0.00    -0.246 OA
BRANCH  27  29
ATOM     29  C   UNL A   1      39.682  22.561  26.746  1.00  0.00     0.060 A 
ATOM     30  C   UNL A   1      38.987  23.731  26.411  1.00  0.00     0.016 A 
ATOM     31  C   UNL A   1      40.769  22.605  27.621  1.00  0.00     0.016 A 
ATOM     32  C   UNL A   1      39.410  24.961  26.908  1.00  0.00     0.010 A 
ATOM     33  C   UNL A   1      41.202  23.844  28.107  1.00  0.00     0.010 A 
ATOM     34  C   UNL A   1      40.549  25.028  27.719  1.00  0.00    -0.014 A 
BRANCH  34  35
ATOM     35  C   UNL A   1      41.152  26.351  28.006  1.00  0.00     0.031 A 
ATOM     36  C   UNL A   1      42.560  26.618  27.548  1.00  0.00     0.074 A 
ATOM     37  C   UNL A   1      40.448  27.313  28.627  1.00  0.00     0.049 A 
ATOM     38  N   UNL A   1      43.296  27.688  27.700  1.00  0.00    -0.248 NA
ATOM     39  C   UNL A   1      43.227  25.528  26.817  1.00  0.00     0.031 C 
ATOM     40  C   UNL A   1      39.066  27.187  29.080  1.00  0.00     0.029 A 
ATOM     41  N   UNL A   1      40.809  28.587  28.987  1.00  0.00    -0.354 N 
ATOM     42  C   UNL A   1      44.512  27.399  27.094  1.00  0.00     0.074 A 
ATOM     43  C   UNL A   1      44.426  26.044  26.592  1.00  0.00     0.031 C 
ATOM     44  C   UNL A   1      38.697  28.336  29.673  1.00  0.00     0.029 A 
ATOM     45  C   UNL A   1      39.825  29.265  29.664  1.00  0.00     0.049 A 
ATOM     46  H   UNL A   1      41.688  28.978  28.779  1.00  0.00     0.167 HD
ATOM     47  C   UNL A   1      45.599  28.195  26.960  1.00  0.00     0.037 A 
ATOM     48  C   UNL A   1      39.846  30.487  30.229  1.00  0.00     0.037 A 
ATOM     49  C   UNL A   1      45.680  29.544  27.452  1.00  0.00     0.049 A 
ATOM     50  C   UNL A   1      41.090  31.331  30.119  1.00  0.00     0.074 A 
ATOM     51  C   UNL A   1      46.727  30.442  27.342  1.00  0.00     0.029 A 
ATOM     52  N   UNL A   1      44.673  30.186  28.158  1.00  0.00    -0.354 N 
ATOM     53  N   UNL A   1      42.222  31.063  29.516  1.00  0.00    -0.248 NA
ATOM     54  C   UNL A   1      41.056  32.650  30.767  1.00  0.00     0.031 C 
ATOM     55  C   UNL A   1      46.372  31.611  28.024  1.00  0.00     0.029 A 
ATOM     56  C   UNL A   1      45.085  31.460  28.515  1.00  0.00     0.049 A 
ATOM     57  H   UNL A   1      43.796  29.794  28.374  1.00  0.00     0.167 HD
ATOM     58  C   UNL A   1      43.023  32.185  29.686  1.00  0.00     0.074 A 
ATOM     59  C   UNL A   1      42.242  33.144  30.440  1.00  0.00     0.031 C 
ATOM     60  C   UNL A   1      44.291  32.404  29.258  1.00  0.00     0.037 A 
BRANCH  47  61
ATOM     61  C   UNL A   1      46.802  27.616  26.277  1.00  0.00     0.064 A 
ATOM     62  C   UNL A   1      47.801  26.935  26.989  1.00  0.00     0.173 A 
ATOM     63  C   UNL A   1      46.940  27.714  24.884  1.00  0.00     0.173 A 
ATOM     64  F   UNL A   1      47.723  26.828  28.324  1.00  0.00    -0.203 F 
ATOM     65  C   UNL A   1      48.903  26.392  26.334  1.00  0.00     0.198 A 
ATOM     66  C   UNL A   1      48.029  27.145  24.228  1.00  0.00     0.198 A 
ATOM     67  F   UNL A   1      46.011  28.352  24.156  1.00  0.00    -0.203 F 
ATOM     68  F   UNL A   1      49.865  25.781  27.039  1.00  0.00    -0.200 F 
ATOM     69  C   UNL A   1      49.012  26.490  24.955  1.00  0.00     0.200 A 
ATOM     70  F   UNL A   1      48.127  27.233  22.895  1.00  0.00    -0.200 F 
ATOM     71  F   UNL A   1      50.069  25.960  24.324  1.00  0.00    -0.200 F 
ENDBRANCH  47  61
BRANCH  48  72
ATOM     72  C   UNL A   1      38.656  30.984  30.967  1.00  0.00     0.064 A 
ATOM     73  C   UNL A   1      37.590  31.600  30.296  1.00  0.00     0.173 A 
ATOM     74  C   UNL A   1      38.570  30.873  32.364  1.00  0.00     0.173 A 
ATOM     75  F   UNL A   1      37.637  31.753  28.965  1.00  0.00    -0.203 F 
ATOM     76  C   UNL A   1      36.493  32.101  30.996  1.00  0.00     0.198 A 
ATOM     77  C   UNL A   1      37.462  31.349  33.058  1.00  0.00     0.198 A 
ATOM     78  F   UNL A   1      39.565  30.294  33.053  1.00  0.00    -0.203 F 
ATOM     79  F   UNL A   1      35.510  32.727  30.335  1.00  0.00    -0.200 F 
ATOM     80  C   UNL A   1      36.427  31.971  32.374  1.00  0.00     0.200 A 
ATOM     81  F   UNL A   1      37.397  31.212  34.389  1.00  0.00    -0.200 F 
ATOM     82  F   UNL A   1      35.372  32.451  33.045  1.00  0.00    -0.200 F 
ENDBRANCH  48  72
BRANCH  60  83
ATOM     83  C   UNL A   1      44.902  33.741  29.561  1.00  0.00     0.064 A 
ATOM     84  C   UNL A   1      45.643  33.961  30.731  1.00  0.00     0.173 A 
ATOM     85  C   UNL A   1      44.783  34.799  28.648  1.00  0.00     0.173 A 
ATOM     86  F   UNL A   1      45.774  32.986  31.643  1.00  0.00    -0.203 F 
ATOM     87  C   UNL A   1      46.223  35.201  30.986  1.00  0.00     0.198 A 
ATOM     88  C   UNL A   1      45.388  36.028  28.892  1.00  0.00     0.198 A 
ATOM     89  F   UNL A   1      44.091  34.637  27.510  1.00  0.00    -0.203 F 
ATOM     90  F   UNL A   1      46.889  35.405  32.132  1.00  0.00    -0.200 F 
ATOM     91  C   UNL A   1      46.102  36.231  30.064  1.00  0.00     0.200 A 
ATOM     92  F   UNL A   1      45.283  37.017  27.994  1.00  0.00    -0.200 F 
ATOM     93  F   UNL A   1      46.668  37.422  30.308  1.00  0.00    -0.200 F 
ENDBRANCH  60  83
ENDBRANCH  34  35
ENDBRANCH  27  29
ENDBRANCH  26  27
ENDBRANCH  25  26
ENDBRANCH  24  25
ENDBRANCH  23  24
ENDBRANCH   1  23
TORSDOF 17
ENDMDL
