MODEL 1
REMARK VINA RESULT:     -11.7      0.000      0.000
REMARK SMILES CCCc1cc2c(cc1Cl)C=C(C(=O)OCCOCCOC(=O)c1ccc(-c3c4nc(c(-c5c(F)c(F)c(F)c(F)c5F)c5ccc([nH]5)c(-c5c(F)c(F)c(F)c(F)c5F)c5nc(c(-c6c(F)c(F)c(F)c(F)c6F)c6ccc3[nH]6)C=C5)C=C4)cc1)[C@@H](C(F)(F)F)O2
REMARK SMILES IDX 18 1 17 2 16 3 15 4 13 5 14 6 12 7 4 8 5 9 9 10 6 11 8 12
REMARK SMILES IDX 10 13 7 14 92 15 11 16 87 17 3 18 2 19 1 20 88 21 89 22
REMARK SMILES IDX 90 23 91 24 19 25 20 26 21 27 22 28 23 29 24 30 25 31 86 32
REMARK SMILES IDX 26 33 85 34 27 35 28 36 29 37 79 38 30 39 84 40 78 41 80 42
REMARK SMILES IDX 31 43 83 44 77 45 76 46 32 48 64 49 44 50 63 51 45 52 48 53
REMARK SMILES IDX 62 54 81 55 46 56 47 57 61 59 82 60 49 61 33 62 34 63 42 64
REMARK SMILES IDX 35 65 36 66 40 67 43 68 37 69 38 70 41 71 39 72 65 73 66 74
REMARK SMILES IDX 74 75 67 76 68 77 72 78 75 79 69 80 70 81 73 82 71 83 50 84
REMARK SMILES IDX 51 85 59 86 52 87 53 88 57 89 60 90 54 91 55 92 58 93 56 94
REMARK H PARENT 80 47 48 58
REMARK Flexibility Score: inf
ROOT
ATOM      1  O   UNL A   1      35.620  21.156  25.846  1.00  0.00    -0.374 OA
ENDROOT
BRANCH   1   2
ATOM      2  C   UNL A   1      34.750  22.121  25.265  1.00  0.00     0.202 C 
BRANCH   2   3
ATOM      3  C   UNL A   1      33.250  22.002  25.551  1.00  0.00     0.261 C 
BRANCH   3   4
ATOM      4  O   UNL A   1      32.578  23.268  25.475  1.00  0.00    -0.460 OA
BRANCH   4   5
ATOM      5  C   UNL A   1      31.881  23.454  24.328  1.00  0.00     0.338 C 
ATOM      6  O   UNL A   1      31.452  22.588  23.584  1.00  0.00    -0.246 OA
BRANCH   5   7
ATOM      7  C   UNL A   1      31.591  24.887  24.145  1.00  0.00     0.087 C 
ATOM      8  C   UNL A   1      29.227  29.147  22.970  1.00  0.00    -0.026 A 
ATOM      9  C   UNL A   1      30.578  28.778  23.114  1.00  0.00     0.052 A 
ATOM     10  C   UNL A   1      28.237  28.225  23.344  1.00  0.00     0.045 A 
ATOM     11  C   UNL A   1      30.930  27.505  23.564  1.00  0.00     0.128 A 
ATOM     12  C   UNL A   1      28.591  26.954  23.802  1.00  0.00     0.032 A 
ATOM     13  Cl  UNL A   1      26.552  28.583  23.224  1.00  0.00    -0.084 Cl
ATOM     14  C   UNL A   1      29.936  26.584  23.882  1.00  0.00     0.019 A 
ATOM     15  O   UNL A   1      32.267  27.241  23.661  1.00  0.00    -0.475 OA
ATOM     16  C   UNL A   1      30.296  25.221  24.215  1.00  0.00     0.027 C 
ATOM     17  C   UNL A   1      32.698  25.864  23.857  1.00  0.00     0.316 C 
BRANCH   8  18
ATOM     18  C   UNL A   1      28.902  30.514  22.411  1.00  0.00     0.037 C 
BRANCH  18  19
ATOM     19  C   UNL A   1      28.756  31.605  23.474  1.00  0.00     0.001 C 
ATOM     20  C   UNL A   1      28.780  33.012  22.896  1.00  0.00     0.004 C 
ENDBRANCH  18  19
ENDBRANCH   8  18
BRANCH  17  21
ATOM     21  C   UNL A   1      33.556  25.450  22.652  1.00  0.00     0.430 C 
ATOM     22  F   UNL A   1      34.105  26.531  22.047  1.00  0.00    -0.167 F 
ATOM     23  F   UNL A   1      34.584  24.651  23.018  1.00  0.00    -0.167 F 
ATOM     24  F   UNL A   1      32.836  24.784  21.721  1.00  0.00    -0.167 F 
ENDBRANCH  17  21
ENDBRANCH   5   7
ENDBRANCH   4   5
ENDBRANCH   3   4
ENDBRANCH   2   3
ENDBRANCH   1   2
BRANCH   1  25
ATOM     25  C   UNL A   1      36.253  20.202  24.995  1.00  0.00     0.202 C 
BRANCH  25  26
ATOM     26  C   UNL A   1      37.785  20.099  25.016  1.00  0.00     0.261 C 
BRANCH  26  27
ATOM     27  O   UNL A   1      38.422  21.291  25.507  1.00  0.00    -0.460 OA
BRANCH  27  28
ATOM     28  C   UNL A   1      39.512  21.074  26.283  1.00  0.00     0.338 C 
ATOM     29  O   UNL A   1      40.112  20.023  26.447  1.00  0.00    -0.246 OA
BRANCH  28  30
ATOM     30  C   UNL A   1      40.021  22.366  26.776  1.00  0.00     0.060 A 
ATOM     31  C   UNL A   1      41.007  22.424  27.761  1.00  0.00     0.016 A 
ATOM     32  C   UNL A   1      39.522  23.540  26.195  1.00  0.00     0.016 A 
ATOM     33  C   UNL A   1      41.510  23.669  28.148  1.00  0.00     0.010 A 
ATOM     34  C   UNL A   1      40.024  24.780  26.584  1.00  0.00     0.010 A 
ATOM     35  C   UNL A   1      41.037  24.852  27.550  1.00  0.00    -0.014 A 
BRANCH  35  36
ATOM     36  C   UNL A   1      41.691  26.150  27.847  1.00  0.00     0.031 A 
ATOM     37  C   UNL A   1      43.082  26.453  27.379  1.00  0.00     0.074 A 
ATOM     38  C   UNL A   1      41.009  27.059  28.567  1.00  0.00     0.049 A 
ATOM     39  N   UNL A   1      43.762  27.566  27.492  1.00  0.00    -0.248 NA
ATOM     40  C   UNL A   1      43.807  25.367  26.707  1.00  0.00     0.031 C 
ATOM     41  C   UNL A   1      39.667  26.856  29.113  1.00  0.00     0.029 A 
ATOM     42  N   UNL A   1      41.339  28.332  28.956  1.00  0.00    -0.354 N 
ATOM     43  C   UNL A   1      44.985  27.326  26.883  1.00  0.00     0.074 A 
ATOM     44  C   UNL A   1      44.976  25.941  26.457  1.00  0.00     0.031 C 
ATOM     45  C   UNL A   1      39.270  27.979  29.729  1.00  0.00     0.029 A 
ATOM     46  C   UNL A   1      40.341  28.969  29.652  1.00  0.00     0.049 A 
ATOM     47  H   UNL A   1      42.208  28.749  28.756  1.00  0.00     0.167 HD
ATOM     48  C   UNL A   1      46.007  28.191  26.678  1.00  0.00     0.037 A 
ATOM     49  C   UNL A   1      40.290  30.214  30.162  1.00  0.00     0.037 A 
ATOM     50  C   UNL A   1      46.015  29.562  27.127  1.00  0.00     0.049 A 
ATOM     51  C   UNL A   1      41.461  31.137  29.970  1.00  0.00     0.074 A 
ATOM     52  C   UNL A   1      46.992  30.525  26.939  1.00  0.00     0.029 A 
ATOM     53  N   UNL A   1      45.005  30.161  27.868  1.00  0.00    -0.354 N 
ATOM     54  N   UNL A   1      42.580  30.927  29.322  1.00  0.00    -0.248 NA
ATOM     55  C   UNL A   1      41.359  32.471  30.577  1.00  0.00     0.031 C 
ATOM     56  C   UNL A   1      46.603  31.684  27.617  1.00  0.00     0.029 A 
ATOM     57  C   UNL A   1      45.352  31.469  28.174  1.00  0.00     0.049 A 
ATOM     58  H   UNL A   1      44.166  29.722  28.137  1.00  0.00     0.167 HD
ATOM     59  C   UNL A   1      43.307  32.104  29.423  1.00  0.00     0.074 A 
ATOM     60  C   UNL A   1      42.493  33.033  30.181  1.00  0.00     0.031 C 
ATOM     61  C   UNL A   1      44.539  32.387  28.933  1.00  0.00     0.037 A 
BRANCH  48  62
ATOM     62  C   UNL A   1      47.207  27.689  25.925  1.00  0.00     0.064 A 
ATOM     63  C   UNL A   1      47.251  27.714  24.523  1.00  0.00     0.173 A 
ATOM     64  C   UNL A   1      48.349  27.245  26.607  1.00  0.00     0.173 A 
ATOM     65  F   UNL A   1      46.184  28.127  23.821  1.00  0.00    -0.203 F 
ATOM     66  C   UNL A   1      48.383  27.290  23.831  1.00  0.00     0.198 A 
ATOM     67  C   UNL A   1      49.491  26.851  25.914  1.00  0.00     0.198 A 
ATOM     68  F   UNL A   1      48.367  27.210  27.948  1.00  0.00    -0.203 F 
ATOM     69  F   UNL A   1      48.385  27.284  22.492  1.00  0.00    -0.200 F 
ATOM     70  C   UNL A   1      49.505  26.867  24.528  1.00  0.00     0.200 A 
ATOM     71  F   UNL A   1      50.581  26.459  26.589  1.00  0.00    -0.200 F 
ATOM     72  F   UNL A   1      50.600  26.473  23.862  1.00  0.00    -0.200 F 
ENDBRANCH  48  62
BRANCH  49  73
ATOM     73  C   UNL A   1      39.058  30.664  30.858  1.00  0.00     0.064 A 
ATOM     74  C   UNL A   1      37.976  31.185  30.136  1.00  0.00     0.173 A 
ATOM     75  C   UNL A   1      38.915  30.538  32.249  1.00  0.00     0.173 A 
ATOM     76  F   UNL A   1      38.072  31.340  28.807  1.00  0.00    -0.203 F 
ATOM     77  C   UNL A   1      36.799  31.566  30.777  1.00  0.00     0.198 A 
ATOM     78  C   UNL A   1      37.728  30.893  32.884  1.00  0.00     0.198 A 
ATOM     79  F   UNL A   1      39.920  30.040  32.984  1.00  0.00    -0.203 F 
ATOM     80  F   UNL A   1      35.790  32.086  30.066  1.00  0.00    -0.200 F 
ATOM     81  C   UNL A   1      36.672  31.409  32.149  1.00  0.00     0.200 A 
ATOM     82  F   UNL A   1      37.602  30.721  34.208  1.00  0.00    -0.200 F 
ATOM     83  F   UNL A   1      35.532  31.757  32.762  1.00  0.00    -0.200 F 
ENDBRANCH  49  73
BRANCH  61  84
ATOM     84  C   UNL A   1      45.093  33.760  29.188  1.00  0.00     0.064 A 
ATOM     85  C   UNL A   1      45.874  34.040  30.320  1.00  0.00     0.173 A 
ATOM     86  C   UNL A   1      44.905  34.791  28.253  1.00  0.00     0.173 A 
ATOM     87  F   UNL A   1      46.074  33.095  31.251  1.00  0.00    -0.203 F 
ATOM     88  C   UNL A   1      46.433  35.300  30.512  1.00  0.00     0.198 A 
ATOM     89  C   UNL A   1      45.492  36.041  28.432  1.00  0.00     0.198 A 
ATOM     90  F   UNL A   1      44.171  34.577  27.150  1.00  0.00    -0.203 F 
ATOM     91  F   UNL A   1      47.145  35.553  31.620  1.00  0.00    -0.200 F 
ATOM     92  C   UNL A   1      46.252  36.295  29.563  1.00  0.00     0.200 A 
ATOM     93  F   UNL A   1      45.331  36.995  27.506  1.00  0.00    -0.200 F 
ATOM     94  F   UNL A   1      46.808  37.501  29.741  1.00  0.00    -0.200 F 
ENDBRANCH  61  84
ENDBRANCH  35  36
ENDBRANCH  28  30
ENDBRANCH  27  28
ENDBRANCH  26  27
ENDBRANCH  25  26
ENDBRANCH   1  25
TORSDOF 17
ENDMDL
MODEL 2
REMARK VINA RESULT:     -11.6      1.837      2.791
REMARK SMILES CCCc1cc2c(cc1Cl)C=C(C(=O)OCCOCCOC(=O)c1ccc(-c3c4nc(c(-c5c(F)c(F)c(F)c(F)c5F)c5ccc([nH]5)c(-c5c(F)c(F)c(F)c(F)c5F)c5nc(c(-c6c(F)c(F)c(F)c(F)c6F)c6ccc3[nH]6)C=C5)C=C4)cc1)[C@@H](C(F)(F)F)O2
REMARK SMILES IDX 18 1 17 2 16 3 15 4 13 5 14 6 12 7 4 8 5 9 9 10 6 11 8 12
REMARK SMILES IDX 10 13 7 14 92 15 11 16 87 17 3 18 2 19 1 20 88 21 89 22
REMARK SMILES IDX 90 23 91 24 19 25 20 26 21 27 22 28 23 29 24 30 25 31 86 32
REMARK SMILES IDX 26 33 85 34 27 35 28 36 29 37 79 38 30 39 84 40 78 41 80 42
REMARK SMILES IDX 31 43 83 44 77 45 76 46 32 48 64 49 44 50 63 51 45 52 48 53
REMARK SMILES IDX 62 54 81 55 46 56 47 57 61 59 82 60 49 61 33 62 34 63 42 64
REMARK SMILES IDX 35 65 36 66 40 67 43 68 37 69 38 70 41 71 39 72 65 73 66 74
REMARK SMILES IDX 74 75 67 76 68 77 72 78 75 79 69 80 70 81 73 82 71 83 50 84
REMARK SMILES IDX 51 85 59 86 52 87 53 88 57 89 60 90 54 91 55 92 58 93 56 94
REMARK H PARENT 80 47 48 58
REMARK Flexibility Score: inf
ROOT
ATOM      1  O   UNL A   1      37.376  20.904  24.423  1.00  0.00    -0.374 OA
ENDROOT
BRANCH   1   2
ATOM      2  C   UNL A   1      36.106  21.475  24.718  1.00  0.00     0.202 C 
BRANCH   2   3
ATOM      3  C   UNL A   1      34.898  20.536  24.811  1.00  0.00     0.261 C 
BRANCH   3   4
ATOM      4  O   UNL A   1      33.732  21.084  24.181  1.00  0.00    -0.460 OA
BRANCH   4   5
ATOM      5  C   UNL A   1      32.612  21.016  24.940  1.00  0.00     0.338 C 
ATOM      6  O   UNL A   1      32.052  20.004  25.329  1.00  0.00    -0.246 OA
BRANCH   5   7
ATOM      7  C   UNL A   1      32.203  22.371  25.353  1.00  0.00     0.087 C 
ATOM      8  C   UNL A   1      31.554  27.340  25.380  1.00  0.00    -0.026 A 
ATOM      9  C   UNL A   1      31.579  26.345  26.375  1.00  0.00     0.052 A 
ATOM     10  C   UNL A   1      31.575  26.942  24.034  1.00  0.00     0.045 A 
ATOM     11  C   UNL A   1      31.680  24.994  26.037  1.00  0.00     0.128 A 
ATOM     12  C   UNL A   1      31.668  25.589  23.697  1.00  0.00     0.032 A 
ATOM     13  Cl  UNL A   1      31.531  28.081  22.736  1.00  0.00    -0.084 Cl
ATOM     14  C   UNL A   1      31.752  24.619  24.699  1.00  0.00     0.019 A 
ATOM     15  O   UNL A   1      31.706  24.107  27.075  1.00  0.00    -0.475 OA
ATOM     16  C   UNL A   1      31.996  23.235  24.351  1.00  0.00     0.027 C 
ATOM     17  C   UNL A   1      32.082  22.725  26.808  1.00  0.00     0.316 C 
BRANCH   8  18
ATOM     18  C   UNL A   1      31.516  28.791  25.803  1.00  0.00     0.037 C 
BRANCH  18  19
ATOM     19  C   UNL A   1      32.895  29.443  25.924  1.00  0.00     0.001 C 
ATOM     20  C   UNL A   1      33.146  30.065  27.290  1.00  0.00     0.004 C 
ENDBRANCH  18  19
ENDBRANCH   8  18
BRANCH  17  21
ATOM     21  C   UNL A   1      33.357  22.409  27.604  1.00  0.00     0.430 C 
ATOM     22  F   UNL A   1      33.585  21.075  27.655  1.00  0.00    -0.167 F 
ATOM     23  F   UNL A   1      34.453  22.964  27.037  1.00  0.00    -0.167 F 
ATOM     24  F   UNL A   1      33.286  22.860  28.877  1.00  0.00    -0.167 F 
ENDBRANCH  17  21
ENDBRANCH   5   7
ENDBRANCH   4   5
ENDBRANCH   3   4
ENDBRANCH   2   3
ENDBRANCH   1   2
BRANCH   1  25
ATOM     25  C   UNL A   1      37.716  19.647  25.006  1.00  0.00     0.202 C 
BRANCH  25  26
ATOM     26  C   UNL A   1      39.133  19.454  25.564  1.00  0.00     0.261 C 
BRANCH  26  27
ATOM     27  O   UNL A   1      39.781  20.694  25.894  1.00  0.00    -0.460 OA
BRANCH  27  28
ATOM     28  C   UNL A   1      40.482  20.678  27.055  1.00  0.00     0.338 C 
ATOM     29  O   UNL A   1      40.907  19.702  27.654  1.00  0.00    -0.246 OA
BRANCH  28  30
ATOM     30  C   UNL A   1      40.850  22.058  27.418  1.00  0.00     0.060 A 
ATOM     31  C   UNL A   1      41.763  22.315  28.441  1.00  0.00     0.016 A 
ATOM     32  C   UNL A   1      40.293  23.109  26.677  1.00  0.00     0.016 A 
ATOM     33  C   UNL A   1      42.136  23.635  28.704  1.00  0.00     0.010 A 
ATOM     34  C   UNL A   1      40.665  24.425  26.943  1.00  0.00     0.010 A 
ATOM     35  C   UNL A   1      41.605  24.696  27.947  1.00  0.00    -0.014 A 
BRANCH  35  36
ATOM     36  C   UNL A   1      42.130  26.073  28.123  1.00  0.00     0.031 A 
ATOM     37  C   UNL A   1      43.464  26.480  27.580  1.00  0.00     0.074 A 
ATOM     38  C   UNL A   1      41.379  26.959  28.804  1.00  0.00     0.049 A 
ATOM     39  N   UNL A   1      44.028  27.662  27.584  1.00  0.00    -0.248 NA
ATOM     40  C   UNL A   1      44.277  25.426  26.958  1.00  0.00     0.031 C 
ATOM     41  C   UNL A   1      40.084  26.662  29.416  1.00  0.00     0.029 A 
ATOM     42  N   UNL A   1      41.588  28.286  29.087  1.00  0.00    -0.354 N 
ATOM     43  C   UNL A   1      45.249  27.502  26.946  1.00  0.00     0.074 A 
ATOM     44  C   UNL A   1      45.371  26.095  26.620  1.00  0.00     0.031 C 
ATOM     45  C   UNL A   1      39.593  27.783  29.965  1.00  0.00     0.029 A 
ATOM     46  C   UNL A   1      40.551  28.867  29.774  1.00  0.00     0.049 A 
ATOM     47  H   UNL A   1      42.401  28.772  28.822  1.00  0.00     0.167 HD
ATOM     48  C   UNL A   1      46.167  28.449  26.638  1.00  0.00     0.037 A 
ATOM     49  C   UNL A   1      40.387  30.136  30.196  1.00  0.00     0.037 A 
ATOM     50  C   UNL A   1      46.047  29.844  26.987  1.00  0.00     0.049 A 
ATOM     51  C   UNL A   1      41.448  31.156  29.891  1.00  0.00     0.074 A 
ATOM     52  C   UNL A   1      46.911  30.884  26.692  1.00  0.00     0.029 A 
ATOM     53  N   UNL A   1      45.005  30.391  27.724  1.00  0.00    -0.354 N 
ATOM     54  N   UNL A   1      42.561  31.013  29.215  1.00  0.00    -0.248 NA
ATOM     55  C   UNL A   1      41.227  32.515  30.404  1.00  0.00     0.031 C 
ATOM     56  C   UNL A   1      46.425  32.045  27.299  1.00  0.00     0.029 A 
ATOM     57  C   UNL A   1      45.223  31.746  27.920  1.00  0.00     0.049 A 
ATOM     58  H   UNL A   1      44.225  29.890  28.057  1.00  0.00     0.167 HD
ATOM     59  C   UNL A   1      43.164  32.263  29.202  1.00  0.00     0.074 A 
ATOM     60  C   UNL A   1      42.282  33.158  29.923  1.00  0.00     0.031 C 
ATOM     61  C   UNL A   1      44.343  32.632  28.643  1.00  0.00     0.037 A 
BRANCH  48  62
ATOM     62  C   UNL A   1      47.388  28.017  25.876  1.00  0.00     0.064 A 
ATOM     63  C   UNL A   1      48.590  27.714  26.534  1.00  0.00     0.173 A 
ATOM     64  C   UNL A   1      47.341  27.835  24.485  1.00  0.00     0.173 A 
ATOM     65  F   UNL A   1      48.690  27.874  27.863  1.00  0.00    -0.203 F 
ATOM     66  C   UNL A   1      49.705  27.271  25.828  1.00  0.00     0.198 A 
ATOM     67  C   UNL A   1      48.449  27.362  23.786  1.00  0.00     0.198 A 
ATOM     68  F   UNL A   1      46.215  28.099  23.805  1.00  0.00    -0.203 F 
ATOM     69  F   UNL A   1      50.853  27.027  26.475  1.00  0.00    -0.200 F 
ATOM     70  C   UNL A   1      49.630  27.087  24.456  1.00  0.00     0.200 A 
ATOM     71  F   UNL A   1      48.370  27.167  22.462  1.00  0.00    -0.200 F 
ATOM     72  F   UNL A   1      50.700  26.645  23.778  1.00  0.00    -0.200 F 
ENDBRANCH  48  62
BRANCH  49  73
ATOM     73  C   UNL A   1      39.138  30.509  30.907  1.00  0.00     0.064 A 
ATOM     74  C   UNL A   1      39.068  30.466  32.305  1.00  0.00     0.173 A 
ATOM     75  C   UNL A   1      38.007  30.963  30.210  1.00  0.00     0.173 A 
ATOM     76  F   UNL A   1      40.118  30.022  33.014  1.00  0.00    -0.203 F 
ATOM     77  C   UNL A   1      37.915  30.858  32.981  1.00  0.00     0.198 A 
ATOM     78  C   UNL A   1      36.865  31.382  30.888  1.00  0.00     0.198 A 
ATOM     79  F   UNL A   1      38.025  31.028  28.871  1.00  0.00    -0.203 F 
ATOM     80  F   UNL A   1      37.866  30.782  34.318  1.00  0.00    -0.200 F 
ATOM     81  C   UNL A   1      36.819  31.327  32.273  1.00  0.00     0.200 A 
ATOM     82  F   UNL A   1      35.815  31.852  30.201  1.00  0.00    -0.200 F 
ATOM     83  F   UNL A   1      35.717  31.724  32.925  1.00  0.00    -0.200 F 
ENDBRANCH  49  73
BRANCH  61  84
ATOM     84  C   UNL A   1      44.759  34.070  28.777  1.00  0.00     0.064 A 
ATOM     85  C   UNL A   1      45.604  34.498  29.812  1.00  0.00     0.173 A 
ATOM     86  C   UNL A   1      44.369  35.017  27.817  1.00  0.00     0.173 A 
ATOM     87  F   UNL A   1      45.994  33.637  30.764  1.00  0.00    -0.203 F 
ATOM     88  C   UNL A   1      46.031  35.821  29.888  1.00  0.00     0.198 A 
ATOM     89  C   UNL A   1      44.824  36.332  27.877  1.00  0.00     0.198 A 
ATOM     90  F   UNL A   1      43.566  34.661  26.802  1.00  0.00    -0.203 F 
ATOM     91  F   UNL A   1      46.808  36.214  30.907  1.00  0.00    -0.200 F 
ATOM     92  C   UNL A   1      45.651  36.733  28.915  1.00  0.00     0.200 A 
ATOM     93  F   UNL A   1      44.471  37.207  26.926  1.00  0.00    -0.200 F 
ATOM     94  F   UNL A   1      46.081  38.001  28.979  1.00  0.00    -0.200 F 
ENDBRANCH  61  84
ENDBRANCH  35  36
ENDBRANCH  28  30
ENDBRANCH  27  28
ENDBRANCH  26  27
ENDBRANCH  25  26
ENDBRANCH   1  25
TORSDOF 17
ENDMDL
MODEL 3
REMARK VINA RESULT:     -11.5      5.125     10.701
REMARK SMILES CCCc1cc2c(cc1Cl)C=C(C(=O)OCCOCCOC(=O)c1ccc(-c3c4nc(c(-c5c(F)c(F)c(F)c(F)c5F)c5ccc([nH]5)c(-c5c(F)c(F)c(F)c(F)c5F)c5nc(c(-c6c(F)c(F)c(F)c(F)c6F)c6ccc3[nH]6)C=C5)C=C4)cc1)[C@@H](C(F)(F)F)O2
REMARK SMILES IDX 18 1 17 2 16 3 15 4 13 5 14 6 12 7 4 8 5 9 9 10 6 11 8 12
REMARK SMILES IDX 10 13 7 14 92 15 11 16 87 17 3 18 2 19 1 20 88 21 89 22
REMARK SMILES IDX 90 23 91 24 19 25 20 26 21 27 22 28 23 29 24 30 25 31 86 32
REMARK SMILES IDX 26 33 85 34 27 35 28 36 29 37 79 38 30 39 84 40 78 41 80 42
REMARK SMILES IDX 31 43 83 44 77 45 76 46 32 48 64 49 44 50 63 51 45 52 48 53
REMARK SMILES IDX 62 54 81 55 46 56 47 57 61 59 82 60 49 61 33 62 34 63 42 64
REMARK SMILES IDX 35 65 36 66 40 67 43 68 37 69 38 70 41 71 39 72 65 73 66 74
REMARK SMILES IDX 74 75 67 76 68 77 72 78 75 79 69 80 70 81 73 82 71 83 50 84
REMARK SMILES IDX 51 85 59 86 52 87 53 88 57 89 60 90 54 91 55 92 58 93 56 94
REMARK H PARENT 80 47 48 58
REMARK Flexibility Score: inf
ROOT
ATOM      1  O   UNL A   1      33.713  30.941  28.008  1.00  0.00    -0.374 OA
ENDROOT
BRANCH   1   2
ATOM      2  C   UNL A   1      34.788  30.395  27.252  1.00  0.00     0.202 C 
BRANCH   2   3
ATOM      3  C   UNL A   1      34.730  28.908  26.888  1.00  0.00     0.261 C 
BRANCH   3   4
ATOM      4  O   UNL A   1      33.492  28.548  26.259  1.00  0.00    -0.460 OA
BRANCH   4   5
ATOM      5  C   UNL A   1      33.636  27.754  25.171  1.00  0.00     0.338 C 
ATOM      6  O   UNL A   1      34.028  28.091  24.066  1.00  0.00    -0.246 OA
BRANCH   5   7
ATOM      7  C   UNL A   1      33.362  26.352  25.534  1.00  0.00     0.087 C 
ATOM      8  C   UNL A   1      33.593  21.348  25.684  1.00  0.00    -0.026 A 
ATOM      9  C   UNL A   1      32.602  22.297  25.996  1.00  0.00     0.052 A 
ATOM     10  C   UNL A   1      34.885  21.804  25.378  1.00  0.00     0.045 A 
ATOM     11  C   UNL A   1      32.878  23.665  25.949  1.00  0.00     0.128 A 
ATOM     12  C   UNL A   1      35.162  23.172  25.339  1.00  0.00     0.032 A 
ATOM     13  Cl  UNL A   1      36.177  20.722  24.998  1.00  0.00    -0.084 Cl
ATOM     14  C   UNL A   1      34.151  24.102  25.593  1.00  0.00     0.019 A 
ATOM     15  O   UNL A   1      31.848  24.506  26.261  1.00  0.00    -0.475 OA
ATOM     16  C   UNL A   1      34.401  25.516  25.408  1.00  0.00     0.027 C 
ATOM     17  C   UNL A   1      31.988  25.925  25.968  1.00  0.00     0.316 C 
BRANCH   8  18
ATOM     18  C   UNL A   1      33.221  19.882  25.682  1.00  0.00     0.037 C 
BRANCH  18  19
ATOM     19  C   UNL A   1      32.530  19.414  24.399  1.00  0.00     0.001 C 
ATOM     20  C   UNL A   1      33.003  18.048  23.928  1.00  0.00     0.004 C 
ENDBRANCH  18  19
ENDBRANCH   8  18
BRANCH  17  21
ATOM     21  C   UNL A   1      30.898  26.320  24.958  1.00  0.00     0.430 C 
ATOM     22  F   UNL A   1      31.271  26.017  23.691  1.00  0.00    -0.167 F 
ATOM     23  F   UNL A   1      29.740  25.658  25.186  1.00  0.00    -0.167 F 
ATOM     24  F   UNL A   1      30.625  27.643  24.997  1.00  0.00    -0.167 F 
ENDBRANCH  17  21
ENDBRANCH   5   7
ENDBRANCH   4   5
ENDBRANCH   3   4
ENDBRANCH   2   3
ENDBRANCH   1   2
BRANCH   1  25
ATOM     25  C   UNL A   1      32.714  31.701  27.331  1.00  0.00     0.202 C 
BRANCH  25  26
ATOM     26  C   UNL A   1      32.896  33.221  27.221  1.00  0.00     0.261 C 
BRANCH  26  27
ATOM     27  O   UNL A   1      32.215  33.947  28.258  1.00  0.00    -0.460 OA
BRANCH  27  28
ATOM     28  C   UNL A   1      32.903  35.001  28.760  1.00  0.00     0.338 C 
ATOM     29  O   UNL A   1      32.573  36.177  28.752  1.00  0.00    -0.246 OA
BRANCH  28  30
ATOM     30  C   UNL A   1      34.062  34.505  29.524  1.00  0.00     0.060 A 
ATOM     31  C   UNL A   1      33.896  33.877  30.758  1.00  0.00     0.016 A 
ATOM     32  C   UNL A   1      35.336  34.639  28.955  1.00  0.00     0.016 A 
ATOM     33  C   UNL A   1      35.016  33.360  31.414  1.00  0.00     0.010 A 
ATOM     34  C   UNL A   1      36.451  34.123  29.612  1.00  0.00     0.010 A 
ATOM     35  C   UNL A   1      36.297  33.462  30.839  1.00  0.00    -0.014 A 
BRANCH  35  36
ATOM     36  C   UNL A   1      37.451  32.768  31.461  1.00  0.00     0.031 A 
ATOM     37  C   UNL A   1      37.970  33.162  32.809  1.00  0.00     0.074 A 
ATOM     38  C   UNL A   1      38.041  31.771  30.775  1.00  0.00     0.049 A 
ATOM     39  N   UNL A   1      38.919  32.605  33.519  1.00  0.00    -0.248 NA
ATOM     40  C   UNL A   1      37.354  34.337  33.440  1.00  0.00     0.031 C 
ATOM     41  C   UNL A   1      37.649  31.331  29.436  1.00  0.00     0.029 A 
ATOM     42  N   UNL A   1      39.083  30.943  31.108  1.00  0.00    -0.354 N 
ATOM     43  C   UNL A   1      38.998  33.342  34.691  1.00  0.00     0.074 A 
ATOM     44  C   UNL A   1      38.043  34.425  34.570  1.00  0.00     0.031 C 
ATOM     45  C   UNL A   1      38.410  30.287  29.077  1.00  0.00     0.029 A 
ATOM     46  C   UNL A   1      39.366  30.006  30.145  1.00  0.00     0.049 A 
ATOM     47  H   UNL A   1      39.580  31.015  31.954  1.00  0.00     0.167 HD
ATOM     48  C   UNL A   1      39.779  33.118  35.775  1.00  0.00     0.037 A 
ATOM     49  C   UNL A   1      40.286  29.023  30.128  1.00  0.00     0.037 A 
ATOM     50  C   UNL A   1      40.744  32.050  35.876  1.00  0.00     0.049 A 
ATOM     51  C   UNL A   1      41.180  28.830  31.321  1.00  0.00     0.074 A 
ATOM     52  C   UNL A   1      41.559  31.724  36.946  1.00  0.00     0.029 A 
ATOM     53  N   UNL A   1      41.037  31.146  34.864  1.00  0.00    -0.354 N 
ATOM     54  N   UNL A   1      41.191  29.482  32.458  1.00  0.00    -0.248 NA
ATOM     55  C   UNL A   1      42.185  27.762  31.231  1.00  0.00     0.031 C 
ATOM     56  C   UNL A   1      42.385  30.664  36.562  1.00  0.00     0.029 A 
ATOM     57  C   UNL A   1      42.043  30.284  35.274  1.00  0.00     0.049 A 
ATOM     58  H   UNL A   1      40.594  31.120  33.985  1.00  0.00     0.167 HD
ATOM     59  C   UNL A   1      42.186  28.893  33.226  1.00  0.00     0.074 A 
ATOM     60  C   UNL A   1      42.744  27.818  32.432  1.00  0.00     0.031 C 
ATOM     61  C   UNL A   1      42.598  29.218  34.476  1.00  0.00     0.037 A 
BRANCH  48  62
ATOM     62  C   UNL A   1      39.621  34.038  36.952  1.00  0.00     0.064 A 
ATOM     63  C   UNL A   1      38.823  33.687  38.052  1.00  0.00     0.173 A 
ATOM     64  C   UNL A   1      40.325  35.250  37.017  1.00  0.00     0.173 A 
ATOM     65  F   UNL A   1      38.125  32.540  38.040  1.00  0.00    -0.203 F 
ATOM     66  C   UNL A   1      38.716  34.523  39.160  1.00  0.00     0.198 A 
ATOM     67  C   UNL A   1      40.241  36.070  38.140  1.00  0.00     0.198 A 
ATOM     68  F   UNL A   1      41.111  35.632  35.999  1.00  0.00    -0.203 F 
ATOM     69  F   UNL A   1      37.915  34.184  40.179  1.00  0.00    -0.200 F 
ATOM     70  C   UNL A   1      39.432  35.710  39.206  1.00  0.00     0.200 A 
ATOM     71  F   UNL A   1      40.947  37.208  38.191  1.00  0.00    -0.200 F 
ATOM     72  F   UNL A   1      39.340  36.508  40.280  1.00  0.00    -0.200 F 
ENDBRANCH  48  62
BRANCH  49  73
ATOM     73  C   UNL A   1      40.363  28.119  28.952  1.00  0.00     0.064 A 
ATOM     74  C   UNL A   1      39.639  26.920  28.921  1.00  0.00     0.173 A 
ATOM     75  C   UNL A   1      41.118  28.456  27.818  1.00  0.00     0.173 A 
ATOM     76  F   UNL A   1      38.915  26.547  29.988  1.00  0.00    -0.203 F 
ATOM     77  C   UNL A   1      39.669  26.090  27.803  1.00  0.00     0.198 A 
ATOM     78  C   UNL A   1      41.125  27.639  26.690  1.00  0.00     0.198 A 
ATOM     79  F   UNL A   1      41.824  29.596  27.796  1.00  0.00    -0.203 F 
ATOM     80  F   UNL A   1      38.987  24.936  27.809  1.00  0.00    -0.200 F 
ATOM     81  C   UNL A   1      40.402  26.456  26.684  1.00  0.00     0.200 A 
ATOM     82  F   UNL A   1      41.820  28.005  25.604  1.00  0.00    -0.200 F 
ATOM     83  F   UNL A   1      40.414  25.667  25.601  1.00  0.00    -0.200 F 
ENDBRANCH  49  73
BRANCH  61  84
ATOM     84  C   UNL A   1      43.706  28.401  35.080  1.00  0.00     0.064 A 
ATOM     85  C   UNL A   1      45.055  28.735  34.888  1.00  0.00     0.173 A 
ATOM     86  C   UNL A   1      43.414  27.316  35.921  1.00  0.00     0.173 A 
ATOM     87  F   UNL A   1      45.389  29.755  34.082  1.00  0.00    -0.203 F 
ATOM     88  C   UNL A   1      46.069  28.007  35.504  1.00  0.00     0.198 A 
ATOM     89  C   UNL A   1      44.429  26.609  36.562  1.00  0.00     0.198 A 
ATOM     90  F   UNL A   1      42.141  26.955  36.145  1.00  0.00    -0.203 F 
ATOM     91  F   UNL A   1      47.351  28.323  35.276  1.00  0.00    -0.200 F 
ATOM     92  C   UNL A   1      45.755  26.953  36.349  1.00  0.00     0.200 A 
ATOM     93  F   UNL A   1      44.124  25.603  37.392  1.00  0.00    -0.200 F 
ATOM     94  F   UNL A   1      46.733  26.267  36.957  1.00  0.00    -0.200 F 
ENDBRANCH  61  84
ENDBRANCH  35  36
ENDBRANCH  28  30
ENDBRANCH  27  28
ENDBRANCH  26  27
ENDBRANCH  25  26
ENDBRANCH   1  25
TORSDOF 17
ENDMDL
