MODEL 1
REMARK VINA RESULT:     -11.6      0.000      0.000
REMARK SMILES O=C(OCCOCCOC(=O)c1cn(-c2ccnc3ccc(Cl)cc23)cn1)c1ccc(-c2c3nc(c(-c4c(F)c(F)c(F)c(F)c4F)c4ccc([nH]4)c(-c4c(F)c(F)c(F)c(F)c4F)c4nc(c(-c5c(F)c(F)c(F)c(F)c5F)c5ccc2[nH]5)C=C4)C=C3)cc1
REMARK SMILES IDX 5 1 4 2 3 3 2 4 1 5 28 6 29 7 90 8 30 9 89 10 31 11 32 12
REMARK SMILES IDX 33 13 83 14 34 15 88 16 82 17 84 18 35 19 87 20 81 21 80 22
REMARK SMILES IDX 36 24 68 25 48 26 67 27 49 28 52 29 66 30 85 31 50 32 51 33
REMARK SMILES IDX 65 35 86 36 53 37 37 38 38 39 46 40 39 41 40 42 44 43 47 44
REMARK SMILES IDX 41 45 42 46 45 47 43 48 69 49 70 50 78 51 71 52 72 53 76 54
REMARK SMILES IDX 79 55 73 56 74 57 77 58 75 59 54 60 55 61 63 62 56 63 57 64
REMARK SMILES IDX 61 65 64 66 58 67 59 68 62 69 60 70 6 71 7 72 8 73 9 74
REMARK SMILES IDX 10 75 11 76 12 77 13 78 27 79 14 80 26 81 15 82 16 83 25 84
REMARK SMILES IDX 17 85 19 86 24 87 18 88 20 89 22 90 21 91 23 92
REMARK H PARENT 84 23 52 34
REMARK Flexibility Score: inf
ROOT
ATOM      1  C   UNL A   1      41.560  19.755  26.602  1.00  0.00     0.202 C 
ENDROOT
BRANCH   1   2
ATOM      2  C   UNL A   1      42.041  21.084  27.165  1.00  0.00     0.261 C 
BRANCH   2   3
ATOM      3  O   UNL A   1      41.018  21.925  27.741  1.00  0.00    -0.460 OA
BRANCH   3   4
ATOM      4  C   UNL A   1      40.310  22.752  26.937  1.00  0.00     0.338 C 
ATOM      5  O   UNL A   1      39.369  22.384  26.250  1.00  0.00    -0.246 OA
BRANCH   4   6
ATOM      6  C   UNL A   1      40.592  24.183  27.211  1.00  0.00     0.060 A 
ATOM      7  C   UNL A   1      41.148  24.597  28.421  1.00  0.00     0.016 A 
ATOM      8  C   UNL A   1      40.196  25.140  26.263  1.00  0.00     0.016 A 
ATOM      9  C   UNL A   1      41.205  25.938  28.735  1.00  0.00     0.010 A 
ATOM     10  C   UNL A   1      40.260  26.497  26.575  1.00  0.00     0.010 A 
ATOM     11  C   UNL A   1      40.710  26.885  27.836  1.00  0.00    -0.014 A 
BRANCH  11  12
ATOM     12  C   UNL A   1      40.671  28.254  28.336  1.00  0.00     0.031 A 
ATOM     13  C   UNL A   1      41.821  29.129  27.968  1.00  0.00     0.074 A 
ATOM     14  C   UNL A   1      39.689  28.722  29.126  1.00  0.00     0.049 A 
ATOM     15  N   UNL A   1      42.676  29.708  28.750  1.00  0.00    -0.248 NA
ATOM     16  C   UNL A   1      42.076  29.332  26.536  1.00  0.00     0.031 C 
ATOM     17  C   UNL A   1      38.379  28.133  29.408  1.00  0.00     0.029 A 
ATOM     18  N   UNL A   1      39.655  29.905  29.803  1.00  0.00    -0.354 N 
ATOM     19  C   UNL A   1      43.503  30.464  27.923  1.00  0.00     0.074 A 
ATOM     20  C   UNL A   1      43.139  30.138  26.567  1.00  0.00     0.031 C 
ATOM     21  C   UNL A   1      37.604  29.057  30.017  1.00  0.00     0.029 A 
ATOM     22  C   UNL A   1      38.407  30.237  30.294  1.00  0.00     0.049 A 
ATOM     23  H   UNL A   1      40.449  30.474  29.928  1.00  0.00     0.167 HD
ATOM     24  C   UNL A   1      44.337  31.428  28.404  1.00  0.00     0.037 A 
ATOM     25  C   UNL A   1      38.045  31.427  30.823  1.00  0.00     0.037 A 
ATOM     26  C   UNL A   1      44.642  31.242  29.794  1.00  0.00     0.049 A 
ATOM     27  C   UNL A   1      39.273  32.128  31.270  1.00  0.00     0.074 A 
ATOM     28  C   UNL A   1      45.270  30.252  30.525  1.00  0.00     0.029 A 
ATOM     29  N   UNL A   1      44.038  32.050  30.724  1.00  0.00    -0.354 N 
ATOM     30  N   UNL A   1      39.999  31.767  32.290  1.00  0.00    -0.248 NA
ATOM     31  C   UNL A   1      39.916  33.043  30.338  1.00  0.00     0.031 C 
ATOM     32  C   UNL A   1      44.602  30.237  31.784  1.00  0.00     0.029 A 
ATOM     33  C   UNL A   1      43.622  31.229  31.739  1.00  0.00     0.049 A 
ATOM     34  H   UNL A   1      43.927  33.027  30.672  1.00  0.00     0.167 HD
ATOM     35  C   UNL A   1      41.301  32.076  31.925  1.00  0.00     0.074 A 
ATOM     36  C   UNL A   1      41.176  32.955  30.769  1.00  0.00     0.031 C 
ATOM     37  C   UNL A   1      42.361  31.374  32.423  1.00  0.00     0.037 A 
BRANCH  24  38
ATOM     38  C   UNL A   1      44.660  32.702  27.669  1.00  0.00     0.064 A 
ATOM     39  C   UNL A   1      45.888  32.832  26.990  1.00  0.00     0.173 A 
ATOM     40  C   UNL A   1      43.933  33.896  27.852  1.00  0.00     0.173 A 
ATOM     41  F   UNL A   1      46.677  31.766  26.792  1.00  0.00    -0.203 F 
ATOM     42  C   UNL A   1      46.373  34.076  26.576  1.00  0.00     0.198 A 
ATOM     43  C   UNL A   1      44.395  35.128  27.392  1.00  0.00     0.198 A 
ATOM     44  F   UNL A   1      42.806  33.932  28.574  1.00  0.00    -0.203 F 
ATOM     45  F   UNL A   1      47.596  34.167  26.036  1.00  0.00    -0.200 F 
ATOM     46  C   UNL A   1      45.628  35.224  26.780  1.00  0.00     0.200 A 
ATOM     47  F   UNL A   1      43.669  36.232  27.618  1.00  0.00    -0.200 F 
ATOM     48  F   UNL A   1      46.115  36.421  26.435  1.00  0.00    -0.200 F 
ENDBRANCH  24  38
BRANCH  25  49
ATOM     49  C   UNL A   1      36.740  32.107  30.682  1.00  0.00     0.064 A 
ATOM     50  C   UNL A   1      35.872  32.247  31.774  1.00  0.00     0.173 A 
ATOM     51  C   UNL A   1      36.435  32.863  29.533  1.00  0.00     0.173 A 
ATOM     52  F   UNL A   1      36.122  31.599  32.921  1.00  0.00    -0.203 F 
ATOM     53  C   UNL A   1      34.771  33.105  31.725  1.00  0.00     0.198 A 
ATOM     54  C   UNL A   1      35.331  33.711  29.481  1.00  0.00     0.198 A 
ATOM     55  F   UNL A   1      37.256  32.867  28.473  1.00  0.00    -0.203 F 
ATOM     56  F   UNL A   1      33.996  33.260  32.807  1.00  0.00    -0.200 F 
ATOM     57  C   UNL A   1      34.505  33.841  30.581  1.00  0.00     0.200 A 
ATOM     58  F   UNL A   1      35.108  34.444  28.381  1.00  0.00    -0.200 F 
ATOM     59  F   UNL A   1      33.482  34.706  30.553  1.00  0.00    -0.200 F 
ENDBRANCH  25  49
BRANCH  37  60
ATOM     60  C   UNL A   1      42.116  30.458  33.584  1.00  0.00     0.064 A 
ATOM     61  C   UNL A   1      41.687  29.127  33.442  1.00  0.00     0.173 A 
ATOM     62  C   UNL A   1      42.482  30.889  34.868  1.00  0.00     0.173 A 
ATOM     63  F   UNL A   1      41.421  28.615  32.234  1.00  0.00    -0.203 F 
ATOM     64  C   UNL A   1      41.591  28.281  34.545  1.00  0.00     0.198 A 
ATOM     65  C   UNL A   1      42.417  30.029  35.961  1.00  0.00     0.198 A 
ATOM     66  F   UNL A   1      42.956  32.131  35.051  1.00  0.00    -0.203 F 
ATOM     67  F   UNL A   1      41.174  27.015  34.387  1.00  0.00    -0.200 F 
ATOM     68  C   UNL A   1      41.964  28.730  35.801  1.00  0.00     0.200 A 
ATOM     69  F   UNL A   1      42.828  30.451  37.166  1.00  0.00    -0.200 F 
ATOM     70  F   UNL A   1      41.915  27.901  36.854  1.00  0.00    -0.200 F 
ENDBRANCH  37  60
ENDBRANCH  11  12
ENDBRANCH   4   6
ENDBRANCH   3   4
ENDBRANCH   2   3
ENDBRANCH   1   2
BRANCH   1  71
ATOM     71  O   UNL A   1      42.220  19.389  25.387  1.00  0.00    -0.374 OA
BRANCH  71  72
ATOM     72  C   UNL A   1      43.448  18.668  25.558  1.00  0.00     0.202 C 
BRANCH  72  73
ATOM     73  C   UNL A   1      44.427  18.655  24.374  1.00  0.00     0.261 C 
BRANCH  73  74
ATOM     74  O   UNL A   1      44.640  19.975  23.846  1.00  0.00    -0.458 OA
BRANCH  74  75
ATOM     75  C   UNL A   1      45.561  20.728  24.525  1.00  0.00     0.358 C 
ATOM     76  O   UNL A   1      46.735  20.446  24.652  1.00  0.00    -0.244 OA
BRANCH  75  77
ATOM     77  C   UNL A   1      44.986  22.006  24.951  1.00  0.00     0.166 A 
ATOM     78  C   UNL A   1      45.446  22.829  25.955  1.00  0.00     0.129 A 
ATOM     79  N   UNL A   1      43.833  22.547  24.398  1.00  0.00    -0.229 NA
ATOM     80  N   UNL A   1      44.676  23.965  25.881  1.00  0.00    -0.305 N 
ATOM     81  C   UNL A   1      43.649  23.695  25.014  1.00  0.00     0.205 A 
BRANCH  80  82
ATOM     82  C   UNL A   1      44.979  25.208  26.468  1.00  0.00     0.057 A 
ATOM     83  C   UNL A   1      45.413  26.248  25.651  1.00  0.00     0.047 A 
ATOM     84  C   UNL A   1      44.818  25.381  27.868  1.00  0.00     0.026 A 
ATOM     85  C   UNL A   1      45.584  27.477  26.252  1.00  0.00     0.114 A 
ATOM     86  C   UNL A   1      45.016  26.685  28.360  1.00  0.00     0.072 A 
ATOM     87  C   UNL A   1      44.544  24.337  28.795  1.00  0.00     0.033 A 
ATOM     88  N   UNL A   1      45.376  27.709  27.567  1.00  0.00    -0.256 NA
ATOM     89  C   UNL A   1      44.853  26.915  29.722  1.00  0.00     0.030 A 
ATOM     90  C   UNL A   1      44.402  24.595  30.152  1.00  0.00     0.041 A 
ATOM     91  C   UNL A   1      44.540  25.889  30.621  1.00  0.00     0.023 A 
ATOM     92  Cl  UNL A   1      44.069  23.305  31.237  1.00  0.00    -0.084 Cl
ENDBRANCH  80  82
ENDBRANCH  75  77
ENDBRANCH  74  75
ENDBRANCH  73  74
ENDBRANCH  72  73
ENDBRANCH  71  72
ENDBRANCH   1  71
TORSDOF 15
ENDMDL
MODEL 2
REMARK VINA RESULT:     -11.5      4.701     11.506
REMARK SMILES O=C(OCCOCCOC(=O)c1cn(-c2ccnc3ccc(Cl)cc23)cn1)c1ccc(-c2c3nc(c(-c4c(F)c(F)c(F)c(F)c4F)c4ccc([nH]4)c(-c4c(F)c(F)c(F)c(F)c4F)c4nc(c(-c5c(F)c(F)c(F)c(F)c5F)c5ccc2[nH]5)C=C4)C=C3)cc1
REMARK SMILES IDX 5 1 4 2 3 3 2 4 1 5 28 6 29 7 90 8 30 9 89 10 31 11 32 12
REMARK SMILES IDX 33 13 83 14 34 15 88 16 82 17 84 18 35 19 87 20 81 21 80 22
REMARK SMILES IDX 36 24 68 25 48 26 67 27 49 28 52 29 66 30 85 31 50 32 51 33
REMARK SMILES IDX 65 35 86 36 53 37 37 38 38 39 46 40 39 41 40 42 44 43 47 44
REMARK SMILES IDX 41 45 42 46 45 47 43 48 69 49 70 50 78 51 71 52 72 53 76 54
REMARK SMILES IDX 79 55 73 56 74 57 77 58 75 59 54 60 55 61 63 62 56 63 57 64
REMARK SMILES IDX 61 65 64 66 58 67 59 68 62 69 60 70 6 71 7 72 8 73 9 74
REMARK SMILES IDX 10 75 11 76 12 77 13 78 27 79 14 80 26 81 15 82 16 83 25 84
REMARK SMILES IDX 17 85 19 86 24 87 18 88 20 89 22 90 21 91 23 92
REMARK H PARENT 84 23 52 34
REMARK Flexibility Score: inf
ROOT
ATOM      1  C   UNL A   1      33.419  34.351  28.367  1.00  0.00     0.202 C 
ENDROOT
BRANCH   1   2
ATOM      2  C   UNL A   1      34.785  34.013  28.944  1.00  0.00     0.261 C 
BRANCH   2   3
ATOM      3  O   UNL A   1      35.508  32.964  28.264  1.00  0.00    -0.460 OA
BRANCH   3   4
ATOM      4  C   UNL A   1      35.249  31.672  28.575  1.00  0.00     0.338 C 
ATOM      5  O   UNL A   1      34.232  31.087  28.234  1.00  0.00    -0.246 OA
BRANCH   4   6
ATOM      6  C   UNL A   1      36.446  30.965  29.093  1.00  0.00     0.060 A 
ATOM      7  C   UNL A   1      37.736  31.404  28.795  1.00  0.00     0.016 A 
ATOM      8  C   UNL A   1      36.264  29.777  29.818  1.00  0.00     0.016 A 
ATOM      9  C   UNL A   1      38.825  30.618  29.109  1.00  0.00     0.010 A 
ATOM     10  C   UNL A   1      37.364  28.985  30.143  1.00  0.00     0.010 A 
ATOM     11  C   UNL A   1      38.636  29.383  29.732  1.00  0.00    -0.014 A 
BRANCH  11  12
ATOM     12  C   UNL A   1      39.836  28.567  29.869  1.00  0.00     0.031 A 
ATOM     13  C   UNL A   1      40.447  28.506  31.228  1.00  0.00     0.074 A 
ATOM     14  C   UNL A   1      40.413  27.926  28.838  1.00  0.00     0.049 A 
ATOM     15  N   UNL A   1      41.626  28.894  31.599  1.00  0.00    -0.248 NA
ATOM     16  C   UNL A   1      39.605  28.000  32.319  1.00  0.00     0.031 C 
ATOM     17  C   UNL A   1      39.869  27.655  27.506  1.00  0.00     0.029 A 
ATOM     18  N   UNL A   1      41.628  27.309  28.814  1.00  0.00    -0.354 N 
ATOM     19  C   UNL A   1      41.735  28.557  32.947  1.00  0.00     0.074 A 
ATOM     20  C   UNL A   1      40.438  28.080  33.357  1.00  0.00     0.031 C 
ATOM     21  C   UNL A   1      40.657  26.750  26.885  1.00  0.00     0.029 A 
ATOM     22  C   UNL A   1      41.825  26.497  27.713  1.00  0.00     0.049 A 
ATOM     23  H   UNL A   1      42.305  27.430  29.519  1.00  0.00     0.167 HD
ATOM     24  C   UNL A   1      42.926  28.549  33.606  1.00  0.00     0.037 A 
ATOM     25  C   UNL A   1      42.841  25.623  27.534  1.00  0.00     0.037 A 
ATOM     26  C   UNL A   1      43.913  29.367  32.960  1.00  0.00     0.049 A 
ATOM     27  C   UNL A   1      43.961  26.027  28.418  1.00  0.00     0.074 A 
ATOM     28  C   UNL A   1      44.017  30.713  32.669  1.00  0.00     0.029 A 
ATOM     29  N   UNL A   1      44.914  28.764  32.241  1.00  0.00    -0.354 N 
ATOM     30  N   UNL A   1      44.694  27.090  28.241  1.00  0.00    -0.248 NA
ATOM     31  C   UNL A   1      44.037  25.429  29.743  1.00  0.00     0.031 C 
ATOM     32  C   UNL A   1      44.729  30.775  31.436  1.00  0.00     0.029 A 
ATOM     33  C   UNL A   1      45.023  29.462  31.067  1.00  0.00     0.049 A 
ATOM     34  H   UNL A   1      45.448  27.984  32.515  1.00  0.00     0.167 HD
ATOM     35  C   UNL A   1      45.000  27.526  29.522  1.00  0.00     0.074 A 
ATOM     36  C   UNL A   1      44.666  26.408  30.396  1.00  0.00     0.031 C 
ATOM     37  C   UNL A   1      45.240  28.844  29.782  1.00  0.00     0.037 A 
BRANCH  24  38
ATOM     38  C   UNL A   1      43.275  27.574  34.699  1.00  0.00     0.064 A 
ATOM     39  C   UNL A   1      43.584  28.043  35.991  1.00  0.00     0.173 A 
ATOM     40  C   UNL A   1      43.595  26.224  34.446  1.00  0.00     0.173 A 
ATOM     41  F   UNL A   1      43.354  29.321  36.328  1.00  0.00    -0.203 F 
ATOM     42  C   UNL A   1      44.217  27.234  36.937  1.00  0.00     0.198 A 
ATOM     43  C   UNL A   1      44.180  25.403  35.409  1.00  0.00     0.198 A 
ATOM     44  F   UNL A   1      43.455  25.681  33.230  1.00  0.00    -0.203 F 
ATOM     45  F   UNL A   1      44.595  27.754  38.113  1.00  0.00    -0.200 F 
ATOM     46  C   UNL A   1      44.518  25.915  36.645  1.00  0.00     0.200 A 
ATOM     47  F   UNL A   1      44.483  24.135  35.101  1.00  0.00    -0.200 F 
ATOM     48  F   UNL A   1      45.175  25.155  37.530  1.00  0.00    -0.200 F 
ENDBRANCH  24  38
BRANCH  25  49
ATOM     49  C   UNL A   1      42.776  24.301  26.876  1.00  0.00     0.064 A 
ATOM     50  C   UNL A   1      43.363  24.084  25.621  1.00  0.00     0.173 A 
ATOM     51  C   UNL A   1      42.363  23.156  27.586  1.00  0.00     0.173 A 
ATOM     52  F   UNL A   1      43.827  25.119  24.907  1.00  0.00    -0.203 F 
ATOM     53  C   UNL A   1      43.540  22.795  25.112  1.00  0.00     0.198 A 
ATOM     54  C   UNL A   1      42.530  21.871  27.073  1.00  0.00     0.198 A 
ATOM     55  F   UNL A   1      41.876  23.255  28.831  1.00  0.00    -0.203 F 
ATOM     56  F   UNL A   1      44.158  22.621  23.936  1.00  0.00    -0.200 F 
ATOM     57  C   UNL A   1      43.130  21.690  25.841  1.00  0.00     0.200 A 
ATOM     58  F   UNL A   1      42.162  20.811  27.805  1.00  0.00    -0.200 F 
ATOM     59  F   UNL A   1      43.350  20.452  25.378  1.00  0.00    -0.200 F 
ENDBRANCH  25  49
BRANCH  37  60
ATOM     60  C   UNL A   1      45.447  29.766  28.618  1.00  0.00     0.064 A 
ATOM     61  C   UNL A   1      44.392  30.375  27.917  1.00  0.00     0.173 A 
ATOM     62  C   UNL A   1      46.753  30.173  28.308  1.00  0.00     0.173 A 
ATOM     63  F   UNL A   1      43.116  30.114  28.231  1.00  0.00    -0.203 F 
ATOM     64  C   UNL A   1      44.640  31.317  26.921  1.00  0.00     0.198 A 
ATOM     65  C   UNL A   1      46.993  31.140  27.337  1.00  0.00     0.198 A 
ATOM     66  F   UNL A   1      47.794  29.669  28.989  1.00  0.00    -0.203 F 
ATOM     67  F   UNL A   1      43.617  31.882  26.261  1.00  0.00    -0.200 F 
ATOM     68  C   UNL A   1      45.939  31.706  26.638  1.00  0.00     0.200 A 
ATOM     69  F   UNL A   1      48.248  31.551  27.101  1.00  0.00    -0.200 F 
ATOM     70  F   UNL A   1      46.173  32.647  25.712  1.00  0.00    -0.200 F 
ENDBRANCH  37  60
ENDBRANCH  11  12
ENDBRANCH   4   6
ENDBRANCH   3   4
ENDBRANCH   2   3
ENDBRANCH   1   2
BRANCH   1  71
ATOM     71  O   UNL A   1      32.673  35.255  29.187  1.00  0.00    -0.374 OA
BRANCH  71  72
ATOM     72  C   UNL A   1      33.234  36.570  29.304  1.00  0.00     0.202 C 
BRANCH  72  73
ATOM     73  C   UNL A   1      33.203  37.227  30.692  1.00  0.00     0.261 C 
BRANCH  73  74
ATOM     74  O   UNL A   1      32.792  36.299  31.710  1.00  0.00    -0.458 OA
BRANCH  74  75
ATOM     75  C   UNL A   1      33.665  36.164  32.757  1.00  0.00     0.358 C 
ATOM     76  O   UNL A   1      33.711  36.895  33.726  1.00  0.00    -0.244 OA
BRANCH  75  77
ATOM     77  C   UNL A   1      34.440  34.927  32.640  1.00  0.00     0.166 A 
ATOM     78  C   UNL A   1      35.806  34.791  32.745  1.00  0.00     0.129 A 
ATOM     79  N   UNL A   1      33.871  33.693  32.356  1.00  0.00    -0.229 NA
ATOM     80  N   UNL A   1      36.045  33.438  32.713  1.00  0.00    -0.305 N 
ATOM     81  C   UNL A   1      34.867  32.833  32.356  1.00  0.00     0.205 A 
BRANCH  80  82
ATOM     82  C   UNL A   1      37.232  32.799  33.116  1.00  0.00     0.057 A 
ATOM     83  C   UNL A   1      37.218  32.025  34.273  1.00  0.00     0.047 A 
ATOM     84  C   UNL A   1      38.407  32.938  32.332  1.00  0.00     0.026 A 
ATOM     85  C   UNL A   1      38.369  31.324  34.563  1.00  0.00     0.114 A 
ATOM     86  C   UNL A   1      39.515  32.167  32.728  1.00  0.00     0.072 A 
ATOM     87  C   UNL A   1      38.558  33.836  31.238  1.00  0.00     0.033 A 
ATOM     88  N   UNL A   1      39.490  31.369  33.809  1.00  0.00    -0.256 NA
ATOM     89  C   UNL A   1      40.687  32.251  31.983  1.00  0.00     0.030 A 
ATOM     90  C   UNL A   1      39.746  33.910  30.522  1.00  0.00     0.041 A 
ATOM     91  C   UNL A   1      40.812  33.105  30.881  1.00  0.00     0.023 A 
ATOM     92  Cl  UNL A   1      39.884  35.006  29.206  1.00  0.00    -0.084 Cl
ENDBRANCH  80  82
ENDBRANCH  75  77
ENDBRANCH  74  75
ENDBRANCH  73  74
ENDBRANCH  72  73
ENDBRANCH  71  72
ENDBRANCH   1  71
TORSDOF 15
ENDMDL
MODEL 3
REMARK VINA RESULT:     -11.2      1.233      2.277
REMARK SMILES O=C(OCCOCCOC(=O)c1cn(-c2ccnc3ccc(Cl)cc23)cn1)c1ccc(-c2c3nc(c(-c4c(F)c(F)c(F)c(F)c4F)c4ccc([nH]4)c(-c4c(F)c(F)c(F)c(F)c4F)c4nc(c(-c5c(F)c(F)c(F)c(F)c5F)c5ccc2[nH]5)C=C4)C=C3)cc1
REMARK SMILES IDX 5 1 4 2 3 3 2 4 1 5 28 6 29 7 90 8 30 9 89 10 31 11 32 12
REMARK SMILES IDX 33 13 83 14 34 15 88 16 82 17 84 18 35 19 87 20 81 21 80 22
REMARK SMILES IDX 36 24 68 25 48 26 67 27 49 28 52 29 66 30 85 31 50 32 51 33
REMARK SMILES IDX 65 35 86 36 53 37 37 38 38 39 46 40 39 41 40 42 44 43 47 44
REMARK SMILES IDX 41 45 42 46 45 47 43 48 69 49 70 50 78 51 71 52 72 53 76 54
REMARK SMILES IDX 79 55 73 56 74 57 77 58 75 59 54 60 55 61 63 62 56 63 57 64
REMARK SMILES IDX 61 65 64 66 58 67 59 68 62 69 60 70 6 71 7 72 8 73 9 74
REMARK SMILES IDX 10 75 11 76 12 77 13 78 27 79 14 80 26 81 15 82 16 83 25 84
REMARK SMILES IDX 17 85 19 86 24 87 18 88 20 89 22 90 21 91 23 92
REMARK H PARENT 84 23 52 34
REMARK Flexibility Score: inf
ROOT
ATOM      1  C   UNL A   1      40.814  19.903  26.338  1.00  0.00     0.202 C 
ENDROOT
BRANCH   1   2
ATOM      2  C   UNL A   1      40.861  21.413  26.162  1.00  0.00     0.261 C 
BRANCH   2   3
ATOM      3  O   UNL A   1      40.027  22.173  27.064  1.00  0.00    -0.460 OA
BRANCH   3   4
ATOM      4  C   UNL A   1      39.316  23.221  26.585  1.00  0.00     0.338 C 
ATOM      5  O   UNL A   1      38.229  23.107  26.039  1.00  0.00    -0.246 OA
BRANCH   4   6
ATOM      6  C   UNL A   1      39.841  24.524  27.063  1.00  0.00     0.060 A 
ATOM      7  C   UNL A   1      39.693  24.926  28.391  1.00  0.00     0.016 A 
ATOM      8  C   UNL A   1      40.412  25.403  26.129  1.00  0.00     0.016 A 
ATOM      9  C   UNL A   1      39.998  26.218  28.762  1.00  0.00     0.010 A 
ATOM     10  C   UNL A   1      40.728  26.708  26.504  1.00  0.00     0.010 A 
ATOM     11  C   UNL A   1      40.461  27.126  27.807  1.00  0.00    -0.014 A 
BRANCH  11  12
ATOM     12  C   UNL A   1      40.597  28.501  28.272  1.00  0.00     0.031 A 
ATOM     13  C   UNL A   1      41.828  29.228  27.850  1.00  0.00     0.074 A 
ATOM     14  C   UNL A   1      39.701  29.097  29.078  1.00  0.00     0.049 A 
ATOM     15  N   UNL A   1      42.768  29.720  28.592  1.00  0.00    -0.248 NA
ATOM     16  C   UNL A   1      42.061  29.367  26.407  1.00  0.00     0.031 C 
ATOM     17  C   UNL A   1      38.341  28.671  29.412  1.00  0.00     0.029 A 
ATOM     18  N   UNL A   1      39.825  30.291  29.724  1.00  0.00    -0.354 N 
ATOM     19  C   UNL A   1      43.651  30.357  27.723  1.00  0.00     0.074 A 
ATOM     20  C   UNL A   1      43.209  30.045  26.386  1.00  0.00     0.031 C 
ATOM     21  C   UNL A   1      37.697  29.692  30.019  1.00  0.00     0.029 A 
ATOM     22  C   UNL A   1      38.640  30.776  30.242  1.00  0.00     0.049 A 
ATOM     23  H   UNL A   1      40.683  30.766  29.813  1.00  0.00     0.167 HD
ATOM     24  C   UNL A   1      44.605  31.227  28.155  1.00  0.00     0.037 A 
ATOM     25  C   UNL A   1      38.434  32.012  30.750  1.00  0.00     0.037 A 
ATOM     26  C   UNL A   1      44.929  31.039  29.540  1.00  0.00     0.049 A 
ATOM     27  C   UNL A   1      39.748  32.576  31.144  1.00  0.00     0.074 A 
ATOM     28  C   UNL A   1      45.461  29.999  30.278  1.00  0.00     0.029 A 
ATOM     29  N   UNL A   1      44.453  31.932  30.465  1.00  0.00    -0.354 N 
ATOM     30  N   UNL A   1      40.458  32.156  32.152  1.00  0.00    -0.248 NA
ATOM     31  C   UNL A   1      40.463  33.388  30.171  1.00  0.00     0.031 C 
ATOM     32  C   UNL A   1      44.836  30.090  31.555  1.00  0.00     0.029 A 
ATOM     33  C   UNL A   1      43.976  31.187  31.513  1.00  0.00     0.049 A 
ATOM     34  H   UNL A   1      44.454  32.913  30.391  1.00  0.00     0.167 HD
ATOM     35  C   UNL A   1      41.776  32.302  31.742  1.00  0.00     0.074 A 
ATOM     36  C   UNL A   1      41.717  33.164  30.568  1.00  0.00     0.031 C 
ATOM     37  C   UNL A   1      42.762  31.494  32.228  1.00  0.00     0.037 A 
BRANCH  24  38
ATOM     38  C   UNL A   1      45.050  32.439  27.378  1.00  0.00     0.064 A 
ATOM     39  C   UNL A   1      46.350  32.491  26.838  1.00  0.00     0.173 A 
ATOM     40  C   UNL A   1      44.345  33.660  27.395  1.00  0.00     0.173 A 
ATOM     41  F   UNL A   1      47.123  31.395  26.805  1.00  0.00    -0.203 F 
ATOM     42  C   UNL A   1      46.919  33.691  26.401  1.00  0.00     0.198 A 
ATOM     43  C   UNL A   1      44.895  34.845  26.910  1.00  0.00     0.198 A 
ATOM     44  F   UNL A   1      43.145  33.774  27.978  1.00  0.00    -0.203 F 
ATOM     45  F   UNL A   1      48.198  33.715  26.001  1.00  0.00    -0.200 F 
ATOM     46  C   UNL A   1      46.193  34.868  26.440  1.00  0.00     0.200 A 
ATOM     47  F   UNL A   1      44.185  35.979  26.976  1.00  0.00    -0.200 F 
ATOM     48  F   UNL A   1      46.754  36.026  26.074  1.00  0.00    -0.200 F 
ENDBRANCH  24  38
BRANCH  25  49
ATOM     49  C   UNL A   1      37.212  32.836  30.629  1.00  0.00     0.064 A 
ATOM     50  C   UNL A   1      36.822  33.378  29.396  1.00  0.00     0.173 A 
ATOM     51  C   UNL A   1      36.264  32.887  31.670  1.00  0.00     0.173 A 
ATOM     52  F   UNL A   1      37.649  33.322  28.343  1.00  0.00    -0.203 F 
ATOM     53  C   UNL A   1      35.549  33.927  29.212  1.00  0.00     0.198 A 
ATOM     54  C   UNL A   1      35.000  33.443  31.488  1.00  0.00     0.198 A 
ATOM     55  F   UNL A   1      36.511  32.312  32.856  1.00  0.00    -0.203 F 
ATOM     56  F   UNL A   1      35.188  34.382  28.005  1.00  0.00    -0.200 F 
ATOM     57  C   UNL A   1      34.638  33.952  30.255  1.00  0.00     0.200 A 
ATOM     58  F   UNL A   1      34.116  33.428  32.495  1.00  0.00    -0.200 F 
ATOM     59  F   UNL A   1      33.399  34.427  30.063  1.00  0.00    -0.200 F 
ENDBRANCH  25  49
BRANCH  37  60
ATOM     60  C   UNL A   1      42.449  30.639  33.419  1.00  0.00     0.064 A 
ATOM     61  C   UNL A   1      42.552  31.093  34.745  1.00  0.00     0.173 A 
ATOM     62  C   UNL A   1      41.872  29.378  33.208  1.00  0.00     0.173 A 
ATOM     63  F   UNL A   1      42.996  32.327  35.017  1.00  0.00    -0.203 F 
ATOM     64  C   UNL A   1      42.134  30.300  35.812  1.00  0.00     0.198 A 
ATOM     65  C   UNL A   1      41.423  28.605  34.275  1.00  0.00     0.198 A 
ATOM     66  F   UNL A   1      41.692  28.921  31.959  1.00  0.00    -0.203 F 
ATOM     67  F   UNL A   1      42.247  30.752  37.071  1.00  0.00    -0.200 F 
ATOM     68  C   UNL A   1      41.562  29.061  35.576  1.00  0.00     0.200 A 
ATOM     69  F   UNL A   1      40.824  27.428  34.039  1.00  0.00    -0.200 F 
ATOM     70  F   UNL A   1      41.118  28.319  36.600  1.00  0.00    -0.200 F 
ENDBRANCH  37  60
ENDBRANCH  11  12
ENDBRANCH   4   6
ENDBRANCH   3   4
ENDBRANCH   2   3
ENDBRANCH   1   2
BRANCH   1  71
ATOM     71  O   UNL A   1      41.691  19.208  25.447  1.00  0.00    -0.374 OA
BRANCH  71  72
ATOM     72  C   UNL A   1      43.080  19.262  25.801  1.00  0.00     0.202 C 
BRANCH  72  73
ATOM     73  C   UNL A   1      44.095  18.819  24.737  1.00  0.00     0.261 C 
BRANCH  73  74
ATOM     74  O   UNL A   1      44.554  19.928  23.946  1.00  0.00    -0.458 OA
BRANCH  74  75
ATOM     75  C   UNL A   1      45.434  20.766  24.579  1.00  0.00     0.358 C 
ATOM     76  O   UNL A   1      46.631  20.582  24.667  1.00  0.00    -0.244 OA
BRANCH  75  77
ATOM     77  C   UNL A   1      44.773  22.000  25.005  1.00  0.00     0.166 A 
ATOM     78  C   UNL A   1      44.895  22.629  26.224  1.00  0.00     0.129 A 
ATOM     79  N   UNL A   1      43.869  22.696  24.212  1.00  0.00    -0.229 NA
ATOM     80  N   UNL A   1      44.209  23.814  26.098  1.00  0.00    -0.305 N 
ATOM     81  C   UNL A   1      43.514  23.748  24.918  1.00  0.00     0.205 A 
BRANCH  80  82
ATOM     82  C   UNL A   1      44.325  24.929  26.948  1.00  0.00     0.057 A 
ATOM     83  C   UNL A   1      43.538  24.985  28.094  1.00  0.00     0.047 A 
ATOM     84  C   UNL A   1      45.248  25.961  26.631  1.00  0.00     0.026 A 
ATOM     85  C   UNL A   1      43.771  26.036  28.956  1.00  0.00     0.114 A 
ATOM     86  C   UNL A   1      45.400  26.977  27.593  1.00  0.00     0.072 A 
ATOM     87  C   UNL A   1      45.964  26.069  25.406  1.00  0.00     0.033 A 
ATOM     88  N   UNL A   1      44.688  27.004  28.733  1.00  0.00    -0.256 NA
ATOM     89  C   UNL A   1      46.306  28.002  27.343  1.00  0.00     0.030 A 
ATOM     90  C   UNL A   1      46.851  27.114  25.178  1.00  0.00     0.041 A 
ATOM     91  C   UNL A   1      47.039  28.078  26.153  1.00  0.00     0.023 A 
ATOM     92  Cl  UNL A   1      47.696  27.206  23.685  1.00  0.00    -0.084 Cl
ENDBRANCH  80  82
ENDBRANCH  75  77
ENDBRANCH  74  75
ENDBRANCH  73  74
ENDBRANCH  72  73
ENDBRANCH  71  72
ENDBRANCH   1  71
TORSDOF 15
ENDMDL
