MODEL 1
REMARK VINA RESULT:     -12.9      0.000      0.000
REMARK SMILES Cc1ccc(C)c(N2C(=O)S[C@H](CC(=O)Nc3ccc(C(=O)OCCOCCOC(=O)c4ccc(-c5c6nc(c(-c7c(F)c(F)c(F)c(F)c7F)c7ccc([nH]7)c(-c7c(F)c(F)c(F)c(F)c7F)c7nc(c(-c8c(F)c(F)c(F)c(F)c8F)c8ccc5[nH]8)C=C7)C=C6)cc4)c(O)c3)C2=O)c1
REMARK SMILES IDX 25 1 24 2 23 3 21 4 22 5 20 6 17 7 18 8 97 9 19 10 95 11
REMARK SMILES IDX 16 12 14 13 15 14 13 16 12 17 8 18 9 19 98 20 10 21 11 22
REMARK SMILES IDX 99 23 7 24 1 25 2 26 3 27 100 28 4 29 5 30 6 31 96 32 26 34
REMARK SMILES IDX 27 35 28 36 29 37 30 38 31 39 32 40 33 41 94 42 34 43 93 44
REMARK SMILES IDX 35 45 36 46 37 47 87 48 38 49 92 50 86 51 88 52 39 53 91 54
REMARK SMILES IDX 85 55 84 56 40 58 72 59 52 60 71 61 53 62 56 63 70 64 89 65
REMARK SMILES IDX 54 66 55 67 69 69 90 70 57 71 41 72 42 73 50 74 43 75 44 76
REMARK SMILES IDX 48 77 51 78 45 79 46 80 49 81 47 82 73 83 74 84 82 85 75 86
REMARK SMILES IDX 76 87 80 88 83 89 77 90 78 91 81 92 79 93 58 94 59 95 67 96
REMARK SMILES IDX 60 97 61 98 65 99 68 100 62 101 63 102 66 103 64 104
REMARK H PARENT 16 15 96 33 88 57 56 68
REMARK Flexibility Score: inf
ROOT
ATOM      1  C   UNL A   1      38.138  21.535  25.410  1.00  0.00     0.202 C 
ENDROOT
BRANCH   1   2
ATOM      2  C   UNL A   1      36.927  20.687  24.989  1.00  0.00     0.261 C 
BRANCH   2   3
ATOM      3  O   UNL A   1      35.842  21.069  25.863  1.00  0.00    -0.460 OA
BRANCH   3   4
ATOM      4  C   UNL A   1      34.675  20.982  25.178  1.00  0.00     0.341 C 
ATOM      5  O   UNL A   1      34.285  19.987  24.634  1.00  0.00    -0.246 OA
BRANCH   4   6
ATOM      6  C   UNL A   1      33.853  22.198  25.241  1.00  0.00     0.101 A 
ATOM      7  C   UNL A   1      32.143  24.348  25.736  1.00  0.00     0.044 A 
ATOM      8  C   UNL A   1      32.854  23.735  26.741  1.00  0.00     0.027 A 
ATOM      9  C   UNL A   1      32.206  23.801  24.456  1.00  0.00     0.073 A 
ATOM     10  C   UNL A   1      33.823  22.802  26.488  1.00  0.00     0.022 A 
ATOM     11  C   UNL A   1      33.049  22.700  24.221  1.00  0.00     0.132 A 
BRANCH   7  12
ATOM     12  N   UNL A   1      31.359  25.453  26.108  1.00  0.00    -0.326 N 
ATOM     13  C   UNL A   1      31.857  26.660  26.599  1.00  0.00     0.226 C 
ATOM     14  O   UNL A   1      31.161  27.358  27.335  1.00  0.00    -0.275 OA
ATOM     15  H   UNL A   1      30.382  25.369  26.016  1.00  0.00     0.169 HD
BRANCH  13  16
ATOM     16  C   UNL A   1      33.202  27.186  26.034  1.00  0.00     0.125 C 
BRANCH  16  17
ATOM     17  C   UNL A   1      33.203  28.125  24.812  1.00  0.00     0.156 C 
ATOM     18  N   UNL A   1      31.097  28.124  23.624  1.00  0.00    -0.240 N 
ATOM     19  C   UNL A   1      31.767  27.227  22.847  1.00  0.00     0.293 C 
ATOM     20  C   UNL A   1      31.813  28.749  24.639  1.00  0.00     0.248 C 
ATOM     21  O   UNL A   1      31.333  26.474  21.993  1.00  0.00    -0.261 OA
ATOM     22  S   UNL A   1      33.452  27.406  23.160  1.00  0.00    -0.050 SA
ATOM     23  O   UNL A   1      31.416  29.675  25.338  1.00  0.00    -0.273 OA
BRANCH  18  24
ATOM     24  C   UNL A   1      29.912  28.653  23.075  1.00  0.00     0.056 A 
ATOM     25  C   UNL A   1      28.729  32.012  21.715  1.00  0.00     0.044 C 
ATOM     26  C   UNL A   1      28.736  30.603  22.227  1.00  0.00    -0.049 A 
ATOM     27  C   UNL A   1      27.527  29.919  22.386  1.00  0.00     0.004 A 
ATOM     28  C   UNL A   1      29.933  29.957  22.560  1.00  0.00     0.030 A 
ATOM     29  C   UNL A   1      27.502  28.632  22.922  1.00  0.00     0.006 A 
ATOM     30  C   UNL A   1      28.686  27.995  23.308  1.00  0.00    -0.027 A 
ATOM     31  C   UNL A   1      28.563  26.669  24.014  1.00  0.00     0.046 C 
ENDBRANCH  18  24
ENDBRANCH  16  17
ENDBRANCH  13  16
ENDBRANCH   7  12
BRANCH  11  32
ATOM     32  O   UNL A   1      33.047  22.153  22.968  1.00  0.00    -0.507 OA
ATOM     33  H   UNL A   1      33.373  22.645  22.241  1.00  0.00     0.293 HD
ENDBRANCH  11  32
ENDBRANCH   4   6
ENDBRANCH   3   4
ENDBRANCH   2   3
ENDBRANCH   1   2
BRANCH   1  34
ATOM     34  O   UNL A   1      37.666  22.839  25.721  1.00  0.00    -0.374 OA
BRANCH  34  35
ATOM     35  C   UNL A   1      38.460  23.704  26.502  1.00  0.00     0.202 C 
BRANCH  35  36
ATOM     36  C   UNL A   1      39.767  23.051  26.945  1.00  0.00     0.261 C 
BRANCH  36  37
ATOM     37  O   UNL A   1      40.944  23.903  26.893  1.00  0.00    -0.460 OA
BRANCH  37  38
ATOM     38  C   UNL A   1      41.566  24.220  28.069  1.00  0.00     0.338 C 
ATOM     39  O   UNL A   1      41.940  23.396  28.888  1.00  0.00    -0.246 OA
BRANCH  38  40
ATOM     40  C   UNL A   1      41.641  25.704  28.246  1.00  0.00     0.060 A 
ATOM     41  C   UNL A   1      42.385  26.262  29.296  1.00  0.00     0.016 A 
ATOM     42  C   UNL A   1      40.692  26.485  27.594  1.00  0.00     0.016 A 
ATOM     43  C   UNL A   1      42.016  27.524  29.818  1.00  0.00     0.010 A 
ATOM     44  C   UNL A   1      40.248  27.653  28.203  1.00  0.00     0.010 A 
ATOM     45  C   UNL A   1      40.855  28.181  29.357  1.00  0.00    -0.014 A 
BRANCH  45  46
ATOM     46  C   UNL A   1      40.504  29.612  29.659  1.00  0.00     0.031 A 
ATOM     47  C   UNL A   1      41.751  30.344  29.381  1.00  0.00     0.074 A 
ATOM     48  C   UNL A   1      39.388  30.301  30.070  1.00  0.00     0.049 A 
ATOM     49  N   UNL A   1      42.567  30.684  30.328  1.00  0.00    -0.248 NA
ATOM     50  C   UNL A   1      42.355  30.376  28.039  1.00  0.00     0.031 C 
ATOM     51  C   UNL A   1      38.169  29.816  30.690  1.00  0.00     0.029 A 
ATOM     52  N   UNL A   1      39.064  31.664  29.992  1.00  0.00    -0.354 N 
ATOM     53  C   UNL A   1      43.603  31.302  29.667  1.00  0.00     0.074 A 
ATOM     54  C   UNL A   1      43.595  30.783  28.328  1.00  0.00     0.031 C 
ATOM     55  C   UNL A   1      37.142  30.690  30.605  1.00  0.00     0.029 A 
ATOM     56  C   UNL A   1      37.662  31.945  30.106  1.00  0.00     0.049 A 
ATOM     57  H   UNL A   1      39.741  32.369  29.869  1.00  0.00     0.167 HD
ATOM     58  C   UNL A   1      43.972  32.529  30.116  1.00  0.00     0.037 A 
ATOM     59  C   UNL A   1      36.974  33.121  30.284  1.00  0.00     0.037 A 
ATOM     60  C   UNL A   1      43.513  32.734  31.473  1.00  0.00     0.049 A 
ATOM     61  C   UNL A   1      37.910  34.032  30.947  1.00  0.00     0.074 A 
ATOM     62  C   UNL A   1      43.821  32.205  32.710  1.00  0.00     0.029 A 
ATOM     63  N   UNL A   1      42.240  33.236  31.564  1.00  0.00    -0.354 N 
ATOM     64  N   UNL A   1      38.192  33.929  32.212  1.00  0.00    -0.248 NA
ATOM     65  C   UNL A   1      38.859  34.771  30.128  1.00  0.00     0.031 C 
ATOM     66  C   UNL A   1      42.671  32.377  33.532  1.00  0.00     0.029 A 
ATOM     67  C   UNL A   1      41.707  33.074  32.815  1.00  0.00     0.049 A 
ATOM     68  H   UNL A   1      41.763  33.662  30.815  1.00  0.00     0.167 HD
ATOM     69  C   UNL A   1      39.553  34.132  32.237  1.00  0.00     0.074 A 
ATOM     70  C   UNL A   1      39.878  34.817  30.989  1.00  0.00     0.031 C 
ATOM     71  C   UNL A   1      40.330  33.402  33.082  1.00  0.00     0.037 A 
BRANCH  58  72
ATOM     72  C   UNL A   1      44.222  33.683  29.180  1.00  0.00     0.064 A 
ATOM     73  C   UNL A   1      45.515  34.221  29.114  1.00  0.00     0.173 A 
ATOM     74  C   UNL A   1      43.211  34.448  28.549  1.00  0.00     0.173 A 
ATOM     75  F   UNL A   1      46.536  33.609  29.731  1.00  0.00    -0.203 F 
ATOM     76  C   UNL A   1      45.769  35.439  28.477  1.00  0.00     0.198 A 
ATOM     77  C   UNL A   1      43.476  35.625  27.863  1.00  0.00     0.198 A 
ATOM     78  F   UNL A   1      41.909  34.170  28.667  1.00  0.00    -0.203 F 
ATOM     79  F   UNL A   1      46.997  35.967  28.524  1.00  0.00    -0.200 F 
ATOM     80  C   UNL A   1      44.752  36.134  27.845  1.00  0.00     0.200 A 
ATOM     81  F   UNL A   1      42.464  36.296  27.293  1.00  0.00    -0.200 F 
ATOM     82  F   UNL A   1      44.988  37.318  27.267  1.00  0.00    -0.200 F 
ENDBRANCH  58  72
BRANCH  59  83
ATOM     83  C   UNL A   1      35.641  33.616  29.795  1.00  0.00     0.064 A 
ATOM     84  C   UNL A   1      34.621  34.049  30.661  1.00  0.00     0.173 A 
ATOM     85  C   UNL A   1      35.446  33.966  28.461  1.00  0.00     0.173 A 
ATOM     86  F   UNL A   1      34.603  33.644  31.939  1.00  0.00    -0.203 F 
ATOM     87  C   UNL A   1      33.610  34.933  30.244  1.00  0.00     0.198 A 
ATOM     88  C   UNL A   1      34.529  34.947  28.057  1.00  0.00     0.198 A 
ATOM     89  F   UNL A   1      36.087  33.269  27.528  1.00  0.00    -0.203 F 
ATOM     90  F   UNL A   1      32.657  35.321  31.105  1.00  0.00    -0.200 F 
ATOM     91  C   UNL A   1      33.620  35.451  28.963  1.00  0.00     0.200 A 
ATOM     92  F   UNL A   1      34.547  35.413  26.799  1.00  0.00    -0.200 F 
ATOM     93  F   UNL A   1      32.747  36.402  28.598  1.00  0.00    -0.200 F 
ENDBRANCH  59  83
BRANCH  71  94
ATOM     94  C   UNL A   1      39.678  32.860  34.317  1.00  0.00     0.064 A 
ATOM     95  C   UNL A   1      39.178  31.558  34.465  1.00  0.00     0.173 A 
ATOM     96  C   UNL A   1      39.610  33.709  35.428  1.00  0.00     0.173 A 
ATOM     97  F   UNL A   1      39.249  30.674  33.466  1.00  0.00    -0.203 F 
ATOM     98  C   UNL A   1      38.620  31.133  35.673  1.00  0.00     0.198 A 
ATOM     99  C   UNL A   1      39.080  33.277  36.638  1.00  0.00     0.198 A 
ATOM    100  F   UNL A   1      40.090  34.960  35.345  1.00  0.00    -0.203 F 
ATOM    101  F   UNL A   1      38.142  29.885  35.791  1.00  0.00    -0.200 F 
ATOM    102  C   UNL A   1      38.579  31.992  36.759  1.00  0.00     0.200 A 
ATOM    103  F   UNL A   1      39.073  34.104  37.692  1.00  0.00    -0.200 F 
ATOM    104  F   UNL A   1      38.071  31.577  37.928  1.00  0.00    -0.200 F 
ENDBRANCH  71  94
ENDBRANCH  45  46
ENDBRANCH  38  40
ENDBRANCH  37  38
ENDBRANCH  36  37
ENDBRANCH  35  36
ENDBRANCH  34  35
ENDBRANCH   1  34
TORSDOF 19
ENDMDL
MODEL 2
REMARK VINA RESULT:     -12.7      2.371      3.289
REMARK SMILES Cc1ccc(C)c(N2C(=O)S[C@H](CC(=O)Nc3ccc(C(=O)OCCOCCOC(=O)c4ccc(-c5c6nc(c(-c7c(F)c(F)c(F)c(F)c7F)c7ccc([nH]7)c(-c7c(F)c(F)c(F)c(F)c7F)c7nc(c(-c8c(F)c(F)c(F)c(F)c8F)c8ccc5[nH]8)C=C7)C=C6)cc4)c(O)c3)C2=O)c1
REMARK SMILES IDX 25 1 24 2 23 3 21 4 22 5 20 6 17 7 18 8 97 9 19 10 95 11
REMARK SMILES IDX 16 12 14 13 15 14 13 16 12 17 8 18 9 19 98 20 10 21 11 22
REMARK SMILES IDX 99 23 7 24 1 25 2 26 3 27 100 28 4 29 5 30 6 31 96 32 26 34
REMARK SMILES IDX 27 35 28 36 29 37 30 38 31 39 32 40 33 41 94 42 34 43 93 44
REMARK SMILES IDX 35 45 36 46 37 47 87 48 38 49 92 50 86 51 88 52 39 53 91 54
REMARK SMILES IDX 85 55 84 56 40 58 72 59 52 60 71 61 53 62 56 63 70 64 89 65
REMARK SMILES IDX 54 66 55 67 69 69 90 70 57 71 41 72 42 73 50 74 43 75 44 76
REMARK SMILES IDX 48 77 51 78 45 79 46 80 49 81 47 82 73 83 74 84 82 85 75 86
REMARK SMILES IDX 76 87 80 88 83 89 77 90 78 91 81 92 79 93 58 94 59 95 67 96
REMARK SMILES IDX 60 97 61 98 65 99 68 100 62 101 63 102 66 103 64 104
REMARK H PARENT 16 15 96 33 88 57 56 68
REMARK Flexibility Score: inf
ROOT
ATOM      1  C   UNL A   1      39.396  22.143  26.267  1.00  0.00     0.202 C 
ENDROOT
BRANCH   1   2
ATOM      2  C   UNL A   1      38.561  21.209  25.374  1.00  0.00     0.261 C 
BRANCH   2   3
ATOM      3  O   UNL A   1      37.180  21.442  25.724  1.00  0.00    -0.460 OA
BRANCH   3   4
ATOM      4  C   UNL A   1      36.579  22.120  24.715  1.00  0.00     0.341 C 
ATOM      5  O   UNL A   1      36.982  22.145  23.587  1.00  0.00    -0.246 OA
BRANCH   4   6
ATOM      6  C   UNL A   1      35.308  22.753  25.094  1.00  0.00     0.101 A 
ATOM      7  C   UNL A   1      33.063  24.318  25.644  1.00  0.00     0.044 A 
ATOM      8  C   UNL A   1      33.782  24.457  24.480  1.00  0.00     0.027 A 
ATOM      9  C   UNL A   1      33.543  23.440  26.615  1.00  0.00     0.073 A 
ATOM     10  C   UNL A   1      34.772  23.582  24.123  1.00  0.00     0.022 A 
ATOM     11  C   UNL A   1      34.691  22.675  26.340  1.00  0.00     0.132 A 
BRANCH   7  12
ATOM     12  N   UNL A   1      31.923  25.128  25.777  1.00  0.00    -0.326 N 
ATOM     13  C   UNL A   1      31.902  26.390  26.372  1.00  0.00     0.226 C 
ATOM     14  O   UNL A   1      30.865  26.811  26.884  1.00  0.00    -0.275 OA
ATOM     15  H   UNL A   1      31.073  24.778  25.425  1.00  0.00     0.169 HD
BRANCH  13  16
ATOM     16  C   UNL A   1      33.135  27.312  26.186  1.00  0.00     0.125 C 
BRANCH  16  17
ATOM     17  C   UNL A   1      33.150  28.349  25.047  1.00  0.00     0.156 C 
ATOM     18  N   UNL A   1      31.134  28.307  23.711  1.00  0.00    -0.240 N 
ATOM     19  C   UNL A   1      31.919  27.526  22.917  1.00  0.00     0.293 C 
ATOM     20  C   UNL A   1      31.733  28.891  24.823  1.00  0.00     0.248 C 
ATOM     21  O   UNL A   1      31.600  26.820  21.977  1.00  0.00    -0.261 OA
ATOM     22  S   UNL A   1      33.561  27.791  23.366  1.00  0.00    -0.050 SA
ATOM     23  O   UNL A   1      31.224  29.726  25.562  1.00  0.00    -0.273 OA
BRANCH  18  24
ATOM     24  C   UNL A   1      29.954  28.800  23.121  1.00  0.00     0.056 A 
ATOM     25  C   UNL A   1      28.702  32.133  21.759  1.00  0.00     0.044 C 
ATOM     26  C   UNL A   1      28.741  30.718  22.252  1.00  0.00    -0.049 A 
ATOM     27  C   UNL A   1      27.553  29.987  22.351  1.00  0.00     0.004 A 
ATOM     28  C   UNL A   1      29.947  30.112  22.626  1.00  0.00     0.030 A 
ATOM     29  C   UNL A   1      27.554  28.692  22.868  1.00  0.00     0.006 A 
ATOM     30  C   UNL A   1      28.745  28.093  23.294  1.00  0.00    -0.027 A 
ATOM     31  C   UNL A   1      28.643  26.754  23.977  1.00  0.00     0.046 C 
ENDBRANCH  18  24
ENDBRANCH  16  17
ENDBRANCH  13  16
ENDBRANCH   7  12
BRANCH  11  32
ATOM     32  O   UNL A   1      35.168  21.865  27.333  1.00  0.00    -0.507 OA
ATOM     33  H   UNL A   1      35.656  21.095  27.116  1.00  0.00     0.293 HD
ENDBRANCH  11  32
ENDBRANCH   4   6
ENDBRANCH   3   4
ENDBRANCH   2   3
ENDBRANCH   1   2
BRANCH   1  34
ATOM     34  O   UNL A   1      40.297  21.336  27.013  1.00  0.00    -0.374 OA
BRANCH  34  35
ATOM     35  C   UNL A   1      40.850  20.179  26.428  1.00  0.00     0.202 C 
BRANCH  35  36
ATOM     36  C   UNL A   1      42.326  20.354  26.078  1.00  0.00     0.261 C 
BRANCH  36  37
ATOM     37  O   UNL A   1      42.905  21.641  26.428  1.00  0.00    -0.460 OA
BRANCH  37  38
ATOM     38  C   UNL A   1      43.256  22.490  25.414  1.00  0.00     0.338 C 
ATOM     39  O   UNL A   1      43.528  22.127  24.282  1.00  0.00    -0.246 OA
BRANCH  38  40
ATOM     40  C   UNL A   1      43.343  23.899  25.910  1.00  0.00     0.060 A 
ATOM     41  C   UNL A   1      44.152  24.221  27.011  1.00  0.00     0.016 A 
ATOM     42  C   UNL A   1      42.356  24.793  25.507  1.00  0.00     0.016 A 
ATOM     43  C   UNL A   1      43.818  25.330  27.821  1.00  0.00     0.010 A 
ATOM     44  C   UNL A   1      41.952  25.791  26.386  1.00  0.00     0.010 A 
ATOM     45  C   UNL A   1      42.631  26.058  27.589  1.00  0.00    -0.014 A 
BRANCH  45  46
ATOM     46  C   UNL A   1      42.301  27.383  28.222  1.00  0.00     0.031 A 
ATOM     47  C   UNL A   1      43.442  28.238  27.857  1.00  0.00     0.074 A 
ATOM     48  C   UNL A   1      41.268  27.905  28.962  1.00  0.00     0.049 A 
ATOM     49  N   UNL A   1      44.420  28.456  28.678  1.00  0.00    -0.248 NA
ATOM     50  C   UNL A   1      43.764  28.556  26.455  1.00  0.00     0.031 C 
ATOM     51  C   UNL A   1      40.214  27.231  29.699  1.00  0.00     0.029 A 
ATOM     52  N   UNL A   1      40.890  29.234  29.211  1.00  0.00    -0.354 N 
ATOM     53  C   UNL A   1      45.282  29.256  27.963  1.00  0.00     0.074 A 
ATOM     54  C   UNL A   1      45.022  28.990  26.576  1.00  0.00     0.031 C 
ATOM     55  C   UNL A   1      39.163  28.033  29.981  1.00  0.00     0.029 A 
ATOM     56  C   UNL A   1      39.531  29.390  29.642  1.00  0.00     0.049 A 
ATOM     57  H   UNL A   1      41.506  29.995  29.098  1.00  0.00     0.167 HD
ATOM     58  C   UNL A   1      45.693  30.403  28.561  1.00  0.00     0.037 A 
ATOM     59  C   UNL A   1      38.855  30.463  30.171  1.00  0.00     0.037 A 
ATOM     60  C   UNL A   1      45.509  30.326  29.994  1.00  0.00     0.049 A 
ATOM     61  C   UNL A   1      39.875  31.302  30.805  1.00  0.00     0.074 A 
ATOM     62  C   UNL A   1      46.076  29.603  31.024  1.00  0.00     0.029 A 
ATOM     63  N   UNL A   1      44.264  30.712  30.421  1.00  0.00    -0.354 N 
ATOM     64  N   UNL A   1      40.407  30.990  31.949  1.00  0.00    -0.248 NA
ATOM     65  C   UNL A   1      40.615  32.242  29.978  1.00  0.00     0.031 C 
ATOM     66  C   UNL A   1      45.109  29.541  32.068  1.00  0.00     0.029 A 
ATOM     67  C   UNL A   1      43.999  30.289  31.696  1.00  0.00     0.049 A 
ATOM     68  H   UNL A   1      43.633  31.232  29.873  1.00  0.00     0.167 HD
ATOM     69  C   UNL A   1      41.738  31.280  31.753  1.00  0.00     0.074 A 
ATOM     70  C   UNL A   1      41.784  32.202  30.621  1.00  0.00     0.031 C 
ATOM     71  C   UNL A   1      42.693  30.465  32.278  1.00  0.00     0.037 A 
BRANCH  58  72
ATOM     72  C   UNL A   1      45.712  31.723  27.834  1.00  0.00     0.064 A 
ATOM     73  C   UNL A   1      44.501  32.239  27.353  1.00  0.00     0.173 A 
ATOM     74  C   UNL A   1      46.881  32.368  27.359  1.00  0.00     0.173 A 
ATOM     75  F   UNL A   1      43.338  31.663  27.691  1.00  0.00    -0.203 F 
ATOM     76  C   UNL A   1      44.466  33.310  26.456  1.00  0.00     0.198 A 
ATOM     77  C   UNL A   1      46.842  33.472  26.518  1.00  0.00     0.198 A 
ATOM     78  F   UNL A   1      48.111  31.896  27.578  1.00  0.00    -0.203 F 
ATOM     79  F   UNL A   1      43.296  33.707  25.944  1.00  0.00    -0.200 F 
ATOM     80  C   UNL A   1      45.634  33.931  26.047  1.00  0.00     0.200 A 
ATOM     81  F   UNL A   1      47.991  34.028  26.109  1.00  0.00    -0.200 F 
ATOM     82  F   UNL A   1      45.604  34.933  25.161  1.00  0.00    -0.200 F 
ENDBRANCH  58  72
BRANCH  59  83
ATOM     83  C   UNL A   1      37.435  30.944  30.049  1.00  0.00     0.064 A 
ATOM     84  C   UNL A   1      36.620  31.210  31.163  1.00  0.00     0.173 A 
ATOM     85  C   UNL A   1      36.944  31.449  28.847  1.00  0.00     0.173 A 
ATOM     86  F   UNL A   1      36.892  30.647  32.349  1.00  0.00    -0.203 F 
ATOM     87  C   UNL A   1      35.521  32.085  31.095  1.00  0.00     0.198 A 
ATOM     88  C   UNL A   1      35.938  32.422  28.784  1.00  0.00     0.198 A 
ATOM     89  F   UNL A   1      37.383  30.910  27.713  1.00  0.00    -0.203 F 
ATOM     90  F   UNL A   1      34.770  32.310  32.184  1.00  0.00    -0.200 F 
ATOM     91  C   UNL A   1      35.237  32.760  29.923  1.00  0.00     0.200 A 
ATOM     92  F   UNL A   1      35.669  33.044  27.626  1.00  0.00    -0.200 F 
ATOM     93  F   UNL A   1      34.282  33.701  29.884  1.00  0.00    -0.200 F 
ENDBRANCH  59  83
BRANCH  71  94
ATOM     94  C   UNL A   1      42.320  29.663  33.487  1.00  0.00     0.064 A 
ATOM     95  C   UNL A   1      41.904  28.324  33.475  1.00  0.00     0.173 A 
ATOM     96  C   UNL A   1      42.446  30.290  34.733  1.00  0.00     0.173 A 
ATOM     97  F   UNL A   1      41.804  27.642  32.330  1.00  0.00    -0.203 F 
ATOM     98  C   UNL A   1      41.614  27.648  34.662  1.00  0.00     0.198 A 
ATOM     99  C   UNL A   1      42.184  29.609  35.915  1.00  0.00     0.198 A 
ATOM    100  F   UNL A   1      42.857  31.565  34.801  1.00  0.00    -0.203 F 
ATOM    101  F   UNL A   1      41.212  26.368  34.628  1.00  0.00    -0.200 F 
ATOM    102  C   UNL A   1      41.761  28.291  35.881  1.00  0.00     0.200 A 
ATOM    103  F   UNL A   1      42.359  30.228  37.090  1.00  0.00    -0.200 F 
ATOM    104  F   UNL A   1      41.511  27.635  37.023  1.00  0.00    -0.200 F 
ENDBRANCH  71  94
ENDBRANCH  45  46
ENDBRANCH  38  40
ENDBRANCH  37  38
ENDBRANCH  36  37
ENDBRANCH  35  36
ENDBRANCH  34  35
ENDBRANCH   1  34
TORSDOF 19
ENDMDL
MODEL 3
REMARK VINA RESULT:     -12.5      3.481      5.697
REMARK SMILES Cc1ccc(C)c(N2C(=O)S[C@H](CC(=O)Nc3ccc(C(=O)OCCOCCOC(=O)c4ccc(-c5c6nc(c(-c7c(F)c(F)c(F)c(F)c7F)c7ccc([nH]7)c(-c7c(F)c(F)c(F)c(F)c7F)c7nc(c(-c8c(F)c(F)c(F)c(F)c8F)c8ccc5[nH]8)C=C7)C=C6)cc4)c(O)c3)C2=O)c1
REMARK SMILES IDX 25 1 24 2 23 3 21 4 22 5 20 6 17 7 18 8 97 9 19 10 95 11
REMARK SMILES IDX 16 12 14 13 15 14 13 16 12 17 8 18 9 19 98 20 10 21 11 22
REMARK SMILES IDX 99 23 7 24 1 25 2 26 3 27 100 28 4 29 5 30 6 31 96 32 26 34
REMARK SMILES IDX 27 35 28 36 29 37 30 38 31 39 32 40 33 41 94 42 34 43 93 44
REMARK SMILES IDX 35 45 36 46 37 47 87 48 38 49 92 50 86 51 88 52 39 53 91 54
REMARK SMILES IDX 85 55 84 56 40 58 72 59 52 60 71 61 53 62 56 63 70 64 89 65
REMARK SMILES IDX 54 66 55 67 69 69 90 70 57 71 41 72 42 73 50 74 43 75 44 76
REMARK SMILES IDX 48 77 51 78 45 79 46 80 49 81 47 82 73 83 74 84 82 85 75 86
REMARK SMILES IDX 76 87 80 88 83 89 77 90 78 91 81 92 79 93 58 94 59 95 67 96
REMARK SMILES IDX 60 97 61 98 65 99 68 100 62 101 63 102 66 103 64 104
REMARK H PARENT 16 15 96 33 88 57 56 68
REMARK Flexibility Score: inf
ROOT
ATOM      1  C   UNL A   1      41.915  19.974  27.335  1.00  0.00     0.202 C 
ENDROOT
BRANCH   1   2
ATOM      2  C   UNL A   1      41.317  21.391  27.357  1.00  0.00     0.261 C 
BRANCH   2   3
ATOM      3  O   UNL A   1      40.613  21.553  26.106  1.00  0.00    -0.460 OA
BRANCH   3   4
ATOM      4  C   UNL A   1      39.473  22.252  26.331  1.00  0.00     0.341 C 
ATOM      5  O   UNL A   1      39.434  23.321  26.871  1.00  0.00    -0.246 OA
BRANCH   4   6
ATOM      6  C   UNL A   1      38.270  21.633  25.757  1.00  0.00     0.101 A 
ATOM      7  C   UNL A   1      35.778  20.618  25.015  1.00  0.00     0.044 A 
ATOM      8  C   UNL A   1      35.917  21.857  25.595  1.00  0.00     0.027 A 
ATOM      9  C   UNL A   1      36.910  19.813  24.897  1.00  0.00     0.073 A 
ATOM     10  C   UNL A   1      37.141  22.435  25.801  1.00  0.00     0.022 A 
ATOM     11  C   UNL A   1      38.159  20.323  25.299  1.00  0.00     0.132 A 
BRANCH   7  12
ATOM     12  N   UNL A   1      34.477  20.245  24.640  1.00  0.00    -0.326 N 
ATOM     13  C   UNL A   1      33.450  21.133  24.320  1.00  0.00     0.226 C 
ATOM     14  O   UNL A   1      32.276  20.800  24.481  1.00  0.00    -0.275 OA
ATOM     15  H   UNL A   1      34.273  19.282  24.601  1.00  0.00     0.169 HD
BRANCH  13  16
ATOM     16  C   UNL A   1      33.815  22.443  23.574  1.00  0.00     0.125 C 
BRANCH  16  17
ATOM     17  C   UNL A   1      32.698  23.410  23.135  1.00  0.00     0.156 C 
ATOM     18  N   UNL A   1      32.720  25.492  24.364  1.00  0.00    -0.240 N 
ATOM     19  C   UNL A   1      31.772  24.838  25.093  1.00  0.00     0.293 C 
ATOM     20  C   UNL A   1      33.201  24.856  23.225  1.00  0.00     0.248 C 
ATOM     21  O   UNL A   1      31.298  25.129  26.177  1.00  0.00    -0.261 OA
ATOM     22  S   UNL A   1      31.192  23.518  24.148  1.00  0.00    -0.050 SA
ATOM     23  O   UNL A   1      33.943  25.348  22.383  1.00  0.00    -0.273 OA
BRANCH  18  24
ATOM     24  C   UNL A   1      32.801  26.884  24.565  1.00  0.00     0.056 A 
ATOM     25  C   UNL A   1      34.513  29.249  27.017  1.00  0.00     0.044 C 
ATOM     26  C   UNL A   1      33.616  28.714  25.941  1.00  0.00    -0.049 A 
ATOM     27  C   UNL A   1      32.692  29.564  25.324  1.00  0.00     0.004 A 
ATOM     28  C   UNL A   1      33.676  27.372  25.546  1.00  0.00     0.030 A 
ATOM     29  C   UNL A   1      31.803  29.075  24.367  1.00  0.00     0.006 A 
ATOM     30  C   UNL A   1      31.818  27.725  24.001  1.00  0.00    -0.027 A 
ATOM     31  C   UNL A   1      30.731  27.245  23.075  1.00  0.00     0.046 C 
ENDBRANCH  18  24
ENDBRANCH  16  17
ENDBRANCH  13  16
ENDBRANCH   7  12
BRANCH  11  32
ATOM     32  O   UNL A   1      39.240  19.490  25.223  1.00  0.00    -0.507 OA
ATOM     33  H   UNL A   1      39.797  19.514  24.470  1.00  0.00     0.293 HD
ENDBRANCH  11  32
ENDBRANCH   4   6
ENDBRANCH   3   4
ENDBRANCH   2   3
ENDBRANCH   1   2
BRANCH   1  34
ATOM     34  O   UNL A   1      42.179  19.638  25.979  1.00  0.00    -0.374 OA
BRANCH  34  35
ATOM     35  C   UNL A   1      43.081  18.596  25.679  1.00  0.00     0.202 C 
BRANCH  35  36
ATOM     36  C   UNL A   1      44.428  19.119  25.185  1.00  0.00     0.261 C 
BRANCH  36  37
ATOM     37  O   UNL A   1      44.367  20.271  24.299  1.00  0.00    -0.460 OA
BRANCH  37  38
ATOM     38  C   UNL A   1      45.175  21.341  24.571  1.00  0.00     0.338 C 
ATOM     39  O   UNL A   1      46.358  21.396  24.278  1.00  0.00    -0.246 OA
BRANCH  38  40
ATOM     40  C   UNL A   1      44.431  22.381  25.348  1.00  0.00     0.060 A 
ATOM     41  C   UNL A   1      43.529  23.244  24.706  1.00  0.00     0.016 A 
ATOM     42  C   UNL A   1      44.907  22.713  26.612  1.00  0.00     0.016 A 
ATOM     43  C   UNL A   1      43.287  24.527  25.247  1.00  0.00     0.010 A 
ATOM     44  C   UNL A   1      44.776  24.023  27.059  1.00  0.00     0.010 A 
ATOM     45  C   UNL A   1      44.011  24.982  26.370  1.00  0.00    -0.014 A 
BRANCH  45  46
ATOM     46  C   UNL A   1      43.672  26.213  27.167  1.00  0.00     0.031 A 
ATOM     47  C   UNL A   1      44.719  27.174  26.785  1.00  0.00     0.074 A 
ATOM     48  C   UNL A   1      42.692  26.589  28.054  1.00  0.00     0.049 A 
ATOM     49  N   UNL A   1      45.761  27.376  27.527  1.00  0.00    -0.248 NA
ATOM     50  C   UNL A   1      44.876  27.650  25.401  1.00  0.00     0.031 C 
ATOM     51  C   UNL A   1      41.760  25.777  28.814  1.00  0.00     0.029 A 
ATOM     52  N   UNL A   1      42.267  27.859  28.475  1.00  0.00    -0.354 N 
ATOM     53  C   UNL A   1      46.499  28.298  26.820  1.00  0.00     0.074 A 
ATOM     54  C   UNL A   1      46.113  28.153  25.444  1.00  0.00     0.031 C 
ATOM     55  C   UNL A   1      40.699  26.474  29.278  1.00  0.00     0.029 A 
ATOM     56  C   UNL A   1      40.952  27.880  29.049  1.00  0.00     0.049 A 
ATOM     57  H   UNL A   1      42.823  28.666  28.384  1.00  0.00     0.167 HD
ATOM     58  C   UNL A   1      46.902  29.407  27.492  1.00  0.00     0.037 A 
ATOM     59  C   UNL A   1      40.274  28.847  29.750  1.00  0.00     0.037 A 
ATOM     60  C   UNL A   1      46.871  29.177  28.920  1.00  0.00     0.049 A 
ATOM     61  C   UNL A   1      41.303  29.687  30.367  1.00  0.00     0.074 A 
ATOM     62  C   UNL A   1      47.581  28.396  29.810  1.00  0.00     0.029 A 
ATOM     63  N   UNL A   1      45.656  29.434  29.503  1.00  0.00    -0.354 N 
ATOM     64  N   UNL A   1      41.967  29.301  31.416  1.00  0.00    -0.248 NA
ATOM     65  C   UNL A   1      41.900  30.751  29.575  1.00  0.00     0.031 C 
ATOM     66  C   UNL A   1      46.731  28.167  30.930  1.00  0.00     0.029 A 
ATOM     67  C   UNL A   1      45.548  28.871  30.746  1.00  0.00     0.049 A 
ATOM     68  H   UNL A   1      44.944  29.962  29.076  1.00  0.00     0.167 HD
ATOM     69  C   UNL A   1      43.253  29.698  31.124  1.00  0.00     0.074 A 
ATOM     70  C   UNL A   1      43.129  30.727  30.096  1.00  0.00     0.031 C 
ATOM     71  C   UNL A   1      44.301  28.901  31.467  1.00  0.00     0.037 A 
BRANCH  58  72
ATOM     72  C   UNL A   1      46.772  30.789  26.908  1.00  0.00     0.064 A 
ATOM     73  C   UNL A   1      47.896  31.626  26.915  1.00  0.00     0.173 A 
ATOM     74  C   UNL A   1      45.545  31.421  26.588  1.00  0.00     0.173 A 
ATOM     75  F   UNL A   1      49.098  31.143  27.265  1.00  0.00    -0.203 F 
ATOM     76  C   UNL A   1      47.795  32.991  26.635  1.00  0.00     0.198 A 
ATOM     77  C   UNL A   1      45.456  32.764  26.248  1.00  0.00     0.198 A 
ATOM     78  F   UNL A   1      44.362  30.811  26.706  1.00  0.00    -0.203 F 
ATOM     79  F   UNL A   1      48.875  33.773  26.750  1.00  0.00    -0.200 F 
ATOM     80  C   UNL A   1      46.578  33.557  26.293  1.00  0.00     0.200 A 
ATOM     81  F   UNL A   1      44.257  33.291  25.959  1.00  0.00    -0.200 F 
ATOM     82  F   UNL A   1      46.473  34.870  26.061  1.00  0.00    -0.200 F 
ENDBRANCH  58  72
BRANCH  59  83
ATOM     83  C   UNL A   1      38.824  29.242  29.816  1.00  0.00     0.064 A 
ATOM     84  C   UNL A   1      38.082  29.230  31.011  1.00  0.00     0.173 A 
ATOM     85  C   UNL A   1      38.214  29.932  28.771  1.00  0.00     0.173 A 
ATOM     86  F   UNL A   1      38.476  28.470  32.043  1.00  0.00    -0.203 F 
ATOM     87  C   UNL A   1      36.933  30.022  31.187  1.00  0.00     0.198 A 
ATOM     88  C   UNL A   1      37.152  30.826  28.965  1.00  0.00     0.198 A 
ATOM     89  F   UNL A   1      38.595  29.653  27.527  1.00  0.00    -0.203 F 
ATOM     90  F   UNL A   1      36.257  29.980  32.344  1.00  0.00    -0.200 F 
ATOM     91  C   UNL A   1      36.523  30.888  30.190  1.00  0.00     0.200 A 
ATOM     92  F   UNL A   1      36.760  31.638  27.971  1.00  0.00    -0.200 F 
ATOM     93  F   UNL A   1      35.516  31.749  30.398  1.00  0.00    -0.200 F 
ENDBRANCH  59  83
BRANCH  71  94
ATOM     94  C   UNL A   1      44.100  27.961  32.615  1.00  0.00     0.064 A 
ATOM     95  C   UNL A   1      43.944  28.341  33.956  1.00  0.00     0.173 A 
ATOM     96  C   UNL A   1      44.010  26.596  32.317  1.00  0.00     0.173 A 
ATOM     97  F   UNL A   1      43.970  29.629  34.316  1.00  0.00    -0.203 F 
ATOM     98  C   UNL A   1      43.722  27.391  34.955  1.00  0.00     0.198 A 
ATOM     99  C   UNL A   1      43.762  25.653  33.307  1.00  0.00     0.198 A 
ATOM    100  F   UNL A   1      44.135  26.180  31.047  1.00  0.00    -0.203 F 
ATOM    101  F   UNL A   1      43.582  27.777  36.233  1.00  0.00    -0.200 F 
ATOM    102  C   UNL A   1      43.625  26.049  34.626  1.00  0.00     0.200 A 
ATOM    103  F   UNL A   1      43.638  24.361  32.976  1.00  0.00    -0.200 F 
ATOM    104  F   UNL A   1      43.383  25.137  35.579  1.00  0.00    -0.200 F 
ENDBRANCH  71  94
ENDBRANCH  45  46
ENDBRANCH  38  40
ENDBRANCH  37  38
ENDBRANCH  36  37
ENDBRANCH  35  36
ENDBRANCH  34  35
ENDBRANCH   1  34
TORSDOF 19
ENDMDL
