MODEL 1
REMARK VINA RESULT:     -11.7      0.000      0.000
REMARK SMILES O=C(OCCOCCOC(=O)[C@@H]1[C@@H](C(=O)N2CC[NH+](C/C=C/c3ccccc3)CC2)[C@@H]2C=C[C@H]1C2)c1ccc(-c2c3nc(c(-c4c(F)c(F)c(F)c(F)c4F)c4ccc([nH]4)c(-c4c(F)c(F)c(F)c(F)c4F)c4nc(c(-c5c(F)c(F)c(F)c(F)c5F)c5ccc2[nH]5)C=C4)C=C3)cc1
REMARK SMILES IDX 7 1 6 2 5 3 4 4 3 5 2 6 1 7 36 8 37 9 98 10 38 11 97 12
REMARK SMILES IDX 39 13 40 14 41 15 91 16 42 17 96 18 90 19 92 20 43 21 95 22
REMARK SMILES IDX 89 23 88 24 44 26 76 27 56 28 75 29 57 30 60 31 74 32 93 33
REMARK SMILES IDX 58 34 59 35 73 37 94 38 61 39 45 40 46 41 54 42 47 43 48 44
REMARK SMILES IDX 52 45 55 46 49 47 50 48 53 49 51 50 77 51 78 52 86 53 79 54
REMARK SMILES IDX 80 55 84 56 87 57 81 58 82 59 85 60 83 61 62 62 63 63 71 64
REMARK SMILES IDX 64 65 65 66 69 67 72 68 66 69 67 70 70 71 68 72 8 73 9 74
REMARK SMILES IDX 10 75 11 76 12 77 13 78 34 79 31 80 33 81 35 82 32 83 14 84
REMARK SMILES IDX 15 85 16 86 17 87 30 88 18 89 29 90 19 91 20 93 21 94 22 95
REMARK SMILES IDX 23 96 24 97 28 98 25 99 27 100 26 101
REMARK H PARENT 92 25 60 36 19 92
REMARK Flexibility Score: inf
ROOT
ATOM      1  C   UNL A   1      37.095  22.712  25.536  1.00  0.00     0.202 C 
ENDROOT
BRANCH   1   2
ATOM      2  O   UNL A   1      37.567  21.417  25.182  1.00  0.00    -0.374 OA
BRANCH   2   3
ATOM      3  C   UNL A   1      38.826  21.069  25.758  1.00  0.00     0.202 C 
BRANCH   3   4
ATOM      4  C   UNL A   1      39.335  19.681  25.375  1.00  0.00     0.261 C 
BRANCH   4   5
ATOM      5  O   UNL A   1      40.415  19.294  26.228  1.00  0.00    -0.460 OA
BRANCH   5   6
ATOM      6  C   UNL A   1      41.717  19.629  26.019  1.00  0.00     0.338 C 
ATOM      7  O   UNL A   1      42.449  18.874  25.402  1.00  0.00    -0.246 OA
BRANCH   6   8
ATOM      8  C   UNL A   1      42.232  20.980  26.393  1.00  0.00     0.060 A 
ATOM      9  C   UNL A   1      42.507  22.008  25.489  1.00  0.00     0.016 A 
ATOM     10  C   UNL A   1      42.374  21.242  27.763  1.00  0.00     0.016 A 
ATOM     11  C   UNL A   1      42.967  23.238  25.906  1.00  0.00     0.010 A 
ATOM     12  C   UNL A   1      42.778  22.504  28.201  1.00  0.00     0.010 A 
ATOM     13  C   UNL A   1      43.072  23.501  27.264  1.00  0.00    -0.014 A 
BRANCH  13  14
ATOM     14  C   UNL A   1      43.549  24.834  27.647  1.00  0.00     0.031 A 
ATOM     15  C   UNL A   1      42.549  25.831  28.120  1.00  0.00     0.074 A 
ATOM     16  C   UNL A   1      44.875  25.056  27.693  1.00  0.00     0.049 A 
ATOM     17  N   UNL A   1      42.715  27.091  28.407  1.00  0.00    -0.248 NA
ATOM     18  C   UNL A   1      41.172  25.341  28.309  1.00  0.00     0.031 C 
ATOM     19  C   UNL A   1      45.909  24.059  27.392  1.00  0.00     0.029 A 
ATOM     20  N   UNL A   1      45.583  26.170  28.046  1.00  0.00    -0.354 N 
ATOM     21  C   UNL A   1      41.457  27.558  28.758  1.00  0.00     0.074 A 
ATOM     22  C   UNL A   1      40.539  26.446  28.672  1.00  0.00     0.031 C 
ATOM     23  C   UNL A   1      47.118  24.604  27.594  1.00  0.00     0.029 A 
ATOM     24  C   UNL A   1      46.943  26.007  27.940  1.00  0.00     0.049 A 
ATOM     25  H   UNL A   1      45.160  27.008  28.345  1.00  0.00     0.167 HD
ATOM     26  C   UNL A   1      41.120  28.822  29.097  1.00  0.00     0.037 A 
ATOM     27  C   UNL A   1      47.923  26.921  28.054  1.00  0.00     0.037 A 
ATOM     28  C   UNL A   1      42.082  29.887  29.177  1.00  0.00     0.049 A 
ATOM     29  C   UNL A   1      47.507  28.336  28.345  1.00  0.00     0.074 A 
ATOM     30  C   UNL A   1      41.877  31.227  29.437  1.00  0.00     0.029 A 
ATOM     31  N   UNL A   1      43.451  29.713  29.000  1.00  0.00    -0.354 N 
ATOM     32  N   UNL A   1      46.305  28.812  28.577  1.00  0.00    -0.248 NA
ATOM     33  C   UNL A   1      48.569  29.346  28.364  1.00  0.00     0.031 C 
ATOM     34  C   UNL A   1      43.118  31.871  29.375  1.00  0.00     0.029 A 
ATOM     35  C   UNL A   1      44.103  30.924  29.130  1.00  0.00     0.049 A 
ATOM     36  H   UNL A   1      43.891  28.853  28.809  1.00  0.00     0.167 HD
ATOM     37  C   UNL A   1      46.464  30.173  28.781  1.00  0.00     0.074 A 
ATOM     38  C   UNL A   1      47.886  30.441  28.672  1.00  0.00     0.031 C 
ATOM     39  C   UNL A   1      45.528  31.123  29.026  1.00  0.00     0.037 A 
BRANCH  26  40
ATOM     40  C   UNL A   1      39.665  29.113  29.304  1.00  0.00     0.064 A 
ATOM     41  C   UNL A   1      39.068  29.082  30.571  1.00  0.00     0.173 A 
ATOM     42  C   UNL A   1      38.847  29.399  28.199  1.00  0.00     0.173 A 
ATOM     43  F   UNL A   1      39.797  28.778  31.655  1.00  0.00    -0.203 F 
ATOM     44  C   UNL A   1      37.699  29.306  30.724  1.00  0.00     0.198 A 
ATOM     45  C   UNL A   1      37.487  29.647  28.358  1.00  0.00     0.198 A 
ATOM     46  F   UNL A   1      39.366  29.425  26.963  1.00  0.00    -0.203 F 
ATOM     47  F   UNL A   1      37.139  29.217  31.938  1.00  0.00    -0.200 F 
ATOM     48  C   UNL A   1      36.913  29.593  29.619  1.00  0.00     0.200 A 
ATOM     49  F   UNL A   1      36.728  29.923  27.288  1.00  0.00    -0.200 F 
ATOM     50  F   UNL A   1      35.597  29.803  29.767  1.00  0.00    -0.200 F 
ENDBRANCH  26  40
BRANCH  27  51
ATOM     51  C   UNL A   1      49.344  26.549  27.809  1.00  0.00     0.064 A 
ATOM     52  C   UNL A   1      50.240  26.358  28.869  1.00  0.00     0.173 A 
ATOM     53  C   UNL A   1      49.843  26.398  26.505  1.00  0.00     0.173 A 
ATOM     54  F   UNL A   1      49.823  26.508  30.135  1.00  0.00    -0.203 F 
ATOM     55  C   UNL A   1      51.582  26.057  28.635  1.00  0.00     0.198 A 
ATOM     56  C   UNL A   1      51.175  26.062  26.273  1.00  0.00     0.198 A 
ATOM     57  F   UNL A   1      49.035  26.571  25.449  1.00  0.00    -0.203 F 
ATOM     58  F   UNL A   1      52.429  25.937  29.666  1.00  0.00    -0.200 F 
ATOM     59  C   UNL A   1      52.047  25.904  27.337  1.00  0.00     0.200 A 
ATOM     60  F   UNL A   1      51.615  25.900  25.016  1.00  0.00    -0.200 F 
ATOM     61  F   UNL A   1      53.337  25.617  27.114  1.00  0.00    -0.200 F 
ENDBRANCH  27  51
BRANCH  39  62
ATOM     62  C   UNL A   1      46.031  32.518  29.231  1.00  0.00     0.064 A 
ATOM     63  C   UNL A   1      46.424  32.977  30.496  1.00  0.00     0.173 A 
ATOM     64  C   UNL A   1      46.163  33.385  28.138  1.00  0.00     0.173 A 
ATOM     65  F   UNL A   1      46.297  32.185  31.571  1.00  0.00    -0.203 F 
ATOM     66  C   UNL A   1      46.913  34.268  30.661  1.00  0.00     0.198 A 
ATOM     67  C   UNL A   1      46.683  34.663  28.303  1.00  0.00     0.198 A 
ATOM     68  F   UNL A   1      45.805  32.984  26.908  1.00  0.00    -0.203 F 
ATOM     69  F   UNL A   1      47.239  34.705  31.885  1.00  0.00    -0.200 F 
ATOM     70  C   UNL A   1      47.050  35.106  29.564  1.00  0.00     0.200 A 
ATOM     71  F   UNL A   1      46.828  35.467  27.239  1.00  0.00    -0.200 F 
ATOM     72  F   UNL A   1      47.532  36.346  29.725  1.00  0.00    -0.200 F 
ENDBRANCH  39  62
ENDBRANCH  13  14
ENDBRANCH   6   8
ENDBRANCH   5   6
ENDBRANCH   4   5
ENDBRANCH   3   4
ENDBRANCH   2   3
ENDBRANCH   1   2
BRANCH   1  73
ATOM     73  C   UNL A   1      36.525  23.455  24.326  1.00  0.00     0.261 C 
BRANCH  73  74
ATOM     74  O   UNL A   1      35.319  24.174  24.673  1.00  0.00    -0.463 OA
BRANCH  74  75
ATOM     75  C   UNL A   1      34.285  24.020  23.798  1.00  0.00     0.310 C 
ATOM     76  O   UNL A   1      34.392  24.103  22.580  1.00  0.00    -0.252 OA
BRANCH  75  77
ATOM     77  C   UNL A   1      32.956  23.845  24.512  1.00  0.00     0.119 C 
ATOM     78  C   UNL A   1      32.897  24.200  26.045  1.00  0.00     0.100 C 
ATOM     79  C   UNL A   1      32.528  22.353  24.515  1.00  0.00     0.027 C 
ATOM     80  C   UNL A   1      32.331  22.904  26.674  1.00  0.00     0.025 C 
ATOM     81  C   UNL A   1      33.542  21.531  25.285  1.00  0.00    -0.027 C 
ATOM     82  C   UNL A   1      31.416  22.379  25.565  1.00  0.00     0.017 C 
ATOM     83  C   UNL A   1      33.424  21.857  26.580  1.00  0.00    -0.027 C 
BRANCH  78  84
ATOM     84  C   UNL A   1      32.078  25.450  26.312  1.00  0.00     0.227 C 
ATOM     85  O   UNL A   1      30.988  25.402  26.877  1.00  0.00    -0.275 OA
ATOM     86  N   UNL A   1      32.564  26.632  25.733  1.00  0.00    -0.331 N 
ATOM     87  C   UNL A   1      33.753  27.276  26.313  1.00  0.00     0.181 C 
ATOM     88  C   UNL A   1      31.523  27.516  25.211  1.00  0.00     0.181 C 
ATOM     89  C   UNL A   1      34.134  28.657  25.726  1.00  0.00     0.284 C 
ATOM     90  C   UNL A   1      32.031  28.813  24.568  1.00  0.00     0.284 C 
ATOM     91  N   UNL A   1      33.032  29.548  25.344  1.00  0.00    -0.329 N 
ATOM     92  H   UNL A   1      33.428  30.255  24.724  1.00  0.00     0.348 HD
BRANCH  91  93
ATOM     93  C   UNL A   1      32.510  30.416  26.405  1.00  0.00     0.291 C 
BRANCH  93  94
ATOM     94  C   UNL A   1      33.506  30.935  27.394  1.00  0.00     0.034 C 
ATOM     95  C   UNL A   1      33.615  32.214  27.785  1.00  0.00     0.009 C 
BRANCH  95  96
ATOM     96  C   UNL A   1      34.748  32.692  28.591  1.00  0.00    -0.026 A 
ATOM     97  C   UNL A   1      35.971  33.004  27.994  1.00  0.00     0.008 A 
ATOM     98  C   UNL A   1      34.655  32.729  29.991  1.00  0.00     0.008 A 
ATOM     99  C   UNL A   1      37.076  33.339  28.786  1.00  0.00     0.001 A 
ATOM    100  C   UNL A   1      35.757  33.044  30.782  1.00  0.00     0.001 A 
ATOM    101  C   UNL A   1      36.971  33.347  30.178  1.00  0.00     0.000 A 
ENDBRANCH  95  96
ENDBRANCH  93  94
ENDBRANCH  91  93
ENDBRANCH  78  84
ENDBRANCH  75  77
ENDBRANCH  74  75
ENDBRANCH  73  74
ENDBRANCH   1  73
TORSDOF 18
ENDMDL
MODEL 2
REMARK VINA RESULT:     -11.6      4.742     10.706
REMARK SMILES O=C(OCCOCCOC(=O)[C@@H]1[C@@H](C(=O)N2CC[NH+](C/C=C/c3ccccc3)CC2)[C@@H]2C=C[C@H]1C2)c1ccc(-c2c3nc(c(-c4c(F)c(F)c(F)c(F)c4F)c4ccc([nH]4)c(-c4c(F)c(F)c(F)c(F)c4F)c4nc(c(-c5c(F)c(F)c(F)c(F)c5F)c5ccc2[nH]5)C=C4)C=C3)cc1
REMARK SMILES IDX 7 1 6 2 5 3 4 4 3 5 2 6 1 7 36 8 37 9 98 10 38 11 97 12
REMARK SMILES IDX 39 13 40 14 41 15 91 16 42 17 96 18 90 19 92 20 43 21 95 22
REMARK SMILES IDX 89 23 88 24 44 26 76 27 56 28 75 29 57 30 60 31 74 32 93 33
REMARK SMILES IDX 58 34 59 35 73 37 94 38 61 39 45 40 46 41 54 42 47 43 48 44
REMARK SMILES IDX 52 45 55 46 49 47 50 48 53 49 51 50 77 51 78 52 86 53 79 54
REMARK SMILES IDX 80 55 84 56 87 57 81 58 82 59 85 60 83 61 62 62 63 63 71 64
REMARK SMILES IDX 64 65 65 66 69 67 72 68 66 69 67 70 70 71 68 72 8 73 9 74
REMARK SMILES IDX 10 75 11 76 12 77 13 78 34 79 31 80 33 81 35 82 32 83 14 84
REMARK SMILES IDX 15 85 16 86 17 87 30 88 18 89 29 90 19 91 20 93 21 94 22 95
REMARK SMILES IDX 23 96 24 97 28 98 25 99 27 100 26 101
REMARK H PARENT 92 25 60 36 19 92
REMARK Flexibility Score: inf
ROOT
ATOM      1  C   UNL A   1      33.313  29.645  26.403  1.00  0.00     0.202 C 
ENDROOT
BRANCH   1   2
ATOM      2  O   UNL A   1      33.119  30.679  27.362  1.00  0.00    -0.374 OA
BRANCH   2   3
ATOM      3  C   UNL A   1      32.038  31.563  27.067  1.00  0.00     0.202 C 
BRANCH   3   4
ATOM      4  C   UNL A   1      32.454  33.011  26.815  1.00  0.00     0.261 C 
BRANCH   4   5
ATOM      5  O   UNL A   1      32.129  33.826  27.943  1.00  0.00    -0.460 OA
BRANCH   5   6
ATOM      6  C   UNL A   1      33.024  34.600  28.615  1.00  0.00     0.338 C 
ATOM      7  O   UNL A   1      32.780  35.776  28.817  1.00  0.00    -0.246 OA
BRANCH   6   8
ATOM      8  C   UNL A   1      34.233  33.999  29.252  1.00  0.00     0.060 A 
ATOM      9  C   UNL A   1      35.547  34.409  29.014  1.00  0.00     0.016 A 
ATOM     10  C   UNL A   1      34.010  33.001  30.211  1.00  0.00     0.016 A 
ATOM     11  C   UNL A   1      36.618  33.818  29.649  1.00  0.00     0.010 A 
ATOM     12  C   UNL A   1      35.081  32.440  30.907  1.00  0.00     0.010 A 
ATOM     13  C   UNL A   1      36.387  32.856  30.621  1.00  0.00    -0.014 A 
BRANCH  13  14
ATOM     14  C   UNL A   1      37.565  32.278  31.275  1.00  0.00     0.031 A 
ATOM     15  C   UNL A   1      38.370  31.275  30.522  1.00  0.00     0.074 A 
ATOM     16  C   UNL A   1      37.954  32.777  32.463  1.00  0.00     0.049 A 
ATOM     17  N   UNL A   1      39.377  30.556  30.927  1.00  0.00    -0.248 NA
ATOM     18  C   UNL A   1      37.996  31.060  29.113  1.00  0.00     0.031 C 
ATOM     19  C   UNL A   1      37.290  33.875  33.175  1.00  0.00     0.029 A 
ATOM     20  N   UNL A   1      39.015  32.458  33.262  1.00  0.00    -0.354 N 
ATOM     21  C   UNL A   1      39.725  29.764  29.842  1.00  0.00     0.074 A 
ATOM     22  C   UNL A   1      38.839  30.103  28.753  1.00  0.00     0.031 C 
ATOM     23  C   UNL A   1      37.975  34.152  34.295  1.00  0.00     0.029 A 
ATOM     24  C   UNL A   1      39.059  33.189  34.425  1.00  0.00     0.049 A 
ATOM     25  H   UNL A   1      39.682  31.773  33.029  1.00  0.00     0.167 HD
ATOM     26  C   UNL A   1      40.693  28.823  29.795  1.00  0.00     0.037 A 
ATOM     27  C   UNL A   1      39.858  33.040  35.496  1.00  0.00     0.037 A 
ATOM     28  C   UNL A   1      41.554  28.538  30.910  1.00  0.00     0.049 A 
ATOM     29  C   UNL A   1      40.867  31.926  35.446  1.00  0.00     0.074 A 
ATOM     30  C   UNL A   1      42.527  27.567  31.032  1.00  0.00     0.029 A 
ATOM     31  N   UNL A   1      41.536  29.247  32.107  1.00  0.00    -0.354 N 
ATOM     32  N   UNL A   1      41.135  31.099  34.462  1.00  0.00    -0.248 NA
ATOM     33  C   UNL A   1      41.663  31.700  36.656  1.00  0.00     0.031 C 
ATOM     34  C   UNL A   1      43.070  27.662  32.318  1.00  0.00     0.029 A 
ATOM     35  C   UNL A   1      42.472  28.727  32.980  1.00  0.00     0.049 A 
ATOM     36  H   UNL A   1      40.943  30.008  32.304  1.00  0.00     0.167 HD
ATOM     37  C   UNL A   1      42.138  30.263  34.925  1.00  0.00     0.074 A 
ATOM     38  C   UNL A   1      42.448  30.703  36.274  1.00  0.00     0.031 C 
ATOM     39  C   UNL A   1      42.746  29.220  34.307  1.00  0.00     0.037 A 
BRANCH  26  40
ATOM     40  C   UNL A   1      40.790  27.999  28.547  1.00  0.00     0.064 A 
ATOM     41  C   UNL A   1      40.047  26.824  28.367  1.00  0.00     0.173 A 
ATOM     42  C   UNL A   1      41.671  28.382  27.524  1.00  0.00     0.173 A 
ATOM     43  F   UNL A   1      39.217  26.393  29.329  1.00  0.00    -0.203 F 
ATOM     44  C   UNL A   1      40.200  26.050  27.216  1.00  0.00     0.198 A 
ATOM     45  C   UNL A   1      41.802  27.622  26.366  1.00  0.00     0.198 A 
ATOM     46  F   UNL A   1      42.416  29.490  27.654  1.00  0.00    -0.203 F 
ATOM     47  F   UNL A   1      39.522  24.901  27.089  1.00  0.00    -0.200 F 
ATOM     48  C   UNL A   1      41.072  26.452  26.216  1.00  0.00     0.200 A 
ATOM     49  F   UNL A   1      42.647  28.012  25.402  1.00  0.00    -0.200 F 
ATOM     50  F   UNL A   1      41.221  25.705  25.114  1.00  0.00    -0.200 F 
ENDBRANCH  26  40
BRANCH  27  51
ATOM     51  C   UNL A   1      39.677  33.889  36.705  1.00  0.00     0.064 A 
ATOM     52  C   UNL A   1      38.869  33.476  37.773  1.00  0.00     0.173 A 
ATOM     53  C   UNL A   1      40.293  35.148  36.810  1.00  0.00     0.173 A 
ATOM     54  F   UNL A   1      38.240  32.292  37.718  1.00  0.00    -0.203 F 
ATOM     55  C   UNL A   1      38.663  34.296  38.882  1.00  0.00     0.198 A 
ATOM     56  C   UNL A   1      40.116  35.950  37.936  1.00  0.00     0.198 A 
ATOM     57  F   UNL A   1      41.076  35.600  35.820  1.00  0.00    -0.203 F 
ATOM     58  F   UNL A   1      37.838  33.899  39.861  1.00  0.00    -0.200 F 
ATOM     59  C   UNL A   1      39.291  35.530  38.965  1.00  0.00     0.200 A 
ATOM     60  F   UNL A   1      40.738  37.135  38.016  1.00  0.00    -0.200 F 
ATOM     61  F   UNL A   1      39.090  36.317  40.031  1.00  0.00    -0.200 F 
ENDBRANCH  27  51
BRANCH  39  62
ATOM     62  C   UNL A   1      43.826  28.526  35.076  1.00  0.00     0.064 A 
ATOM     63  C   UNL A   1      43.548  27.427  35.903  1.00  0.00     0.173 A 
ATOM     64  C   UNL A   1      45.158  28.940  34.945  1.00  0.00     0.173 A 
ATOM     65  F   UNL A   1      42.284  27.011  36.069  1.00  0.00    -0.203 F 
ATOM     66  C   UNL A   1      44.569  26.780  36.588  1.00  0.00     0.198 A 
ATOM     67  C   UNL A   1      46.180  28.270  35.607  1.00  0.00     0.198 A 
ATOM     68  F   UNL A   1      45.469  29.983  34.160  1.00  0.00    -0.203 F 
ATOM     69  F   UNL A   1      44.280  25.762  37.410  1.00  0.00    -0.200 F 
ATOM     70  C   UNL A   1      45.884  27.196  36.433  1.00  0.00     0.200 A 
ATOM     71  F   UNL A   1      47.451  28.663  35.445  1.00  0.00    -0.200 F 
ATOM     72  F   UNL A   1      46.867  26.563  37.087  1.00  0.00    -0.200 F 
ENDBRANCH  39  62
ENDBRANCH  13  14
ENDBRANCH   6   8
ENDBRANCH   5   6
ENDBRANCH   4   5
ENDBRANCH   3   4
ENDBRANCH   2   3
ENDBRANCH   1   2
BRANCH   1  73
ATOM     73  C   UNL A   1      33.582  28.297  27.075  1.00  0.00     0.261 C 
BRANCH  73  74
ATOM     74  O   UNL A   1      33.547  27.217  26.114  1.00  0.00    -0.463 OA
BRANCH  74  75
ATOM     75  C   UNL A   1      32.374  26.522  26.071  1.00  0.00     0.310 C 
ATOM     76  O   UNL A   1      31.633  26.359  27.033  1.00  0.00    -0.252 OA
BRANCH  75  77
ATOM     77  C   UNL A   1      32.146  25.873  24.718  1.00  0.00     0.119 C 
ATOM     78  C   UNL A   1      33.276  26.028  23.632  1.00  0.00     0.100 C 
ATOM     79  C   UNL A   1      30.928  26.515  24.001  1.00  0.00     0.027 C 
ATOM     80  C   UNL A   1      32.510  26.618  22.424  1.00  0.00     0.025 C 
ATOM     81  C   UNL A   1      31.205  27.981  23.735  1.00  0.00    -0.027 C 
ATOM     82  C   UNL A   1      31.125  25.987  22.580  1.00  0.00     0.017 C 
ATOM     83  C   UNL A   1      32.150  28.046  22.787  1.00  0.00    -0.027 C 
BRANCH  78  84
ATOM     84  C   UNL A   1      33.989  24.716  23.357  1.00  0.00     0.227 C 
ATOM     85  O   UNL A   1      34.075  24.250  22.224  1.00  0.00    -0.275 OA
ATOM     86  N   UNL A   1      34.398  23.996  24.490  1.00  0.00    -0.331 N 
ATOM     87  C   UNL A   1      35.554  24.474  25.263  1.00  0.00     0.181 C 
ATOM     88  C   UNL A   1      34.237  22.547  24.369  1.00  0.00     0.181 C 
ATOM     89  C   UNL A   1      36.046  23.544  26.400  1.00  0.00     0.284 C 
ATOM     90  C   UNL A   1      34.672  21.739  25.599  1.00  0.00     0.284 C 
ATOM     91  N   UNL A   1      35.977  22.099  26.157  1.00  0.00    -0.329 N 
ATOM     92  H   UNL A   1      36.046  21.644  27.068  1.00  0.00     0.348 HD
BRANCH  91  93
ATOM     93  C   UNL A   1      37.143  21.501  25.496  1.00  0.00     0.291 C 
BRANCH  93  94
ATOM     94  C   UNL A   1      38.482  22.053  25.877  1.00  0.00     0.034 C 
ATOM     95  C   UNL A   1      39.603  21.332  26.025  1.00  0.00     0.009 C 
BRANCH  95  96
ATOM     96  C   UNL A   1      40.828  21.899  26.607  1.00  0.00    -0.026 A 
ATOM     97  C   UNL A   1      40.877  22.266  27.953  1.00  0.00     0.008 A 
ATOM     98  C   UNL A   1      41.930  22.192  25.790  1.00  0.00     0.008 A 
ATOM     99  C   UNL A   1      42.006  22.918  28.464  1.00  0.00     0.001 A 
ATOM    100  C   UNL A   1      43.047  22.857  26.290  1.00  0.00     0.001 A 
ATOM    101  C   UNL A   1      43.084  23.223  27.630  1.00  0.00     0.000 A 
ENDBRANCH  95  96
ENDBRANCH  93  94
ENDBRANCH  91  93
ENDBRANCH  78  84
ENDBRANCH  75  77
ENDBRANCH  74  75
ENDBRANCH  73  74
ENDBRANCH   1  73
TORSDOF 18
ENDMDL
MODEL 3
REMARK VINA RESULT:     -11.5      4.922     10.879
REMARK SMILES O=C(OCCOCCOC(=O)[C@@H]1[C@@H](C(=O)N2CC[NH+](C/C=C/c3ccccc3)CC2)[C@@H]2C=C[C@H]1C2)c1ccc(-c2c3nc(c(-c4c(F)c(F)c(F)c(F)c4F)c4ccc([nH]4)c(-c4c(F)c(F)c(F)c(F)c4F)c4nc(c(-c5c(F)c(F)c(F)c(F)c5F)c5ccc2[nH]5)C=C4)C=C3)cc1
REMARK SMILES IDX 7 1 6 2 5 3 4 4 3 5 2 6 1 7 36 8 37 9 98 10 38 11 97 12
REMARK SMILES IDX 39 13 40 14 41 15 91 16 42 17 96 18 90 19 92 20 43 21 95 22
REMARK SMILES IDX 89 23 88 24 44 26 76 27 56 28 75 29 57 30 60 31 74 32 93 33
REMARK SMILES IDX 58 34 59 35 73 37 94 38 61 39 45 40 46 41 54 42 47 43 48 44
REMARK SMILES IDX 52 45 55 46 49 47 50 48 53 49 51 50 77 51 78 52 86 53 79 54
REMARK SMILES IDX 80 55 84 56 87 57 81 58 82 59 85 60 83 61 62 62 63 63 71 64
REMARK SMILES IDX 64 65 65 66 69 67 72 68 66 69 67 70 70 71 68 72 8 73 9 74
REMARK SMILES IDX 10 75 11 76 12 77 13 78 34 79 31 80 33 81 35 82 32 83 14 84
REMARK SMILES IDX 15 85 16 86 17 87 30 88 18 89 29 90 19 91 20 93 21 94 22 95
REMARK SMILES IDX 23 96 24 97 28 98 25 99 27 100 26 101
REMARK H PARENT 92 25 60 36 19 92
REMARK Flexibility Score: inf
ROOT
ATOM      1  C   UNL A   1      33.923  29.668  27.109  1.00  0.00     0.202 C 
ENDROOT
BRANCH   1   2
ATOM      2  O   UNL A   1      33.561  30.878  27.766  1.00  0.00    -0.374 OA
BRANCH   2   3
ATOM      3  C   UNL A   1      32.394  31.510  27.240  1.00  0.00     0.202 C 
BRANCH   3   4
ATOM      4  C   UNL A   1      32.585  32.976  26.860  1.00  0.00     0.261 C 
BRANCH   4   5
ATOM      5  O   UNL A   1      32.167  33.827  27.930  1.00  0.00    -0.460 OA
BRANCH   5   6
ATOM      6  C   UNL A   1      33.003  34.620  28.653  1.00  0.00     0.338 C 
ATOM      7  O   UNL A   1      32.732  35.796  28.823  1.00  0.00    -0.246 OA
BRANCH   6   8
ATOM      8  C   UNL A   1      34.171  34.041  29.381  1.00  0.00     0.060 A 
ATOM      9  C   UNL A   1      34.084  33.096  30.406  1.00  0.00     0.016 A 
ATOM     10  C   UNL A   1      35.444  34.431  28.940  1.00  0.00     0.016 A 
ATOM     11  C   UNL A   1      35.207  32.592  31.026  1.00  0.00     0.010 A 
ATOM     12  C   UNL A   1      36.589  33.880  29.517  1.00  0.00     0.010 A 
ATOM     13  C   UNL A   1      36.462  32.957  30.561  1.00  0.00    -0.014 A 
BRANCH  13  14
ATOM     14  C   UNL A   1      37.619  32.373  31.248  1.00  0.00     0.031 A 
ATOM     15  C   UNL A   1      38.427  31.351  30.525  1.00  0.00     0.074 A 
ATOM     16  C   UNL A   1      37.988  32.882  32.438  1.00  0.00     0.049 A 
ATOM     17  N   UNL A   1      39.417  30.626  30.960  1.00  0.00    -0.248 NA
ATOM     18  C   UNL A   1      38.082  31.123  29.111  1.00  0.00     0.031 C 
ATOM     19  C   UNL A   1      37.322  33.997  33.122  1.00  0.00     0.029 A 
ATOM     20  N   UNL A   1      39.028  32.561  33.264  1.00  0.00    -0.354 N 
ATOM     21  C   UNL A   1      39.779  29.816  29.894  1.00  0.00     0.074 A 
ATOM     22  C   UNL A   1      38.921  30.152  28.781  1.00  0.00     0.031 C 
ATOM     23  C   UNL A   1      37.986  34.279  34.253  1.00  0.00     0.029 A 
ATOM     24  C   UNL A   1      39.055  33.305  34.418  1.00  0.00     0.049 A 
ATOM     25  H   UNL A   1      39.691  31.865  33.053  1.00  0.00     0.167 HD
ATOM     26  C   UNL A   1      40.736  28.863  29.878  1.00  0.00     0.037 A 
ATOM     27  C   UNL A   1      39.829  33.160  35.509  1.00  0.00     0.037 A 
ATOM     28  C   UNL A   1      41.569  28.581  31.016  1.00  0.00     0.049 A 
ATOM     29  C   UNL A   1      40.825  32.033  35.494  1.00  0.00     0.074 A 
ATOM     30  C   UNL A   1      42.528  27.601  31.170  1.00  0.00     0.029 A 
ATOM     31  N   UNL A   1      41.534  29.305  32.203  1.00  0.00    -0.354 N 
ATOM     32  N   UNL A   1      41.105  31.191  34.526  1.00  0.00    -0.248 NA
ATOM     33  C   UNL A   1      41.592  31.813  36.724  1.00  0.00     0.031 C 
ATOM     34  C   UNL A   1      43.044  27.705  32.467  1.00  0.00     0.029 A 
ATOM     35  C   UNL A   1      42.445  28.785  33.103  1.00  0.00     0.049 A 
ATOM     36  H   UNL A   1      40.946  30.076  32.378  1.00  0.00     0.167 HD
ATOM     37  C   UNL A   1      42.087  30.349  35.021  1.00  0.00     0.074 A 
ATOM     38  C   UNL A   1      42.373  30.802  36.371  1.00  0.00     0.031 C 
ATOM     39  C   UNL A   1      42.695  29.291  34.430  1.00  0.00     0.037 A 
BRANCH  26  40
ATOM     40  C   UNL A   1      40.850  28.023  28.644  1.00  0.00     0.064 A 
ATOM     41  C   UNL A   1      41.752  28.323  27.614  1.00  0.00     0.173 A 
ATOM     42  C   UNL A   1      40.011  26.909  28.477  1.00  0.00     0.173 A 
ATOM     43  F   UNL A   1      42.551  29.397  27.706  1.00  0.00    -0.203 F 
ATOM     44  C   UNL A   1      41.796  27.551  26.453  1.00  0.00     0.198 A 
ATOM     45  C   UNL A   1      40.076  26.126  27.329  1.00  0.00     0.198 A 
ATOM     46  F   UNL A   1      39.119  26.588  29.426  1.00  0.00    -0.203 F 
ATOM     47  F   UNL A   1      42.628  27.888  25.458  1.00  0.00    -0.200 F 
ATOM     48  C   UNL A   1      40.963  26.452  26.315  1.00  0.00     0.200 A 
ATOM     49  F   UNL A   1      39.267  25.065  27.197  1.00  0.00    -0.200 F 
ATOM     50  F   UNL A   1      41.003  25.714  25.196  1.00  0.00    -0.200 F 
ENDBRANCH  26  40
BRANCH  27  51
ATOM     51  C   UNL A   1      39.632  34.026  36.703  1.00  0.00     0.064 A 
ATOM     52  C   UNL A   1      40.272  35.268  36.816  1.00  0.00     0.173 A 
ATOM     53  C   UNL A   1      38.817  33.620  37.773  1.00  0.00     0.173 A 
ATOM     54  F   UNL A   1      41.078  35.698  35.835  1.00  0.00    -0.203 F 
ATOM     55  C   UNL A   1      40.124  36.055  37.958  1.00  0.00     0.198 A 
ATOM     56  C   UNL A   1      38.641  34.423  38.897  1.00  0.00     0.198 A 
ATOM     57  F   UNL A   1      38.181  32.440  37.725  1.00  0.00    -0.203 F 
ATOM     58  F   UNL A   1      40.793  37.212  38.063  1.00  0.00    -0.200 F 
ATOM     59  C   UNL A   1      39.304  35.635  38.995  1.00  0.00     0.200 A 
ATOM     60  F   UNL A   1      37.835  34.018  39.889  1.00  0.00    -0.200 F 
ATOM     61  F   UNL A   1      39.166  36.391  40.093  1.00  0.00    -0.200 F 
ENDBRANCH  27  51
BRANCH  39  62
ATOM     62  C   UNL A   1      43.750  28.594  35.231  1.00  0.00     0.064 A 
ATOM     63  C   UNL A   1      45.102  28.952  35.131  1.00  0.00     0.173 A 
ATOM     64  C   UNL A   1      43.392  27.590  36.140  1.00  0.00     0.173 A 
ATOM     65  F   UNL A   1      45.488  29.897  34.260  1.00  0.00    -0.203 F 
ATOM     66  C   UNL A   1      46.063  28.310  35.902  1.00  0.00     0.198 A 
ATOM     67  C   UNL A   1      44.353  26.973  36.932  1.00  0.00     0.198 A 
ATOM     68  F   UNL A   1      42.109  27.220  36.271  1.00  0.00    -0.203 F 
ATOM     69  F   UNL A   1      47.356  28.633  35.761  1.00  0.00    -0.200 F 
ATOM     70  C   UNL A   1      45.687  27.328  36.808  1.00  0.00     0.200 A 
ATOM     71  F   UNL A   1      43.987  26.034  37.817  1.00  0.00    -0.200 F 
ATOM     72  F   UNL A   1      46.615  26.718  37.558  1.00  0.00    -0.200 F 
ENDBRANCH  39  62
ENDBRANCH  13  14
ENDBRANCH   6   8
ENDBRANCH   5   6
ENDBRANCH   4   5
ENDBRANCH   3   4
ENDBRANCH   2   3
ENDBRANCH   1   2
BRANCH   1  73
ATOM     73  C   UNL A   1      32.835  28.602  27.249  1.00  0.00     0.261 C 
BRANCH  73  74
ATOM     74  O   UNL A   1      33.005  27.548  26.275  1.00  0.00    -0.463 OA
BRANCH  74  75
ATOM     75  C   UNL A   1      31.897  26.782  26.056  1.00  0.00     0.310 C 
ATOM     76  O   UNL A   1      31.205  26.299  26.944  1.00  0.00    -0.252 OA
BRANCH  75  77
ATOM     77  C   UNL A   1      31.684  26.500  24.579  1.00  0.00     0.119 C 
ATOM     78  C   UNL A   1      32.833  26.907  23.583  1.00  0.00     0.100 C 
ATOM     79  C   UNL A   1      30.485  27.321  24.033  1.00  0.00     0.027 C 
ATOM     80  C   UNL A   1      32.094  27.795  22.553  1.00  0.00     0.025 C 
ATOM     81  C   UNL A   1      30.783  28.802  24.149  1.00  0.00    -0.027 C 
ATOM     82  C   UNL A   1      30.699  27.166  22.526  1.00  0.00     0.017 C 
ATOM     83  C   UNL A   1      31.745  29.090  23.261  1.00  0.00    -0.027 C 
BRANCH  78  84
ATOM     84  C   UNL A   1      33.535  25.696  22.994  1.00  0.00     0.227 C 
ATOM     85  O   UNL A   1      33.722  25.579  21.785  1.00  0.00    -0.275 OA
ATOM     86  N   UNL A   1      33.807  24.654  23.892  1.00  0.00    -0.331 N 
ATOM     87  C   UNL A   1      34.892  24.818  24.872  1.00  0.00     0.181 C 
ATOM     88  C   UNL A   1      33.621  23.315  23.333  1.00  0.00     0.181 C 
ATOM     89  C   UNL A   1      35.241  23.570  25.719  1.00  0.00     0.284 C 
ATOM     90  C   UNL A   1      33.908  22.159  24.299  1.00  0.00     0.284 C 
ATOM     91  N   UNL A   1      35.159  22.265  25.052  1.00  0.00    -0.329 N 
ATOM     92  H   UNL A   1      35.124  21.561  25.789  1.00  0.00     0.348 HD
BRANCH  91  93
ATOM     93  C   UNL A   1      36.369  21.825  24.349  1.00  0.00     0.291 C 
BRANCH  93  94
ATOM     94  C   UNL A   1      37.503  21.352  25.205  1.00  0.00     0.034 C 
ATOM     95  C   UNL A   1      38.531  22.110  25.617  1.00  0.00     0.009 C 
BRANCH  95  96
ATOM     96  C   UNL A   1      39.715  21.534  26.270  1.00  0.00    -0.026 A 
ATOM     97  C   UNL A   1      40.146  20.242  25.962  1.00  0.00     0.008 A 
ATOM     98  C   UNL A   1      40.363  22.230  27.302  1.00  0.00     0.008 A 
ATOM     99  C   UNL A   1      41.200  19.662  26.679  1.00  0.00     0.001 A 
ATOM    100  C   UNL A   1      41.399  21.649  28.029  1.00  0.00     0.001 A 
ATOM    101  C   UNL A   1      41.816  20.360  27.719  1.00  0.00     0.000 A 
ENDBRANCH  95  96
ENDBRANCH  93  94
ENDBRANCH  91  93
ENDBRANCH  78  84
ENDBRANCH  75  77
ENDBRANCH  74  75
ENDBRANCH  73  74
ENDBRANCH   1  73
TORSDOF 18
ENDMDL
