MODEL 1
REMARK VINA RESULT:     -12.0      0.000      0.000
REMARK SMILES C[C@@H](c1ccccc1)[C@@H](CC(=O)Nc1ccccc1I)C(=O)OCCOCCOC(=O)c1ccc(-c2c3nc(c(-c4c(F)c(F)c(F)c(F)c4F)c4ccc([nH]4)c(-c4c(F)c(F)c(F)c(F)c4F)c4nc(c(-c5c(F)c(F)c(F)c(F)c5F)c5ccc2[nH]5)C=C4)C=C3)cc1
REMARK SMILES IDX 25 1 24 2 23 3 21 4 22 5 9 6 2 7 1 8 3 9 4 10 8 11 5 12 7 13
REMARK SMILES IDX 6 14 10 15 11 16 12 17 13 18 14 20 15 21 19 22 16 23 18 24
REMARK SMILES IDX 20 25 17 26 26 27 27 28 28 29 29 30 30 31 31 32 32 33 33 34
REMARK SMILES IDX 94 35 34 36 93 37 35 38 36 39 37 40 87 41 38 42 92 43 86 44
REMARK SMILES IDX 88 45 39 46 91 47 85 48 84 49 40 51 72 52 52 53 71 54 53 55
REMARK SMILES IDX 56 56 70 57 89 58 54 59 55 60 69 62 90 63 57 64 41 65 42 66
REMARK SMILES IDX 50 67 43 68 44 69 48 70 51 71 45 72 46 73 49 74 47 75 73 76
REMARK SMILES IDX 74 77 82 78 75 79 76 80 80 81 83 82 77 83 78 84 81 85 79 86
REMARK SMILES IDX 58 87 59 88 67 89 60 90 61 91 65 92 68 93 62 94 63 95 66 96
REMARK SMILES IDX 64 97
REMARK H PARENT 13 19 88 50 56 61
REMARK Flexibility Score: inf
ROOT
ATOM      1  C   UNL A   1      32.857  28.099  26.818  1.00  0.00     0.202 C 
ENDROOT
BRANCH   1   2
ATOM      2  C   UNL A   1      33.537  27.975  25.455  1.00  0.00     0.261 C 
BRANCH   2   3
ATOM      3  O   UNL A   1      32.805  27.124  24.543  1.00  0.00    -0.463 OA
BRANCH   3   4
ATOM      4  C   UNL A   1      32.663  25.836  24.942  1.00  0.00     0.310 C 
ATOM      5  O   UNL A   1      33.412  25.256  25.721  1.00  0.00    -0.252 OA
BRANCH   4   6
ATOM      6  C   UNL A   1      31.518  25.111  24.256  1.00  0.00     0.116 C 
BRANCH   6   7
ATOM      7  C   UNL A   1      30.087  25.568  24.604  1.00  0.00     0.031 C 
ATOM      8  C   UNL A   1      30.022  25.981  26.092  1.00  0.00     0.013 C 
BRANCH   7   9
ATOM      9  C   UNL A   1      29.424  26.708  23.845  1.00  0.00    -0.044 A 
ATOM     10  C   UNL A   1      28.017  26.780  23.842  1.00  0.00     0.004 A 
ATOM     11  C   UNL A   1      30.147  27.796  23.339  1.00  0.00     0.004 A 
ATOM     12  C   UNL A   1      27.356  27.926  23.401  1.00  0.00     0.000 A 
ATOM     13  C   UNL A   1      29.481  28.946  22.903  1.00  0.00     0.000 A 
ATOM     14  C   UNL A   1      28.089  29.015  22.945  1.00  0.00     0.000 A 
ENDBRANCH   7   9
ENDBRANCH   6   7
BRANCH   6  15
ATOM     15  C   UNL A   1      31.781  24.985  22.729  1.00  0.00     0.116 C 
BRANCH  15  16
ATOM     16  C   UNL A   1      33.213  24.810  22.239  1.00  0.00     0.225 C 
ATOM     17  O   UNL A   1      33.668  25.584  21.388  1.00  0.00    -0.275 OA
ATOM     18  N   UNL A   1      34.065  23.854  22.722  1.00  0.00    -0.325 N 
ATOM     19  H   UNL A   1      35.024  24.068  22.673  1.00  0.00     0.169 HD
BRANCH  18  20
ATOM     20  C   UNL A   1      33.744  22.604  23.279  1.00  0.00     0.054 A 
ATOM     21  C   UNL A   1      32.584  21.924  22.910  1.00  0.00     0.027 A 
ATOM     22  C   UNL A   1      34.570  22.059  24.278  1.00  0.00     0.037 A 
ATOM     23  C   UNL A   1      32.304  20.667  23.467  1.00  0.00     0.002 A 
ATOM     24  C   UNL A   1      34.323  20.782  24.787  1.00  0.00     0.017 A 
ATOM     25  I   UNL A   1      36.254  23.085  24.976  1.00  0.00    -0.042 I 
ATOM     26  C   UNL A   1      33.192  20.082  24.373  1.00  0.00     0.001 A 
ENDBRANCH  18  20
ENDBRANCH  15  16
ENDBRANCH   6  15
ENDBRANCH   4   6
ENDBRANCH   3   4
ENDBRANCH   2   3
ENDBRANCH   1   2
BRANCH   1  27
ATOM     27  O   UNL A   1      31.743  28.995  26.828  1.00  0.00    -0.374 OA
BRANCH  27  28
ATOM     28  C   UNL A   1      31.808  30.058  25.872  1.00  0.00     0.202 C 
BRANCH  28  29
ATOM     29  C   UNL A   1      31.796  31.435  26.536  1.00  0.00     0.261 C 
BRANCH  29  30
ATOM     30  O   UNL A   1      32.693  31.430  27.661  1.00  0.00    -0.460 OA
BRANCH  30  31
ATOM     31  C   UNL A   1      33.509  32.505  27.722  1.00  0.00     0.338 C 
ATOM     32  O   UNL A   1      33.193  33.680  27.699  1.00  0.00    -0.246 OA
BRANCH  31  33
ATOM     33  C   UNL A   1      34.873  32.047  28.028  1.00  0.00     0.060 A 
ATOM     34  C   UNL A   1      35.037  30.701  28.365  1.00  0.00     0.016 A 
ATOM     35  C   UNL A   1      35.955  32.926  28.067  1.00  0.00     0.016 A 
ATOM     36  C   UNL A   1      36.276  30.247  28.813  1.00  0.00     0.010 A 
ATOM     37  C   UNL A   1      37.207  32.457  28.489  1.00  0.00     0.010 A 
ATOM     38  C   UNL A   1      37.364  31.128  28.917  1.00  0.00    -0.014 A 
BRANCH  38  39
ATOM     39  C   UNL A   1      38.588  30.662  29.624  1.00  0.00     0.031 A 
ATOM     40  C   UNL A   1      38.805  31.042  31.066  1.00  0.00     0.074 A 
ATOM     41  C   UNL A   1      39.446  29.812  29.027  1.00  0.00     0.049 A 
ATOM     42  N   UNL A   1      39.676  30.574  31.925  1.00  0.00    -0.248 NA
ATOM     43  C   UNL A   1      37.931  32.091  31.613  1.00  0.00     0.031 C 
ATOM     44  C   UNL A   1      39.379  29.384  27.632  1.00  0.00     0.029 A 
ATOM     45  N   UNL A   1      40.525  29.131  29.537  1.00  0.00    -0.354 N 
ATOM     46  C   UNL A   1      39.446  31.262  33.111  1.00  0.00     0.074 A 
ATOM     47  C   UNL A   1      38.397  32.222  32.845  1.00  0.00     0.031 C 
ATOM     48  C   UNL A   1      40.352  28.484  27.404  1.00  0.00     0.029 A 
ATOM     49  C   UNL A   1      41.108  28.271  28.637  1.00  0.00     0.049 A 
ATOM     50  H   UNL A   1      40.850  29.248  30.459  1.00  0.00     0.167 HD
ATOM     51  C   UNL A   1      40.031  31.093  34.320  1.00  0.00     0.037 A 
ATOM     52  C   UNL A   1      42.115  27.392  28.797  1.00  0.00     0.037 A 
ATOM     53  C   UNL A   1      41.063  30.132  34.601  1.00  0.00     0.049 A 
ATOM     54  C   UNL A   1      42.741  27.208  30.155  1.00  0.00     0.074 A 
ATOM     55  C   UNL A   1      41.682  29.856  35.808  1.00  0.00     0.029 A 
ATOM     56  N   UNL A   1      41.631  29.289  33.658  1.00  0.00    -0.354 N 
ATOM     57  N   UNL A   1      42.453  27.800  31.288  1.00  0.00    -0.248 NA
ATOM     58  C   UNL A   1      43.818  26.212  30.259  1.00  0.00     0.031 C 
ATOM     59  C   UNL A   1      42.656  28.876  35.587  1.00  0.00     0.029 A 
ATOM     60  C   UNL A   1      42.610  28.508  34.252  1.00  0.00     0.049 A 
ATOM     61  H   UNL A   1      41.377  29.251  32.708  1.00  0.00     0.167 HD
ATOM     62  C   UNL A   1      43.292  27.234  32.240  1.00  0.00     0.074 A 
ATOM     63  C   UNL A   1      44.087  26.236  31.557  1.00  0.00     0.031 C 
ATOM     64  C   UNL A   1      43.395  27.516  33.563  1.00  0.00     0.037 A 
BRANCH  51  65
ATOM     65  C   UNL A   1      39.561  31.974  35.440  1.00  0.00     0.064 A 
ATOM     66  C   UNL A   1      38.574  31.550  36.342  1.00  0.00     0.173 A 
ATOM     67  C   UNL A   1      40.119  33.247  35.626  1.00  0.00     0.173 A 
ATOM     68  F   UNL A   1      37.998  30.347  36.197  1.00  0.00    -0.203 F 
ATOM     69  C   UNL A   1      38.144  32.380  37.376  1.00  0.00     0.198 A 
ATOM     70  C   UNL A   1      39.706  34.063  36.676  1.00  0.00     0.198 A 
ATOM     71  F   UNL A   1      41.068  33.698  34.792  1.00  0.00    -0.203 F 
ATOM     72  F   UNL A   1      37.166  31.973  38.196  1.00  0.00    -0.200 F 
ATOM     73  C   UNL A   1      38.715  33.632  37.544  1.00  0.00     0.200 A 
ATOM     74  F   UNL A   1      40.265  35.269  36.845  1.00  0.00    -0.200 F 
ATOM     75  F   UNL A   1      38.302  34.427  38.541  1.00  0.00    -0.200 F 
ENDBRANCH  51  65
BRANCH  52  76
ATOM     76  C   UNL A   1      42.570  26.572  27.643  1.00  0.00     0.064 A 
ATOM     77  C   UNL A   1      43.583  27.025  26.786  1.00  0.00     0.173 A 
ATOM     78  C   UNL A   1      41.987  25.329  27.366  1.00  0.00     0.173 A 
ATOM     79  F   UNL A   1      44.152  28.222  26.997  1.00  0.00    -0.203 F 
ATOM     80  C   UNL A   1      43.984  26.273  25.686  1.00  0.00     0.198 A 
ATOM     81  C   UNL A   1      42.406  24.564  26.278  1.00  0.00     0.198 A 
ATOM     82  F   UNL A   1      41.011  24.853  28.153  1.00  0.00    -0.203 F 
ATOM     83  F   UNL A   1      44.923  26.749  24.855  1.00  0.00    -0.200 F 
ATOM     84  C   UNL A   1      43.398  25.040  25.435  1.00  0.00     0.200 A 
ATOM     85  F   UNL A   1      41.842  23.372  26.043  1.00  0.00    -0.200 F 
ATOM     86  F   UNL A   1      43.784  24.316  24.376  1.00  0.00    -0.200 F 
ENDBRANCH  52  76
BRANCH  64  87
ATOM     87  C   UNL A   1      44.386  26.723  34.364  1.00  0.00     0.064 A 
ATOM     88  C   UNL A   1      44.021  25.534  35.014  1.00  0.00     0.173 A 
ATOM     89  C   UNL A   1      45.721  27.140  34.460  1.00  0.00     0.173 A 
ATOM     90  F   UNL A   1      42.753  25.098  34.962  1.00  0.00    -0.203 F 
ATOM     91  C   UNL A   1      44.950  24.810  35.757  1.00  0.00     0.198 A 
ATOM     92  C   UNL A   1      46.655  26.399  35.181  1.00  0.00     0.198 A 
ATOM     93  F   UNL A   1      46.125  28.264  33.849  1.00  0.00    -0.203 F 
ATOM     94  F   UNL A   1      44.567  23.706  36.412  1.00  0.00    -0.200 F 
ATOM     95  C   UNL A   1      46.266  25.240  35.836  1.00  0.00     0.200 A 
ATOM     96  F   UNL A   1      47.929  26.810  35.246  1.00  0.00    -0.200 F 
ATOM     97  F   UNL A   1      47.159  24.542  36.552  1.00  0.00    -0.200 F 
ENDBRANCH  64  87
ENDBRANCH  38  39
ENDBRANCH  31  33
ENDBRANCH  30  31
ENDBRANCH  29  30
ENDBRANCH  28  29
ENDBRANCH  27  28
ENDBRANCH   1  27
TORSDOF 19
ENDMDL
MODEL 2
REMARK VINA RESULT:     -12.0      3.162      7.930
REMARK SMILES C[C@@H](c1ccccc1)[C@@H](CC(=O)Nc1ccccc1I)C(=O)OCCOCCOC(=O)c1ccc(-c2c3nc(c(-c4c(F)c(F)c(F)c(F)c4F)c4ccc([nH]4)c(-c4c(F)c(F)c(F)c(F)c4F)c4nc(c(-c5c(F)c(F)c(F)c(F)c5F)c5ccc2[nH]5)C=C4)C=C3)cc1
REMARK SMILES IDX 25 1 24 2 23 3 21 4 22 5 9 6 2 7 1 8 3 9 4 10 8 11 5 12 7 13
REMARK SMILES IDX 6 14 10 15 11 16 12 17 13 18 14 20 15 21 19 22 16 23 18 24
REMARK SMILES IDX 20 25 17 26 26 27 27 28 28 29 29 30 30 31 31 32 32 33 33 34
REMARK SMILES IDX 94 35 34 36 93 37 35 38 36 39 37 40 87 41 38 42 92 43 86 44
REMARK SMILES IDX 88 45 39 46 91 47 85 48 84 49 40 51 72 52 52 53 71 54 53 55
REMARK SMILES IDX 56 56 70 57 89 58 54 59 55 60 69 62 90 63 57 64 41 65 42 66
REMARK SMILES IDX 50 67 43 68 44 69 48 70 51 71 45 72 46 73 49 74 47 75 73 76
REMARK SMILES IDX 74 77 82 78 75 79 76 80 80 81 83 82 77 83 78 84 81 85 79 86
REMARK SMILES IDX 58 87 59 88 67 89 60 90 61 91 65 92 68 93 62 94 63 95 66 96
REMARK SMILES IDX 64 97
REMARK H PARENT 13 19 88 50 56 61
REMARK Flexibility Score: inf
ROOT
ATOM      1  C   UNL A   1      37.893  22.567  25.778  1.00  0.00     0.202 C 
ENDROOT
BRANCH   1   2
ATOM      2  C   UNL A   1      36.507  22.148  25.286  1.00  0.00     0.261 C 
BRANCH   2   3
ATOM      3  O   UNL A   1      35.693  23.277  24.891  1.00  0.00    -0.463 OA
BRANCH   3   4
ATOM      4  C   UNL A   1      35.457  23.383  23.560  1.00  0.00     0.310 C 
ATOM      5  O   UNL A   1      36.260  23.091  22.679  1.00  0.00    -0.252 OA
BRANCH   4   6
ATOM      6  C   UNL A   1      34.108  23.998  23.230  1.00  0.00     0.116 C 
BRANCH   6   7
ATOM      7  C   UNL A   1      34.091  25.493  22.855  1.00  0.00     0.031 C 
ATOM      8  C   UNL A   1      33.028  25.742  21.760  1.00  0.00     0.013 C 
BRANCH   7   9
ATOM      9  C   UNL A   1      33.834  26.561  23.909  1.00  0.00    -0.044 A 
ATOM     10  C   UNL A   1      33.110  27.710  23.535  1.00  0.00     0.004 A 
ATOM     11  C   UNL A   1      34.094  26.352  25.270  1.00  0.00     0.004 A 
ATOM     12  C   UNL A   1      32.613  28.592  24.494  1.00  0.00     0.000 A 
ATOM     13  C   UNL A   1      33.588  27.236  26.229  1.00  0.00     0.000 A 
ATOM     14  C   UNL A   1      32.839  28.346  25.843  1.00  0.00     0.000 A 
ENDBRANCH   7   9
ENDBRANCH   6   7
BRANCH   6  15
ATOM     15  C   UNL A   1      33.317  23.096  22.242  1.00  0.00     0.116 C 
BRANCH  15  16
ATOM     16  C   UNL A   1      32.301  22.107  22.798  1.00  0.00     0.225 C 
ATOM     17  O   UNL A   1      32.226  20.969  22.318  1.00  0.00    -0.275 OA
ATOM     18  N   UNL A   1      31.471  22.388  23.850  1.00  0.00    -0.325 N 
ATOM     19  H   UNL A   1      31.177  21.616  24.384  1.00  0.00     0.169 HD
BRANCH  18  20
ATOM     20  C   UNL A   1      30.985  23.640  24.265  1.00  0.00     0.054 A 
ATOM     21  C   UNL A   1      30.317  24.486  23.380  1.00  0.00     0.027 A 
ATOM     22  C   UNL A   1      31.239  24.081  25.576  1.00  0.00     0.037 A 
ATOM     23  C   UNL A   1      29.823  25.718  23.831  1.00  0.00     0.002 A 
ATOM     24  C   UNL A   1      30.695  25.282  26.040  1.00  0.00     0.017 A 
ATOM     25  I   UNL A   1      32.350  22.923  26.917  1.00  0.00    -0.042 I 
ATOM     26  C   UNL A   1      29.979  26.096  25.167  1.00  0.00     0.001 A 
ENDBRANCH  18  20
ENDBRANCH  15  16
ENDBRANCH   6  15
ENDBRANCH   4   6
ENDBRANCH   3   4
ENDBRANCH   2   3
ENDBRANCH   1   2
BRANCH   1  27
ATOM     27  O   UNL A   1      38.926  21.633  25.458  1.00  0.00    -0.374 OA
BRANCH  27  28
ATOM     28  C   UNL A   1      39.829  21.334  26.527  1.00  0.00     0.202 C 
BRANCH  28  29
ATOM     29  C   UNL A   1      41.279  21.658  26.167  1.00  0.00     0.261 C 
BRANCH  29  30
ATOM     30  O   UNL A   1      41.340  22.959  25.555  1.00  0.00    -0.460 OA
BRANCH  30  31
ATOM     31  C   UNL A   1      42.410  23.694  25.924  1.00  0.00     0.338 C 
ATOM     32  O   UNL A   1      43.559  23.582  25.538  1.00  0.00    -0.246 OA
BRANCH  31  33
ATOM     33  C   UNL A   1      41.947  24.824  26.745  1.00  0.00     0.060 A 
ATOM     34  C   UNL A   1      42.700  26.000  26.702  1.00  0.00     0.016 A 
ATOM     35  C   UNL A   1      40.851  24.713  27.600  1.00  0.00     0.016 A 
ATOM     36  C   UNL A   1      42.398  27.046  27.572  1.00  0.00     0.010 A 
ATOM     37  C   UNL A   1      40.533  25.780  28.453  1.00  0.00     0.010 A 
ATOM     38  C   UNL A   1      41.337  26.932  28.484  1.00  0.00    -0.014 A 
BRANCH  38  39
ATOM     39  C   UNL A   1      41.205  27.962  29.550  1.00  0.00     0.031 A 
ATOM     40  C   UNL A   1      40.054  28.934  29.507  1.00  0.00     0.074 A 
ATOM     41  C   UNL A   1      42.033  27.965  30.612  1.00  0.00     0.049 A 
ATOM     42  N   UNL A   1      39.628  29.759  30.432  1.00  0.00    -0.248 NA
ATOM     43  C   UNL A   1      39.282  28.990  28.256  1.00  0.00     0.031 C 
ATOM     44  C   UNL A   1      43.205  27.107  30.772  1.00  0.00     0.029 A 
ATOM     45  N   UNL A   1      41.991  28.698  31.774  1.00  0.00    -0.354 N 
ATOM     46  C   UNL A   1      38.538  30.419  29.879  1.00  0.00     0.074 A 
ATOM     47  C   UNL A   1      38.403  29.945  28.518  1.00  0.00     0.031 C 
ATOM     48  C   UNL A   1      43.751  27.335  31.980  1.00  0.00     0.029 A 
ATOM     49  C   UNL A   1      42.967  28.354  32.677  1.00  0.00     0.049 A 
ATOM     50  H   UNL A   1      41.326  29.404  31.942  1.00  0.00     0.167 HD
ATOM     51  C   UNL A   1      37.703  31.316  30.456  1.00  0.00     0.037 A 
ATOM     52  C   UNL A   1      43.185  28.786  33.934  1.00  0.00     0.037 A 
ATOM     53  C   UNL A   1      37.817  31.782  31.811  1.00  0.00     0.049 A 
ATOM     54  C   UNL A   1      42.235  29.772  34.562  1.00  0.00     0.074 A 
ATOM     55  C   UNL A   1      36.989  32.654  32.497  1.00  0.00     0.029 A 
ATOM     56  N   UNL A   1      38.826  31.415  32.687  1.00  0.00    -0.354 N 
ATOM     57  N   UNL A   1      41.156  30.320  34.060  1.00  0.00    -0.248 NA
ATOM     58  C   UNL A   1      42.523  30.180  35.946  1.00  0.00     0.031 C 
ATOM     59  C   UNL A   1      37.522  32.848  33.777  1.00  0.00     0.029 A 
ATOM     60  C   UNL A   1      38.655  32.060  33.902  1.00  0.00     0.049 A 
ATOM     61  H   UNL A   1      39.556  30.788  32.478  1.00  0.00     0.167 HD
ATOM     62  C   UNL A   1      40.624  31.114  35.069  1.00  0.00     0.074 A 
ATOM     63  C   UNL A   1      41.488  30.962  36.220  1.00  0.00     0.031 C 
ATOM     64  C   UNL A   1      39.520  31.900  35.043  1.00  0.00     0.037 A 
BRANCH  51  65
ATOM     65  C   UNL A   1      36.584  31.853  29.614  1.00  0.00     0.064 A 
ATOM     66  C   UNL A   1      36.557  33.192  29.195  1.00  0.00     0.173 A 
ATOM     67  C   UNL A   1      35.538  31.014  29.201  1.00  0.00     0.173 A 
ATOM     68  F   UNL A   1      37.527  34.037  29.576  1.00  0.00    -0.203 F 
ATOM     69  C   UNL A   1      35.510  33.678  28.416  1.00  0.00     0.198 A 
ATOM     70  C   UNL A   1      34.507  31.498  28.400  1.00  0.00     0.198 A 
ATOM     71  F   UNL A   1      35.518  29.726  29.572  1.00  0.00    -0.203 F 
ATOM     72  F   UNL A   1      35.481  34.972  28.069  1.00  0.00    -0.200 F 
ATOM     73  C   UNL A   1      34.490  32.830  28.015  1.00  0.00     0.200 A 
ATOM     74  F   UNL A   1      33.526  30.675  28.005  1.00  0.00    -0.200 F 
ATOM     75  F   UNL A   1      33.485  33.299  27.263  1.00  0.00    -0.200 F 
ENDBRANCH  51  65
BRANCH  52  76
ATOM     76  C   UNL A   1      44.335  28.251  34.710  1.00  0.00     0.064 A 
ATOM     77  C   UNL A   1      45.587  28.880  34.678  1.00  0.00     0.173 A 
ATOM     78  C   UNL A   1      44.205  27.090  35.485  1.00  0.00     0.173 A 
ATOM     79  F   UNL A   1      45.765  29.978  33.929  1.00  0.00    -0.203 F 
ATOM     80  C   UNL A   1      46.672  28.358  35.377  1.00  0.00     0.198 A 
ATOM     81  C   UNL A   1      45.285  26.582  36.205  1.00  0.00     0.198 A 
ATOM     82  F   UNL A   1      43.028  26.450  35.545  1.00  0.00    -0.203 F 
ATOM     83  F   UNL A   1      47.871  28.952  35.293  1.00  0.00    -0.200 F 
ATOM     84  C   UNL A   1      46.519  27.212  36.144  1.00  0.00     0.200 A 
ATOM     85  F   UNL A   1      45.132  25.479  36.949  1.00  0.00    -0.200 F 
ATOM     86  F   UNL A   1      47.563  26.709  36.817  1.00  0.00    -0.200 F 
ENDBRANCH  52  76
BRANCH  64  87
ATOM     87  C   UNL A   1      39.168  32.639  36.301  1.00  0.00     0.064 A 
ATOM     88  C   UNL A   1      38.321  32.079  37.270  1.00  0.00     0.173 A 
ATOM     89  C   UNL A   1      39.704  33.910  36.554  1.00  0.00     0.173 A 
ATOM     90  F   UNL A   1      37.772  30.871  37.070  1.00  0.00    -0.203 F 
ATOM     91  C   UNL A   1      38.000  32.779  38.430  1.00  0.00     0.198 A 
ATOM     92  C   UNL A   1      39.403  34.595  37.729  1.00  0.00     0.198 A 
ATOM     93  F   UNL A   1      40.527  34.487  35.665  1.00  0.00    -0.203 F 
ATOM     94  F   UNL A   1      37.148  32.246  39.317  1.00  0.00    -0.200 F 
ATOM     95  C   UNL A   1      38.545  34.033  38.661  1.00  0.00     0.200 A 
ATOM     96  F   UNL A   1      39.940  35.802  37.957  1.00  0.00    -0.200 F 
ATOM     97  F   UNL A   1      38.234  34.704  39.779  1.00  0.00    -0.200 F 
ENDBRANCH  64  87
ENDBRANCH  38  39
ENDBRANCH  31  33
ENDBRANCH  30  31
ENDBRANCH  29  30
ENDBRANCH  28  29
ENDBRANCH  27  28
ENDBRANCH   1  27
TORSDOF 19
ENDMDL
MODEL 3
REMARK VINA RESULT:     -11.9      0.834      1.828
REMARK SMILES C[C@@H](c1ccccc1)[C@@H](CC(=O)Nc1ccccc1I)C(=O)OCCOCCOC(=O)c1ccc(-c2c3nc(c(-c4c(F)c(F)c(F)c(F)c4F)c4ccc([nH]4)c(-c4c(F)c(F)c(F)c(F)c4F)c4nc(c(-c5c(F)c(F)c(F)c(F)c5F)c5ccc2[nH]5)C=C4)C=C3)cc1
REMARK SMILES IDX 25 1 24 2 23 3 21 4 22 5 9 6 2 7 1 8 3 9 4 10 8 11 5 12 7 13
REMARK SMILES IDX 6 14 10 15 11 16 12 17 13 18 14 20 15 21 19 22 16 23 18 24
REMARK SMILES IDX 20 25 17 26 26 27 27 28 28 29 29 30 30 31 31 32 32 33 33 34
REMARK SMILES IDX 94 35 34 36 93 37 35 38 36 39 37 40 87 41 38 42 92 43 86 44
REMARK SMILES IDX 88 45 39 46 91 47 85 48 84 49 40 51 72 52 52 53 71 54 53 55
REMARK SMILES IDX 56 56 70 57 89 58 54 59 55 60 69 62 90 63 57 64 41 65 42 66
REMARK SMILES IDX 50 67 43 68 44 69 48 70 51 71 45 72 46 73 49 74 47 75 73 76
REMARK SMILES IDX 74 77 82 78 75 79 76 80 80 81 83 82 77 83 78 84 81 85 79 86
REMARK SMILES IDX 58 87 59 88 67 89 60 90 61 91 65 92 68 93 62 94 63 95 66 96
REMARK SMILES IDX 64 97
REMARK H PARENT 13 19 88 50 56 61
REMARK Flexibility Score: inf
ROOT
ATOM      1  C   UNL A   1      33.188  29.908  26.046  1.00  0.00     0.202 C 
ENDROOT
BRANCH   1   2
ATOM      2  C   UNL A   1      32.710  28.680  25.269  1.00  0.00     0.261 C 
BRANCH   2   3
ATOM      3  O   UNL A   1      33.186  27.440  25.841  1.00  0.00    -0.463 OA
BRANCH   3   4
ATOM      4  C   UNL A   1      32.240  26.484  26.017  1.00  0.00     0.310 C 
ATOM      5  O   UNL A   1      31.350  26.523  26.860  1.00  0.00    -0.252 OA
BRANCH   4   6
ATOM      6  C   UNL A   1      32.427  25.274  25.118  1.00  0.00     0.116 C 
BRANCH   6   7
ATOM      7  C   UNL A   1      31.324  24.992  24.079  1.00  0.00     0.031 C 
ATOM      8  C   UNL A   1      30.290  24.008  24.673  1.00  0.00     0.013 C 
BRANCH   7   9
ATOM      9  C   UNL A   1      30.500  26.127  23.487  1.00  0.00    -0.044 A 
ATOM     10  C   UNL A   1      29.186  26.315  23.957  1.00  0.00     0.004 A 
ATOM     11  C   UNL A   1      31.060  27.112  22.664  1.00  0.00     0.004 A 
ATOM     12  C   UNL A   1      28.474  27.477  23.661  1.00  0.00     0.000 A 
ATOM     13  C   UNL A   1      30.345  28.279  22.374  1.00  0.00     0.000 A 
ATOM     14  C   UNL A   1      29.061  28.467  22.881  1.00  0.00     0.000 A 
ENDBRANCH   7   9
ENDBRANCH   6   7
BRANCH   6  15
ATOM     15  C   UNL A   1      33.865  25.241  24.530  1.00  0.00     0.116 C 
BRANCH  15  16
ATOM     16  C   UNL A   1      34.079  24.670  23.134  1.00  0.00     0.225 C 
ATOM     17  O   UNL A   1      34.028  25.419  22.151  1.00  0.00    -0.275 OA
ATOM     18  N   UNL A   1      34.374  23.355  22.893  1.00  0.00    -0.325 N 
ATOM     19  H   UNL A   1      34.884  23.172  22.072  1.00  0.00     0.169 HD
BRANCH  18  20
ATOM     20  C   UNL A   1      34.039  22.232  23.670  1.00  0.00     0.054 A 
ATOM     21  C   UNL A   1      32.767  21.665  23.611  1.00  0.00     0.027 A 
ATOM     22  C   UNL A   1      34.980  21.713  24.577  1.00  0.00     0.037 A 
ATOM     23  C   UNL A   1      32.472  20.530  24.380  1.00  0.00     0.002 A 
ATOM     24  C   UNL A   1      34.706  20.547  25.297  1.00  0.00     0.017 A 
ATOM     25  I   UNL A   1      36.862  22.595  24.816  1.00  0.00    -0.042 I 
ATOM     26  C   UNL A   1      33.451  19.952  25.191  1.00  0.00     0.001 A 
ENDBRANCH  18  20
ENDBRANCH  15  16
ENDBRANCH   6  15
ENDBRANCH   4   6
ENDBRANCH   3   4
ENDBRANCH   2   3
ENDBRANCH   1   2
BRANCH   1  27
ATOM     27  O   UNL A   1      32.229  30.408  26.980  1.00  0.00    -0.374 OA
BRANCH  27  28
ATOM     28  C   UNL A   1      31.393  31.462  26.489  1.00  0.00     0.202 C 
BRANCH  28  29
ATOM     29  C   UNL A   1      31.641  32.784  27.216  1.00  0.00     0.261 C 
BRANCH  29  30
ATOM     30  O   UNL A   1      33.044  33.103  27.161  1.00  0.00    -0.460 OA
BRANCH  30  31
ATOM     31  C   UNL A   1      33.543  33.602  28.312  1.00  0.00     0.338 C 
ATOM     32  O   UNL A   1      32.985  34.333  29.109  1.00  0.00    -0.246 OA
BRANCH  31  33
ATOM     33  C   UNL A   1      34.838  32.959  28.583  1.00  0.00     0.060 A 
ATOM     34  C   UNL A   1      34.815  31.686  29.160  1.00  0.00     0.016 A 
ATOM     35  C   UNL A   1      36.048  33.614  28.356  1.00  0.00     0.016 A 
ATOM     36  C   UNL A   1      36.005  31.096  29.579  1.00  0.00     0.010 A 
ATOM     37  C   UNL A   1      37.246  33.003  28.753  1.00  0.00     0.010 A 
ATOM     38  C   UNL A   1      37.229  31.765  29.416  1.00  0.00    -0.014 A 
BRANCH  38  39
ATOM     39  C   UNL A   1      38.435  31.210  30.092  1.00  0.00     0.031 A 
ATOM     40  C   UNL A   1      38.680  31.519  31.546  1.00  0.00     0.074 A 
ATOM     41  C   UNL A   1      39.246  30.345  29.453  1.00  0.00     0.049 A 
ATOM     42  N   UNL A   1      39.533  30.975  32.378  1.00  0.00    -0.248 NA
ATOM     43  C   UNL A   1      37.862  32.586  32.144  1.00  0.00     0.031 C 
ATOM     44  C   UNL A   1      39.149  29.980  28.042  1.00  0.00     0.029 A 
ATOM     45  N   UNL A   1      40.294  29.593  29.924  1.00  0.00    -0.354 N 
ATOM     46  C   UNL A   1      39.345  31.623  33.593  1.00  0.00     0.074 A 
ATOM     47  C   UNL A   1      38.342  32.642  33.376  1.00  0.00     0.031 C 
ATOM     48  C   UNL A   1      40.075  29.045  27.768  1.00  0.00     0.029 A 
ATOM     49  C   UNL A   1      40.828  28.744  28.985  1.00  0.00     0.049 A 
ATOM     50  H   UNL A   1      40.631  29.655  30.847  1.00  0.00     0.167 HD
ATOM     51  C   UNL A   1      39.929  31.376  34.789  1.00  0.00     0.037 A 
ATOM     52  C   UNL A   1      41.793  27.811  29.100  1.00  0.00     0.037 A 
ATOM     53  C   UNL A   1      40.915  30.355  35.020  1.00  0.00     0.049 A 
ATOM     54  C   UNL A   1      42.418  27.541  30.443  1.00  0.00     0.074 A 
ATOM     55  C   UNL A   1      41.529  30.000  36.210  1.00  0.00     0.029 A 
ATOM     56  N   UNL A   1      41.436  29.526  34.039  1.00  0.00    -0.354 N 
ATOM     57  N   UNL A   1      42.168  28.099  31.602  1.00  0.00    -0.248 NA
ATOM     58  C   UNL A   1      43.446  26.491  30.496  1.00  0.00     0.031 C 
ATOM     59  C   UNL A   1      42.453  28.983  35.939  1.00  0.00     0.029 A 
ATOM     60  C   UNL A   1      42.379  28.674  34.591  1.00  0.00     0.049 A 
ATOM     61  H   UNL A   1      41.173  29.540  33.090  1.00  0.00     0.167 HD
ATOM     62  C   UNL A   1      42.984  27.453  32.522  1.00  0.00     0.074 A 
ATOM     63  C   UNL A   1      43.725  26.448  31.791  1.00  0.00     0.031 C 
ATOM     64  C   UNL A   1      43.110  27.675  33.854  1.00  0.00     0.037 A 
BRANCH  51  65
ATOM     65  C   UNL A   1      39.510  32.231  35.948  1.00  0.00     0.064 A 
ATOM     66  C   UNL A   1      40.114  33.473  36.200  1.00  0.00     0.173 A 
ATOM     67  C   UNL A   1      38.479  31.816  36.803  1.00  0.00     0.173 A 
ATOM     68  F   UNL A   1      41.116  33.907  35.420  1.00  0.00    -0.203 F 
ATOM     69  C   UNL A   1      39.717  34.256  37.281  1.00  0.00     0.198 A 
ATOM     70  C   UNL A   1      38.067  32.613  37.866  1.00  0.00     0.198 A 
ATOM     71  F   UNL A   1      37.868  30.639  36.603  1.00  0.00    -0.203 F 
ATOM     72  F   UNL A   1      40.341  35.415  37.531  1.00  0.00    -0.200 F 
ATOM     73  C   UNL A   1      38.691  33.828  38.109  1.00  0.00     0.200 A 
ATOM     74  F   UNL A   1      37.068  32.204  38.661  1.00  0.00    -0.200 F 
ATOM     75  F   UNL A   1      38.308  34.584  39.148  1.00  0.00    -0.200 F 
ENDBRANCH  51  65
BRANCH  52  76
ATOM     76  C   UNL A   1      42.199  27.019  27.908  1.00  0.00     0.064 A 
ATOM     77  C   UNL A   1      41.586  25.795  27.608  1.00  0.00     0.173 A 
ATOM     78  C   UNL A   1      43.220  27.466  27.058  1.00  0.00     0.173 A 
ATOM     79  F   UNL A   1      40.623  25.315  28.408  1.00  0.00    -0.203 F 
ATOM     80  C   UNL A   1      41.991  25.038  26.511  1.00  0.00     0.198 A 
ATOM     81  C   UNL A   1      43.608  26.720  25.947  1.00  0.00     0.198 A 
ATOM     82  F   UNL A   1      43.840  28.629  27.305  1.00  0.00    -0.203 F 
ATOM     83  F   UNL A   1      41.421  23.849  26.272  1.00  0.00    -0.200 F 
ATOM     84  C   UNL A   1      42.999  25.503  25.678  1.00  0.00     0.200 A 
ATOM     85  F   UNL A   1      44.576  27.176  25.142  1.00  0.00    -0.200 F 
ATOM     86  F   UNL A   1      43.389  24.775  24.624  1.00  0.00    -0.200 F 
ENDBRANCH  52  76
BRANCH  64  87
ATOM     87  C   UNL A   1      44.067  26.802  34.613  1.00  0.00     0.064 A 
ATOM     88  C   UNL A   1      43.669  25.566  35.147  1.00  0.00     0.173 A 
ATOM     89  C   UNL A   1      45.403  27.191  34.786  1.00  0.00     0.173 A 
ATOM     90  F   UNL A   1      42.398  25.154  35.019  1.00  0.00    -0.203 F 
ATOM     91  C   UNL A   1      44.566  24.769  35.852  1.00  0.00     0.198 A 
ATOM     92  C   UNL A   1      46.305  26.378  35.467  1.00  0.00     0.198 A 
ATOM     93  F   UNL A   1      45.838  28.358  34.286  1.00  0.00    -0.203 F 
ATOM     94  F   UNL A   1      44.151  23.618  36.397  1.00  0.00    -0.200 F 
ATOM     95  C   UNL A   1      45.884  25.173  36.008  1.00  0.00     0.200 A 
ATOM     96  F   UNL A   1      47.581  26.764  35.606  1.00  0.00    -0.200 F 
ATOM     97  F   UNL A   1      46.746  24.403  36.687  1.00  0.00    -0.200 F 
ENDBRANCH  64  87
ENDBRANCH  38  39
ENDBRANCH  31  33
ENDBRANCH  30  31
ENDBRANCH  29  30
ENDBRANCH  28  29
ENDBRANCH  27  28
ENDBRANCH   1  27
TORSDOF 19
ENDMDL
