MODEL 1
REMARK VINA RESULT:     -11.9      0.000      0.000
REMARK SMILES [NH3+][C@@]1(C(=O)OCCOCCOC(=O)c2ccc(-c3c4nc(c(-c5c(F)c(F)c(F)c(F)c5F)c5ccc([nH]5)c(-c5c(F)c(F)c(F)c(F)c5F)c5nc(c(-c6c(F)c(F)c(F)c(F)c6F)c6ccc3[nH]6)C=C5)C=C4)cc2)CCC[C@H]1CCOc1ccccc1
REMARK SMILES IDX 7 1 6 2 5 3 3 4 4 5 2 6 77 7 80 8 78 9 79 10 1 11 81 15
REMARK SMILES IDX 82 16 83 17 84 18 85 19 89 20 86 21 88 22 87 23 8 24 9 25
REMARK SMILES IDX 10 26 11 27 12 28 13 29 14 30 15 31 76 32 16 33 75 34 17 35
REMARK SMILES IDX 18 36 19 37 69 38 20 39 74 40 68 41 70 42 21 43 73 44 67 45
REMARK SMILES IDX 66 46 22 48 54 49 34 50 53 51 35 52 38 53 52 54 71 55 36 56
REMARK SMILES IDX 37 57 51 59 72 60 39 61 23 62 24 63 32 64 25 65 26 66 30 67
REMARK SMILES IDX 33 68 27 69 28 70 31 71 29 72 55 73 56 74 64 75 57 76 58 77
REMARK SMILES IDX 62 78 65 79 59 80 60 81 63 82 61 83 40 84 41 85 49 86 42 87
REMARK SMILES IDX 43 88 47 89 50 90 44 91 45 92 48 93 46 94
REMARK H PARENT 1 12 1 13 1 14 70 47 38 58
REMARK Flexibility Score: inf
ROOT
ATOM      1  C   UNL A   1      32.991  28.905  25.418  1.00  0.00     0.202 C 
ENDROOT
BRANCH   1   2
ATOM      2  C   UNL A   1      34.027  28.318  24.456  1.00  0.00     0.261 C 
BRANCH   2   3
ATOM      3  O   UNL A   1      33.782  26.978  23.989  1.00  0.00    -0.459 OA
BRANCH   3   4
ATOM      4  C   UNL A   1      33.256  26.891  22.732  1.00  0.00     0.368 C 
ATOM      5  O   UNL A   1      33.778  27.421  21.754  1.00  0.00    -0.245 OA
BRANCH   4   6
ATOM      6  C   UNL A   1      31.877  26.110  22.653  1.00  0.00     0.195 C 
ATOM      7  C   UNL A   1      30.823  27.180  22.284  1.00  0.00     0.081 C 
ATOM      8  C   UNL A   1      31.339  25.499  23.990  1.00  0.00     0.066 C 
ATOM      9  C   UNL A   1      30.281  27.653  23.624  1.00  0.00     0.008 C 
ATOM     10  C   UNL A   1      30.108  26.350  24.372  1.00  0.00     0.011 C 
BRANCH   6  11
ATOM     11  N   UNL A   1      31.999  25.144  21.552  1.00  0.00    -0.343 N 
ATOM     12  H   UNL A   1      31.697  25.581  20.681  1.00  0.00     0.345 HD
ATOM     13  H   UNL A   1      31.413  24.332  21.746  1.00  0.00     0.345 HD
ATOM     14  H   UNL A   1      32.972  24.848  21.465  1.00  0.00     0.345 HD
ENDBRANCH   6  11
BRANCH   8  15
ATOM     15  C   UNL A   1      30.960  23.993  24.124  1.00  0.00     0.052 C 
BRANCH  15  16
ATOM     16  C   UNL A   1      32.064  22.932  23.937  1.00  0.00     0.230 C 
BRANCH  16  17
ATOM     17  O   UNL A   1      32.768  22.604  25.161  1.00  0.00    -0.494 OA
BRANCH  17  18
ATOM     18  C   UNL A   1      34.132  22.550  24.979  1.00  0.00     0.119 A 
ATOM     19  C   UNL A   1      35.140  23.987  25.354  1.00  0.00     0.046 A 
ATOM     20  C   UNL A   1      34.853  20.936  24.758  1.00  0.00     0.046 A 
ATOM     21  C   UNL A   1      36.906  23.788  25.631  1.00  0.00     0.004 A 
ATOM     22  C   UNL A   1      36.609  20.704  25.093  1.00  0.00     0.004 A 
ATOM     23  C   UNL A   1      37.660  22.148  25.489  1.00  0.00     0.000 A 
ENDBRANCH  17  18
ENDBRANCH  16  17
ENDBRANCH  15  16
ENDBRANCH   8  15
ENDBRANCH   4   6
ENDBRANCH   3   4
ENDBRANCH   2   3
ENDBRANCH   1   2
BRANCH   1  24
ATOM     24  O   UNL A   1      32.256  30.073  25.112  1.00  0.00    -0.374 OA
BRANCH  24  25
ATOM     25  C   UNL A   1      31.346  30.712  25.994  1.00  0.00     0.202 C 
BRANCH  25  26
ATOM     26  C   UNL A   1      31.369  32.267  26.552  1.00  0.00     0.261 C 
BRANCH  26  27
ATOM     27  O   UNL A   1      32.770  33.408  27.462  1.00  0.00    -0.460 OA
BRANCH  27  28
ATOM     28  C   UNL A   1      33.946  33.934  28.074  1.00  0.00     0.338 C 
ATOM     29  O   UNL A   1      34.098  35.145  28.237  1.00  0.00    -0.246 OA
BRANCH  28  30
ATOM     30  C   UNL A   1      35.110  33.045  28.485  1.00  0.00     0.060 A 
ATOM     31  C   UNL A   1      34.999  31.648  28.619  1.00  0.00     0.016 A 
ATOM     32  C   UNL A   1      36.355  33.635  28.743  1.00  0.00     0.016 A 
ATOM     33  C   UNL A   1      36.115  30.849  28.926  1.00  0.00     0.010 A 
ATOM     34  C   UNL A   1      37.463  32.842  29.100  1.00  0.00     0.010 A 
ATOM     35  C   UNL A   1      37.352  31.441  29.211  1.00  0.00    -0.014 A 
BRANCH  35  36
ATOM     36  C   UNL A   1      38.412  30.665  29.925  1.00  0.00     0.031 A 
ATOM     37  C   UNL A   1      38.627  30.983  31.384  1.00  0.00     0.074 A 
ATOM     38  C   UNL A   1      39.173  29.711  29.352  1.00  0.00     0.049 A 
ATOM     39  N   UNL A   1      39.551  30.562  32.211  1.00  0.00    -0.248 NA
ATOM     40  C   UNL A   1      37.661  31.917  31.987  1.00  0.00     0.031 C 
ATOM     41  C   UNL A   1      39.054  29.231  27.979  1.00  0.00     0.029 A 
ATOM     42  N   UNL A   1      40.224  28.982  29.870  1.00  0.00    -0.354 N 
ATOM     43  C   UNL A   1      39.291  31.198  33.419  1.00  0.00     0.074 A 
ATOM     44  C   UNL A   1      38.137  32.045  33.213  1.00  0.00     0.031 C 
ATOM     45  C   UNL A   1      40.009  28.307  27.755  1.00  0.00     0.029 A 
ATOM     46  C   UNL A   1      40.834  28.155  28.956  1.00  0.00     0.049 A 
ATOM     47  H   UNL A   1      40.511  29.048  30.809  1.00  0.00     0.167 HD
ATOM     48  C   UNL A   1      39.948  31.092  34.598  1.00  0.00     0.037 A 
ATOM     49  C   UNL A   1      41.945  27.392  29.064  1.00  0.00     0.037 A 
ATOM     50  C   UNL A   1      41.092  30.252  34.825  1.00  0.00     0.049 A 
ATOM     51  C   UNL A   1      42.715  27.350  30.366  1.00  0.00     0.074 A 
ATOM     52  C   UNL A   1      41.808  30.072  35.995  1.00  0.00     0.029 A 
ATOM     53  N   UNL A   1      41.693  29.458  33.862  1.00  0.00    -0.354 N 
ATOM     54  N   UNL A   1      42.459  27.949  31.504  1.00  0.00    -0.248 NA
ATOM     55  C   UNL A   1      43.935  26.524  30.396  1.00  0.00     0.031 C 
ATOM     56  C   UNL A   1      42.878  29.214  35.727  1.00  0.00     0.029 A 
ATOM     57  C   UNL A   1      42.789  28.807  34.406  1.00  0.00     0.049 A 
ATOM     58  H   UNL A   1      41.387  29.369  32.930  1.00  0.00     0.167 HD
ATOM     59  C   UNL A   1      43.459  27.548  32.386  1.00  0.00     0.074 A 
ATOM     60  C   UNL A   1      44.323  26.647  31.658  1.00  0.00     0.031 C 
ATOM     61  C   UNL A   1      43.641  27.897  33.684  1.00  0.00     0.037 A 
BRANCH  48  62
ATOM     62  C   UNL A   1      39.462  31.945  35.732  1.00  0.00     0.064 A 
ATOM     63  C   UNL A   1      38.493  31.492  36.638  1.00  0.00     0.173 A 
ATOM     64  C   UNL A   1      39.996  33.228  35.927  1.00  0.00     0.173 A 
ATOM     65  F   UNL A   1      37.939  30.279  36.484  1.00  0.00    -0.203 F 
ATOM     66  C   UNL A   1      38.055  32.303  37.682  1.00  0.00     0.198 A 
ATOM     67  C   UNL A   1      39.580  34.023  36.991  1.00  0.00     0.198 A 
ATOM     68  F   UNL A   1      40.928  33.707  35.089  1.00  0.00    -0.203 F 
ATOM     69  F   UNL A   1      37.091  31.869  38.505  1.00  0.00    -0.200 F 
ATOM     70  C   UNL A   1      38.605  33.563  37.862  1.00  0.00     0.200 A 
ATOM     71  F   UNL A   1      40.125  35.234  37.172  1.00  0.00    -0.200 F 
ATOM     72  F   UNL A   1      38.190  34.338  38.874  1.00  0.00    -0.200 F 
ENDBRANCH  48  62
BRANCH  49  73
ATOM     73  C   UNL A   1      42.440  26.613  27.892  1.00  0.00     0.064 A 
ATOM     74  C   UNL A   1      43.334  27.175  26.969  1.00  0.00     0.173 A 
ATOM     75  C   UNL A   1      41.982  25.312  27.638  1.00  0.00     0.173 A 
ATOM     76  F   UNL A   1      43.770  28.432  27.140  1.00  0.00    -0.203 F 
ATOM     77  C   UNL A   1      43.738  26.475  25.833  1.00  0.00     0.198 A 
ATOM     78  C   UNL A   1      42.410  24.600  26.518  1.00  0.00     0.198 A 
ATOM     79  F   UNL A   1      41.112  24.730  28.477  1.00  0.00    -0.203 F 
ATOM     80  F   UNL A   1      44.548  27.059  24.940  1.00  0.00    -0.200 F 
ATOM     81  C   UNL A   1      43.281  25.183  25.612  1.00  0.00     0.200 A 
ATOM     82  F   UNL A   1      41.971  23.350  26.314  1.00  0.00    -0.200 F 
ATOM     83  F   UNL A   1      43.669  24.509  24.522  1.00  0.00    -0.200 F 
ENDBRANCH  49  73
BRANCH  61  84
ATOM     84  C   UNL A   1      44.786  27.270  34.432  1.00  0.00     0.064 A 
ATOM     85  C   UNL A   1      44.647  26.057  35.121  1.00  0.00     0.173 A 
ATOM     86  C   UNL A   1      46.058  27.865  34.407  1.00  0.00     0.173 A 
ATOM     87  F   UNL A   1      43.452  25.450  35.186  1.00  0.00    -0.203 F 
ATOM     88  C   UNL A   1      45.730  25.476  35.779  1.00  0.00     0.198 A 
ATOM     89  C   UNL A   1      47.146  27.266  35.039  1.00  0.00     0.198 A 
ATOM     90  F   UNL A   1      46.252  29.020  33.753  1.00  0.00    -0.203 F 
ATOM     91  F   UNL A   1      45.562  24.340  36.469  1.00  0.00    -0.200 F 
ATOM     92  C   UNL A   1      46.980  26.076  35.730  1.00  0.00     0.200 A 
ATOM     93  F   UNL A   1      48.355  27.840  34.973  1.00  0.00    -0.200 F 
ATOM     94  F   UNL A   1      48.022  25.511  36.354  1.00  0.00    -0.200 F 
ENDBRANCH  61  84
ENDBRANCH  35  36
ENDBRANCH  28  30
ENDBRANCH  27  28
ENDBRANCH  26  27
ENDBRANCH  25  26
ENDBRANCH  24  25
ENDBRANCH   1  24
TORSDOF 19
ENDMDL
MODEL 2
REMARK VINA RESULT:     -11.8      1.252      7.324
REMARK SMILES [NH3+][C@@]1(C(=O)OCCOCCOC(=O)c2ccc(-c3c4nc(c(-c5c(F)c(F)c(F)c(F)c5F)c5ccc([nH]5)c(-c5c(F)c(F)c(F)c(F)c5F)c5nc(c(-c6c(F)c(F)c(F)c(F)c6F)c6ccc3[nH]6)C=C5)C=C4)cc2)CCC[C@H]1CCOc1ccccc1
REMARK SMILES IDX 7 1 6 2 5 3 3 4 4 5 2 6 77 7 80 8 78 9 79 10 1 11 81 15
REMARK SMILES IDX 82 16 83 17 84 18 85 19 89 20 86 21 88 22 87 23 8 24 9 25
REMARK SMILES IDX 10 26 11 27 12 28 13 29 14 30 15 31 76 32 16 33 75 34 17 35
REMARK SMILES IDX 18 36 19 37 69 38 20 39 74 40 68 41 70 42 21 43 73 44 67 45
REMARK SMILES IDX 66 46 22 48 54 49 34 50 53 51 35 52 38 53 52 54 71 55 36 56
REMARK SMILES IDX 37 57 51 59 72 60 39 61 23 62 24 63 32 64 25 65 26 66 30 67
REMARK SMILES IDX 33 68 27 69 28 70 31 71 29 72 55 73 56 74 64 75 57 76 58 77
REMARK SMILES IDX 62 78 65 79 59 80 60 81 63 82 61 83 40 84 41 85 49 86 42 87
REMARK SMILES IDX 43 88 47 89 50 90 44 91 45 92 48 93 46 94
REMARK H PARENT 1 12 1 13 1 14 70 47 38 58
REMARK Flexibility Score: inf
ROOT
ATOM      1  C   UNL A   1      32.626  28.623  26.046  1.00  0.00     0.202 C 
ENDROOT
BRANCH   1   2
ATOM      2  C   UNL A   1      33.809  27.799  25.532  1.00  0.00     0.261 C 
BRANCH   2   3
ATOM      3  O   UNL A   1      33.528  26.867  24.469  1.00  0.00    -0.459 OA
BRANCH   3   4
ATOM      4  C   UNL A   1      33.115  27.433  23.298  1.00  0.00     0.368 C 
ATOM      5  O   UNL A   1      33.669  28.409  22.799  1.00  0.00    -0.245 OA
BRANCH   4   6
ATOM      6  C   UNL A   1      31.816  26.768  22.673  1.00  0.00     0.195 C 
ATOM      7  C   UNL A   1      30.862  27.947  22.369  1.00  0.00     0.081 C 
ATOM      8  C   UNL A   1      30.980  25.840  23.616  1.00  0.00     0.066 C 
ATOM      9  C   UNL A   1      29.995  28.059  23.614  1.00  0.00     0.008 C 
ATOM     10  C   UNL A   1      29.673  26.611  23.906  1.00  0.00     0.011 C 
BRANCH   6  11
ATOM     11  N   UNL A   1      32.229  26.136  21.411  1.00  0.00    -0.343 N 
ATOM     12  H   UNL A   1      31.639  25.325  21.228  1.00  0.00     0.345 HD
ATOM     13  H   UNL A   1      33.202  25.840  21.483  1.00  0.00     0.345 HD
ATOM     14  H   UNL A   1      32.134  26.807  20.648  1.00  0.00     0.345 HD
ENDBRANCH   6  11
BRANCH   8  15
ATOM     15  C   UNL A   1      30.615  24.375  23.232  1.00  0.00     0.052 C 
BRANCH  15  16
ATOM     16  C   UNL A   1      31.352  23.219  23.937  1.00  0.00     0.230 C 
BRANCH  16  17
ATOM     17  O   UNL A   1      32.316  22.542  23.089  1.00  0.00    -0.494 OA
BRANCH  17  18
ATOM     18  C   UNL A   1      33.550  22.430  23.691  1.00  0.00     0.119 A 
ATOM     19  C   UNL A   1      33.935  20.978  24.671  1.00  0.00     0.046 A 
ATOM     20  C   UNL A   1      34.823  23.545  23.133  1.00  0.00     0.046 A 
ATOM     21  C   UNL A   1      35.652  20.562  25.011  1.00  0.00     0.004 A 
ATOM     22  C   UNL A   1      36.551  23.113  23.408  1.00  0.00     0.004 A 
ATOM     23  C   UNL A   1      36.976  21.633  24.395  1.00  0.00     0.000 A 
ENDBRANCH  17  18
ENDBRANCH  16  17
ENDBRANCH  15  16
ENDBRANCH   8  15
ENDBRANCH   4   6
ENDBRANCH   3   4
ENDBRANCH   2   3
ENDBRANCH   1   2
BRANCH   1  24
ATOM     24  O   UNL A   1      32.570  30.028  25.907  1.00  0.00    -0.374 OA
BRANCH  24  25
ATOM     25  C   UNL A   1      31.374  30.790  25.861  1.00  0.00     0.202 C 
BRANCH  25  26
ATOM     26  C   UNL A   1      31.132  32.360  26.318  1.00  0.00     0.261 C 
BRANCH  26  27
ATOM     27  O   UNL A   1      32.202  33.678  27.418  1.00  0.00    -0.460 OA
BRANCH  27  28
ATOM     28  C   UNL A   1      33.072  34.329  28.342  1.00  0.00     0.338 C 
ATOM     29  O   UNL A   1      32.896  35.501  28.674  1.00  0.00    -0.246 OA
BRANCH  28  30
ATOM     30  C   UNL A   1      34.310  33.646  28.905  1.00  0.00     0.060 A 
ATOM     31  C   UNL A   1      34.263  32.415  29.589  1.00  0.00     0.016 A 
ATOM     32  C   UNL A   1      35.558  34.261  28.740  1.00  0.00     0.016 A 
ATOM     33  C   UNL A   1      35.436  31.776  30.029  1.00  0.00     0.010 A 
ATOM     34  C   UNL A   1      36.729  33.646  29.224  1.00  0.00     0.010 A 
ATOM     35  C   UNL A   1      36.679  32.404  29.888  1.00  0.00    -0.014 A 
BRANCH  35  36
ATOM     36  C   UNL A   1      37.850  31.946  30.697  1.00  0.00     0.031 A 
ATOM     37  C   UNL A   1      38.736  30.890  30.081  1.00  0.00     0.074 A 
ATOM     38  C   UNL A   1      38.159  32.414  31.922  1.00  0.00     0.049 A 
ATOM     39  N   UNL A   1      39.737  30.223  30.599  1.00  0.00    -0.248 NA
ATOM     40  C   UNL A   1      38.438  30.538  28.683  1.00  0.00     0.031 C 
ATOM     41  C   UNL A   1      37.457  33.477  32.635  1.00  0.00     0.029 A 
ATOM     42  N   UNL A   1      39.154  32.028  32.798  1.00  0.00    -0.354 N 
ATOM     43  C   UNL A   1      40.168  29.358  29.601  1.00  0.00     0.074 A 
ATOM     44  C   UNL A   1      39.311  29.571  28.455  1.00  0.00     0.031 C 
ATOM     45  C   UNL A   1      38.025  33.642  33.846  1.00  0.00     0.029 A 
ATOM     46  C   UNL A   1      39.109  32.670  34.013  1.00  0.00     0.049 A 
ATOM     47  H   UNL A   1      39.835  31.354  32.572  1.00  0.00     0.167 HD
ATOM     48  C   UNL A   1      41.184  28.464  29.626  1.00  0.00     0.037 A 
ATOM     49  C   UNL A   1      39.833  32.476  35.139  1.00  0.00     0.037 A 
ATOM     50  C   UNL A   1      42.051  28.242  30.751  1.00  0.00     0.049 A 
ATOM     51  C   UNL A   1      40.911  31.413  35.175  1.00  0.00     0.074 A 
ATOM     52  C   UNL A   1      43.117  27.366  30.855  1.00  0.00     0.029 A 
ATOM     53  N   UNL A   1      41.946  28.892  31.970  1.00  0.00    -0.354 N 
ATOM     54  N   UNL A   1      41.316  30.606  34.225  1.00  0.00    -0.248 NA
ATOM     55  C   UNL A   1      41.632  31.236  36.447  1.00  0.00     0.031 C 
ATOM     56  C   UNL A   1      43.623  27.444  32.156  1.00  0.00     0.029 A 
ATOM     57  C   UNL A   1      42.914  28.416  32.841  1.00  0.00     0.049 A 
ATOM     58  H   UNL A   1      41.284  29.589  32.185  1.00  0.00     0.167 HD
ATOM     59  C   UNL A   1      42.352  29.854  34.772  1.00  0.00     0.074 A 
ATOM     60  C   UNL A   1      42.524  30.307  36.134  1.00  0.00     0.031 C 
ATOM     61  C   UNL A   1      43.095  28.878  34.194  1.00  0.00     0.037 A 
BRANCH  48  62
ATOM     62  C   UNL A   1      41.388  27.624  28.401  1.00  0.00     0.064 A 
ATOM     63  C   UNL A   1      40.652  26.452  28.175  1.00  0.00     0.173 A 
ATOM     64  C   UNL A   1      42.320  28.014  27.426  1.00  0.00     0.173 A 
ATOM     65  F   UNL A   1      39.763  26.027  29.086  1.00  0.00    -0.203 F 
ATOM     66  C   UNL A   1      40.861  25.686  27.031  1.00  0.00     0.198 A 
ATOM     67  C   UNL A   1      42.502  27.264  26.269  1.00  0.00     0.198 A 
ATOM     68  F   UNL A   1      43.047  29.129  27.593  1.00  0.00    -0.203 F 
ATOM     69  F   UNL A   1      40.184  24.542  26.860  1.00  0.00    -0.200 F 
ATOM     70  C   UNL A   1      41.779  26.096  26.076  1.00  0.00     0.200 A 
ATOM     71  F   UNL A   1      43.378  27.672  25.340  1.00  0.00    -0.200 F 
ATOM     72  F   UNL A   1      41.970  25.364  24.971  1.00  0.00    -0.200 F 
ENDBRANCH  48  62
BRANCH  49  73
ATOM     73  C   UNL A   1      39.552  33.280  36.362  1.00  0.00     0.064 A 
ATOM     74  C   UNL A   1      40.283  34.442  36.655  1.00  0.00     0.173 A 
ATOM     75  C   UNL A   1      38.588  32.871  37.296  1.00  0.00     0.173 A 
ATOM     76  F   UNL A   1      41.246  34.854  35.817  1.00  0.00    -0.203 F 
ATOM     77  C   UNL A   1      40.072  35.152  37.836  1.00  0.00     0.198 A 
ATOM     78  C   UNL A   1      38.357  33.599  38.463  1.00  0.00     0.198 A 
ATOM     79  F   UNL A   1      37.872  31.758  37.079  1.00  0.00    -0.203 F 
ATOM     80  F   UNL A   1      40.824  36.225  38.114  1.00  0.00    -0.200 F 
ATOM     81  C   UNL A   1      39.103  34.734  38.736  1.00  0.00     0.200 A 
ATOM     82  F   UNL A   1      37.415  33.194  39.326  1.00  0.00    -0.200 F 
ATOM     83  F   UNL A   1      38.900  35.416  39.871  1.00  0.00    -0.200 F 
ENDBRANCH  49  73
BRANCH  61  84
ATOM     84  C   UNL A   1      44.201  28.257  35.002  1.00  0.00     0.064 A 
ATOM     85  C   UNL A   1      44.008  27.087  35.749  1.00  0.00     0.173 A 
ATOM     86  C   UNL A   1      45.492  28.812  34.979  1.00  0.00     0.173 A 
ATOM     87  F   UNL A   1      42.794  26.520  35.815  1.00  0.00    -0.203 F 
ATOM     88  C   UNL A   1      45.057  26.509  36.463  1.00  0.00     0.198 A 
ATOM     89  C   UNL A   1      46.545  28.214  35.667  1.00  0.00     0.198 A 
ATOM     90  F   UNL A   1      45.737  29.925  34.271  1.00  0.00    -0.203 F 
ATOM     91  F   UNL A   1      44.838  25.416  37.207  1.00  0.00    -0.200 F 
ATOM     92  C   UNL A   1      46.326  27.068  36.414  1.00  0.00     0.200 A 
ATOM     93  F   UNL A   1      47.773  28.747  35.602  1.00  0.00    -0.200 F 
ATOM     94  F   UNL A   1      47.335  26.505  37.092  1.00  0.00    -0.200 F 
ENDBRANCH  61  84
ENDBRANCH  35  36
ENDBRANCH  28  30
ENDBRANCH  27  28
ENDBRANCH  26  27
ENDBRANCH  25  26
ENDBRANCH  24  25
ENDBRANCH   1  24
TORSDOF 19
ENDMDL
MODEL 3
REMARK VINA RESULT:     -11.7      1.666      7.591
REMARK SMILES [NH3+][C@@]1(C(=O)OCCOCCOC(=O)c2ccc(-c3c4nc(c(-c5c(F)c(F)c(F)c(F)c5F)c5ccc([nH]5)c(-c5c(F)c(F)c(F)c(F)c5F)c5nc(c(-c6c(F)c(F)c(F)c(F)c6F)c6ccc3[nH]6)C=C5)C=C4)cc2)CCC[C@H]1CCOc1ccccc1
REMARK SMILES IDX 7 1 6 2 5 3 3 4 4 5 2 6 77 7 80 8 78 9 79 10 1 11 81 15
REMARK SMILES IDX 82 16 83 17 84 18 85 19 89 20 86 21 88 22 87 23 8 24 9 25
REMARK SMILES IDX 10 26 11 27 12 28 13 29 14 30 15 31 76 32 16 33 75 34 17 35
REMARK SMILES IDX 18 36 19 37 69 38 20 39 74 40 68 41 70 42 21 43 73 44 67 45
REMARK SMILES IDX 66 46 22 48 54 49 34 50 53 51 35 52 38 53 52 54 71 55 36 56
REMARK SMILES IDX 37 57 51 59 72 60 39 61 23 62 24 63 32 64 25 65 26 66 30 67
REMARK SMILES IDX 33 68 27 69 28 70 31 71 29 72 55 73 56 74 64 75 57 76 58 77
REMARK SMILES IDX 62 78 65 79 59 80 60 81 63 82 61 83 40 84 41 85 49 86 42 87
REMARK SMILES IDX 43 88 47 89 50 90 44 91 45 92 48 93 46 94
REMARK H PARENT 1 12 1 13 1 14 70 47 38 58
REMARK Flexibility Score: inf
ROOT
ATOM      1  C   UNL A   1      33.642  28.954  25.568  1.00  0.00     0.202 C 
ENDROOT
BRANCH   1   2
ATOM      2  C   UNL A   1      33.858  28.504  24.121  1.00  0.00     0.261 C 
BRANCH   2   3
ATOM      3  O   UNL A   1      33.706  27.096  23.857  1.00  0.00    -0.459 OA
BRANCH   3   4
ATOM      4  C   UNL A   1      33.165  26.793  22.640  1.00  0.00     0.368 C 
ATOM      5  O   UNL A   1      33.704  27.094  21.578  1.00  0.00    -0.245 OA
BRANCH   4   6
ATOM      6  C   UNL A   1      31.749  26.080  22.714  1.00  0.00     0.195 C 
ATOM      7  C   UNL A   1      30.721  27.181  22.363  1.00  0.00     0.081 C 
ATOM      8  C   UNL A   1      31.291  25.572  24.122  1.00  0.00     0.066 C 
ATOM      9  C   UNL A   1      30.309  27.754  23.711  1.00  0.00     0.008 C 
ATOM     10  C   UNL A   1      30.136  26.505  24.546  1.00  0.00     0.011 C 
BRANCH   6  11
ATOM     11  N   UNL A   1      31.738  25.049  21.665  1.00  0.00    -0.343 N 
ATOM     12  H   UNL A   1      31.670  24.127  22.095  1.00  0.00     0.345 HD
ATOM     13  H   UNL A   1      32.599  25.109  21.122  1.00  0.00     0.345 HD
ATOM     14  H   UNL A   1      30.938  25.198  21.050  1.00  0.00     0.345 HD
ENDBRANCH   6  11
BRANCH   8  15
ATOM     15  C   UNL A   1      30.854  24.098  24.374  1.00  0.00     0.052 C 
BRANCH  15  16
ATOM     16  C   UNL A   1      31.300  23.405  25.678  1.00  0.00     0.230 C 
BRANCH  16  17
ATOM     17  O   UNL A   1      32.307  22.380  25.476  1.00  0.00    -0.494 OA
BRANCH  17  18
ATOM     18  C   UNL A   1      33.543  22.914  25.188  1.00  0.00     0.119 A 
ATOM     19  C   UNL A   1      34.683  23.292  26.521  1.00  0.00     0.046 A 
ATOM     20  C   UNL A   1      34.085  22.827  23.493  1.00  0.00     0.046 A 
ATOM     21  C   UNL A   1      36.437  23.477  26.168  1.00  0.00     0.004 A 
ATOM     22  C   UNL A   1      35.845  22.947  23.126  1.00  0.00     0.004 A 
ATOM     23  C   UNL A   1      37.033  23.320  24.465  1.00  0.00     0.000 A 
ENDBRANCH  17  18
ENDBRANCH  16  17
ENDBRANCH  15  16
ENDBRANCH   8  15
ENDBRANCH   4   6
ENDBRANCH   3   4
ENDBRANCH   2   3
ENDBRANCH   1   2
BRANCH   1  24
ATOM     24  O   UNL A   1      32.368  28.941  26.179  1.00  0.00    -0.374 OA
BRANCH  24  25
ATOM     25  C   UNL A   1      31.819  30.012  26.931  1.00  0.00     0.202 C 
BRANCH  25  26
ATOM     26  C   UNL A   1      31.788  31.622  26.561  1.00  0.00     0.261 C 
BRANCH  26  27
ATOM     27  O   UNL A   1      32.300  33.301  27.567  1.00  0.00    -0.460 OA
BRANCH  27  28
ATOM     28  C   UNL A   1      32.928  34.300  28.368  1.00  0.00     0.338 C 
ATOM     29  O   UNL A   1      32.525  35.463  28.376  1.00  0.00    -0.246 OA
BRANCH  28  30
ATOM     30  C   UNL A   1      34.176  34.012  29.190  1.00  0.00     0.060 A 
ATOM     31  C   UNL A   1      35.480  34.144  28.676  1.00  0.00     0.016 A 
ATOM     32  C   UNL A   1      34.030  33.597  30.520  1.00  0.00     0.016 A 
ATOM     33  C   UNL A   1      36.612  33.943  29.487  1.00  0.00     0.010 A 
ATOM     34  C   UNL A   1      35.162  33.346  31.320  1.00  0.00     0.010 A 
ATOM     35  C   UNL A   1      36.465  33.501  30.808  1.00  0.00    -0.014 A 
BRANCH  35  36
ATOM     36  C   UNL A   1      37.626  32.899  31.533  1.00  0.00     0.031 A 
ATOM     37  C   UNL A   1      38.320  31.736  30.868  1.00  0.00     0.074 A 
ATOM     38  C   UNL A   1      38.084  33.328  32.726  1.00  0.00     0.049 A 
ATOM     39  N   UNL A   1      39.264  30.947  31.319  1.00  0.00    -0.248 NA
ATOM     40  C   UNL A   1      37.874  31.419  29.501  1.00  0.00     0.031 C 
ATOM     41  C   UNL A   1      37.580  34.475  33.474  1.00  0.00     0.029 A 
ATOM     42  N   UNL A   1      39.085  32.820  33.530  1.00  0.00    -0.354 N 
ATOM     43  C   UNL A   1      39.503  30.030  30.302  1.00  0.00     0.074 A 
ATOM     44  C   UNL A   1      38.596  30.347  29.221  1.00  0.00     0.031 C 
ATOM     45  C   UNL A   1      38.255  34.570  34.637  1.00  0.00     0.029 A 
ATOM     46  C   UNL A   1      39.214  33.467  34.736  1.00  0.00     0.049 A 
ATOM     47  H   UNL A   1      39.654  32.063  33.263  1.00  0.00     0.167 HD
ATOM     48  C   UNL A   1      40.395  29.013  30.264  1.00  0.00     0.037 A 
ATOM     49  C   UNL A   1      39.990  33.186  35.807  1.00  0.00     0.037 A 
ATOM     50  C   UNL A   1      41.309  28.685  31.324  1.00  0.00     0.049 A 
ATOM     51  C   UNL A   1      40.923  31.993  35.778  1.00  0.00     0.074 A 
ATOM     52  C   UNL A   1      42.259  27.679  31.360  1.00  0.00     0.029 A 
ATOM     53  N   UNL A   1      41.381  29.347  32.539  1.00  0.00    -0.354 N 
ATOM     54  N   UNL A   1      41.148  31.137  34.811  1.00  0.00    -0.248 NA
ATOM     55  C   UNL A   1      41.709  31.729  36.995  1.00  0.00     0.031 C 
ATOM     56  C   UNL A   1      42.868  27.696  32.618  1.00  0.00     0.029 A 
ATOM     57  C   UNL A   1      42.343  28.754  33.342  1.00  0.00     0.049 A 
ATOM     58  H   UNL A   1      40.832  30.124  32.793  1.00  0.00     0.167 HD
ATOM     59  C   UNL A   1      42.118  30.260  35.289  1.00  0.00     0.074 A 
ATOM     60  C   UNL A   1      42.449  30.691  36.629  1.00  0.00     0.031 C 
ATOM     61  C   UNL A   1      42.683  29.194  34.671  1.00  0.00     0.037 A 
BRANCH  48  62
ATOM     62  C   UNL A   1      40.397  28.149  29.038  1.00  0.00     0.064 A 
ATOM     63  C   UNL A   1      41.153  28.475  27.903  1.00  0.00     0.173 A 
ATOM     64  C   UNL A   1      39.648  26.963  29.011  1.00  0.00     0.173 A 
ATOM     65  F   UNL A   1      41.872  29.608  27.872  1.00  0.00    -0.203 F 
ATOM     66  C   UNL A   1      41.137  27.659  26.774  1.00  0.00     0.198 A 
ATOM     67  C   UNL A   1      39.660  26.133  27.894  1.00  0.00     0.198 A 
ATOM     68  F   UNL A   1      38.910  26.605  30.072  1.00  0.00    -0.203 F 
ATOM     69  F   UNL A   1      41.825  28.016  25.682  1.00  0.00    -0.200 F 
ATOM     70  C   UNL A   1      40.397  26.486  26.774  1.00  0.00     0.200 A 
ATOM     71  F   UNL A   1      38.957  24.992  27.902  1.00  0.00    -0.200 F 
ATOM     72  F   UNL A   1      40.392  25.697  25.691  1.00  0.00    -0.200 F 
ENDBRANCH  48  62
BRANCH  49  73
ATOM     73  C   UNL A   1      39.908  34.024  37.038  1.00  0.00     0.064 A 
ATOM     74  C   UNL A   1      39.036  33.697  38.086  1.00  0.00     0.173 A 
ATOM     75  C   UNL A   1      40.657  35.204  37.164  1.00  0.00     0.173 A 
ATOM     76  F   UNL A   1      38.265  32.603  37.998  1.00  0.00    -0.203 F 
ATOM     77  C   UNL A   1      38.904  34.521  39.203  1.00  0.00     0.198 A 
ATOM     78  C   UNL A   1      40.548  36.012  38.295  1.00  0.00     0.198 A 
ATOM     79  F   UNL A   1      41.495  35.577  36.185  1.00  0.00    -0.203 F 
ATOM     80  F   UNL A   1      38.021  34.212  40.162  1.00  0.00    -0.200 F 
ATOM     81  C   UNL A   1      39.666  35.676  39.310  1.00  0.00     0.200 A 
ATOM     82  F   UNL A   1      41.292  37.123  38.396  1.00  0.00    -0.200 F 
ATOM     83  F   UNL A   1      39.541  36.468  40.383  1.00  0.00    -0.200 F 
ENDBRANCH  49  73
BRANCH  61  84
ATOM     84  C   UNL A   1      43.759  28.439  35.402  1.00  0.00     0.064 A 
ATOM     85  C   UNL A   1      43.486  27.264  36.117  1.00  0.00     0.173 A 
ATOM     86  C   UNL A   1      45.095  28.867  35.336  1.00  0.00     0.173 A 
ATOM     87  F   UNL A   1      42.226  26.814  36.222  1.00  0.00    -0.203 F 
ATOM     88  C   UNL A   1      44.504  26.561  36.759  1.00  0.00     0.198 A 
ATOM     89  C   UNL A   1      46.114  28.145  35.951  1.00  0.00     0.198 A 
ATOM     90  F   UNL A   1      45.416  29.978  34.656  1.00  0.00    -0.203 F 
ATOM     91  F   UNL A   1      44.213  25.466  37.474  1.00  0.00    -0.200 F 
ATOM     92  C   UNL A   1      45.818  26.996  36.668  1.00  0.00     0.200 A 
ATOM     93  F   UNL A   1      47.385  28.560  35.846  1.00  0.00    -0.200 F 
ATOM     94  F   UNL A   1      46.797  26.313  37.277  1.00  0.00    -0.200 F 
ENDBRANCH  61  84
ENDBRANCH  35  36
ENDBRANCH  28  30
ENDBRANCH  27  28
ENDBRANCH  26  27
ENDBRANCH  25  26
ENDBRANCH  24  25
ENDBRANCH   1  24
TORSDOF 19
ENDMDL
