MODEL 1
REMARK VINA RESULT:     -11.8      0.000      0.000
REMARK SMILES Cc1ccc(F)cc1NC(=O)c1nn(C)cc1C(=O)OCCOCCOC(=O)c1ccc(-c2c3nc(c(-c4c(F)c(F)c(F)c(F)c4F)c4ccc([nH]4)c(-c4c(F)c(F)c(F)c(F)c4F)c4nc(c(-c5c(F)c(F)c(F)c(F)c5F)c5ccc2[nH]5)C=C4)C=C3)cc1
REMARK SMILES IDX 23 1 22 2 21 3 20 4 18 5 19 6 17 7 12 8 13 9 14 10 16 11
REMARK SMILES IDX 15 12 10 13 9 14 11 16 8 17 1 18 2 19 3 20 4 21 7 22 5 23
REMARK SMILES IDX 6 24 24 25 25 26 26 27 27 28 28 29 29 30 30 31 91 32 31 33
REMARK SMILES IDX 90 34 32 35 33 36 34 37 84 38 35 39 89 40 83 41 85 42 36 43
REMARK SMILES IDX 88 44 82 45 81 46 37 48 69 49 49 50 68 51 50 52 53 53 67 54
REMARK SMILES IDX 86 55 51 56 52 57 66 59 87 60 54 61 38 62 39 63 47 64 40 65
REMARK SMILES IDX 41 66 45 67 48 68 42 69 43 70 46 71 44 72 70 73 71 74 79 75
REMARK SMILES IDX 72 76 73 77 77 78 80 79 74 80 75 81 78 82 76 83 55 84 56 85
REMARK SMILES IDX 64 86 57 87 58 88 62 89 65 90 59 91 60 92 63 93 61 94
REMARK H PARENT 9 15 85 47 53 58
REMARK Flexibility Score: inf
ROOT
ATOM      1  O   UNL A   1      31.883  30.468  26.926  1.00  0.00    -0.374 OA
ENDROOT
BRANCH   1   2
ATOM      2  C   UNL A   1      31.453  30.322  25.585  1.00  0.00     0.202 C 
BRANCH   2   3
ATOM      3  C   UNL A   1      31.438  28.953  24.881  1.00  0.00     0.261 C 
BRANCH   3   4
ATOM      4  O   UNL A   1      31.416  27.777  25.706  1.00  0.00    -0.460 OA
BRANCH   4   5
ATOM      5  C   UNL A   1      32.575  27.049  25.716  1.00  0.00     0.342 C 
ATOM      6  O   UNL A   1      33.534  27.298  26.422  1.00  0.00    -0.246 OA
BRANCH   5   7
ATOM      7  C   UNL A   1      32.527  25.902  24.829  1.00  0.00     0.111 A 
ATOM      8  C   UNL A   1      32.566  24.514  25.172  1.00  0.00     0.165 A 
ATOM      9  N   UNL A   1      32.707  23.755  24.067  1.00  0.00    -0.167 NA
ATOM     10  N   UNL A   1      32.659  24.628  23.051  1.00  0.00    -0.274 N 
ATOM     11  C   UNL A   1      32.473  25.917  23.447  1.00  0.00     0.125 A 
ATOM     12  C   UNL A   1      32.834  24.139  21.705  1.00  0.00     0.173 C 
BRANCH   8  13
ATOM     13  C   UNL A   1      32.508  23.904  26.503  1.00  0.00     0.277 C 
ATOM     14  N   UNL A   1      33.506  23.041  26.946  1.00  0.00    -0.320 N 
ATOM     15  H   UNL A   1      33.321  22.663  27.836  1.00  0.00     0.170 HD
ATOM     16  O   UNL A   1      31.536  24.067  27.242  1.00  0.00    -0.267 OA
BRANCH  14  17
ATOM     17  C   UNL A   1      34.729  22.588  26.395  1.00  0.00     0.047 A 
ATOM     18  C   UNL A   1      33.632  20.339  25.701  1.00  0.00     0.046 C 
ATOM     19  C   UNL A   1      34.785  21.310  25.781  1.00  0.00    -0.027 A 
ATOM     20  C   UNL A   1      35.942  20.937  25.056  1.00  0.00     0.008 A 
ATOM     21  C   UNL A   1      37.038  21.786  24.960  1.00  0.00     0.039 A 
ATOM     22  C   UNL A   1      35.882  23.379  26.363  1.00  0.00     0.065 A 
ATOM     23  C   UNL A   1      37.005  22.992  25.634  1.00  0.00     0.125 A 
ATOM     24  F   UNL A   1      38.053  23.822  25.551  1.00  0.00    -0.207 F 
ENDBRANCH  14  17
ENDBRANCH   8  13
ENDBRANCH   5   7
ENDBRANCH   4   5
ENDBRANCH   3   4
ENDBRANCH   2   3
ENDBRANCH   1   2
BRANCH   1  25
ATOM     25  C   UNL A   1      33.257  30.558  27.246  1.00  0.00     0.202 C 
BRANCH  25  26
ATOM     26  C   UNL A   1      33.844  31.843  27.799  1.00  0.00     0.261 C 
BRANCH  26  27
ATOM     27  O   UNL A   1      35.243  31.865  28.000  1.00  0.00    -0.460 OA
BRANCH  27  28
ATOM     28  C   UNL A   1      35.597  31.245  29.139  1.00  0.00     0.338 C 
ATOM     29  O   UNL A   1      35.478  31.670  30.277  1.00  0.00    -0.246 OA
BRANCH  28  30
ATOM     30  C   UNL A   1      36.395  30.067  28.819  1.00  0.00     0.060 A 
ATOM     31  C   UNL A   1      36.804  29.336  29.939  1.00  0.00     0.016 A 
ATOM     32  C   UNL A   1      37.110  30.082  27.614  1.00  0.00     0.016 A 
ATOM     33  C   UNL A   1      38.093  28.867  29.961  1.00  0.00     0.010 A 
ATOM     34  C   UNL A   1      38.391  29.605  27.636  1.00  0.00     0.010 A 
ATOM     35  C   UNL A   1      38.887  29.098  28.838  1.00  0.00    -0.014 A 
BRANCH  35  36
ATOM     36  C   UNL A   1      40.275  28.729  28.831  1.00  0.00     0.031 A 
ATOM     37  C   UNL A   1      40.536  27.330  28.485  1.00  0.00     0.074 A 
ATOM     38  C   UNL A   1      41.205  29.651  29.155  1.00  0.00     0.049 A 
ATOM     39  N   UNL A   1      41.451  26.617  29.031  1.00  0.00    -0.248 NA
ATOM     40  C   UNL A   1      39.664  26.569  27.586  1.00  0.00     0.031 C 
ATOM     41  C   UNL A   1      42.643  29.559  28.981  1.00  0.00     0.029 A 
ATOM     42  N   UNL A   1      41.011  30.854  29.860  1.00  0.00    -0.354 N 
ATOM     43  C   UNL A   1      41.521  25.457  28.296  1.00  0.00     0.074 A 
ATOM     44  C   UNL A   1      40.295  25.391  27.544  1.00  0.00     0.031 C 
ATOM     45  C   UNL A   1      43.235  30.480  29.761  1.00  0.00     0.029 A 
ATOM     46  C   UNL A   1      42.204  31.097  30.575  1.00  0.00     0.049 A 
ATOM     47  H   UNL A   1      40.203  31.415  29.854  1.00  0.00     0.167 HD
ATOM     48  C   UNL A   1      42.717  24.812  28.228  1.00  0.00     0.037 A 
ATOM     49  C   UNL A   1      42.225  31.139  31.942  1.00  0.00     0.037 A 
ATOM     50  C   UNL A   1      43.710  25.535  29.015  1.00  0.00     0.049 A 
ATOM     51  C   UNL A   1      43.013  30.019  32.547  1.00  0.00     0.074 A 
ATOM     52  C   UNL A   1      44.593  26.542  28.657  1.00  0.00     0.029 A 
ATOM     53  N   UNL A   1      43.574  25.603  30.395  1.00  0.00    -0.354 N 
ATOM     54  N   UNL A   1      43.232  28.886  31.944  1.00  0.00    -0.248 NA
ATOM     55  C   UNL A   1      43.636  30.105  33.858  1.00  0.00     0.031 C 
ATOM     56  C   UNL A   1      44.988  27.220  29.835  1.00  0.00     0.029 A 
ATOM     57  C   UNL A   1      44.353  26.622  30.910  1.00  0.00     0.049 A 
ATOM     58  H   UNL A   1      43.001  25.008  30.932  1.00  0.00     0.167 HD
ATOM     59  C   UNL A   1      44.032  28.106  32.736  1.00  0.00     0.074 A 
ATOM     60  C   UNL A   1      44.273  28.924  33.911  1.00  0.00     0.031 C 
ATOM     61  C   UNL A   1      44.432  26.859  32.345  1.00  0.00     0.037 A 
BRANCH  48  62
ATOM     62  C   UNL A   1      43.047  23.799  27.167  1.00  0.00     0.064 A 
ATOM     63  C   UNL A   1      42.711  22.439  27.348  1.00  0.00     0.173 A 
ATOM     64  C   UNL A   1      43.711  24.098  25.965  1.00  0.00     0.173 A 
ATOM     65  F   UNL A   1      42.041  22.018  28.427  1.00  0.00    -0.203 F 
ATOM     66  C   UNL A   1      43.068  21.451  26.431  1.00  0.00     0.198 A 
ATOM     67  C   UNL A   1      44.101  23.102  25.062  1.00  0.00     0.198 A 
ATOM     68  F   UNL A   1      43.978  25.366  25.619  1.00  0.00    -0.203 F 
ATOM     69  F   UNL A   1      42.723  20.176  26.664  1.00  0.00    -0.200 F 
ATOM     70  C   UNL A   1      43.779  21.778  25.296  1.00  0.00     0.200 A 
ATOM     71  F   UNL A   1      44.791  23.431  23.961  1.00  0.00    -0.200 F 
ATOM     72  F   UNL A   1      44.140  20.823  24.428  1.00  0.00    -0.200 F 
ENDBRANCH  48  62
BRANCH  49  73
ATOM     73  C   UNL A   1      41.009  31.750  32.539  1.00  0.00     0.064 A 
ATOM     74  C   UNL A   1      40.153  30.831  33.168  1.00  0.00     0.173 A 
ATOM     75  C   UNL A   1      41.088  33.049  33.057  1.00  0.00     0.173 A 
ATOM     76  F   UNL A   1      39.967  29.612  32.637  1.00  0.00    -0.203 F 
ATOM     77  C   UNL A   1      39.696  31.080  34.452  1.00  0.00     0.198 A 
ATOM     78  C   UNL A   1      40.592  33.309  34.328  1.00  0.00     0.198 A 
ATOM     79  F   UNL A   1      41.798  33.993  32.423  1.00  0.00    -0.203 F 
ATOM     80  F   UNL A   1      39.113  30.100  35.159  1.00  0.00    -0.200 F 
ATOM     81  C   UNL A   1      39.981  32.293  35.053  1.00  0.00     0.200 A 
ATOM     82  F   UNL A   1      40.808  34.505  34.889  1.00  0.00    -0.200 F 
ATOM     83  F   UNL A   1      39.718  32.440  36.352  1.00  0.00    -0.200 F 
ENDBRANCH  49  73
BRANCH  61  84
ATOM     84  C   UNL A   1      45.052  25.791  33.221  1.00  0.00     0.064 A 
ATOM     85  C   UNL A   1      46.411  25.438  33.202  1.00  0.00     0.173 A 
ATOM     86  C   UNL A   1      44.287  25.151  34.232  1.00  0.00     0.173 A 
ATOM     87  F   UNL A   1      47.296  26.071  32.425  1.00  0.00    -0.203 F 
ATOM     88  C   UNL A   1      46.937  24.456  34.045  1.00  0.00     0.198 A 
ATOM     89  C   UNL A   1      44.836  24.243  35.132  1.00  0.00     0.198 A 
ATOM     90  F   UNL A   1      42.982  25.401  34.408  1.00  0.00    -0.203 F 
ATOM     91  F   UNL A   1      48.224  24.105  33.922  1.00  0.00    -0.200 F 
ATOM     92  C   UNL A   1      46.155  23.870  35.018  1.00  0.00     0.200 A 
ATOM     93  F   UNL A   1      44.076  23.748  36.119  1.00  0.00    -0.200 F 
ATOM     94  F   UNL A   1      46.677  22.970  35.860  1.00  0.00    -0.200 F 
ENDBRANCH  61  84
ENDBRANCH  35  36
ENDBRANCH  28  30
ENDBRANCH  27  28
ENDBRANCH  26  27
ENDBRANCH  25  26
ENDBRANCH   1  25
TORSDOF 16
ENDMDL
MODEL 2
REMARK VINA RESULT:     -11.8      2.893      4.576
REMARK SMILES Cc1ccc(F)cc1NC(=O)c1nn(C)cc1C(=O)OCCOCCOC(=O)c1ccc(-c2c3nc(c(-c4c(F)c(F)c(F)c(F)c4F)c4ccc([nH]4)c(-c4c(F)c(F)c(F)c(F)c4F)c4nc(c(-c5c(F)c(F)c(F)c(F)c5F)c5ccc2[nH]5)C=C4)C=C3)cc1
REMARK SMILES IDX 23 1 22 2 21 3 20 4 18 5 19 6 17 7 12 8 13 9 14 10 16 11
REMARK SMILES IDX 15 12 10 13 9 14 11 16 8 17 1 18 2 19 3 20 4 21 7 22 5 23
REMARK SMILES IDX 6 24 24 25 25 26 26 27 27 28 28 29 29 30 30 31 91 32 31 33
REMARK SMILES IDX 90 34 32 35 33 36 34 37 84 38 35 39 89 40 83 41 85 42 36 43
REMARK SMILES IDX 88 44 82 45 81 46 37 48 69 49 49 50 68 51 50 52 53 53 67 54
REMARK SMILES IDX 86 55 51 56 52 57 66 59 87 60 54 61 38 62 39 63 47 64 40 65
REMARK SMILES IDX 41 66 45 67 48 68 42 69 43 70 46 71 44 72 70 73 71 74 79 75
REMARK SMILES IDX 72 76 73 77 77 78 80 79 74 80 75 81 78 82 76 83 55 84 56 85
REMARK SMILES IDX 64 86 57 87 58 88 62 89 65 90 59 91 60 92 63 93 61 94
REMARK H PARENT 9 15 85 47 53 58
REMARK Flexibility Score: inf
ROOT
ATOM      1  O   UNL A   1      31.455  28.066  24.454  1.00  0.00    -0.374 OA
ENDROOT
BRANCH   1   2
ATOM      2  C   UNL A   1      32.534  27.160  24.597  1.00  0.00     0.202 C 
BRANCH   2   3
ATOM      3  C   UNL A   1      32.611  25.854  23.786  1.00  0.00     0.261 C 
BRANCH   3   4
ATOM      4  O   UNL A   1      33.347  24.757  24.351  1.00  0.00    -0.460 OA
BRANCH   4   5
ATOM      5  C   UNL A   1      33.820  23.844  23.448  1.00  0.00     0.342 C 
ATOM      6  O   UNL A   1      33.637  23.911  22.247  1.00  0.00    -0.246 OA
BRANCH   5   7
ATOM      7  C   UNL A   1      34.619  22.803  24.066  1.00  0.00     0.111 A 
ATOM      8  C   UNL A   1      34.241  21.893  25.103  1.00  0.00     0.165 A 
ATOM      9  N   UNL A   1      35.313  21.213  25.554  1.00  0.00    -0.167 NA
ATOM     10  N   UNL A   1      36.319  21.607  24.760  1.00  0.00    -0.274 N 
ATOM     11  C   UNL A   1      35.942  22.498  23.802  1.00  0.00     0.125 A 
ATOM     12  C   UNL A   1      37.645  21.095  25.011  1.00  0.00     0.173 C 
BRANCH   8  13
ATOM     13  C   UNL A   1      32.914  21.684  25.690  1.00  0.00     0.277 C 
ATOM     14  N   UNL A   1      32.220  20.493  25.501  1.00  0.00    -0.320 N 
ATOM     15  H   UNL A   1      31.323  20.502  25.906  1.00  0.00     0.170 HD
ATOM     16  O   UNL A   1      32.334  22.583  26.300  1.00  0.00    -0.267 OA
BRANCH  14  17
ATOM     17  C   UNL A   1      32.523  19.271  24.853  1.00  0.00     0.047 A 
ATOM     18  C   UNL A   1      32.153  20.366  22.527  1.00  0.00     0.046 C 
ATOM     19  C   UNL A   1      32.514  19.215  23.434  1.00  0.00    -0.027 A 
ATOM     20  C   UNL A   1      33.008  18.061  22.781  1.00  0.00     0.008 A 
ATOM     21  C   UNL A   1      33.473  16.967  23.502  1.00  0.00     0.039 A 
ATOM     22  C   UNL A   1      32.906  18.121  25.549  1.00  0.00     0.065 A 
ATOM     23  C   UNL A   1      33.396  17.000  24.881  1.00  0.00     0.125 A 
ATOM     24  F   UNL A   1      33.842  15.955  25.591  1.00  0.00    -0.207 F 
ENDBRANCH  14  17
ENDBRANCH   8  13
ENDBRANCH   5   7
ENDBRANCH   4   5
ENDBRANCH   3   4
ENDBRANCH   2   3
ENDBRANCH   1   2
BRANCH   1  25
ATOM     25  C   UNL A   1      31.396  29.258  25.211  1.00  0.00     0.202 C 
BRANCH  25  26
ATOM     26  C   UNL A   1      32.060  29.348  26.571  1.00  0.00     0.261 C 
BRANCH  26  27
ATOM     27  O   UNL A   1      33.031  30.362  26.736  1.00  0.00    -0.460 OA
BRANCH  27  28
ATOM     28  C   UNL A   1      34.279  29.864  26.761  1.00  0.00     0.338 C 
ATOM     29  O   UNL A   1      34.722  28.951  26.082  1.00  0.00    -0.246 OA
BRANCH  28  30
ATOM     30  C   UNL A   1      34.992  30.402  27.914  1.00  0.00     0.060 A 
ATOM     31  C   UNL A   1      35.757  31.538  27.630  1.00  0.00     0.016 A 
ATOM     32  C   UNL A   1      35.301  29.513  28.951  1.00  0.00     0.016 A 
ATOM     33  C   UNL A   1      37.010  31.621  28.182  1.00  0.00     0.010 A 
ATOM     34  C   UNL A   1      36.547  29.603  29.508  1.00  0.00     0.010 A 
ATOM     35  C   UNL A   1      37.410  30.595  29.039  1.00  0.00    -0.014 A 
BRANCH  35  36
ATOM     36  C   UNL A   1      38.743  30.560  29.571  1.00  0.00     0.031 A 
ATOM     37  C   UNL A   1      39.512  29.363  29.221  1.00  0.00     0.074 A 
ATOM     38  C   UNL A   1      39.171  31.576  30.346  1.00  0.00     0.049 A 
ATOM     39  N   UNL A   1      40.324  28.776  30.021  1.00  0.00    -0.248 NA
ATOM     40  C   UNL A   1      39.302  28.634  27.967  1.00  0.00     0.031 C 
ATOM     41  C   UNL A   1      40.530  31.851  30.778  1.00  0.00     0.029 A 
ATOM     42  N   UNL A   1      38.386  32.525  31.028  1.00  0.00    -0.354 N 
ATOM     43  C   UNL A   1      40.999  27.846  29.265  1.00  0.00     0.074 A 
ATOM     44  C   UNL A   1      40.218  27.666  28.069  1.00  0.00     0.031 C 
ATOM     45  C   UNL A   1      40.491  32.694  31.825  1.00  0.00     0.029 A 
ATOM     46  C   UNL A   1      39.099  32.873  32.196  1.00  0.00     0.049 A 
ATOM     47  H   UNL A   1      37.511  32.877  30.745  1.00  0.00     0.167 HD
ATOM     48  C   UNL A   1      42.267  27.518  29.634  1.00  0.00     0.037 A 
ATOM     49  C   UNL A   1      38.597  32.626  33.444  1.00  0.00     0.037 A 
ATOM     50  C   UNL A   1      42.637  28.261  30.833  1.00  0.00     0.049 A 
ATOM     51  C   UNL A   1      39.394  31.610  34.201  1.00  0.00     0.074 A 
ATOM     52  C   UNL A   1      43.252  29.495  30.983  1.00  0.00     0.029 A 
ATOM     53  N   UNL A   1      41.983  28.000  32.031  1.00  0.00    -0.354 N 
ATOM     54  N   UNL A   1      40.144  30.711  33.630  1.00  0.00    -0.248 NA
ATOM     55  C   UNL A   1      39.430  31.552  35.654  1.00  0.00     0.031 C 
ATOM     56  C   UNL A   1      42.963  29.976  32.282  1.00  0.00     0.029 A 
ATOM     57  C   UNL A   1      42.179  29.035  32.926  1.00  0.00     0.049 A 
ATOM     58  H   UNL A   1      41.454  27.191  32.216  1.00  0.00     0.167 HD
ATOM     59  C   UNL A   1      40.783  29.982  34.597  1.00  0.00     0.074 A 
ATOM     60  C   UNL A   1      40.317  30.563  35.844  1.00  0.00     0.031 C 
ATOM     61  C   UNL A   1      41.646  28.971  34.280  1.00  0.00     0.037 A 
BRANCH  48  62
ATOM     62  C   UNL A   1      43.249  26.857  28.708  1.00  0.00     0.064 A 
ATOM     63  C   UNL A   1      43.971  27.623  27.766  1.00  0.00     0.173 A 
ATOM     64  C   UNL A   1      43.505  25.474  28.680  1.00  0.00     0.173 A 
ATOM     65  F   UNL A   1      43.857  28.954  27.708  1.00  0.00    -0.203 F 
ATOM     66  C   UNL A   1      44.831  27.046  26.833  1.00  0.00     0.198 A 
ATOM     67  C   UNL A   1      44.341  24.891  27.720  1.00  0.00     0.198 A 
ATOM     68  F   UNL A   1      42.974  24.654  29.599  1.00  0.00    -0.203 F 
ATOM     69  F   UNL A   1      45.485  27.829  25.962  1.00  0.00    -0.200 F 
ATOM     70  C   UNL A   1      45.003  25.678  26.796  1.00  0.00     0.200 A 
ATOM     71  F   UNL A   1      44.502  23.561  27.693  1.00  0.00    -0.200 F 
ATOM     72  F   UNL A   1      45.813  25.124  25.883  1.00  0.00    -0.200 F 
ENDBRANCH  48  62
BRANCH  49  73
ATOM     73  C   UNL A   1      37.124  32.803  33.541  1.00  0.00     0.064 A 
ATOM     74  C   UNL A   1      36.717  34.135  33.730  1.00  0.00     0.173 A 
ATOM     75  C   UNL A   1      36.290  31.948  32.810  1.00  0.00     0.173 A 
ATOM     76  F   UNL A   1      37.435  34.953  34.516  1.00  0.00    -0.203 F 
ATOM     77  C   UNL A   1      35.728  34.674  32.925  1.00  0.00     0.198 A 
ATOM     78  C   UNL A   1      35.270  32.487  32.035  1.00  0.00     0.198 A 
ATOM     79  F   UNL A   1      36.578  30.643  32.704  1.00  0.00    -0.203 F 
ATOM     80  F   UNL A   1      35.525  36.000  32.909  1.00  0.00    -0.200 F 
ATOM     81  C   UNL A   1      35.059  33.860  32.029  1.00  0.00     0.200 A 
ATOM     82  F   UNL A   1      34.575  31.690  31.214  1.00  0.00    -0.200 F 
ATOM     83  F   UNL A   1      34.262  34.427  31.121  1.00  0.00    -0.200 F 
ENDBRANCH  49  73
BRANCH  61  84
ATOM     84  C   UNL A   1      42.180  27.909  35.218  1.00  0.00     0.064 A 
ATOM     85  C   UNL A   1      41.674  26.603  35.309  1.00  0.00     0.173 A 
ATOM     86  C   UNL A   1      43.341  28.151  35.998  1.00  0.00     0.173 A 
ATOM     87  F   UNL A   1      40.690  26.168  34.515  1.00  0.00    -0.203 F 
ATOM     88  C   UNL A   1      42.213  25.654  36.181  1.00  0.00     0.198 A 
ATOM     89  C   UNL A   1      43.933  27.174  36.794  1.00  0.00     0.198 A 
ATOM     90  F   UNL A   1      43.969  29.335  36.001  1.00  0.00    -0.203 F 
ATOM     91  F   UNL A   1      41.634  24.450  36.282  1.00  0.00    -0.200 F 
ATOM     92  C   UNL A   1      43.349  25.934  36.911  1.00  0.00     0.200 A 
ATOM     93  F   UNL A   1      45.081  27.444  37.430  1.00  0.00    -0.200 F 
ATOM     94  F   UNL A   1      43.896  25.003  37.703  1.00  0.00    -0.200 F 
ENDBRANCH  61  84
ENDBRANCH  35  36
ENDBRANCH  28  30
ENDBRANCH  27  28
ENDBRANCH  26  27
ENDBRANCH  25  26
ENDBRANCH   1  25
TORSDOF 16
ENDMDL
MODEL 3
REMARK VINA RESULT:     -11.8      2.225      3.504
REMARK SMILES Cc1ccc(F)cc1NC(=O)c1nn(C)cc1C(=O)OCCOCCOC(=O)c1ccc(-c2c3nc(c(-c4c(F)c(F)c(F)c(F)c4F)c4ccc([nH]4)c(-c4c(F)c(F)c(F)c(F)c4F)c4nc(c(-c5c(F)c(F)c(F)c(F)c5F)c5ccc2[nH]5)C=C4)C=C3)cc1
REMARK SMILES IDX 23 1 22 2 21 3 20 4 18 5 19 6 17 7 12 8 13 9 14 10 16 11
REMARK SMILES IDX 15 12 10 13 9 14 11 16 8 17 1 18 2 19 3 20 4 21 7 22 5 23
REMARK SMILES IDX 6 24 24 25 25 26 26 27 27 28 28 29 29 30 30 31 91 32 31 33
REMARK SMILES IDX 90 34 32 35 33 36 34 37 84 38 35 39 89 40 83 41 85 42 36 43
REMARK SMILES IDX 88 44 82 45 81 46 37 48 69 49 49 50 68 51 50 52 53 53 67 54
REMARK SMILES IDX 86 55 51 56 52 57 66 59 87 60 54 61 38 62 39 63 47 64 40 65
REMARK SMILES IDX 41 66 45 67 48 68 42 69 43 70 46 71 44 72 70 73 71 74 79 75
REMARK SMILES IDX 72 76 73 77 77 78 80 79 74 80 75 81 78 82 76 83 55 84 56 85
REMARK SMILES IDX 64 86 57 87 58 88 62 89 65 90 59 91 60 92 63 93 61 94
REMARK H PARENT 9 15 85 47 53 58
REMARK Flexibility Score: inf
ROOT
ATOM      1  O   UNL A   1      32.378  29.742  26.131  1.00  0.00    -0.374 OA
ENDROOT
BRANCH   1   2
ATOM      2  C   UNL A   1      32.631  28.396  26.494  1.00  0.00     0.202 C 
BRANCH   2   3
ATOM      3  C   UNL A   1      33.618  27.515  25.709  1.00  0.00     0.261 C 
BRANCH   3   4
ATOM      4  O   UNL A   1      33.858  26.183  26.191  1.00  0.00    -0.460 OA
BRANCH   4   5
ATOM      5  C   UNL A   1      33.596  25.182  25.295  1.00  0.00     0.342 C 
ATOM      6  O   UNL A   1      32.762  25.254  24.411  1.00  0.00    -0.246 OA
BRANCH   5   7
ATOM      7  C   UNL A   1      34.459  24.029  25.471  1.00  0.00     0.111 A 
ATOM      8  C   UNL A   1      34.163  22.792  26.126  1.00  0.00     0.165 A 
ATOM      9  N   UNL A   1      35.279  22.049  26.265  1.00  0.00    -0.167 NA
ATOM     10  N   UNL A   1      36.230  22.749  25.631  1.00  0.00    -0.274 N 
ATOM     11  C   UNL A   1      35.776  23.904  25.069  1.00  0.00     0.125 A 
ATOM     12  C   UNL A   1      37.583  22.247  25.636  1.00  0.00     0.173 C 
BRANCH   8  13
ATOM     13  C   UNL A   1      32.876  22.322  26.645  1.00  0.00     0.277 C 
ATOM     14  N   UNL A   1      32.112  21.391  25.948  1.00  0.00    -0.320 N 
ATOM     15  H   UNL A   1      31.248  21.200  26.381  1.00  0.00     0.170 HD
ATOM     16  O   UNL A   1      32.386  22.796  27.672  1.00  0.00    -0.267 OA
BRANCH  14  17
ATOM     17  C   UNL A   1      32.305  20.660  24.751  1.00  0.00     0.047 A 
ATOM     18  C   UNL A   1      32.804  18.499  26.102  1.00  0.00     0.046 C 
ATOM     19  C   UNL A   1      32.613  19.276  24.823  1.00  0.00    -0.027 A 
ATOM     20  C   UNL A   1      32.609  18.500  23.639  1.00  0.00     0.008 A 
ATOM     21  C   UNL A   1      32.340  19.075  22.401  1.00  0.00     0.039 A 
ATOM     22  C   UNL A   1      32.135  21.226  23.484  1.00  0.00     0.065 A 
ATOM     23  C   UNL A   1      32.127  20.438  22.335  1.00  0.00     0.125 A 
ATOM     24  F   UNL A   1      31.866  21.007  21.150  1.00  0.00    -0.207 F 
ENDBRANCH  14  17
ENDBRANCH   8  13
ENDBRANCH   5   7
ENDBRANCH   4   5
ENDBRANCH   3   4
ENDBRANCH   2   3
ENDBRANCH   1   2
BRANCH   1  25
ATOM     25  C   UNL A   1      32.692  30.806  27.006  1.00  0.00     0.202 C 
BRANCH  25  26
ATOM     26  C   UNL A   1      34.048  30.882  27.682  1.00  0.00     0.261 C 
BRANCH  26  27
ATOM     27  O   UNL A   1      34.698  32.137  27.659  1.00  0.00    -0.460 OA
BRANCH  27  28
ATOM     28  C   UNL A   1      34.394  32.880  28.738  1.00  0.00     0.338 C 
ATOM     29  O   UNL A   1      33.354  33.483  28.948  1.00  0.00    -0.246 OA
BRANCH  28  30
ATOM     30  C   UNL A   1      35.596  33.084  29.538  1.00  0.00     0.060 A 
ATOM     31  C   UNL A   1      36.604  33.796  28.880  1.00  0.00     0.016 A 
ATOM     32  C   UNL A   1      35.856  32.156  30.555  1.00  0.00     0.016 A 
ATOM     33  C   UNL A   1      37.895  33.354  29.019  1.00  0.00     0.010 A 
ATOM     34  C   UNL A   1      37.146  31.724  30.699  1.00  0.00     0.010 A 
ATOM     35  C   UNL A   1      38.121  32.263  29.858  1.00  0.00    -0.014 A 
BRANCH  35  36
ATOM     36  C   UNL A   1      39.428  31.681  29.972  1.00  0.00     0.031 A 
ATOM     37  C   UNL A   1      39.544  30.322  29.436  1.00  0.00     0.074 A 
ATOM     38  C   UNL A   1      40.415  32.384  30.563  1.00  0.00     0.049 A 
ATOM     39  N   UNL A   1      40.256  29.400  29.972  1.00  0.00    -0.248 NA
ATOM     40  C   UNL A   1      38.725  29.848  28.317  1.00  0.00     0.031 C 
ATOM     41  C   UNL A   1      41.836  32.088  30.567  1.00  0.00     0.029 A 
ATOM     42  N   UNL A   1      40.282  33.488  31.426  1.00  0.00    -0.354 N 
ATOM     43  C   UNL A   1      40.278  28.362  29.070  1.00  0.00     0.074 A 
ATOM     44  C   UNL A   1      39.186  28.603  28.163  1.00  0.00     0.031 C 
ATOM     45  C   UNL A   1      42.422  32.781  31.560  1.00  0.00     0.029 A 
ATOM     46  C   UNL A   1      41.372  33.432  32.322  1.00  0.00     0.049 A 
ATOM     47  H   UNL A   1      39.570  34.168  31.408  1.00  0.00     0.167 HD
ATOM     48  C   UNL A   1      41.370  27.550  29.054  1.00  0.00     0.037 A 
ATOM     49  C   UNL A   1      41.187  33.272  33.668  1.00  0.00     0.037 A 
ATOM     50  C   UNL A   1      42.319  27.983  30.073  1.00  0.00     0.049 A 
ATOM     51  C   UNL A   1      41.709  31.965  34.177  1.00  0.00     0.074 A 
ATOM     52  C   UNL A   1      43.377  28.877  30.007  1.00  0.00     0.029 A 
ATOM     53  N   UNL A   1      41.981  27.873  31.416  1.00  0.00    -0.354 N 
ATOM     54  N   UNL A   1      41.860  30.910  33.429  1.00  0.00    -0.248 NA
ATOM     55  C   UNL A   1      42.127  31.760  35.555  1.00  0.00     0.031 C 
ATOM     56  C   UNL A   1      43.674  29.305  31.322  1.00  0.00     0.029 A 
ATOM     57  C   UNL A   1      42.804  28.669  32.190  1.00  0.00     0.049 A 
ATOM     58  H   UNL A   1      41.256  27.307  31.767  1.00  0.00     0.167 HD
ATOM     59  C   UNL A   1      42.413  29.906  34.178  1.00  0.00     0.074 A 
ATOM     60  C   UNL A   1      42.579  30.497  35.494  1.00  0.00     0.031 C 
ATOM     61  C   UNL A   1      42.693  28.680  33.642  1.00  0.00     0.037 A 
BRANCH  48  62
ATOM     62  C   UNL A   1      41.716  26.660  27.892  1.00  0.00     0.064 A 
ATOM     63  C   UNL A   1      41.117  25.388  27.762  1.00  0.00     0.173 A 
ATOM     64  C   UNL A   1      42.646  26.992  26.891  1.00  0.00     0.173 A 
ATOM     65  F   UNL A   1      40.185  24.960  28.620  1.00  0.00    -0.203 F 
ATOM     66  C   UNL A   1      41.466  24.496  26.749  1.00  0.00     0.198 A 
ATOM     67  C   UNL A   1      43.023  26.082  25.895  1.00  0.00     0.198 A 
ATOM     68  F   UNL A   1      43.196  28.213  26.834  1.00  0.00    -0.203 F 
ATOM     69  F   UNL A   1      40.862  23.301  26.683  1.00  0.00    -0.200 F 
ATOM     70  C   UNL A   1      42.432  24.835  25.826  1.00  0.00     0.200 A 
ATOM     71  F   UNL A   1      43.962  26.421  25.002  1.00  0.00    -0.200 F 
ATOM     72  F   UNL A   1      42.782  23.966  24.866  1.00  0.00    -0.200 F 
ENDBRANCH  48  62
BRANCH  49  73
ATOM     73  C   UNL A   1      39.989  33.978  34.193  1.00  0.00     0.064 A 
ATOM     74  C   UNL A   1      38.919  33.129  34.521  1.00  0.00     0.173 A 
ATOM     75  C   UNL A   1      40.167  35.147  34.944  1.00  0.00     0.173 A 
ATOM     76  F   UNL A   1      38.651  32.059  33.757  1.00  0.00    -0.203 F 
ATOM     77  C   UNL A   1      38.298  33.247  35.753  1.00  0.00     0.198 A 
ATOM     78  C   UNL A   1      39.510  35.284  36.161  1.00  0.00     0.198 A 
ATOM     79  F   UNL A   1      41.099  36.045  34.596  1.00  0.00    -0.203 F 
ATOM     80  F   UNL A   1      37.472  32.281  36.183  1.00  0.00    -0.200 F 
ATOM     81  C   UNL A   1      38.650  34.284  36.598  1.00  0.00     0.200 A 
ATOM     82  F   UNL A   1      39.800  36.322  36.954  1.00  0.00    -0.200 F 
ATOM     83  F   UNL A   1      38.200  34.267  37.854  1.00  0.00    -0.200 F 
ENDBRANCH  49  73
BRANCH  61  84
ATOM     84  C   UNL A   1      43.016  27.412  34.403  1.00  0.00     0.064 A 
ATOM     85  C   UNL A   1      42.069  26.443  34.771  1.00  0.00     0.173 A 
ATOM     86  C   UNL A   1      44.363  27.064  34.689  1.00  0.00     0.173 A 
ATOM     87  F   UNL A   1      40.782  26.543  34.422  1.00  0.00    -0.203 F 
ATOM     88  C   UNL A   1      42.423  25.280  35.459  1.00  0.00     0.198 A 
ATOM     89  C   UNL A   1      44.720  25.860  35.290  1.00  0.00     0.198 A 
ATOM     90  F   UNL A   1      45.391  27.862  34.373  1.00  0.00    -0.203 F 
ATOM     91  F   UNL A   1      41.462  24.433  35.855  1.00  0.00    -0.200 F 
ATOM     92  C   UNL A   1      43.746  24.982  35.705  1.00  0.00     0.200 A 
ATOM     93  F   UNL A   1      46.016  25.556  35.445  1.00  0.00    -0.200 F 
ATOM     94  F   UNL A   1      44.084  23.839  36.315  1.00  0.00    -0.200 F 
ENDBRANCH  61  84
ENDBRANCH  35  36
ENDBRANCH  28  30
ENDBRANCH  27  28
ENDBRANCH  26  27
ENDBRANCH  25  26
ENDBRANCH   1  25
TORSDOF 16
ENDMDL
