MODEL 1
REMARK VINA RESULT:     -12.1      0.000      0.000
REMARK SMILES O=C(OCCOCCOC(=O)c1ccc(Cl)cc1-c1ccc(C(F)(F)F)cc1)c1ccc(-c2c3nc(c(-c4c(F)c(F)c(F)c(F)c4F)c4ccc([nH]4)c(-c4c(F)c(F)c(F)c(F)c4F)c4nc(c(-c5c(F)c(F)c(F)c(F)c5F)c5ccc2[nH]5)C=C4)C=C3)cc1
REMARK SMILES IDX 6 1 5 2 4 3 3 4 2 5 1 6 29 7 30 8 91 9 31 10 90 11 32 12
REMARK SMILES IDX 33 13 34 14 84 15 35 16 89 17 83 18 85 19 36 20 88 21 82 22
REMARK SMILES IDX 81 23 37 25 69 26 49 27 68 28 50 29 53 30 67 31 86 32 51 33
REMARK SMILES IDX 52 34 66 36 87 37 54 38 38 39 39 40 47 41 40 42 41 43 45 44
REMARK SMILES IDX 48 45 42 46 43 47 46 48 44 49 70 50 71 51 79 52 72 53 73 54
REMARK SMILES IDX 77 55 80 56 74 57 75 58 78 59 76 60 55 61 56 62 64 63 57 64
REMARK SMILES IDX 58 65 62 66 65 67 59 68 60 69 63 70 61 71 7 72 8 73 9 74
REMARK SMILES IDX 10 75 11 76 12 77 13 78 18 79 14 80 17 81 15 82 16 83 19 84
REMARK SMILES IDX 20 85 28 86 21 87 27 88 22 89 23 90 24 91 25 92 26 93
REMARK H PARENT 85 24 53 35
REMARK Flexibility Score: inf
ROOT
ATOM      1  O   UNL A   1      32.728  28.363  25.004  1.00  0.00    -0.374 OA
ENDROOT
BRANCH   1   2
ATOM      2  C   UNL A   1      31.821  28.717  26.033  1.00  0.00     0.202 C 
BRANCH   2   3
ATOM      3  C   UNL A   1      31.713  30.203  26.401  1.00  0.00     0.261 C 
BRANCH   3   4
ATOM      4  O   UNL A   1      32.941  30.931  26.217  1.00  0.00    -0.460 OA
BRANCH   4   5
ATOM      5  C   UNL A   1      33.489  31.700  27.200  1.00  0.00     0.338 C 
ATOM      6  O   UNL A   1      32.967  32.747  27.559  1.00  0.00    -0.246 OA
BRANCH   5   7
ATOM      7  C   UNL A   1      34.772  31.266  27.807  1.00  0.00     0.060 A 
ATOM      8  C   UNL A   1      35.725  32.210  28.159  1.00  0.00     0.016 A 
ATOM      9  C   UNL A   1      35.015  29.934  28.125  1.00  0.00     0.016 A 
ATOM     10  C   UNL A   1      36.977  31.874  28.609  1.00  0.00     0.010 A 
ATOM     11  C   UNL A   1      36.200  29.598  28.790  1.00  0.00     0.010 A 
ATOM     12  C   UNL A   1      37.181  30.578  29.036  1.00  0.00    -0.014 A 
BRANCH  12  13
ATOM     13  C   UNL A   1      38.415  30.295  29.789  1.00  0.00     0.031 A 
ATOM     14  C   UNL A   1      39.448  29.436  29.156  1.00  0.00     0.074 A 
ATOM     15  C   UNL A   1      38.590  30.845  31.009  1.00  0.00     0.049 A 
ATOM     16  N   UNL A   1      40.464  28.830  29.701  1.00  0.00    -0.248 NA
ATOM     17  C   UNL A   1      39.299  29.206  27.710  1.00  0.00     0.031 C 
ATOM     18  C   UNL A   1      37.681  31.802  31.654  1.00  0.00     0.029 A 
ATOM     19  N   UNL A   1      39.592  30.684  31.928  1.00  0.00    -0.354 N 
ATOM     20  C   UNL A   1      41.029  28.080  28.682  1.00  0.00     0.074 A 
ATOM     21  C   UNL A   1      40.251  28.316  27.486  1.00  0.00     0.031 C 
ATOM     22  C   UNL A   1      38.176  32.156  32.846  1.00  0.00     0.029 A 
ATOM     23  C   UNL A   1      39.361  31.357  33.105  1.00  0.00     0.049 A 
ATOM     24  H   UNL A   1      40.396  30.142  31.763  1.00  0.00     0.167 HD
ATOM     25  C   UNL A   1      42.093  27.251  28.774  1.00  0.00     0.037 A 
ATOM     26  C   UNL A   1      39.992  31.268  34.289  1.00  0.00     0.037 A 
ATOM     27  C   UNL A   1      42.839  27.079  29.991  1.00  0.00     0.049 A 
ATOM     28  C   UNL A   1      41.136  30.299  34.385  1.00  0.00     0.074 A 
ATOM     29  C   UNL A   1      43.918  26.254  30.241  1.00  0.00     0.029 A 
ATOM     30  N   UNL A   1      42.569  27.764  31.173  1.00  0.00    -0.354 N 
ATOM     31  N   UNL A   1      41.628  29.516  33.453  1.00  0.00    -0.248 NA
ATOM     32  C   UNL A   1      41.797  30.180  35.687  1.00  0.00     0.031 C 
ATOM     33  C   UNL A   1      44.268  26.404  31.587  1.00  0.00     0.029 A 
ATOM     34  C   UNL A   1      43.450  27.369  32.163  1.00  0.00     0.049 A 
ATOM     35  H   UNL A   1      41.856  28.433  31.287  1.00  0.00     0.167 HD
ATOM     36  C   UNL A   1      42.667  28.819  34.047  1.00  0.00     0.074 A 
ATOM     37  C   UNL A   1      42.739  29.285  35.421  1.00  0.00     0.031 C 
ATOM     38  C   UNL A   1      43.485  27.878  33.514  1.00  0.00     0.037 A 
BRANCH  25  39
ATOM     39  C   UNL A   1      42.409  26.422  27.563  1.00  0.00     0.064 A 
ATOM     40  C   UNL A   1      41.785  25.190  27.311  1.00  0.00     0.173 A 
ATOM     41  C   UNL A   1      43.429  26.827  26.689  1.00  0.00     0.173 A 
ATOM     42  F   UNL A   1      40.825  24.739  28.132  1.00  0.00    -0.203 F 
ATOM     43  C   UNL A   1      42.211  24.371  26.266  1.00  0.00     0.198 A 
ATOM     44  C   UNL A   1      43.827  26.025  25.624  1.00  0.00     0.198 A 
ATOM     45  F   UNL A   1      44.065  27.993  26.885  1.00  0.00    -0.203 F 
ATOM     46  F   UNL A   1      41.666  23.158  26.104  1.00  0.00    -0.200 F 
ATOM     47  C   UNL A   1      43.231  24.789  25.424  1.00  0.00     0.200 A 
ATOM     48  F   UNL A   1      44.810  26.432  24.810  1.00  0.00    -0.200 F 
ATOM     49  F   UNL A   1      43.655  23.991  24.435  1.00  0.00    -0.200 F 
ENDBRANCH  25  39
BRANCH  26  50
ATOM     50  C   UNL A   1      39.501  32.047  35.457  1.00  0.00     0.064 A 
ATOM     51  C   UNL A   1      39.890  33.377  35.660  1.00  0.00     0.173 A 
ATOM     52  C   UNL A   1      38.595  31.491  36.377  1.00  0.00     0.173 A 
ATOM     53  F   UNL A   1      40.763  33.954  34.822  1.00  0.00    -0.203 F 
ATOM     54  C   UNL A   1      39.400  34.117  36.737  1.00  0.00     0.198 A 
ATOM     55  C   UNL A   1      38.082  32.241  37.434  1.00  0.00     0.198 A 
ATOM     56  F   UNL A   1      38.181  30.223  36.232  1.00  0.00    -0.203 F 
ATOM     57  F   UNL A   1      39.815  35.377  36.924  1.00  0.00    -0.200 F 
ATOM     58  C   UNL A   1      38.490  33.552  37.617  1.00  0.00     0.200 A 
ATOM     59  F   UNL A   1      37.186  31.695  38.269  1.00  0.00    -0.200 F 
ATOM     60  F   UNL A   1      38.009  34.269  38.642  1.00  0.00    -0.200 F 
ENDBRANCH  26  50
BRANCH  38  61
ATOM     61  C   UNL A   1      44.554  27.331  34.407  1.00  0.00     0.064 A 
ATOM     62  C   UNL A   1      45.792  27.972  34.550  1.00  0.00     0.173 A 
ATOM     63  C   UNL A   1      44.294  26.201  35.195  1.00  0.00     0.173 A 
ATOM     64  F   UNL A   1      46.088  29.045  33.801  1.00  0.00    -0.203 F 
ATOM     65  C   UNL A   1      46.738  27.495  35.451  1.00  0.00     0.198 A 
ATOM     66  C   UNL A   1      45.229  25.746  36.117  1.00  0.00     0.198 A 
ATOM     67  F   UNL A   1      43.120  25.559  35.093  1.00  0.00    -0.203 F 
ATOM     68  F   UNL A   1      47.928  28.101  35.553  1.00  0.00    -0.200 F 
ATOM     69  C   UNL A   1      46.450  26.392  36.242  1.00  0.00     0.200 A 
ATOM     70  F   UNL A   1      44.944  24.692  36.893  1.00  0.00    -0.200 F 
ATOM     71  F   UNL A   1      47.353  25.950  37.128  1.00  0.00    -0.200 F 
ENDBRANCH  38  61
ENDBRANCH  12  13
ENDBRANCH   5   7
ENDBRANCH   4   5
ENDBRANCH   3   4
ENDBRANCH   2   3
ENDBRANCH   1   2
BRANCH   1  72
ATOM     72  C   UNL A   1      33.611  27.289  25.290  1.00  0.00     0.202 C 
BRANCH  72  73
ATOM     73  C   UNL A   1      33.012  26.487  26.434  1.00  0.00     0.261 C 
BRANCH  73  74
ATOM     74  O   UNL A   1      33.098  25.090  26.103  1.00  0.00    -0.460 OA
BRANCH  74  75
ATOM     75  C   UNL A   1      31.998  24.312  26.298  1.00  0.00     0.338 C 
ATOM     76  O   UNL A   1      31.229  24.332  27.243  1.00  0.00    -0.246 OA
BRANCH  75  77
ATOM     77  C   UNL A   1      31.876  23.444  25.096  1.00  0.00     0.068 A 
ATOM     78  C   UNL A   1      32.421  22.147  25.230  1.00  0.00     0.018 A 
ATOM     79  C   UNL A   1      31.323  23.864  23.859  1.00  0.00    -0.002 A 
ATOM     80  C   UNL A   1      32.436  21.262  24.159  1.00  0.00     0.021 A 
ATOM     81  C   UNL A   1      31.322  22.925  22.805  1.00  0.00     0.030 A 
ATOM     82  C   UNL A   1      31.876  21.652  22.952  1.00  0.00     0.041 A 
ATOM     83  Cl  UNL A   1      31.890  20.567  21.620  1.00  0.00    -0.084 Cl
BRANCH  79  84
ATOM     84  C   UNL A   1      30.849  25.228  23.528  1.00  0.00    -0.017 A 
ATOM     85  C   UNL A   1      29.702  25.792  24.098  1.00  0.00     0.009 A 
ATOM     86  C   UNL A   1      31.521  25.984  22.543  1.00  0.00     0.009 A 
ATOM     87  C   UNL A   1      29.277  27.086  23.745  1.00  0.00     0.014 A 
ATOM     88  C   UNL A   1      31.115  27.282  22.204  1.00  0.00     0.014 A 
ATOM     89  C   UNL A   1      29.999  27.858  22.822  1.00  0.00     0.056 A 
BRANCH  89  90
ATOM     90  C   UNL A   1      29.596  29.276  22.490  1.00  0.00     0.416 C 
ATOM     91  F   UNL A   1      28.318  29.364  22.032  1.00  0.00    -0.166 F 
ATOM     92  F   UNL A   1      29.681  30.132  23.546  1.00  0.00    -0.166 F 
ATOM     93  F   UNL A   1      30.378  29.821  21.513  1.00  0.00    -0.166 F 
ENDBRANCH  89  90
ENDBRANCH  79  84
ENDBRANCH  75  77
ENDBRANCH  74  75
ENDBRANCH  73  74
ENDBRANCH  72  73
ENDBRANCH   1  72
TORSDOF 16
ENDMDL
MODEL 2
REMARK VINA RESULT:     -11.9      1.802      2.759
REMARK SMILES O=C(OCCOCCOC(=O)c1ccc(Cl)cc1-c1ccc(C(F)(F)F)cc1)c1ccc(-c2c3nc(c(-c4c(F)c(F)c(F)c(F)c4F)c4ccc([nH]4)c(-c4c(F)c(F)c(F)c(F)c4F)c4nc(c(-c5c(F)c(F)c(F)c(F)c5F)c5ccc2[nH]5)C=C4)C=C3)cc1
REMARK SMILES IDX 6 1 5 2 4 3 3 4 2 5 1 6 29 7 30 8 91 9 31 10 90 11 32 12
REMARK SMILES IDX 33 13 34 14 84 15 35 16 89 17 83 18 85 19 36 20 88 21 82 22
REMARK SMILES IDX 81 23 37 25 69 26 49 27 68 28 50 29 53 30 67 31 86 32 51 33
REMARK SMILES IDX 52 34 66 36 87 37 54 38 38 39 39 40 47 41 40 42 41 43 45 44
REMARK SMILES IDX 48 45 42 46 43 47 46 48 44 49 70 50 71 51 79 52 72 53 73 54
REMARK SMILES IDX 77 55 80 56 74 57 75 58 78 59 76 60 55 61 56 62 64 63 57 64
REMARK SMILES IDX 58 65 62 66 65 67 59 68 60 69 63 70 61 71 7 72 8 73 9 74
REMARK SMILES IDX 10 75 11 76 12 77 13 78 18 79 14 80 17 81 15 82 16 83 19 84
REMARK SMILES IDX 20 85 28 86 21 87 27 88 22 89 23 90 24 91 25 92 26 93
REMARK H PARENT 85 24 53 35
REMARK Flexibility Score: inf
ROOT
ATOM      1  O   UNL A   1      31.765  30.760  26.429  1.00  0.00    -0.374 OA
ENDROOT
BRANCH   1   2
ATOM      2  C   UNL A   1      31.451  32.101  26.760  1.00  0.00     0.202 C 
BRANCH   2   3
ATOM      3  C   UNL A   1      32.600  33.002  27.231  1.00  0.00     0.261 C 
BRANCH   3   4
ATOM      4  O   UNL A   1      32.157  34.190  27.912  1.00  0.00    -0.460 OA
BRANCH   4   5
ATOM      5  C   UNL A   1      32.949  34.868  28.790  1.00  0.00     0.338 C 
ATOM      6  O   UNL A   1      32.729  36.036  29.080  1.00  0.00    -0.246 OA
BRANCH   5   7
ATOM      7  C   UNL A   1      34.128  34.173  29.364  1.00  0.00     0.060 A 
ATOM      8  C   UNL A   1      35.407  34.597  29.040  1.00  0.00     0.016 A 
ATOM      9  C   UNL A   1      33.989  33.156  30.302  1.00  0.00     0.016 A 
ATOM     10  C   UNL A   1      36.538  33.928  29.435  1.00  0.00     0.010 A 
ATOM     11  C   UNL A   1      35.137  32.607  30.887  1.00  0.00     0.010 A 
ATOM     12  C   UNL A   1      36.417  33.001  30.451  1.00  0.00    -0.014 A 
BRANCH  12  13
ATOM     13  C   UNL A   1      37.656  32.508  31.074  1.00  0.00     0.031 A 
ATOM     14  C   UNL A   1      38.456  31.491  30.345  1.00  0.00     0.074 A 
ATOM     15  C   UNL A   1      38.048  33.009  32.264  1.00  0.00     0.049 A 
ATOM     16  N   UNL A   1      39.406  30.718  30.787  1.00  0.00    -0.248 NA
ATOM     17  C   UNL A   1      38.121  31.302  28.925  1.00  0.00     0.031 C 
ATOM     18  C   UNL A   1      37.386  34.102  32.990  1.00  0.00     0.029 A 
ATOM     19  N   UNL A   1      39.098  32.674  33.075  1.00  0.00    -0.354 N 
ATOM     20  C   UNL A   1      39.727  29.891  29.722  1.00  0.00     0.074 A 
ATOM     21  C   UNL A   1      38.880  30.265  28.612  1.00  0.00     0.031 C 
ATOM     22  C   UNL A   1      38.056  34.357  34.121  1.00  0.00     0.029 A 
ATOM     23  C   UNL A   1      39.109  33.366  34.263  1.00  0.00     0.049 A 
ATOM     24  H   UNL A   1      39.778  32.004  32.832  1.00  0.00     0.167 HD
ATOM     25  C   UNL A   1      40.638  28.892  29.710  1.00  0.00     0.037 A 
ATOM     26  C   UNL A   1      39.836  33.162  35.376  1.00  0.00     0.037 A 
ATOM     27  C   UNL A   1      41.467  28.586  30.845  1.00  0.00     0.049 A 
ATOM     28  C   UNL A   1      40.802  32.013  35.361  1.00  0.00     0.074 A 
ATOM     29  C   UNL A   1      42.411  27.589  30.989  1.00  0.00     0.029 A 
ATOM     30  N   UNL A   1      41.443  29.298  32.042  1.00  0.00    -0.354 N 
ATOM     31  N   UNL A   1      41.055  31.165  34.391  1.00  0.00    -0.248 NA
ATOM     32  C   UNL A   1      41.565  31.772  36.588  1.00  0.00     0.031 C 
ATOM     33  C   UNL A   1      42.920  27.666  32.290  1.00  0.00     0.029 A 
ATOM     34  C   UNL A   1      42.342  28.750  32.939  1.00  0.00     0.049 A 
ATOM     35  H   UNL A   1      40.869  30.077  32.223  1.00  0.00     0.167 HD
ATOM     36  C   UNL A   1      42.016  30.297  34.880  1.00  0.00     0.074 A 
ATOM     37  C   UNL A   1      42.310  30.733  36.235  1.00  0.00     0.031 C 
ATOM     38  C   UNL A   1      42.603  29.236  34.274  1.00  0.00     0.037 A 
BRANCH  25  39
ATOM     39  C   UNL A   1      40.681  28.032  28.482  1.00  0.00     0.064 A 
ATOM     40  C   UNL A   1      40.013  26.801  28.401  1.00  0.00     0.173 A 
ATOM     41  C   UNL A   1      41.491  28.406  27.398  1.00  0.00     0.173 A 
ATOM     42  F   UNL A   1      39.250  26.379  29.421  1.00  0.00    -0.203 F 
ATOM     43  C   UNL A   1      40.198  25.953  27.310  1.00  0.00     0.198 A 
ATOM     44  C   UNL A   1      41.645  27.575  26.292  1.00  0.00     0.198 A 
ATOM     45  F   UNL A   1      42.160  29.570  27.422  1.00  0.00    -0.203 F 
ATOM     46  F   UNL A   1      39.626  24.742  27.300  1.00  0.00    -0.200 F 
ATOM     47  C   UNL A   1      41.014  26.341  26.258  1.00  0.00     0.200 A 
ATOM     48  F   UNL A   1      42.431  27.953  25.276  1.00  0.00    -0.200 F 
ATOM     49  F   UNL A   1      41.210  25.516  25.221  1.00  0.00    -0.200 F 
ENDBRANCH  25  39
BRANCH  26  50
ATOM     50  C   UNL A   1      39.608  34.003  36.581  1.00  0.00     0.064 A 
ATOM     51  C   UNL A   1      38.790  33.564  37.630  1.00  0.00     0.173 A 
ATOM     52  C   UNL A   1      40.237  35.251  36.731  1.00  0.00     0.173 A 
ATOM     53  F   UNL A   1      38.153  32.388  37.535  1.00  0.00    -0.203 F 
ATOM     54  C   UNL A   1      38.605  34.339  38.775  1.00  0.00     0.198 A 
ATOM     55  C   UNL A   1      40.077  36.010  37.889  1.00  0.00     0.198 A 
ATOM     56  F   UNL A   1      41.036  35.722  35.762  1.00  0.00    -0.203 F 
ATOM     57  F   UNL A   1      37.792  33.908  39.749  1.00  0.00    -0.200 F 
ATOM     58  C   UNL A   1      39.256  35.557  38.908  1.00  0.00     0.200 A 
ATOM     59  F   UNL A   1      40.726  37.176  38.019  1.00  0.00    -0.200 F 
ATOM     60  F   UNL A   1      39.089  36.293  40.015  1.00  0.00    -0.200 F 
ENDBRANCH  26  50
BRANCH  38  61
ATOM     61  C   UNL A   1      43.652  28.508  35.056  1.00  0.00     0.064 A 
ATOM     62  C   UNL A   1      44.998  28.892  35.016  1.00  0.00     0.173 A 
ATOM     63  C   UNL A   1      43.280  27.471  35.924  1.00  0.00     0.173 A 
ATOM     64  F   UNL A   1      45.399  29.866  34.185  1.00  0.00    -0.203 F 
ATOM     65  C   UNL A   1      45.941  28.257  35.817  1.00  0.00     0.198 A 
ATOM     66  C   UNL A   1      44.220  26.861  36.747  1.00  0.00     0.198 A 
ATOM     67  F   UNL A   1      42.000  27.074  35.997  1.00  0.00    -0.203 F 
ATOM     68  F   UNL A   1      47.230  28.616  35.744  1.00  0.00    -0.200 F 
ATOM     69  C   UNL A   1      45.549  27.253  36.691  1.00  0.00     0.200 A 
ATOM     70  F   UNL A   1      43.837  25.904  37.602  1.00  0.00    -0.200 F 
ATOM     71  F   UNL A   1      46.455  26.661  37.481  1.00  0.00    -0.200 F 
ENDBRANCH  38  61
ENDBRANCH  12  13
ENDBRANCH   5   7
ENDBRANCH   4   5
ENDBRANCH   3   4
ENDBRANCH   2   3
ENDBRANCH   1   2
BRANCH   1  72
ATOM     72  C   UNL A   1      33.030  30.285  26.870  1.00  0.00     0.202 C 
BRANCH  72  73
ATOM     73  C   UNL A   1      33.414  29.105  25.992  1.00  0.00     0.261 C 
BRANCH  73  74
ATOM     74  O   UNL A   1      33.289  27.902  26.770  1.00  0.00    -0.460 OA
BRANCH  74  75
ATOM     75  C   UNL A   1      32.166  27.147  26.617  1.00  0.00     0.338 C 
ATOM     76  O   UNL A   1      31.096  27.280  27.184  1.00  0.00    -0.246 OA
BRANCH  75  77
ATOM     77  C   UNL A   1      32.476  26.137  25.570  1.00  0.00     0.068 A 
ATOM     78  C   UNL A   1      33.454  25.182  25.924  1.00  0.00     0.018 A 
ATOM     79  C   UNL A   1      31.908  26.133  24.270  1.00  0.00    -0.002 A 
ATOM     80  C   UNL A   1      33.887  24.227  25.011  1.00  0.00     0.021 A 
ATOM     81  C   UNL A   1      32.345  25.125  23.382  1.00  0.00     0.030 A 
ATOM     82  C   UNL A   1      33.321  24.196  23.746  1.00  0.00     0.041 A 
ATOM     83  Cl  UNL A   1      33.849  23.022  22.607  1.00  0.00    -0.084 Cl
BRANCH  79  84
ATOM     84  C   UNL A   1      30.985  27.150  23.711  1.00  0.00    -0.017 A 
ATOM     85  C   UNL A   1      29.592  27.027  23.776  1.00  0.00     0.009 A 
ATOM     86  C   UNL A   1      31.506  28.261  23.015  1.00  0.00     0.009 A 
ATOM     87  C   UNL A   1      28.751  28.008  23.220  1.00  0.00     0.014 A 
ATOM     88  C   UNL A   1      30.672  29.253  22.479  1.00  0.00     0.014 A 
ATOM     89  C   UNL A   1      29.282  29.148  22.598  1.00  0.00     0.056 A 
BRANCH  89  90
ATOM     90  C   UNL A   1      28.390  30.245  22.063  1.00  0.00     0.416 C 
ATOM     91  F   UNL A   1      29.058  31.414  21.867  1.00  0.00    -0.166 F 
ATOM     92  F   UNL A   1      27.800  29.941  20.874  1.00  0.00    -0.166 F 
ATOM     93  F   UNL A   1      27.366  30.540  22.916  1.00  0.00    -0.166 F 
ENDBRANCH  89  90
ENDBRANCH  79  84
ENDBRANCH  75  77
ENDBRANCH  74  75
ENDBRANCH  73  74
ENDBRANCH  72  73
ENDBRANCH   1  72
TORSDOF 16
ENDMDL
MODEL 3
REMARK VINA RESULT:     -11.7      2.553      3.962
REMARK SMILES O=C(OCCOCCOC(=O)c1ccc(Cl)cc1-c1ccc(C(F)(F)F)cc1)c1ccc(-c2c3nc(c(-c4c(F)c(F)c(F)c(F)c4F)c4ccc([nH]4)c(-c4c(F)c(F)c(F)c(F)c4F)c4nc(c(-c5c(F)c(F)c(F)c(F)c5F)c5ccc2[nH]5)C=C4)C=C3)cc1
REMARK SMILES IDX 6 1 5 2 4 3 3 4 2 5 1 6 29 7 30 8 91 9 31 10 90 11 32 12
REMARK SMILES IDX 33 13 34 14 84 15 35 16 89 17 83 18 85 19 36 20 88 21 82 22
REMARK SMILES IDX 81 23 37 25 69 26 49 27 68 28 50 29 53 30 67 31 86 32 51 33
REMARK SMILES IDX 52 34 66 36 87 37 54 38 38 39 39 40 47 41 40 42 41 43 45 44
REMARK SMILES IDX 48 45 42 46 43 47 46 48 44 49 70 50 71 51 79 52 72 53 73 54
REMARK SMILES IDX 77 55 80 56 74 57 75 58 78 59 76 60 55 61 56 62 64 63 57 64
REMARK SMILES IDX 58 65 62 66 65 67 59 68 60 69 63 70 61 71 7 72 8 73 9 74
REMARK SMILES IDX 10 75 11 76 12 77 13 78 18 79 14 80 17 81 15 82 16 83 19 84
REMARK SMILES IDX 20 85 28 86 21 87 27 88 22 89 23 90 24 91 25 92 26 93
REMARK H PARENT 85 24 53 35
REMARK Flexibility Score: inf
ROOT
ATOM      1  O   UNL A   1      32.488  26.961  24.191  1.00  0.00    -0.374 OA
ENDROOT
BRANCH   1   2
ATOM      2  C   UNL A   1      31.811  27.966  24.925  1.00  0.00     0.202 C 
BRANCH   2   3
ATOM      3  C   UNL A   1      32.407  29.380  24.905  1.00  0.00     0.261 C 
BRANCH   3   4
ATOM      4  O   UNL A   1      33.552  29.533  25.764  1.00  0.00    -0.460 OA
BRANCH   4   5
ATOM      5  C   UNL A   1      33.607  30.473  26.749  1.00  0.00     0.338 C 
ATOM      6  O   UNL A   1      32.718  31.303  26.891  1.00  0.00    -0.246 OA
BRANCH   5   7
ATOM      7  C   UNL A   1      34.799  30.508  27.632  1.00  0.00     0.060 A 
ATOM      8  C   UNL A   1      35.264  29.338  28.213  1.00  0.00     0.016 A 
ATOM      9  C   UNL A   1      35.531  31.675  27.823  1.00  0.00     0.016 A 
ATOM     10  C   UNL A   1      36.282  29.315  29.133  1.00  0.00     0.010 A 
ATOM     11  C   UNL A   1      36.706  31.625  28.584  1.00  0.00     0.010 A 
ATOM     12  C   UNL A   1      37.082  30.435  29.236  1.00  0.00    -0.014 A 
BRANCH  12  13
ATOM     13  C   UNL A   1      38.339  30.307  29.992  1.00  0.00     0.031 A 
ATOM     14  C   UNL A   1      39.470  29.578  29.363  1.00  0.00     0.074 A 
ATOM     15  C   UNL A   1      38.443  30.876  31.211  1.00  0.00     0.049 A 
ATOM     16  N   UNL A   1      40.551  29.102  29.911  1.00  0.00    -0.248 NA
ATOM     17  C   UNL A   1      39.353  29.329  27.917  1.00  0.00     0.031 C 
ATOM     18  C   UNL A   1      37.422  31.717  31.852  1.00  0.00     0.029 A 
ATOM     19  N   UNL A   1      39.455  30.841  32.132  1.00  0.00    -0.354 N 
ATOM     20  C   UNL A   1      41.206  28.424  28.895  1.00  0.00     0.074 A 
ATOM     21  C   UNL A   1      40.407  28.561  27.697  1.00  0.00     0.031 C 
ATOM     22  C   UNL A   1      37.868  32.131  33.044  1.00  0.00     0.029 A 
ATOM     23  C   UNL A   1      39.141  31.483  33.307  1.00  0.00     0.049 A 
ATOM     24  H   UNL A   1      40.320  30.400  31.970  1.00  0.00     0.167 HD
ATOM     25  C   UNL A   1      42.362  27.731  28.990  1.00  0.00     0.037 A 
ATOM     26  C   UNL A   1      39.776  31.474  34.493  1.00  0.00     0.037 A 
ATOM     27  C   UNL A   1      43.121  27.654  30.209  1.00  0.00     0.049 A 
ATOM     28  C   UNL A   1      41.029  30.652  34.593  1.00  0.00     0.074 A 
ATOM     29  C   UNL A   1      44.292  26.967  30.463  1.00  0.00     0.029 A 
ATOM     30  N   UNL A   1      42.768  28.304  31.390  1.00  0.00    -0.354 N 
ATOM     31  N   UNL A   1      41.615  29.933  33.664  1.00  0.00    -0.248 NA
ATOM     32  C   UNL A   1      41.697  30.617  35.896  1.00  0.00     0.031 C 
ATOM     33  C   UNL A   1      44.618  27.161  31.810  1.00  0.00     0.029 A 
ATOM     34  C   UNL A   1      43.688  28.020  32.382  1.00  0.00     0.049 A 
ATOM     35  H   UNL A   1      41.978  28.881  31.501  1.00  0.00     0.167 HD
ATOM     36  C   UNL A   1      42.730  29.368  34.261  1.00  0.00     0.074 A 
ATOM     37  C   UNL A   1      42.742  29.843  35.635  1.00  0.00     0.031 C 
ATOM     38  C   UNL A   1      43.657  28.533  33.732  1.00  0.00     0.037 A 
BRANCH  25  39
ATOM     39  C   UNL A   1      42.779  26.944  27.783  1.00  0.00     0.064 A 
ATOM     40  C   UNL A   1      42.550  25.565  27.667  1.00  0.00     0.173 A 
ATOM     41  C   UNL A   1      43.511  27.571  26.763  1.00  0.00     0.173 A 
ATOM     42  F   UNL A   1      41.882  24.908  28.628  1.00  0.00    -0.203 F 
ATOM     43  C   UNL A   1      43.086  24.834  26.608  1.00  0.00     0.198 A 
ATOM     44  C   UNL A   1      44.015  26.846  25.686  1.00  0.00     0.198 A 
ATOM     45  F   UNL A   1      43.767  28.887  26.824  1.00  0.00    -0.203 F 
ATOM     46  F   UNL A   1      42.935  23.503  26.570  1.00  0.00    -0.200 F 
ATOM     47  C   UNL A   1      43.817  25.475  25.619  1.00  0.00     0.200 A 
ATOM     48  F   UNL A   1      44.717  27.468  24.731  1.00  0.00    -0.200 F 
ATOM     49  F   UNL A   1      44.352  24.769  24.614  1.00  0.00    -0.200 F 
ENDBRANCH  25  39
BRANCH  26  50
ATOM     50  C   UNL A   1      39.191  32.190  35.658  1.00  0.00     0.064 A 
ATOM     51  C   UNL A   1      38.362  31.530  36.575  1.00  0.00     0.173 A 
ATOM     52  C   UNL A   1      39.481  33.542  35.906  1.00  0.00     0.173 A 
ATOM     53  F   UNL A   1      38.041  30.243  36.381  1.00  0.00    -0.203 F 
ATOM     54  C   UNL A   1      37.843  32.194  37.686  1.00  0.00     0.198 A 
ATOM     55  C   UNL A   1      38.987  34.196  37.033  1.00  0.00     0.198 A 
ATOM     56  F   UNL A   1      40.273  34.225  35.066  1.00  0.00    -0.203 F 
ATOM     57  F   UNL A   1      37.028  31.546  38.530  1.00  0.00    -0.200 F 
ATOM     58  C   UNL A   1      38.163  33.523  37.920  1.00  0.00     0.200 A 
ATOM     59  F   UNL A   1      39.318  35.475  37.264  1.00  0.00    -0.200 F 
ATOM     60  F   UNL A   1      37.675  34.155  38.996  1.00  0.00    -0.200 F 
ENDBRANCH  26  50
BRANCH  38  61
ATOM     61  C   UNL A   1      44.784  28.122  34.629  1.00  0.00     0.064 A 
ATOM     62  C   UNL A   1      44.725  26.950  35.393  1.00  0.00     0.173 A 
ATOM     63  C   UNL A   1      45.969  28.871  34.646  1.00  0.00     0.173 A 
ATOM     64  F   UNL A   1      43.602  26.216  35.419  1.00  0.00    -0.203 F 
ATOM     65  C   UNL A   1      45.817  26.542  36.152  1.00  0.00     0.198 A 
ATOM     66  C   UNL A   1      47.069  28.443  35.380  1.00  0.00     0.198 A 
ATOM     67  F   UNL A   1      46.070  29.998  33.925  1.00  0.00    -0.203 F 
ATOM     68  F   UNL A   1      45.734  25.435  36.901  1.00  0.00    -0.200 F 
ATOM     69  C   UNL A   1      46.991  27.281  36.133  1.00  0.00     0.200 A 
ATOM     70  F   UNL A   1      48.209  29.148  35.348  1.00  0.00    -0.200 F 
ATOM     71  F   UNL A   1      48.051  26.873  36.844  1.00  0.00    -0.200 F 
ENDBRANCH  38  61
ENDBRANCH  12  13
ENDBRANCH   5   7
ENDBRANCH   4   5
ENDBRANCH   3   4
ENDBRANCH   2   3
ENDBRANCH   1   2
BRANCH   1  72
ATOM     72  C   UNL A   1      33.193  25.993  24.955  1.00  0.00     0.202 C 
BRANCH  72  73
ATOM     73  C   UNL A   1      32.432  24.681  24.857  1.00  0.00     0.261 C 
BRANCH  73  74
ATOM     74  O   UNL A   1      32.497  24.219  23.497  1.00  0.00    -0.460 OA
BRANCH  74  75
ATOM     75  C   UNL A   1      33.632  23.592  23.082  1.00  0.00     0.338 C 
ATOM     76  O   UNL A   1      34.567  24.074  22.467  1.00  0.00    -0.246 OA
BRANCH  75  77
ATOM     77  C   UNL A   1      33.542  22.190  23.570  1.00  0.00     0.068 A 
ATOM     78  C   UNL A   1      32.388  21.483  23.167  1.00  0.00     0.018 A 
ATOM     79  C   UNL A   1      34.488  21.582  24.436  1.00  0.00    -0.002 A 
ATOM     80  C   UNL A   1      32.147  20.189  23.612  1.00  0.00     0.021 A 
ATOM     81  C   UNL A   1      34.229  20.253  24.837  1.00  0.00     0.030 A 
ATOM     82  C   UNL A   1      33.076  19.575  24.438  1.00  0.00     0.041 A 
ATOM     83  Cl  UNL A   1      32.789  17.976  24.997  1.00  0.00    -0.084 Cl
BRANCH  79  84
ATOM     84  C   UNL A   1      35.664  22.240  25.053  1.00  0.00    -0.017 A 
ATOM     85  C   UNL A   1      35.580  23.460  25.734  1.00  0.00     0.009 A 
ATOM     86  C   UNL A   1      36.946  21.671  24.898  1.00  0.00     0.009 A 
ATOM     87  C   UNL A   1      36.723  24.058  26.294  1.00  0.00     0.014 A 
ATOM     88  C   UNL A   1      38.085  22.252  25.473  1.00  0.00     0.014 A 
ATOM     89  C   UNL A   1      37.981  23.443  26.200  1.00  0.00     0.056 A 
BRANCH  89  90
ATOM     90  C   UNL A   1      39.204  24.038  26.860  1.00  0.00     0.416 C 
ATOM     91  F   UNL A   1      38.950  24.496  28.116  1.00  0.00    -0.166 F 
ATOM     92  F   UNL A   1      40.243  23.166  26.977  1.00  0.00    -0.166 F 
ATOM     93  F   UNL A   1      39.697  25.106  26.168  1.00  0.00    -0.166 F 
ENDBRANCH  89  90
ENDBRANCH  79  84
ENDBRANCH  75  77
ENDBRANCH  74  75
ENDBRANCH  73  74
ENDBRANCH  72  73
ENDBRANCH   1  72
TORSDOF 16
ENDMDL
