MODEL 1
REMARK VINA RESULT:     -10.9      0.000      0.000
REMARK SMILES CC(C)[C@@H](C(=O)OCCOCCOC(=O)c1ccc(-c2c3nc(c(-c4c(F)c(F)c(F)c(F)c4F)c4ccc([nH]4)c(-c4c(F)c(F)c(F)c(F)c4F)c4nc(c(-c5c(F)c(F)c(F)c(F)c5F)c5ccc2[nH]5)C=C4)C=C3)cc1)N1C(=O)/C(=C\c2ccc([N+](=O)[O-])cc2)SC1=S
REMARK SMILES IDX 9 1 8 2 7 3 5 4 6 5 4 6 2 7 1 8 3 9 79 10 80 11 94 12 81 13
REMARK SMILES IDX 82 14 93 15 95 16 83 17 84 18 85 19 92 20 86 21 91 22 87 23
REMARK SMILES IDX 88 24 89 25 90 26 10 27 11 28 12 29 13 30 14 31 15 32 16 33
REMARK SMILES IDX 17 34 78 35 18 36 77 37 19 38 20 39 21 40 71 41 22 42 76 43
REMARK SMILES IDX 70 44 72 45 23 46 75 47 69 48 68 49 24 51 56 52 36 53 55 54
REMARK SMILES IDX 37 55 40 56 54 57 73 58 38 59 39 60 53 62 74 63 41 64 25 65
REMARK SMILES IDX 26 66 34 67 27 68 28 69 32 70 35 71 29 72 30 73 33 74 31 75
REMARK SMILES IDX 57 76 58 77 66 78 59 79 60 80 64 81 67 82 61 83 62 84 65 85
REMARK SMILES IDX 63 86 42 87 43 88 51 89 44 90 45 91 49 92 52 93 46 94 47 95
REMARK SMILES IDX 50 96 48 97
REMARK H PARENT 72 50 40 61
REMARK Flexibility Score: inf
ROOT
ATOM      1  C   UNL A   1      32.724  29.920  26.020  1.00  0.00     0.202 C 
ENDROOT
BRANCH   1   2
ATOM      2  C   UNL A   1      32.852  28.422  26.313  1.00  0.00     0.261 C 
BRANCH   2   3
ATOM      3  O   UNL A   1      32.637  27.629  25.128  1.00  0.00    -0.462 OA
BRANCH   3   4
ATOM      4  C   UNL A   1      33.354  26.480  25.039  1.00  0.00     0.329 C 
ATOM      5  O   UNL A   1      33.779  25.872  26.017  1.00  0.00    -0.250 OA
BRANCH   4   6
ATOM      6  C   UNL A   1      33.623  26.045  23.575  1.00  0.00     0.204 C 
BRANCH   6   7
ATOM      7  C   UNL A   1      33.091  26.945  22.421  1.00  0.00     0.017 C 
ATOM      8  C   UNL A   1      33.987  28.147  22.080  1.00  0.00     0.010 C 
ATOM      9  C   UNL A   1      32.928  26.122  21.131  1.00  0.00     0.010 C 
ENDBRANCH   6   7
BRANCH   6  10
ATOM     10  N   UNL A   1      33.174  24.611  23.556  1.00  0.00    -0.278 N 
ATOM     11  C   UNL A   1      34.198  23.678  23.714  1.00  0.00     0.267 C 
ATOM     12  C   UNL A   1      31.894  24.092  23.647  1.00  0.00     0.149 C 
ATOM     13  O   UNL A   1      35.392  23.914  23.576  1.00  0.00    -0.268 OA
ATOM     14  C   UNL A   1      33.644  22.356  24.113  1.00  0.00     0.081 C 
ATOM     15  S   UNL A   1      31.957  22.336  23.816  1.00  0.00    -0.054 SA
ATOM     16  S   UNL A   1      30.404  24.839  23.622  1.00  0.00    -0.052 S 
ATOM     17  C   UNL A   1      34.287  21.354  24.727  1.00  0.00     0.029 C 
BRANCH  17  18
ATOM     18  C   UNL A   1      35.680  21.424  25.159  1.00  0.00    -0.024 A 
ATOM     19  C   UNL A   1      36.582  20.434  24.761  1.00  0.00     0.015 A 
ATOM     20  C   UNL A   1      36.122  22.502  25.941  1.00  0.00     0.015 A 
ATOM     21  C   UNL A   1      37.929  20.528  25.119  1.00  0.00     0.086 A 
ATOM     22  C   UNL A   1      37.465  22.604  26.305  1.00  0.00     0.086 A 
ATOM     23  C   UNL A   1      38.367  21.618  25.883  1.00  0.00     0.269 A 
BRANCH  23  24
ATOM     24  N   UNL A   1      39.786  21.737  26.233  1.00  0.00     0.062 N 
ATOM     25  O   UNL A   1      40.075  22.341  27.277  1.00  0.00    -0.258 OA
ATOM     26  O   UNL A   1      40.616  21.227  25.466  1.00  0.00    -0.258 OA
ENDBRANCH  23  24
ENDBRANCH  17  18
ENDBRANCH   6  10
ENDBRANCH   4   6
ENDBRANCH   3   4
ENDBRANCH   2   3
ENDBRANCH   1   2
BRANCH   1  27
ATOM     27  O   UNL A   1      32.234  30.722  27.094  1.00  0.00    -0.374 OA
BRANCH  27  28
ATOM     28  C   UNL A   1      31.517  31.904  26.743  1.00  0.00     0.202 C 
BRANCH  28  29
ATOM     29  C   UNL A   1      32.134  33.226  27.201  1.00  0.00     0.261 C 
BRANCH  29  30
ATOM     30  O   UNL A   1      33.244  32.988  28.084  1.00  0.00    -0.460 OA
BRANCH  30  31
ATOM     31  C   UNL A   1      34.320  33.767  27.844  1.00  0.00     0.338 C 
ATOM     32  O   UNL A   1      34.325  34.942  27.500  1.00  0.00    -0.246 OA
BRANCH  31  33
ATOM     33  C   UNL A   1      35.555  33.058  28.219  1.00  0.00     0.060 A 
ATOM     34  C   UNL A   1      35.444  31.683  28.461  1.00  0.00     0.016 A 
ATOM     35  C   UNL A   1      36.775  33.716  28.399  1.00  0.00     0.016 A 
ATOM     36  C   UNL A   1      36.531  30.974  28.959  1.00  0.00     0.010 A 
ATOM     37  C   UNL A   1      37.868  33.002  28.902  1.00  0.00     0.010 A 
ATOM     38  C   UNL A   1      37.734  31.640  29.226  1.00  0.00    -0.014 A 
BRANCH  38  39
ATOM     39  C   UNL A   1      38.785  30.932  29.994  1.00  0.00     0.031 A 
ATOM     40  C   UNL A   1      38.909  31.193  31.469  1.00  0.00     0.074 A 
ATOM     41  C   UNL A   1      39.575  30.024  29.396  1.00  0.00     0.049 A 
ATOM     42  N   UNL A   1      39.734  30.670  32.340  1.00  0.00    -0.248 NA
ATOM     43  C   UNL A   1      37.975  32.177  32.041  1.00  0.00     0.031 C 
ATOM     44  C   UNL A   1      39.521  29.661  27.982  1.00  0.00     0.029 A 
ATOM     45  N   UNL A   1      40.575  29.239  29.910  1.00  0.00    -0.354 N 
ATOM     46  C   UNL A   1      39.422  31.262  33.557  1.00  0.00     0.074 A 
ATOM     47  C   UNL A   1      38.355  32.207  33.309  1.00  0.00     0.031 C 
ATOM     48  C   UNL A   1      40.454  28.726  27.737  1.00  0.00     0.029 A 
ATOM     49  C   UNL A   1      41.184  28.444  28.972  1.00  0.00     0.049 A 
ATOM     50  H   UNL A   1      40.832  29.245  30.861  1.00  0.00     0.167 HD
ATOM     51  C   UNL A   1      39.969  31.027  34.774  1.00  0.00     0.037 A 
ATOM     52  C   UNL A   1      42.224  27.596  29.097  1.00  0.00     0.037 A 
ATOM     53  C   UNL A   1      41.025  30.081  35.017  1.00  0.00     0.049 A 
ATOM     54  C   UNL A   1      42.853  27.396  30.450  1.00  0.00     0.074 A 
ATOM     55  C   UNL A   1      41.628  29.750  36.218  1.00  0.00     0.029 A 
ATOM     56  N   UNL A   1      41.643  29.321  34.035  1.00  0.00    -0.354 N 
ATOM     57  N   UNL A   1      42.531  27.933  31.601  1.00  0.00    -0.248 NA
ATOM     58  C   UNL A   1      43.990  26.467  30.521  1.00  0.00     0.031 C 
ATOM     59  C   UNL A   1      42.646  28.826  35.955  1.00  0.00     0.029 A 
ATOM     60  C   UNL A   1      42.643  28.543  34.598  1.00  0.00     0.049 A 
ATOM     61  H   UNL A   1      41.407  29.333  33.079  1.00  0.00     0.167 HD
ATOM     62  C   UNL A   1      43.404  27.393  32.535  1.00  0.00     0.074 A 
ATOM     63  C   UNL A   1      44.263  26.473  31.818  1.00  0.00     0.031 C 
ATOM     64  C   UNL A   1      43.488  27.633  33.867  1.00  0.00     0.037 A 
BRANCH  51  65
ATOM     65  C   UNL A   1      39.449  31.829  35.931  1.00  0.00     0.064 A 
ATOM     66  C   UNL A   1      39.971  33.091  36.251  1.00  0.00     0.173 A 
ATOM     67  C   UNL A   1      38.395  31.337  36.716  1.00  0.00     0.173 A 
ATOM     68  F   UNL A   1      40.991  33.600  35.541  1.00  0.00    -0.203 F 
ATOM     69  C   UNL A   1      39.477  33.819  37.331  1.00  0.00     0.198 A 
ATOM     70  C   UNL A   1      37.883  32.080  37.777  1.00  0.00     0.198 A 
ATOM     71  F   UNL A   1      37.857  30.138  36.451  1.00  0.00    -0.203 F 
ATOM     72  F   UNL A   1      40.023  35.001  37.647  1.00  0.00    -0.200 F 
ATOM     73  C   UNL A   1      38.429  33.316  38.088  1.00  0.00     0.200 A 
ATOM     74  F   UNL A   1      36.864  31.597  38.500  1.00  0.00    -0.200 F 
ATOM     75  F   UNL A   1      37.950  34.019  39.123  1.00  0.00    -0.200 F 
ENDBRANCH  51  65
BRANCH  52  76
ATOM     76  C   UNL A   1      42.736  26.878  27.902  1.00  0.00     0.064 A 
ATOM     77  C   UNL A   1      42.287  25.591  27.581  1.00  0.00     0.173 A 
ATOM     78  C   UNL A   1      43.687  27.467  27.056  1.00  0.00     0.173 A 
ATOM     79  F   UNL A   1      41.395  24.976  28.373  1.00  0.00    -0.203 F 
ATOM     80  C   UNL A   1      42.779  24.914  26.467  1.00  0.00     0.198 A 
ATOM     81  C   UNL A   1      44.159  26.802  25.927  1.00  0.00     0.198 A 
ATOM     82  F   UNL A   1      44.148  28.699  27.320  1.00  0.00    -0.203 F 
ATOM     83  F   UNL A   1      42.363  23.668  26.203  1.00  0.00    -0.200 F 
ATOM     84  C   UNL A   1      43.709  25.523  25.637  1.00  0.00     0.200 A 
ATOM     85  F   UNL A   1      45.047  27.400  25.122  1.00  0.00    -0.200 F 
ATOM     86  F   UNL A   1      44.177  24.875  24.561  1.00  0.00    -0.200 F 
ENDBRANCH  52  76
BRANCH  64  87
ATOM     87  C   UNL A   1      44.526  26.873  34.641  1.00  0.00     0.064 A 
ATOM     88  C   UNL A   1      44.261  25.604  35.176  1.00  0.00     0.173 A 
ATOM     89  C   UNL A   1      45.814  27.404  34.813  1.00  0.00     0.173 A 
ATOM     90  F   UNL A   1      43.041  25.060  35.050  1.00  0.00    -0.203 F 
ATOM     91  C   UNL A   1      45.240  24.903  35.876  1.00  0.00     0.198 A 
ATOM     92  C   UNL A   1      46.798  26.688  35.489  1.00  0.00     0.198 A 
ATOM     93  F   UNL A   1      46.120  28.610  34.315  1.00  0.00    -0.203 F 
ATOM     94  F   UNL A   1      44.951  23.712  36.417  1.00  0.00    -0.200 F 
ATOM     95  C   UNL A   1      46.509  25.443  36.025  1.00  0.00     0.200 A 
ATOM     96  F   UNL A   1      48.028  27.204  35.620  1.00  0.00    -0.200 F 
ATOM     97  F   UNL A   1      47.453  24.765  36.693  1.00  0.00    -0.200 F 
ENDBRANCH  64  87
ENDBRANCH  38  39
ENDBRANCH  31  33
ENDBRANCH  30  31
ENDBRANCH  29  30
ENDBRANCH  28  29
ENDBRANCH  27  28
ENDBRANCH   1  27
TORSDOF 18
ENDMDL
MODEL 2
REMARK VINA RESULT:     -10.6      4.360      8.955
REMARK SMILES CC(C)[C@@H](C(=O)OCCOCCOC(=O)c1ccc(-c2c3nc(c(-c4c(F)c(F)c(F)c(F)c4F)c4ccc([nH]4)c(-c4c(F)c(F)c(F)c(F)c4F)c4nc(c(-c5c(F)c(F)c(F)c(F)c5F)c5ccc2[nH]5)C=C4)C=C3)cc1)N1C(=O)/C(=C\c2ccc([N+](=O)[O-])cc2)SC1=S
REMARK SMILES IDX 9 1 8 2 7 3 5 4 6 5 4 6 2 7 1 8 3 9 79 10 80 11 94 12 81 13
REMARK SMILES IDX 82 14 93 15 95 16 83 17 84 18 85 19 92 20 86 21 91 22 87 23
REMARK SMILES IDX 88 24 89 25 90 26 10 27 11 28 12 29 13 30 14 31 15 32 16 33
REMARK SMILES IDX 17 34 78 35 18 36 77 37 19 38 20 39 21 40 71 41 22 42 76 43
REMARK SMILES IDX 70 44 72 45 23 46 75 47 69 48 68 49 24 51 56 52 36 53 55 54
REMARK SMILES IDX 37 55 40 56 54 57 73 58 38 59 39 60 53 62 74 63 41 64 25 65
REMARK SMILES IDX 26 66 34 67 27 68 28 69 32 70 35 71 29 72 30 73 33 74 31 75
REMARK SMILES IDX 57 76 58 77 66 78 59 79 60 80 64 81 67 82 61 83 62 84 65 85
REMARK SMILES IDX 63 86 42 87 43 88 51 89 44 90 45 91 49 92 52 93 46 94 47 95
REMARK SMILES IDX 50 96 48 97
REMARK H PARENT 72 50 40 61
REMARK Flexibility Score: inf
ROOT
ATOM      1  C   UNL A   1      37.205  21.680  24.904  1.00  0.00     0.202 C 
ENDROOT
BRANCH   1   2
ATOM      2  C   UNL A   1      36.053  21.973  25.871  1.00  0.00     0.261 C 
BRANCH   2   3
ATOM      3  O   UNL A   1      34.904  22.504  25.182  1.00  0.00    -0.462 OA
BRANCH   3   4
ATOM      4  C   UNL A   1      34.595  23.799  25.444  1.00  0.00     0.329 C 
ATOM      5  O   UNL A   1      35.377  24.730  25.268  1.00  0.00    -0.250 OA
BRANCH   4   6
ATOM      6  C   UNL A   1      33.172  23.975  26.037  1.00  0.00     0.204 C 
BRANCH   6   7
ATOM      7  C   UNL A   1      32.439  22.721  26.596  1.00  0.00     0.017 C 
ATOM      8  C   UNL A   1      32.899  22.279  27.994  1.00  0.00     0.010 C 
ATOM      9  C   UNL A   1      30.924  22.978  26.678  1.00  0.00     0.010 C 
ENDBRANCH   6   7
BRANCH   6  10
ATOM     10  N   UNL A   1      32.448  24.743  24.967  1.00  0.00    -0.278 N 
ATOM     11  C   UNL A   1      32.137  26.060  25.305  1.00  0.00     0.267 C 
ATOM     12  C   UNL A   1      32.261  24.424  23.633  1.00  0.00     0.149 C 
ATOM     13  O   UNL A   1      32.143  26.514  26.442  1.00  0.00    -0.268 OA
ATOM     14  C   UNL A   1      31.831  26.854  24.085  1.00  0.00     0.081 C 
ATOM     15  S   UNL A   1      31.547  25.790  22.773  1.00  0.00    -0.054 SA
ATOM     16  S   UNL A   1      32.593  23.029  22.783  1.00  0.00    -0.052 S 
ATOM     17  C   UNL A   1      31.880  28.185  23.945  1.00  0.00     0.029 C 
BRANCH  17  18
ATOM     18  C   UNL A   1      32.303  29.100  25.002  1.00  0.00    -0.024 A 
ATOM     19  C   UNL A   1      33.629  29.089  25.441  1.00  0.00     0.015 A 
ATOM     20  C   UNL A   1      31.389  30.012  25.551  1.00  0.00     0.015 A 
ATOM     21  C   UNL A   1      34.054  30.003  26.408  1.00  0.00     0.086 A 
ATOM     22  C   UNL A   1      31.804  30.929  26.518  1.00  0.00     0.086 A 
ATOM     23  C   UNL A   1      33.141  30.926  26.937  1.00  0.00     0.269 A 
BRANCH  23  24
ATOM     24  N   UNL A   1      33.592  31.908  27.928  1.00  0.00     0.062 N 
ATOM     25  O   UNL A   1      33.166  33.068  27.826  1.00  0.00    -0.258 OA
ATOM     26  O   UNL A   1      34.374  31.524  28.810  1.00  0.00    -0.258 OA
ENDBRANCH  23  24
ENDBRANCH  17  18
ENDBRANCH   6  10
ENDBRANCH   4   6
ENDBRANCH   3   4
ENDBRANCH   2   3
ENDBRANCH   1   2
BRANCH   1  27
ATOM     27  O   UNL A   1      37.892  20.447  25.114  1.00  0.00    -0.374 OA
BRANCH  27  28
ATOM     28  C   UNL A   1      39.227  20.527  25.608  1.00  0.00     0.202 C 
BRANCH  28  29
ATOM     29  C   UNL A   1      39.892  19.198  25.968  1.00  0.00     0.261 C 
BRANCH  29  30
ATOM     30  O   UNL A   1      41.198  19.107  25.374  1.00  0.00    -0.460 OA
BRANCH  30  31
ATOM     31  C   UNL A   1      42.215  19.326  26.235  1.00  0.00     0.338 C 
ATOM     32  O   UNL A   1      43.054  18.518  26.614  1.00  0.00    -0.246 OA
BRANCH  31  33
ATOM     33  C   UNL A   1      42.310  20.759  26.556  1.00  0.00     0.060 A 
ATOM     34  C   UNL A   1      42.449  21.639  25.476  1.00  0.00     0.016 A 
ATOM     35  C   UNL A   1      42.331  21.236  27.870  1.00  0.00     0.016 A 
ATOM     36  C   UNL A   1      42.689  22.990  25.705  1.00  0.00     0.010 A 
ATOM     37  C   UNL A   1      42.575  22.594  28.099  1.00  0.00     0.010 A 
ATOM     38  C   UNL A   1      42.800  23.465  27.018  1.00  0.00    -0.014 A 
BRANCH  38  39
ATOM     39  C   UNL A   1      43.311  24.838  27.238  1.00  0.00     0.031 A 
ATOM     40  C   UNL A   1      42.393  25.871  27.830  1.00  0.00     0.074 A 
ATOM     41  C   UNL A   1      44.594  25.140  26.974  1.00  0.00     0.049 A 
ATOM     42  N   UNL A   1      42.634  27.121  28.132  1.00  0.00    -0.248 NA
ATOM     43  C   UNL A   1      41.018  25.435  28.121  1.00  0.00     0.031 C 
ATOM     44  C   UNL A   1      45.584  24.212  26.435  1.00  0.00     0.029 A 
ATOM     45  N   UNL A   1      45.280  26.318  27.129  1.00  0.00    -0.354 N 
ATOM     46  C   UNL A   1      41.443  27.621  28.645  1.00  0.00     0.074 A 
ATOM     47  C   UNL A   1      40.471  26.550  28.583  1.00  0.00     0.031 C 
ATOM     48  C   UNL A   1      46.755  24.857  26.297  1.00  0.00     0.029 A 
ATOM     49  C   UNL A   1      46.587  26.248  26.715  1.00  0.00     0.049 A 
ATOM     50  H   UNL A   1      44.875  27.134  27.500  1.00  0.00     0.167 HD
ATOM     51  C   UNL A   1      41.187  28.857  29.134  1.00  0.00     0.037 A 
ATOM     52  C   UNL A   1      47.534  27.204  26.668  1.00  0.00     0.037 A 
ATOM     53  C   UNL A   1      42.159  29.917  29.199  1.00  0.00     0.049 A 
ATOM     54  C   UNL A   1      47.208  28.588  27.164  1.00  0.00     0.074 A 
ATOM     55  C   UNL A   1      42.007  31.197  29.704  1.00  0.00     0.029 A 
ATOM     56  N   UNL A   1      43.463  29.820  28.736  1.00  0.00    -0.354 N 
ATOM     57  N   UNL A   1      46.091  29.043  27.677  1.00  0.00    -0.248 NA
ATOM     58  C   UNL A   1      48.279  29.592  27.077  1.00  0.00     0.031 C 
ATOM     59  C   UNL A   1      43.204  31.891  29.499  1.00  0.00     0.029 A 
ATOM     60  C   UNL A   1      44.119  31.028  28.915  1.00  0.00     0.049 A 
ATOM     61  H   UNL A   1      43.863  29.013  28.339  1.00  0.00     0.167 HD
ATOM     62  C   UNL A   1      46.329  30.373  27.997  1.00  0.00     0.074 A 
ATOM     63  C   UNL A   1      47.703  30.649  27.631  1.00  0.00     0.031 C 
ATOM     64  C   UNL A   1      45.487  31.285  28.545  1.00  0.00     0.037 A 
BRANCH  51  65
ATOM     65  C   UNL A   1      39.793  29.137  29.612  1.00  0.00     0.064 A 
ATOM     66  C   UNL A   1      38.770  29.514  28.729  1.00  0.00     0.173 A 
ATOM     67  C   UNL A   1      39.470  29.000  30.971  1.00  0.00     0.173 A 
ATOM     68  F   UNL A   1      39.030  29.673  27.422  1.00  0.00    -0.203 F 
ATOM     69  C   UNL A   1      37.481  29.771  29.193  1.00  0.00     0.198 A 
ATOM     70  C   UNL A   1      38.174  29.231  31.427  1.00  0.00     0.198 A 
ATOM     71  F   UNL A   1      40.410  28.640  31.856  1.00  0.00    -0.203 F 
ATOM     72  F   UNL A   1      36.532  30.176  28.339  1.00  0.00    -0.200 F 
ATOM     73  C   UNL A   1      37.184  29.622  30.539  1.00  0.00     0.200 A 
ATOM     74  F   UNL A   1      37.886  29.076  32.726  1.00  0.00    -0.200 F 
ATOM     75  F   UNL A   1      35.943  29.865  30.984  1.00  0.00    -0.200 F 
ENDBRANCH  51  65
BRANCH  52  76
ATOM     76  C   UNL A   1      48.878  26.884  26.125  1.00  0.00     0.064 A 
ATOM     77  C   UNL A   1      49.162  27.022  24.761  1.00  0.00     0.173 A 
ATOM     78  C   UNL A   1      49.909  26.434  26.964  1.00  0.00     0.173 A 
ATOM     79  F   UNL A   1      48.203  27.427  23.915  1.00  0.00    -0.203 F 
ATOM     80  C   UNL A   1      50.421  26.708  24.252  1.00  0.00     0.198 A 
ATOM     81  C   UNL A   1      51.175  26.146  26.460  1.00  0.00     0.198 A 
ATOM     82  F   UNL A   1      49.688  26.286  28.279  1.00  0.00    -0.203 F 
ATOM     83  F   UNL A   1      50.656  26.810  22.937  1.00  0.00    -0.200 F 
ATOM     84  C   UNL A   1      51.428  26.277  25.104  1.00  0.00     0.200 A 
ATOM     85  F   UNL A   1      52.147  25.743  27.289  1.00  0.00    -0.200 F 
ATOM     86  F   UNL A   1      52.641  25.983  24.615  1.00  0.00    -0.200 F 
ENDBRANCH  52  76
BRANCH  64  87
ATOM     87  C   UNL A   1      46.034  32.658  28.806  1.00  0.00     0.064 A 
ATOM     88  C   UNL A   1      46.644  32.985  30.026  1.00  0.00     0.173 A 
ATOM     89  C   UNL A   1      45.984  33.645  27.810  1.00  0.00     0.173 A 
ATOM     90  F   UNL A   1      46.704  32.081  31.015  1.00  0.00    -0.203 F 
ATOM     91  C   UNL A   1      47.163  34.259  30.248  1.00  0.00     0.198 A 
ATOM     92  C   UNL A   1      46.529  34.908  28.025  1.00  0.00     0.198 A 
ATOM     93  F   UNL A   1      45.417  33.380  26.624  1.00  0.00    -0.203 F 
ATOM     94  F   UNL A   1      47.701  34.564  31.436  1.00  0.00    -0.200 F 
ATOM     95  C   UNL A   1      47.111  35.216  29.244  1.00  0.00     0.200 A 
ATOM     96  F   UNL A   1      46.491  35.827  27.050  1.00  0.00    -0.200 F 
ATOM     97  F   UNL A   1      47.617  36.439  29.457  1.00  0.00    -0.200 F 
ENDBRANCH  64  87
ENDBRANCH  38  39
ENDBRANCH  31  33
ENDBRANCH  30  31
ENDBRANCH  29  30
ENDBRANCH  28  29
ENDBRANCH  27  28
ENDBRANCH   1  27
TORSDOF 18
ENDMDL
MODEL 3
REMARK VINA RESULT:     -10.6      4.565     10.655
REMARK SMILES CC(C)[C@@H](C(=O)OCCOCCOC(=O)c1ccc(-c2c3nc(c(-c4c(F)c(F)c(F)c(F)c4F)c4ccc([nH]4)c(-c4c(F)c(F)c(F)c(F)c4F)c4nc(c(-c5c(F)c(F)c(F)c(F)c5F)c5ccc2[nH]5)C=C4)C=C3)cc1)N1C(=O)/C(=C\c2ccc([N+](=O)[O-])cc2)SC1=S
REMARK SMILES IDX 9 1 8 2 7 3 5 4 6 5 4 6 2 7 1 8 3 9 79 10 80 11 94 12 81 13
REMARK SMILES IDX 82 14 93 15 95 16 83 17 84 18 85 19 92 20 86 21 91 22 87 23
REMARK SMILES IDX 88 24 89 25 90 26 10 27 11 28 12 29 13 30 14 31 15 32 16 33
REMARK SMILES IDX 17 34 78 35 18 36 77 37 19 38 20 39 21 40 71 41 22 42 76 43
REMARK SMILES IDX 70 44 72 45 23 46 75 47 69 48 68 49 24 51 56 52 36 53 55 54
REMARK SMILES IDX 37 55 40 56 54 57 73 58 38 59 39 60 53 62 74 63 41 64 25 65
REMARK SMILES IDX 26 66 34 67 27 68 28 69 32 70 35 71 29 72 30 73 33 74 31 75
REMARK SMILES IDX 57 76 58 77 66 78 59 79 60 80 64 81 67 82 61 83 62 84 65 85
REMARK SMILES IDX 63 86 42 87 43 88 51 89 44 90 45 91 49 92 52 93 46 94 47 95
REMARK SMILES IDX 50 96 48 97
REMARK H PARENT 72 50 40 61
REMARK Flexibility Score: inf
ROOT
ATOM      1  C   UNL A   1      36.977  21.974  25.578  1.00  0.00     0.202 C 
ENDROOT
BRANCH   1   2
ATOM      2  C   UNL A   1      35.554  21.409  25.581  1.00  0.00     0.261 C 
BRANCH   2   3
ATOM      3  O   UNL A   1      34.644  22.255  24.849  1.00  0.00    -0.462 OA
BRANCH   3   4
ATOM      4  C   UNL A   1      34.527  23.532  25.292  1.00  0.00     0.329 C 
ATOM      5  O   UNL A   1      35.418  24.369  25.184  1.00  0.00    -0.250 OA
BRANCH   4   6
ATOM      6  C   UNL A   1      33.171  23.808  25.994  1.00  0.00     0.204 C 
BRANCH   6   7
ATOM      7  C   UNL A   1      32.418  22.615  26.652  1.00  0.00     0.017 C 
ATOM      8  C   UNL A   1      32.932  22.223  28.046  1.00  0.00     0.010 C 
ATOM      9  C   UNL A   1      30.921  22.942  26.797  1.00  0.00     0.010 C 
ENDBRANCH   6   7
BRANCH   6  10
ATOM     10  N   UNL A   1      32.404  24.587  24.962  1.00  0.00    -0.278 N 
ATOM     11  C   UNL A   1      32.127  25.907  25.318  1.00  0.00     0.267 C 
ATOM     12  C   UNL A   1      32.149  24.273  23.638  1.00  0.00     0.149 C 
ATOM     13  O   UNL A   1      32.194  26.358  26.454  1.00  0.00    -0.268 OA
ATOM     14  C   UNL A   1      31.770  26.707  24.115  1.00  0.00     0.081 C 
ATOM     15  S   UNL A   1      31.409  25.650  22.817  1.00  0.00    -0.054 SA
ATOM     16  S   UNL A   1      32.421  22.877  22.770  1.00  0.00    -0.052 S 
ATOM     17  C   UNL A   1      31.828  28.038  23.975  1.00  0.00     0.029 C 
BRANCH  17  18
ATOM     18  C   UNL A   1      32.314  28.945  25.012  1.00  0.00    -0.024 A 
ATOM     19  C   UNL A   1      33.660  28.916  25.387  1.00  0.00     0.015 A 
ATOM     20  C   UNL A   1      31.440  29.868  25.605  1.00  0.00     0.015 A 
ATOM     21  C   UNL A   1      34.142  29.822  26.333  1.00  0.00     0.086 A 
ATOM     22  C   UNL A   1      31.913  30.778  26.552  1.00  0.00     0.086 A 
ATOM     23  C   UNL A   1      33.268  30.756  26.907  1.00  0.00     0.269 A 
BRANCH  23  24
ATOM     24  N   UNL A   1      33.780  31.730  27.876  1.00  0.00     0.062 N 
ATOM     25  O   UNL A   1      33.404  32.906  27.765  1.00  0.00    -0.258 OA
ATOM     26  O   UNL A   1      34.559  31.324  28.750  1.00  0.00    -0.258 OA
ENDBRANCH  23  24
ENDBRANCH  17  18
ENDBRANCH   6  10
ENDBRANCH   4   6
ENDBRANCH   3   4
ENDBRANCH   2   3
ENDBRANCH   1   2
BRANCH   1  27
ATOM     27  O   UNL A   1      37.995  21.089  25.111  1.00  0.00    -0.374 OA
BRANCH  27  28
ATOM     28  C   UNL A   1      39.260  21.157  25.765  1.00  0.00     0.202 C 
BRANCH  28  29
ATOM     29  C   UNL A   1      39.877  19.819  26.174  1.00  0.00     0.261 C 
BRANCH  29  30
ATOM     30  O   UNL A   1      40.950  19.462  25.285  1.00  0.00    -0.460 OA
BRANCH  30  31
ATOM     31  C   UNL A   1      42.124  19.216  25.904  1.00  0.00     0.338 C 
ATOM     32  O   UNL A   1      42.667  18.130  26.062  1.00  0.00    -0.246 OA
BRANCH  31  33
ATOM     33  C   UNL A   1      42.797  20.482  26.242  1.00  0.00     0.060 A 
ATOM     34  C   UNL A   1      42.668  20.931  27.562  1.00  0.00     0.016 A 
ATOM     35  C   UNL A   1      43.478  21.249  25.292  1.00  0.00     0.016 A 
ATOM     36  C   UNL A   1      43.151  22.185  27.920  1.00  0.00     0.010 A 
ATOM     37  C   UNL A   1      43.961  22.510  25.653  1.00  0.00     0.010 A 
ATOM     38  C   UNL A   1      43.758  23.000  26.956  1.00  0.00    -0.014 A 
BRANCH  38  39
ATOM     39  C   UNL A   1      44.025  24.419  27.288  1.00  0.00     0.031 A 
ATOM     40  C   UNL A   1      45.422  24.952  27.132  1.00  0.00     0.074 A 
ATOM     41  C   UNL A   1      43.023  25.234  27.661  1.00  0.00     0.049 A 
ATOM     42  N   UNL A   1      45.877  26.161  27.339  1.00  0.00    -0.248 NA
ATOM     43  C   UNL A   1      46.443  23.993  26.682  1.00  0.00     0.031 C 
ATOM     44  C   UNL A   1      41.625  24.838  27.808  1.00  0.00     0.029 A 
ATOM     45  N   UNL A   1      43.034  26.568  27.979  1.00  0.00    -0.354 N 
ATOM     46  C   UNL A   1      47.235  26.107  27.048  1.00  0.00     0.074 A 
ATOM     47  C   UNL A   1      47.536  24.740  26.682  1.00  0.00     0.031 C 
ATOM     48  C   UNL A   1      40.909  25.907  28.196  1.00  0.00     0.029 A 
ATOM     49  C   UNL A   1      41.804  27.053  28.346  1.00  0.00     0.049 A 
ATOM     50  H   UNL A   1      43.846  27.124  27.949  1.00  0.00     0.167 HD
ATOM     51  C   UNL A   1      48.143  27.111  27.072  1.00  0.00     0.037 A 
ATOM     52  C   UNL A   1      41.447  28.281  28.768  1.00  0.00     0.037 A 
ATOM     53  C   UNL A   1      47.837  28.470  27.430  1.00  0.00     0.049 A 
ATOM     54  C   UNL A   1      42.488  29.367  28.842  1.00  0.00     0.074 A 
ATOM     55  C   UNL A   1      48.681  29.567  27.458  1.00  0.00     0.029 A 
ATOM     56  N   UNL A   1      46.587  28.917  27.832  1.00  0.00    -0.354 N 
ATOM     57  N   UNL A   1      43.761  29.316  28.534  1.00  0.00    -0.248 NA
ATOM     58  C   UNL A   1      42.040  30.683  29.320  1.00  0.00     0.031 C 
ATOM     59  C   UNL A   1      47.953  30.666  27.926  1.00  0.00     0.029 A 
ATOM     60  C   UNL A   1      46.643  30.267  28.140  1.00  0.00     0.049 A 
ATOM     61  H   UNL A   1      45.779  28.357  27.890  1.00  0.00     0.167 HD
ATOM     62  C   UNL A   1      44.261  30.592  28.755  1.00  0.00     0.074 A 
ATOM     63  C   UNL A   1      43.149  31.401  29.212  1.00  0.00     0.031 C 
ATOM     64  C   UNL A   1      45.526  31.055  28.594  1.00  0.00     0.037 A 
BRANCH  51  65
ATOM     65  C   UNL A   1      49.563  26.767  26.726  1.00  0.00     0.064 A 
ATOM     66  C   UNL A   1      50.019  26.761  25.399  1.00  0.00     0.173 A 
ATOM     67  C   UNL A   1      50.485  26.464  27.739  1.00  0.00     0.173 A 
ATOM     68  F   UNL A   1      49.173  27.028  24.392  1.00  0.00    -0.203 F 
ATOM     69  C   UNL A   1      51.340  26.437  25.097  1.00  0.00     0.198 A 
ATOM     70  C   UNL A   1      51.812  26.169  27.436  1.00  0.00     0.198 A 
ATOM     71  F   UNL A   1      50.100  26.459  29.023  1.00  0.00    -0.203 F 
ATOM     72  F   UNL A   1      51.742  26.390  23.820  1.00  0.00    -0.200 F 
ATOM     73  C   UNL A   1      52.236  26.149  26.116  1.00  0.00     0.200 A 
ATOM     74  F   UNL A   1      52.678  25.901  28.422  1.00  0.00    -0.200 F 
ATOM     75  F   UNL A   1      53.508  25.842  25.825  1.00  0.00    -0.200 F 
ENDBRANCH  51  65
BRANCH  52  76
ATOM     76  C   UNL A   1      40.039  28.546  29.158  1.00  0.00     0.064 A 
ATOM     77  C   UNL A   1      39.584  28.288  30.457  1.00  0.00     0.173 A 
ATOM     78  C   UNL A   1      39.118  29.065  28.235  1.00  0.00     0.173 A 
ATOM     79  F   UNL A   1      40.421  27.769  31.368  1.00  0.00    -0.203 F 
ATOM     80  C   UNL A   1      38.259  28.525  30.816  1.00  0.00     0.198 A 
ATOM     81  C   UNL A   1      37.800  29.327  28.601  1.00  0.00     0.198 A 
ATOM     82  F   UNL A   1      39.504  29.330  26.978  1.00  0.00    -0.203 F 
ATOM     83  F   UNL A   1      37.838  28.233  32.054  1.00  0.00    -0.200 F 
ATOM     84  C   UNL A   1      37.370  29.051  29.889  1.00  0.00     0.200 A 
ATOM     85  F   UNL A   1      36.950  29.848  27.707  1.00  0.00    -0.200 F 
ATOM     86  F   UNL A   1      36.097  29.286  30.238  1.00  0.00    -0.200 F 
ENDBRANCH  52  76
BRANCH  64  87
ATOM     87  C   UNL A   1      45.771  32.507  28.888  1.00  0.00     0.064 A 
ATOM     88  C   UNL A   1      45.599  33.494  27.907  1.00  0.00     0.173 A 
ATOM     89  C   UNL A   1      46.141  32.918  30.178  1.00  0.00     0.173 A 
ATOM     90  F   UNL A   1      45.260  33.151  26.656  1.00  0.00    -0.203 F 
ATOM     91  C   UNL A   1      45.813  34.839  28.200  1.00  0.00     0.198 A 
ATOM     92  C   UNL A   1      46.326  34.265  30.474  1.00  0.00     0.198 A 
ATOM     93  F   UNL A   1      46.311  32.013  31.153  1.00  0.00    -0.203 F 
ATOM     94  F   UNL A   1      45.688  35.761  27.236  1.00  0.00    -0.200 F 
ATOM     95  C   UNL A   1      46.170  35.224  29.485  1.00  0.00     0.200 A 
ATOM     96  F   UNL A   1      46.656  34.637  31.719  1.00  0.00    -0.200 F 
ATOM     97  F   UNL A   1      46.368  36.519  29.767  1.00  0.00    -0.200 F 
ENDBRANCH  64  87
ENDBRANCH  38  39
ENDBRANCH  31  33
ENDBRANCH  30  31
ENDBRANCH  29  30
ENDBRANCH  28  29
ENDBRANCH  27  28
ENDBRANCH   1  27
TORSDOF 18
ENDMDL
