MODEL 1
REMARK VINA RESULT:     -11.2      0.000      0.000
REMARK SMILES O=C(OCCOCCOC(=O)C1([NH+]2CCOCC2)CCC1)c1ccc(-c2c3nc(c(-c4c(F)c(F)c(F)c(F)c4F)c4ccc([nH]4)c(-c4c(F)c(F)c(F)c(F)c4F)c4nc(c(-c5c(F)c(F)c(F)c(F)c5F)c5ccc2[nH]5)C=C4)C=C3)cc1
REMARK SMILES IDX 5 1 4 2 3 3 2 4 1 5 22 6 23 7 84 8 24 9 83 10 25 11 26 12
REMARK SMILES IDX 27 13 77 14 28 15 82 16 76 17 78 18 29 19 81 20 75 21 74 22
REMARK SMILES IDX 30 24 62 25 42 26 61 27 43 28 46 29 60 30 79 31 44 32 45 33
REMARK SMILES IDX 59 35 80 36 47 37 31 38 32 39 40 40 33 41 34 42 38 43 41 44
REMARK SMILES IDX 35 45 36 46 39 47 37 48 63 49 64 50 72 51 65 52 66 53 70 54
REMARK SMILES IDX 73 55 67 56 68 57 71 58 69 59 48 60 49 61 57 62 50 63 51 64
REMARK SMILES IDX 55 65 58 66 52 67 53 68 56 69 54 70 6 71 7 72 8 73 9 74
REMARK SMILES IDX 10 75 11 76 12 77 19 78 21 79 20 80 13 81 14 82 18 83 15 85
REMARK SMILES IDX 17 86 16 87
REMARK H PARENT 78 23 46 34 13 84
REMARK Flexibility Score: inf
ROOT
ATOM      1  C   UNL A   1      32.701  29.007  24.871  1.00  0.00     0.202 C 
ENDROOT
BRANCH   1   2
ATOM      2  C   UNL A   1      31.928  29.976  25.788  1.00  0.00     0.261 C 
BRANCH   2   3
ATOM      3  O   UNL A   1      32.598  30.230  27.052  1.00  0.00    -0.460 OA
BRANCH   3   4
ATOM      4  C   UNL A   1      33.330  31.343  27.379  1.00  0.00     0.338 C 
ATOM      5  O   UNL A   1      32.848  32.457  27.390  1.00  0.00    -0.246 OA
BRANCH   4   6
ATOM      6  C   UNL A   1      34.745  31.130  27.751  1.00  0.00     0.060 A 
ATOM      7  C   UNL A   1      35.146  29.844  28.007  1.00  0.00     0.016 A 
ATOM      8  C   UNL A   1      35.659  32.154  27.940  1.00  0.00     0.016 A 
ATOM      9  C   UNL A   1      36.132  29.607  28.917  1.00  0.00     0.010 A 
ATOM     10  C   UNL A   1      36.894  31.845  28.532  1.00  0.00     0.010 A 
ATOM     11  C   UNL A   1      37.101  30.573  29.099  1.00  0.00    -0.014 A 
BRANCH  11  12
ATOM     12  C   UNL A   1      38.262  30.178  29.926  1.00  0.00     0.031 A 
ATOM     13  C   UNL A   1      39.348  29.369  29.295  1.00  0.00     0.074 A 
ATOM     14  C   UNL A   1      38.398  30.693  31.170  1.00  0.00     0.049 A 
ATOM     15  N   UNL A   1      40.365  28.780  29.859  1.00  0.00    -0.248 NA
ATOM     16  C   UNL A   1      39.281  29.185  27.835  1.00  0.00     0.031 C 
ATOM     17  C   UNL A   1      37.454  31.615  31.826  1.00  0.00     0.029 A 
ATOM     18  N   UNL A   1      39.407  30.580  32.088  1.00  0.00    -0.354 N 
ATOM     19  C   UNL A   1      41.011  28.097  28.840  1.00  0.00     0.074 A 
ATOM     20  C   UNL A   1      40.278  28.342  27.619  1.00  0.00     0.031 C 
ATOM     21  C   UNL A   1      37.978  32.062  32.971  1.00  0.00     0.029 A 
ATOM     22  C   UNL A   1      39.191  31.313  33.233  1.00  0.00     0.049 A 
ATOM     23  H   UNL A   1      40.210  30.029  31.943  1.00  0.00     0.167 HD
ATOM     24  C   UNL A   1      42.117  27.326  28.939  1.00  0.00     0.037 A 
ATOM     25  C   UNL A   1      39.850  31.309  34.405  1.00  0.00     0.037 A 
ATOM     26  C   UNL A   1      42.826  27.144  30.177  1.00  0.00     0.049 A 
ATOM     27  C   UNL A   1      41.014  30.370  34.514  1.00  0.00     0.074 A 
ATOM     28  C   UNL A   1      43.896  26.319  30.455  1.00  0.00     0.029 A 
ATOM     29  N   UNL A   1      42.529  27.832  31.350  1.00  0.00    -0.354 N 
ATOM     30  N   UNL A   1      41.538  29.597  33.590  1.00  0.00    -0.248 NA
ATOM     31  C   UNL A   1      41.658  30.270  35.825  1.00  0.00     0.031 C 
ATOM     32  C   UNL A   1      44.224  26.479  31.806  1.00  0.00     0.029 A 
ATOM     33  C   UNL A   1      43.395  27.448  32.357  1.00  0.00     0.049 A 
ATOM     34  H   UNL A   1      41.808  28.495  31.448  1.00  0.00     0.167 HD
ATOM     35  C   UNL A   1      42.579  28.923  34.204  1.00  0.00     0.074 A 
ATOM     36  C   UNL A   1      42.632  29.409  35.571  1.00  0.00     0.031 C 
ATOM     37  C   UNL A   1      43.407  27.977  33.699  1.00  0.00     0.037 A 
BRANCH  24  38
ATOM     38  C   UNL A   1      42.547  26.585  27.708  1.00  0.00     0.064 A 
ATOM     39  C   UNL A   1      42.048  25.314  27.388  1.00  0.00     0.173 A 
ATOM     40  C   UNL A   1      43.519  27.138  26.861  1.00  0.00     0.173 A 
ATOM     41  F   UNL A   1      41.145  24.721  28.185  1.00  0.00    -0.203 F 
ATOM     42  C   UNL A   1      42.528  24.612  26.283  1.00  0.00     0.198 A 
ATOM     43  C   UNL A   1      43.975  26.446  25.741  1.00  0.00     0.198 A 
ATOM     44  F   UNL A   1      44.044  28.343  27.128  1.00  0.00    -0.203 F 
ATOM     45  F   UNL A   1      42.087  23.370  26.037  1.00  0.00    -0.200 F 
ATOM     46  C   UNL A   1      43.487  25.181  25.460  1.00  0.00     0.200 A 
ATOM     47  F   UNL A   1      44.903  26.998  24.947  1.00  0.00    -0.200 F 
ATOM     48  F   UNL A   1      43.955  24.501  24.403  1.00  0.00    -0.200 F 
ENDBRANCH  24  38
BRANCH  25  49
ATOM     49  C   UNL A   1      39.356  32.103  35.566  1.00  0.00     0.064 A 
ATOM     50  C   UNL A   1      39.792  33.415  35.794  1.00  0.00     0.173 A 
ATOM     51  C   UNL A   1      38.450  31.556  36.494  1.00  0.00     0.173 A 
ATOM     52  F   UNL A   1      40.669  33.984  34.955  1.00  0.00    -0.203 F 
ATOM     53  C   UNL A   1      39.369  34.134  36.912  1.00  0.00     0.198 A 
ATOM     54  C   UNL A   1      37.993  32.291  37.585  1.00  0.00     0.198 A 
ATOM     55  F   UNL A   1      37.994  30.305  36.335  1.00  0.00    -0.203 F 
ATOM     56  F   UNL A   1      39.855  35.362  37.140  1.00  0.00    -0.200 F 
ATOM     57  C   UNL A   1      38.465  33.574  37.803  1.00  0.00     0.200 A 
ATOM     58  F   UNL A   1      37.103  31.751  38.428  1.00  0.00    -0.200 F 
ATOM     59  F   UNL A   1      38.060  34.265  38.878  1.00  0.00    -0.200 F 
ENDBRANCH  25  49
BRANCH  37  60
ATOM     60  C   UNL A   1      44.461  27.459  34.628  1.00  0.00     0.064 A 
ATOM     61  C   UNL A   1      45.693  28.110  34.778  1.00  0.00     0.173 A 
ATOM     62  C   UNL A   1      44.219  26.306  35.387  1.00  0.00     0.173 A 
ATOM     63  F   UNL A   1      45.973  29.204  34.054  1.00  0.00    -0.203 F 
ATOM     64  C   UNL A   1      46.664  27.602  35.634  1.00  0.00     0.198 A 
ATOM     65  C   UNL A   1      45.177  25.823  36.270  1.00  0.00     0.198 A 
ATOM     66  F   UNL A   1      43.051  25.655  35.276  1.00  0.00    -0.203 F 
ATOM     67  F   UNL A   1      47.859  28.200  35.717  1.00  0.00    -0.200 F 
ATOM     68  C   UNL A   1      46.401  26.465  36.385  1.00  0.00     0.200 A 
ATOM     69  F   UNL A   1      44.916  24.734  37.005  1.00  0.00    -0.200 F 
ATOM     70  F   UNL A   1      47.334  25.980  37.215  1.00  0.00    -0.200 F 
ENDBRANCH  37  60
ENDBRANCH  11  12
ENDBRANCH   4   6
ENDBRANCH   3   4
ENDBRANCH   2   3
ENDBRANCH   1   2
BRANCH   1  71
ATOM     71  O   UNL A   1      32.365  27.626  24.876  1.00  0.00    -0.374 OA
BRANCH  71  72
ATOM     72  C   UNL A   1      32.329  27.011  23.578  1.00  0.00     0.202 C 
BRANCH  72  73
ATOM     73  C   UNL A   1      33.564  26.156  23.347  1.00  0.00     0.261 C 
BRANCH  73  74
ATOM     74  O   UNL A   1      33.337  24.852  23.905  1.00  0.00    -0.459 OA
BRANCH  74  75
ATOM     75  C   UNL A   1      34.110  23.845  23.391  1.00  0.00     0.368 C 
ATOM     76  O   UNL A   1      34.065  23.503  22.208  1.00  0.00    -0.245 OA
BRANCH  75  77
ATOM     77  C   UNL A   1      35.009  23.144  24.512  1.00  0.00     0.196 C 
ATOM     78  C   UNL A   1      36.404  22.802  23.913  1.00  0.00     0.081 C 
ATOM     79  C   UNL A   1      35.733  24.109  25.494  1.00  0.00     0.081 C 
ATOM     80  C   UNL A   1      37.077  23.478  25.110  1.00  0.00     0.014 C 
BRANCH  77  81
ATOM     81  N   UNL A   1      34.352  22.027  25.263  1.00  0.00    -0.317 N 
ATOM     82  C   UNL A   1      34.184  20.758  24.528  1.00  0.00     0.292 C 
ATOM     83  C   UNL A   1      33.222  22.260  26.163  1.00  0.00     0.292 C 
ATOM     84  H   UNL A   1      35.123  21.949  25.927  1.00  0.00     0.349 HD
ATOM     85  C   UNL A   1      32.761  20.308  24.146  1.00  0.00     0.221 C 
ATOM     86  C   UNL A   1      31.860  21.952  25.531  1.00  0.00     0.221 C 
ATOM     87  O   UNL A   1      31.797  20.573  25.159  1.00  0.00    -0.370 OA
ENDBRANCH  77  81
ENDBRANCH  75  77
ENDBRANCH  74  75
ENDBRANCH  73  74
ENDBRANCH  72  73
ENDBRANCH  71  72
ENDBRANCH   1  71
TORSDOF 15
ENDMDL
MODEL 2
REMARK VINA RESULT:     -11.1      0.958      1.736
REMARK SMILES O=C(OCCOCCOC(=O)C1([NH+]2CCOCC2)CCC1)c1ccc(-c2c3nc(c(-c4c(F)c(F)c(F)c(F)c4F)c4ccc([nH]4)c(-c4c(F)c(F)c(F)c(F)c4F)c4nc(c(-c5c(F)c(F)c(F)c(F)c5F)c5ccc2[nH]5)C=C4)C=C3)cc1
REMARK SMILES IDX 5 1 4 2 3 3 2 4 1 5 22 6 23 7 84 8 24 9 83 10 25 11 26 12
REMARK SMILES IDX 27 13 77 14 28 15 82 16 76 17 78 18 29 19 81 20 75 21 74 22
REMARK SMILES IDX 30 24 62 25 42 26 61 27 43 28 46 29 60 30 79 31 44 32 45 33
REMARK SMILES IDX 59 35 80 36 47 37 31 38 32 39 40 40 33 41 34 42 38 43 41 44
REMARK SMILES IDX 35 45 36 46 39 47 37 48 63 49 64 50 72 51 65 52 66 53 70 54
REMARK SMILES IDX 73 55 67 56 68 57 71 58 69 59 48 60 49 61 57 62 50 63 51 64
REMARK SMILES IDX 55 65 58 66 52 67 53 68 56 69 54 70 6 71 7 72 8 73 9 74
REMARK SMILES IDX 10 75 11 76 12 77 19 78 21 79 20 80 13 81 14 82 18 83 15 85
REMARK SMILES IDX 17 86 16 87
REMARK H PARENT 78 23 46 34 13 84
REMARK Flexibility Score: inf
ROOT
ATOM      1  C   UNL A   1      31.642  28.255  25.871  1.00  0.00     0.202 C 
ENDROOT
BRANCH   1   2
ATOM      2  C   UNL A   1      31.829  29.462  26.812  1.00  0.00     0.261 C 
BRANCH   2   3
ATOM      3  O   UNL A   1      32.971  30.291  26.464  1.00  0.00    -0.460 OA
BRANCH   3   4
ATOM      4  C   UNL A   1      33.532  31.274  27.240  1.00  0.00     0.338 C 
ATOM      5  O   UNL A   1      32.907  32.245  27.610  1.00  0.00    -0.246 OA
BRANCH   4   6
ATOM      6  C   UNL A   1      34.943  31.088  27.639  1.00  0.00     0.060 A 
ATOM      7  C   UNL A   1      35.391  29.802  27.805  1.00  0.00     0.016 A 
ATOM      8  C   UNL A   1      35.808  32.129  27.939  1.00  0.00     0.016 A 
ATOM      9  C   UNL A   1      36.359  29.531  28.724  1.00  0.00     0.010 A 
ATOM     10  C   UNL A   1      37.037  31.822  28.544  1.00  0.00     0.010 A 
ATOM     11  C   UNL A   1      37.280  30.517  29.014  1.00  0.00    -0.014 A 
BRANCH  11  12
ATOM     12  C   UNL A   1      38.433  30.104  29.844  1.00  0.00     0.031 A 
ATOM     13  C   UNL A   1      39.499  29.264  29.220  1.00  0.00     0.074 A 
ATOM     14  C   UNL A   1      38.582  30.628  31.083  1.00  0.00     0.049 A 
ATOM     15  N   UNL A   1      40.503  28.656  29.790  1.00  0.00    -0.248 NA
ATOM     16  C   UNL A   1      39.426  29.067  27.762  1.00  0.00     0.031 C 
ATOM     17  C   UNL A   1      37.661  31.578  31.730  1.00  0.00     0.029 A 
ATOM     18  N   UNL A   1      39.589  30.500  32.001  1.00  0.00    -0.354 N 
ATOM     19  C   UNL A   1      41.131  27.948  28.776  1.00  0.00     0.074 A 
ATOM     20  C   UNL A   1      40.403  28.198  27.554  1.00  0.00     0.031 C 
ATOM     21  C   UNL A   1      38.196  32.024  32.871  1.00  0.00     0.029 A 
ATOM     22  C   UNL A   1      39.391  31.249  33.139  1.00  0.00     0.049 A 
ATOM     23  H   UNL A   1      40.379  29.929  31.861  1.00  0.00     0.167 HD
ATOM     24  C   UNL A   1      42.219  27.152  28.883  1.00  0.00     0.037 A 
ATOM     25  C   UNL A   1      40.051  31.241  34.310  1.00  0.00     0.037 A 
ATOM     26  C   UNL A   1      42.924  26.966  30.121  1.00  0.00     0.049 A 
ATOM     27  C   UNL A   1      41.193  30.276  34.428  1.00  0.00     0.074 A 
ATOM     28  C   UNL A   1      43.976  26.119  30.407  1.00  0.00     0.029 A 
ATOM     29  N   UNL A   1      42.645  27.672  31.288  1.00  0.00    -0.354 N 
ATOM     30  N   UNL A   1      41.698  29.482  33.512  1.00  0.00    -0.248 NA
ATOM     31  C   UNL A   1      41.836  30.174  35.740  1.00  0.00     0.031 C 
ATOM     32  C   UNL A   1      44.308  26.285  31.757  1.00  0.00     0.029 A 
ATOM     33  C   UNL A   1      43.503  27.278  32.298  1.00  0.00     0.049 A 
ATOM     34  H   UNL A   1      41.940  28.353  31.380  1.00  0.00     0.167 HD
ATOM     35  C   UNL A   1      42.723  28.790  34.131  1.00  0.00     0.074 A 
ATOM     36  C   UNL A   1      42.789  29.288  35.493  1.00  0.00     0.031 C 
ATOM     37  C   UNL A   1      43.529  27.820  33.634  1.00  0.00     0.037 A 
BRANCH  24  38
ATOM     38  C   UNL A   1      42.631  26.389  27.658  1.00  0.00     0.064 A 
ATOM     39  C   UNL A   1      42.090  25.134  27.343  1.00  0.00     0.173 A 
ATOM     40  C   UNL A   1      43.625  26.904  26.813  1.00  0.00     0.173 A 
ATOM     41  F   UNL A   1      41.164  24.577  28.140  1.00  0.00    -0.203 F 
ATOM     42  C   UNL A   1      42.553  24.409  26.246  1.00  0.00     0.198 A 
ATOM     43  C   UNL A   1      44.064  26.190  25.700  1.00  0.00     0.198 A 
ATOM     44  F   UNL A   1      44.189  28.092  27.076  1.00  0.00    -0.203 F 
ATOM     45  F   UNL A   1      42.072  23.181  26.006  1.00  0.00    -0.200 F 
ATOM     46  C   UNL A   1      43.534  24.940  25.424  1.00  0.00     0.200 A 
ATOM     47  F   UNL A   1      45.014  26.705  24.908  1.00  0.00    -0.200 F 
ATOM     48  F   UNL A   1      43.984  24.237  24.374  1.00  0.00    -0.200 F 
ENDBRANCH  24  38
BRANCH  25  49
ATOM     49  C   UNL A   1      39.577  32.058  35.464  1.00  0.00     0.064 A 
ATOM     50  C   UNL A   1      38.637  31.560  36.375  1.00  0.00     0.173 A 
ATOM     51  C   UNL A   1      40.038  33.371  35.668  1.00  0.00     0.173 A 
ATOM     52  F   UNL A   1      38.147  30.322  36.223  1.00  0.00    -0.203 F 
ATOM     53  C   UNL A   1      38.156  32.349  37.422  1.00  0.00     0.198 A 
ATOM     54  C   UNL A   1      39.592  34.142  36.740  1.00  0.00     0.198 A 
ATOM     55  F   UNL A   1      40.939  33.909  34.832  1.00  0.00    -0.203 F 
ATOM     56  F   UNL A   1      37.207  31.869  38.237  1.00  0.00    -0.200 F 
ATOM     57  C   UNL A   1      38.638  33.636  37.607  1.00  0.00     0.200 A 
ATOM     58  F   UNL A   1      40.080  35.376  36.924  1.00  0.00    -0.200 F 
ATOM     59  F   UNL A   1      38.175  34.393  38.610  1.00  0.00    -0.200 F 
ENDBRANCH  25  49
BRANCH  37  60
ATOM     60  C   UNL A   1      44.571  27.287  34.568  1.00  0.00     0.064 A 
ATOM     61  C   UNL A   1      45.798  27.938  34.750  1.00  0.00     0.173 A 
ATOM     62  C   UNL A   1      44.322  26.118  35.300  1.00  0.00     0.173 A 
ATOM     63  F   UNL A   1      46.085  29.048  34.051  1.00  0.00    -0.203 F 
ATOM     64  C   UNL A   1      46.758  27.416  35.608  1.00  0.00     0.198 A 
ATOM     65  C   UNL A   1      45.269  25.620  36.186  1.00  0.00     0.198 A 
ATOM     66  F   UNL A   1      43.159  25.465  35.159  1.00  0.00    -0.203 F 
ATOM     67  F   UNL A   1      47.951  28.017  35.721  1.00  0.00    -0.200 F 
ATOM     68  C   UNL A   1      46.489  26.263  36.332  1.00  0.00     0.200 A 
ATOM     69  F   UNL A   1      45.002  24.515  36.896  1.00  0.00    -0.200 F 
ATOM     70  F   UNL A   1      47.412  25.764  37.165  1.00  0.00    -0.200 F 
ENDBRANCH  37  60
ENDBRANCH  11  12
ENDBRANCH   4   6
ENDBRANCH   3   4
ENDBRANCH   2   3
ENDBRANCH   1   2
BRANCH   1  71
ATOM     71  O   UNL A   1      31.176  28.470  24.546  1.00  0.00    -0.374 OA
BRANCH  71  72
ATOM     72  C   UNL A   1      31.604  27.486  23.590  1.00  0.00     0.202 C 
BRANCH  72  73
ATOM     73  C   UNL A   1      33.066  27.683  23.226  1.00  0.00     0.261 C 
BRANCH  73  74
ATOM     74  O   UNL A   1      33.811  26.533  23.660  1.00  0.00    -0.459 OA
BRANCH  74  75
ATOM     75  C   UNL A   1      33.635  25.397  22.916  1.00  0.00     0.368 C 
ATOM     76  O   UNL A   1      33.789  25.366  21.693  1.00  0.00    -0.245 OA
BRANCH  75  77
ATOM     77  C   UNL A   1      33.155  24.162  23.808  1.00  0.00     0.196 C 
ATOM     78  C   UNL A   1      32.002  23.415  23.077  1.00  0.00     0.081 C 
ATOM     79  C   UNL A   1      34.002  22.864  23.673  1.00  0.00     0.081 C 
ATOM     80  C   UNL A   1      32.736  22.088  23.285  1.00  0.00     0.014 C 
BRANCH  77  81
ATOM     81  N   UNL A   1      32.894  24.469  25.251  1.00  0.00    -0.317 N 
ATOM     82  C   UNL A   1      33.851  23.902  26.221  1.00  0.00     0.292 C 
ATOM     83  C   UNL A   1      31.540  24.486  25.806  1.00  0.00     0.292 C 
ATOM     84  H   UNL A   1      33.070  25.466  25.125  1.00  0.00     0.349 HD
ATOM     85  C   UNL A   1      33.370  22.788  27.170  1.00  0.00     0.221 C 
ATOM     86  C   UNL A   1      31.162  23.196  26.542  1.00  0.00     0.221 C 
ATOM     87  O   UNL A   1      32.045  22.991  27.648  1.00  0.00    -0.370 OA
ENDBRANCH  77  81
ENDBRANCH  75  77
ENDBRANCH  74  75
ENDBRANCH  73  74
ENDBRANCH  72  73
ENDBRANCH  71  72
ENDBRANCH   1  71
TORSDOF 15
ENDMDL
MODEL 3
REMARK VINA RESULT:     -10.9      4.294      9.879
REMARK SMILES O=C(OCCOCCOC(=O)C1([NH+]2CCOCC2)CCC1)c1ccc(-c2c3nc(c(-c4c(F)c(F)c(F)c(F)c4F)c4ccc([nH]4)c(-c4c(F)c(F)c(F)c(F)c4F)c4nc(c(-c5c(F)c(F)c(F)c(F)c5F)c5ccc2[nH]5)C=C4)C=C3)cc1
REMARK SMILES IDX 5 1 4 2 3 3 2 4 1 5 22 6 23 7 84 8 24 9 83 10 25 11 26 12
REMARK SMILES IDX 27 13 77 14 28 15 82 16 76 17 78 18 29 19 81 20 75 21 74 22
REMARK SMILES IDX 30 24 62 25 42 26 61 27 43 28 46 29 60 30 79 31 44 32 45 33
REMARK SMILES IDX 59 35 80 36 47 37 31 38 32 39 40 40 33 41 34 42 38 43 41 44
REMARK SMILES IDX 35 45 36 46 39 47 37 48 63 49 64 50 72 51 65 52 66 53 70 54
REMARK SMILES IDX 73 55 67 56 68 57 71 58 69 59 48 60 49 61 57 62 50 63 51 64
REMARK SMILES IDX 55 65 58 66 52 67 53 68 56 69 54 70 6 71 7 72 8 73 9 74
REMARK SMILES IDX 10 75 11 76 12 77 19 78 21 79 20 80 13 81 14 82 18 83 15 85
REMARK SMILES IDX 17 86 16 87
REMARK H PARENT 78 23 46 34 13 84
REMARK Flexibility Score: inf
ROOT
ATOM      1  C   UNL A   1      35.053  21.568  24.760  1.00  0.00     0.202 C 
ENDROOT
BRANCH   1   2
ATOM      2  C   UNL A   1      36.467  21.009  25.017  1.00  0.00     0.261 C 
BRANCH   2   3
ATOM      3  O   UNL A   1      37.402  22.012  25.501  1.00  0.00    -0.460 OA
BRANCH   3   4
ATOM      4  C   UNL A   1      38.678  21.788  25.953  1.00  0.00     0.338 C 
ATOM      5  O   UNL A   1      39.279  20.762  25.716  1.00  0.00    -0.246 OA
BRANCH   4   6
ATOM      6  C   UNL A   1      39.315  22.873  26.729  1.00  0.00     0.060 A 
ATOM      7  C   UNL A   1      38.810  24.140  26.580  1.00  0.00     0.016 A 
ATOM      8  C   UNL A   1      40.437  22.703  27.524  1.00  0.00     0.016 A 
ATOM      9  C   UNL A   1      39.633  25.219  26.694  1.00  0.00     0.010 A 
ATOM     10  C   UNL A   1      41.093  23.846  28.007  1.00  0.00     0.010 A 
ATOM     11  C   UNL A   1      40.734  25.118  27.521  1.00  0.00    -0.014 A 
BRANCH  11  12
ATOM     12  C   UNL A   1      41.465  26.376  27.782  1.00  0.00     0.031 A 
ATOM     13  C   UNL A   1      40.846  27.390  28.688  1.00  0.00     0.074 A 
ATOM     14  C   UNL A   1      42.737  26.509  27.341  1.00  0.00     0.049 A 
ATOM     15  N   UNL A   1      41.222  28.615  28.928  1.00  0.00    -0.248 NA
ATOM     16  C   UNL A   1      39.631  26.981  29.416  1.00  0.00     0.031 C 
ATOM     17  C   UNL A   1      43.487  25.506  26.565  1.00  0.00     0.029 A 
ATOM     18  N   UNL A   1      43.659  27.504  27.530  1.00  0.00    -0.354 N 
ATOM     19  C   UNL A   1      40.254  29.143  29.770  1.00  0.00     0.074 A 
ATOM     20  C   UNL A   1      39.272  28.111  30.004  1.00  0.00     0.031 C 
ATOM     21  C   UNL A   1      44.764  25.884  26.447  1.00  0.00     0.029 A 
ATOM     22  C   UNL A   1      44.880  27.237  26.955  1.00  0.00     0.049 A 
ATOM     23  H   UNL A   1      43.467  28.330  28.030  1.00  0.00     0.167 HD
ATOM     24  C   UNL A   1      40.205  30.393  30.283  1.00  0.00     0.037 A 
ATOM     25  C   UNL A   1      45.949  28.033  26.773  1.00  0.00     0.037 A 
ATOM     26  C   UNL A   1      41.231  31.370  30.041  1.00  0.00     0.049 A 
ATOM     27  C   UNL A   1      45.824  29.443  27.268  1.00  0.00     0.074 A 
ATOM     28  C   UNL A   1      41.270  32.701  30.407  1.00  0.00     0.029 A 
ATOM     29  N   UNL A   1      42.422  31.098  29.374  1.00  0.00    -0.354 N 
ATOM     30  N   UNL A   1      44.837  29.998  27.933  1.00  0.00    -0.248 NA
ATOM     31  C   UNL A   1      46.933  30.347  26.963  1.00  0.00     0.031 C 
ATOM     32  C   UNL A   1      42.469  33.243  29.928  1.00  0.00     0.029 A 
ATOM     33  C   UNL A   1      43.203  32.236  29.315  1.00  0.00     0.049 A 
ATOM     34  H   UNL A   1      42.671  30.223  28.999  1.00  0.00     0.167 HD
ATOM     35  C   UNL A   1      45.206  31.315  28.134  1.00  0.00     0.074 A 
ATOM     36  C   UNL A   1      46.528  31.463  27.550  1.00  0.00     0.031 C 
ATOM     37  C   UNL A   1      44.519  32.320  28.729  1.00  0.00     0.037 A 
BRANCH  24  38
ATOM     38  C   UNL A   1      38.980  30.763  31.065  1.00  0.00     0.064 A 
ATOM     39  C   UNL A   1      37.860  31.356  30.464  1.00  0.00     0.173 A 
ATOM     40  C   UNL A   1      38.950  30.567  32.454  1.00  0.00     0.173 A 
ATOM     41  F   UNL A   1      37.851  31.601  29.144  1.00  0.00    -0.203 F 
ATOM     42  C   UNL A   1      36.769  31.767  31.228  1.00  0.00     0.198 A 
ATOM     43  C   UNL A   1      37.845  30.952  33.211  1.00  0.00     0.198 A 
ATOM     44  F   UNL A   1      40.000  30.020  33.084  1.00  0.00    -0.203 F 
ATOM     45  F   UNL A   1      35.740  32.395  30.641  1.00  0.00    -0.200 F 
ATOM     46  C   UNL A   1      36.762  31.561  32.599  1.00  0.00     0.200 A 
ATOM     47  F   UNL A   1      37.842  30.752  34.536  1.00  0.00    -0.200 F 
ATOM     48  F   UNL A   1      35.716  31.965  33.334  1.00  0.00    -0.200 F 
ENDBRANCH  24  38
BRANCH  25  49
ATOM     49  C   UNL A   1      47.134  27.562  26.001  1.00  0.00     0.064 A 
ATOM     50  C   UNL A   1      48.246  26.998  26.639  1.00  0.00     0.173 A 
ATOM     51  C   UNL A   1      47.192  27.689  24.601  1.00  0.00     0.173 A 
ATOM     52  F   UNL A   1      48.257  26.867  27.973  1.00  0.00    -0.203 F 
ATOM     53  C   UNL A   1      49.375  26.610  25.917  1.00  0.00     0.198 A 
ATOM     54  C   UNL A   1      48.301  27.259  23.875  1.00  0.00     0.198 A 
ATOM     55  F   UNL A   1      46.162  28.222  23.927  1.00  0.00    -0.203 F 
ATOM     56  F   UNL A   1      50.450  26.136  26.562  1.00  0.00    -0.200 F 
ATOM     57  C   UNL A   1      49.400  26.734  24.535  1.00  0.00     0.200 A 
ATOM     58  F   UNL A   1      48.307  27.363  22.540  1.00  0.00    -0.200 F 
ATOM     59  F   UNL A   1      50.484  26.363  23.843  1.00  0.00    -0.200 F 
ENDBRANCH  25  49
BRANCH  37  60
ATOM     60  C   UNL A   1      45.220  33.641  28.811  1.00  0.00     0.064 A 
ATOM     61  C   UNL A   1      46.068  33.958  29.881  1.00  0.00     0.173 A 
ATOM     62  C   UNL A   1      45.051  34.587  27.791  1.00  0.00     0.173 A 
ATOM     63  F   UNL A   1      46.240  33.089  30.888  1.00  0.00    -0.203 F 
ATOM     64  C   UNL A   1      46.695  35.197  29.945  1.00  0.00     0.198 A 
ATOM     65  C   UNL A   1      45.710  35.809  27.840  1.00  0.00     0.198 A 
ATOM     66  F   UNL A   1      44.252  34.322  26.747  1.00  0.00    -0.203 F 
ATOM     67  F   UNL A   1      47.452  35.508  31.006  1.00  0.00    -0.200 F 
ATOM     68  C   UNL A   1      46.523  36.116  28.920  1.00  0.00     0.200 A 
ATOM     69  F   UNL A   1      45.555  36.690  26.842  1.00  0.00    -0.200 F 
ATOM     70  F   UNL A   1      47.134  37.308  28.979  1.00  0.00    -0.200 F 
ENDBRANCH  37  60
ENDBRANCH  11  12
ENDBRANCH   4   6
ENDBRANCH   3   4
ENDBRANCH   2   3
ENDBRANCH   1   2
BRANCH   1  71
ATOM     71  O   UNL A   1      33.971  21.123  25.567  1.00  0.00    -0.374 OA
BRANCH  71  72
ATOM     72  C   UNL A   1      34.090  21.441  26.962  1.00  0.00     0.202 C 
BRANCH  72  73
ATOM     73  C   UNL A   1      33.248  22.656  27.317  1.00  0.00     0.261 C 
BRANCH  73  74
ATOM     74  O   UNL A   1      32.357  22.937  26.226  1.00  0.00    -0.459 OA
BRANCH  74  75
ATOM     75  C   UNL A   1      31.556  24.037  26.383  1.00  0.00     0.368 C 
ATOM     76  O   UNL A   1      30.616  24.074  27.179  1.00  0.00    -0.245 OA
BRANCH  75  77
ATOM     77  C   UNL A   1      31.952  25.217  25.380  1.00  0.00     0.196 C 
ATOM     78  C   UNL A   1      32.344  26.480  26.199  1.00  0.00     0.081 C 
ATOM     79  C   UNL A   1      33.412  25.184  24.844  1.00  0.00     0.081 C 
ATOM     80  C   UNL A   1      33.633  26.603  25.384  1.00  0.00     0.014 C 
BRANCH  77  81
ATOM     81  N   UNL A   1      30.988  25.464  24.260  1.00  0.00    -0.317 N 
ATOM     82  C   UNL A   1      31.474  25.155  22.902  1.00  0.00     0.292 C 
ATOM     83  C   UNL A   1      30.104  26.630  24.243  1.00  0.00     0.292 C 
ATOM     84  H   UNL A   1      30.348  24.735  24.579  1.00  0.00     0.349 HD
ATOM     85  C   UNL A   1      31.717  26.318  21.921  1.00  0.00     0.221 C 
ATOM     86  C   UNL A   1      30.621  27.779  23.369  1.00  0.00     0.221 C 
ATOM     87  O   UNL A   1      30.735  27.343  22.012  1.00  0.00    -0.370 OA
ENDBRANCH  77  81
ENDBRANCH  75  77
ENDBRANCH  74  75
ENDBRANCH  73  74
ENDBRANCH  72  73
ENDBRANCH  71  72
ENDBRANCH   1  71
TORSDOF 15
ENDMDL
