MODEL 1
REMARK VINA RESULT:     -11.7      0.000      0.000
REMARK SMILES O=C(OCCOCCOC(=O)[C@H]1CC(=O)N(CCc2ccc3c(c2)OCO3)C1)c1ccc(-c2c3nc(c(-c4c(F)c(F)c(F)c(F)c4F)c4ccc([nH]4)c(-c4c(F)c(F)c(F)c(F)c4F)c4nc(c(-c5c(F)c(F)c(F)c(F)c5F)c5ccc2[nH]5)C=C4)C=C3)cc1
REMARK SMILES IDX 7 1 6 2 5 3 4 4 3 5 2 6 1 7 29 8 30 9 91 10 31 11 90 12
REMARK SMILES IDX 32 13 33 14 34 15 84 16 35 17 89 18 83 19 85 20 36 21 88 22
REMARK SMILES IDX 82 23 81 24 37 26 69 27 49 28 68 29 50 30 53 31 67 32 86 33
REMARK SMILES IDX 51 34 52 35 66 37 87 38 54 39 38 40 39 41 47 42 40 43 41 44
REMARK SMILES IDX 45 45 48 46 42 47 43 48 46 49 44 50 70 51 71 52 79 53 72 54
REMARK SMILES IDX 73 55 77 56 80 57 74 58 75 59 78 60 76 61 55 62 56 63 64 64
REMARK SMILES IDX 57 65 58 66 62 67 65 68 59 69 60 70 63 71 61 72 8 73 9 74
REMARK SMILES IDX 10 75 11 76 12 77 13 78 28 79 14 80 16 81 15 82 17 83 18 84
REMARK SMILES IDX 19 85 20 86 24 87 21 88 23 89 22 90 25 91 27 92 26 93
REMARK H PARENT 85 25 53 36
REMARK Flexibility Score: inf
ROOT
ATOM      1  C   UNL A   1      35.546  33.015  28.307  1.00  0.00     0.202 C 
ENDROOT
BRANCH   1   2
ATOM      2  O   UNL A   1      35.068  34.290  28.753  1.00  0.00    -0.374 OA
BRANCH   2   3
ATOM      3  C   UNL A   1      33.657  34.512  28.723  1.00  0.00     0.202 C 
BRANCH   3   4
ATOM      4  C   UNL A   1      33.103  35.800  29.344  1.00  0.00     0.261 C 
BRANCH   4   5
ATOM      5  O   UNL A   1      32.258  35.540  30.476  1.00  0.00    -0.460 OA
BRANCH   5   6
ATOM      6  C   UNL A   1      32.629  35.652  31.777  1.00  0.00     0.338 C 
ATOM      7  O   UNL A   1      31.979  36.352  32.547  1.00  0.00    -0.246 OA
BRANCH   6   8
ATOM      8  C   UNL A   1      33.842  34.958  32.288  1.00  0.00     0.060 A 
ATOM      9  C   UNL A   1      33.861  33.591  32.552  1.00  0.00     0.016 A 
ATOM     10  C   UNL A   1      35.036  35.675  32.415  1.00  0.00     0.016 A 
ATOM     11  C   UNL A   1      34.982  32.947  33.018  1.00  0.00     0.010 A 
ATOM     12  C   UNL A   1      36.211  35.013  32.791  1.00  0.00     0.010 A 
ATOM     13  C   UNL A   1      36.177  33.642  33.081  1.00  0.00    -0.014 A 
BRANCH  13  14
ATOM     14  C   UNL A   1      37.363  32.862  33.451  1.00  0.00     0.031 A 
ATOM     15  C   UNL A   1      37.971  33.087  34.791  1.00  0.00     0.074 A 
ATOM     16  C   UNL A   1      37.768  31.878  32.626  1.00  0.00     0.049 A 
ATOM     17  N   UNL A   1      39.069  32.592  35.285  1.00  0.00    -0.248 NA
ATOM     18  C   UNL A   1      37.239  33.981  35.705  1.00  0.00     0.031 C 
ATOM     19  C   UNL A   1      37.108  31.503  31.368  1.00  0.00     0.029 A 
ATOM     20  N   UNL A   1      38.806  30.995  32.725  1.00  0.00    -0.354 N 
ATOM     21  C   UNL A   1      39.191  33.153  36.546  1.00  0.00     0.074 A 
ATOM     22  C   UNL A   1      38.045  34.006  36.757  1.00  0.00     0.031 C 
ATOM     23  C   UNL A   1      37.756  30.464  30.821  1.00  0.00     0.029 A 
ATOM     24  C   UNL A   1      38.928  30.173  31.631  1.00  0.00     0.049 A 
ATOM     25  H   UNL A   1      39.408  30.952  33.504  1.00  0.00     0.167 HD
ATOM     26  C   UNL A   1      40.202  32.973  37.423  1.00  0.00     0.037 A 
ATOM     27  C   UNL A   1      39.925  29.334  31.296  1.00  0.00     0.037 A 
ATOM     28  C   UNL A   1      41.309  32.095  37.167  1.00  0.00     0.049 A 
ATOM     29  C   UNL A   1      41.088  29.242  32.248  1.00  0.00     0.074 A 
ATOM     30  C   UNL A   1      42.409  31.835  37.960  1.00  0.00     0.029 A 
ATOM     31  N   UNL A   1      41.450  31.329  36.014  1.00  0.00    -0.354 N 
ATOM     32  N   UNL A   1      41.240  29.810  33.422  1.00  0.00    -0.248 NA
ATOM     33  C   UNL A   1      42.227  28.422  31.824  1.00  0.00     0.031 C 
ATOM     34  C   UNL A   1      43.248  30.966  37.258  1.00  0.00     0.029 A 
ATOM     35  C   UNL A   1      42.643  30.632  36.055  1.00  0.00     0.049 A 
ATOM     36  H   UNL A   1      40.797  31.290  35.278  1.00  0.00     0.167 HD
ATOM     37  C   UNL A   1      42.485  29.411  33.881  1.00  0.00     0.074 A 
ATOM     38  C   UNL A   1      43.031  28.524  32.873  1.00  0.00     0.031 C 
ATOM     39  C   UNL A   1      43.132  29.753  35.022  1.00  0.00     0.037 A 
BRANCH  26  40
ATOM     40  C   UNL A   1      40.201  33.805  38.667  1.00  0.00     0.064 A 
ATOM     41  C   UNL A   1      39.590  33.383  39.855  1.00  0.00     0.173 A 
ATOM     42  C   UNL A   1      40.843  35.053  38.664  1.00  0.00     0.173 A 
ATOM     43  F   UNL A   1      38.934  32.214  39.900  1.00  0.00    -0.203 F 
ATOM     44  C   UNL A   1      39.614  34.186  40.994  1.00  0.00     0.198 A 
ATOM     45  C   UNL A   1      40.886  35.841  39.809  1.00  0.00     0.198 A 
ATOM     46  F   UNL A   1      41.428  35.509  37.546  1.00  0.00    -0.203 F 
ATOM     47  F   UNL A   1      38.989  33.784  42.109  1.00  0.00    -0.200 F 
ATOM     48  C   UNL A   1      40.270  35.408  40.973  1.00  0.00     0.200 A 
ATOM     49  F   UNL A   1      41.524  37.020  39.785  1.00  0.00    -0.200 F 
ATOM     50  F   UNL A   1      40.300  36.175  42.071  1.00  0.00    -0.200 F 
ENDBRANCH  26  40
BRANCH  27  51
ATOM     51  C   UNL A   1      39.931  28.630  29.983  1.00  0.00     0.064 A 
ATOM     52  C   UNL A   1      39.379  27.351  29.837  1.00  0.00     0.173 A 
ATOM     53  C   UNL A   1      40.545  29.200  28.854  1.00  0.00     0.173 A 
ATOM     54  F   UNL A   1      38.795  26.750  30.885  1.00  0.00    -0.203 F 
ATOM     55  C   UNL A   1      39.476  26.655  28.632  1.00  0.00     0.198 A 
ATOM     56  C   UNL A   1      40.606  28.521  27.639  1.00  0.00     0.198 A 
ATOM     57  F   UNL A   1      41.096  30.421  28.930  1.00  0.00    -0.203 F 
ATOM     58  F   UNL A   1      39.005  25.403  28.545  1.00  0.00    -0.200 F 
ATOM     59  C   UNL A   1      40.087  27.242  27.534  1.00  0.00     0.200 A 
ATOM     60  F   UNL A   1      41.183  29.101  26.579  1.00  0.00    -0.200 F 
ATOM     61  F   UNL A   1      40.191  26.567  26.381  1.00  0.00    -0.200 F 
ENDBRANCH  27  51
BRANCH  39  62
ATOM     62  C   UNL A   1      44.486  29.150  35.234  1.00  0.00     0.064 A 
ATOM     63  C   UNL A   1      44.640  27.912  35.874  1.00  0.00     0.173 A 
ATOM     64  C   UNL A   1      45.630  29.785  34.730  1.00  0.00     0.173 A 
ATOM     65  F   UNL A   1      43.574  27.279  36.388  1.00  0.00    -0.203 F 
ATOM     66  C   UNL A   1      45.898  27.338  36.016  1.00  0.00     0.198 A 
ATOM     67  C   UNL A   1      46.881  29.190  34.842  1.00  0.00     0.198 A 
ATOM     68  F   UNL A   1      45.528  30.967  34.104  1.00  0.00    -0.203 F 
ATOM     69  F   UNL A   1      46.031  26.176  36.669  1.00  0.00    -0.200 F 
ATOM     70  C   UNL A   1      47.015  27.970  35.489  1.00  0.00     0.200 A 
ATOM     71  F   UNL A   1      47.956  29.793  34.315  1.00  0.00    -0.200 F 
ATOM     72  F   UNL A   1      48.224  27.405  35.609  1.00  0.00    -0.200 F 
ENDBRANCH  39  62
ENDBRANCH  13  14
ENDBRANCH   6   8
ENDBRANCH   5   6
ENDBRANCH   4   5
ENDBRANCH   3   4
ENDBRANCH   2   3
ENDBRANCH   1   2
BRANCH   1  73
ATOM     73  C   UNL A   1      34.542  31.933  28.716  1.00  0.00     0.261 C 
BRANCH  73  74
ATOM     74  O   UNL A   1      34.425  31.005  27.623  1.00  0.00    -0.463 OA
BRANCH  74  75
ATOM     75  C   UNL A   1      33.154  30.829  27.166  1.00  0.00     0.311 C 
ATOM     76  O   UNL A   1      32.241  31.632  27.304  1.00  0.00    -0.252 OA
BRANCH  75  77
ATOM     77  C   UNL A   1      33.005  29.506  26.455  1.00  0.00     0.128 C 
ATOM     78  C   UNL A   1      32.194  28.512  27.287  1.00  0.00     0.117 C 
ATOM     79  C   UNL A   1      32.222  29.610  25.155  1.00  0.00     0.135 C 
ATOM     80  C   UNL A   1      31.430  27.705  26.264  1.00  0.00     0.223 C 
ATOM     81  N   UNL A   1      31.488  28.375  25.053  1.00  0.00    -0.341 N 
ATOM     82  O   UNL A   1      30.850  26.661  26.487  1.00  0.00    -0.275 OA
BRANCH  81  83
ATOM     83  C   UNL A   1      30.928  27.873  23.797  1.00  0.00     0.124 C 
BRANCH  83  84
ATOM     84  C   UNL A   1      29.464  28.250  23.488  1.00  0.00     0.057 C 
BRANCH  84  85
ATOM     85  C   UNL A   1      29.143  29.666  23.052  1.00  0.00    -0.042 A 
ATOM     86  C   UNL A   1      29.268  30.780  23.909  1.00  0.00     0.008 A 
ATOM     87  C   UNL A   1      28.724  29.883  21.725  1.00  0.00     0.054 A 
ATOM     88  C   UNL A   1      28.833  32.052  23.521  1.00  0.00     0.051 A 
ATOM     89  C   UNL A   1      28.340  31.156  21.353  1.00  0.00     0.166 A 
ATOM     90  C   UNL A   1      28.363  32.204  22.238  1.00  0.00     0.165 A 
ATOM     91  O   UNL A   1      27.894  31.527  20.124  1.00  0.00    -0.454 OA
ATOM     92  O   UNL A   1      27.896  33.358  21.695  1.00  0.00    -0.454 OA
ATOM     93  C   UNL A   1      27.594  32.921  20.353  1.00  0.00     0.468 C 
ENDBRANCH  84  85
ENDBRANCH  83  84
ENDBRANCH  81  83
ENDBRANCH  75  77
ENDBRANCH  74  75
ENDBRANCH  73  74
ENDBRANCH   1  73
TORSDOF 17
ENDMDL
MODEL 2
REMARK VINA RESULT:     -11.4      3.656      9.359
REMARK SMILES O=C(OCCOCCOC(=O)[C@H]1CC(=O)N(CCc2ccc3c(c2)OCO3)C1)c1ccc(-c2c3nc(c(-c4c(F)c(F)c(F)c(F)c4F)c4ccc([nH]4)c(-c4c(F)c(F)c(F)c(F)c4F)c4nc(c(-c5c(F)c(F)c(F)c(F)c5F)c5ccc2[nH]5)C=C4)C=C3)cc1
REMARK SMILES IDX 7 1 6 2 5 3 4 4 3 5 2 6 1 7 29 8 30 9 91 10 31 11 90 12
REMARK SMILES IDX 32 13 33 14 34 15 84 16 35 17 89 18 83 19 85 20 36 21 88 22
REMARK SMILES IDX 82 23 81 24 37 26 69 27 49 28 68 29 50 30 53 31 67 32 86 33
REMARK SMILES IDX 51 34 52 35 66 37 87 38 54 39 38 40 39 41 47 42 40 43 41 44
REMARK SMILES IDX 45 45 48 46 42 47 43 48 46 49 44 50 70 51 71 52 79 53 72 54
REMARK SMILES IDX 73 55 77 56 80 57 74 58 75 59 78 60 76 61 55 62 56 63 64 64
REMARK SMILES IDX 57 65 58 66 62 67 65 68 59 69 60 70 63 71 61 72 8 73 9 74
REMARK SMILES IDX 10 75 11 76 12 77 13 78 28 79 14 80 16 81 15 82 17 83 18 84
REMARK SMILES IDX 19 85 20 86 24 87 21 88 23 89 22 90 25 91 27 92 26 93
REMARK H PARENT 85 25 53 36
REMARK Flexibility Score: inf
ROOT
ATOM      1  C   UNL A   1      31.875  28.357  22.830  1.00  0.00     0.202 C 
ENDROOT
BRANCH   1   2
ATOM      2  O   UNL A   1      31.030  29.436  23.246  1.00  0.00    -0.374 OA
BRANCH   2   3
ATOM      3  C   UNL A   1      30.991  29.743  24.640  1.00  0.00     0.202 C 
BRANCH   3   4
ATOM      4  C   UNL A   1      32.092  29.180  25.547  1.00  0.00     0.261 C 
BRANCH   4   5
ATOM      5  O   UNL A   1      33.182  30.100  25.719  1.00  0.00    -0.460 OA
BRANCH   5   6
ATOM      6  C   UNL A   1      33.366  30.911  26.791  1.00  0.00     0.338 C 
ATOM      7  O   UNL A   1      32.565  31.809  27.032  1.00  0.00    -0.246 OA
BRANCH   6   8
ATOM      8  C   UNL A   1      34.553  30.753  27.674  1.00  0.00     0.060 A 
ATOM      9  C   UNL A   1      34.834  29.561  28.336  1.00  0.00     0.016 A 
ATOM     10  C   UNL A   1      35.479  31.798  27.767  1.00  0.00     0.016 A 
ATOM     11  C   UNL A   1      35.933  29.410  29.147  1.00  0.00     0.010 A 
ATOM     12  C   UNL A   1      36.655  31.624  28.507  1.00  0.00     0.010 A 
ATOM     13  C   UNL A   1      36.880  30.419  29.187  1.00  0.00    -0.014 A 
BRANCH  13  14
ATOM     14  C   UNL A   1      38.095  30.139  29.959  1.00  0.00     0.031 A 
ATOM     15  C   UNL A   1      39.160  29.310  29.331  1.00  0.00     0.074 A 
ATOM     16  C   UNL A   1      38.260  30.757  31.144  1.00  0.00     0.049 A 
ATOM     17  N   UNL A   1      40.260  28.855  29.858  1.00  0.00    -0.248 NA
ATOM     18  C   UNL A   1      38.969  28.953  27.915  1.00  0.00     0.031 C 
ATOM     19  C   UNL A   1      37.316  31.714  31.738  1.00  0.00     0.029 A 
ATOM     20  N   UNL A   1      39.283  30.703  32.049  1.00  0.00    -0.354 N 
ATOM     21  C   UNL A   1      40.868  28.114  28.858  1.00  0.00     0.074 A 
ATOM     22  C   UNL A   1      40.033  28.198  27.683  1.00  0.00     0.031 C 
ATOM     23  C   UNL A   1      37.810  32.157  32.903  1.00  0.00     0.029 A 
ATOM     24  C   UNL A   1      39.046  31.443  33.183  1.00  0.00     0.049 A 
ATOM     25  H   UNL A   1      40.108  30.186  31.904  1.00  0.00     0.167 HD
ATOM     26  C   UNL A   1      42.017  27.410  28.949  1.00  0.00     0.037 A 
ATOM     27  C   UNL A   1      39.722  31.470  34.345  1.00  0.00     0.037 A 
ATOM     28  C   UNL A   1      42.819  27.378  30.141  1.00  0.00     0.049 A 
ATOM     29  C   UNL A   1      40.937  30.587  34.448  1.00  0.00     0.074 A 
ATOM     30  C   UNL A   1      43.992  26.690  30.376  1.00  0.00     0.029 A 
ATOM     31  N   UNL A   1      42.517  28.075  31.307  1.00  0.00    -0.354 N 
ATOM     32  N   UNL A   1      41.495  29.838  33.524  1.00  0.00    -0.248 NA
ATOM     33  C   UNL A   1      41.603  30.525  35.753  1.00  0.00     0.031 C 
ATOM     34  C   UNL A   1      44.363  26.916  31.704  1.00  0.00     0.029 A 
ATOM     35  C   UNL A   1      43.458  27.796  32.279  1.00  0.00     0.049 A 
ATOM     36  H   UNL A   1      41.746  28.677  31.421  1.00  0.00     0.167 HD
ATOM     37  C   UNL A   1      42.578  29.224  34.130  1.00  0.00     0.074 A 
ATOM     38  C   UNL A   1      42.620  29.716  35.494  1.00  0.00     0.031 C 
ATOM     39  C   UNL A   1      43.453  28.323  33.621  1.00  0.00     0.037 A 
BRANCH  26  40
ATOM     40  C   UNL A   1      42.405  26.555  27.784  1.00  0.00     0.064 A 
ATOM     41  C   UNL A   1      41.858  25.282  27.568  1.00  0.00     0.173 A 
ATOM     42  C   UNL A   1      43.343  27.034  26.857  1.00  0.00     0.173 A 
ATOM     43  F   UNL A   1      40.983  24.765  28.444  1.00  0.00    -0.203 F 
ATOM     44  C   UNL A   1      42.243  24.518  26.469  1.00  0.00     0.198 A 
ATOM     45  C   UNL A   1      43.707  26.278  25.747  1.00  0.00     0.198 A 
ATOM     46  F   UNL A   1      43.908  28.238  27.029  1.00  0.00    -0.203 F 
ATOM     47  F   UNL A   1      41.739  23.287  26.301  1.00  0.00    -0.200 F 
ATOM     48  C   UNL A   1      43.158  25.020  25.555  1.00  0.00     0.200 A 
ATOM     49  F   UNL A   1      44.589  26.769  24.866  1.00  0.00    -0.200 F 
ATOM     50  F   UNL A   1      43.520  24.287  24.494  1.00  0.00    -0.200 F 
ENDBRANCH  26  40
BRANCH  27  51
ATOM     51  C   UNL A   1      39.215  32.242  35.514  1.00  0.00     0.064 A 
ATOM     52  C   UNL A   1      39.562  33.584  35.709  1.00  0.00     0.173 A 
ATOM     53  C   UNL A   1      38.416  31.632  36.497  1.00  0.00     0.173 A 
ATOM     54  F   UNL A   1      40.338  34.213  34.813  1.00  0.00    -0.203 F 
ATOM     55  C   UNL A   1      39.168  34.274  36.856  1.00  0.00     0.198 A 
ATOM     56  C   UNL A   1      37.988  32.333  37.623  1.00  0.00     0.198 A 
ATOM     57  F   UNL A   1      38.052  30.348  36.371  1.00  0.00    -0.203 F 
ATOM     58  F   UNL A   1      39.579  35.534  37.051  1.00  0.00    -0.200 F 
ATOM     59  C   UNL A   1      38.379  33.648  37.810  1.00  0.00     0.200 A 
ATOM     60  F   UNL A   1      37.213  31.727  38.532  1.00  0.00    -0.200 F 
ATOM     61  F   UNL A   1      38.012  34.307  38.917  1.00  0.00    -0.200 F 
ENDBRANCH  27  51
BRANCH  39  62
ATOM     62  C   UNL A   1      44.529  27.836  34.542  1.00  0.00     0.064 A 
ATOM     63  C   UNL A   1      44.369  26.665  35.294  1.00  0.00     0.173 A 
ATOM     64  C   UNL A   1      45.755  28.513  34.617  1.00  0.00     0.173 A 
ATOM     65  F   UNL A   1      43.205  25.997  35.266  1.00  0.00    -0.203 F 
ATOM     66  C   UNL A   1      45.396  26.195  36.104  1.00  0.00     0.198 A 
ATOM     67  C   UNL A   1      46.792  28.020  35.400  1.00  0.00     0.198 A 
ATOM     68  F   UNL A   1      45.954  29.634  33.909  1.00  0.00    -0.203 F 
ATOM     69  F   UNL A   1      45.210  25.097  36.850  1.00  0.00    -0.200 F 
ATOM     70  C   UNL A   1      46.610  26.865  36.146  1.00  0.00     0.200 A 
ATOM     71  F   UNL A   1      47.971  28.657  35.424  1.00  0.00    -0.200 F 
ATOM     72  F   UNL A   1      47.607  26.399  36.911  1.00  0.00    -0.200 F 
ENDBRANCH  39  62
ENDBRANCH  13  14
ENDBRANCH   6   8
ENDBRANCH   5   6
ENDBRANCH   4   5
ENDBRANCH   3   4
ENDBRANCH   2   3
ENDBRANCH   1   2
BRANCH   1  73
ATOM     73  C   UNL A   1      31.004  27.155  22.452  1.00  0.00     0.261 C 
BRANCH  73  74
ATOM     74  O   UNL A   1      31.347  26.069  23.331  1.00  0.00    -0.463 OA
BRANCH  74  75
ATOM     75  C   UNL A   1      30.629  26.029  24.487  1.00  0.00     0.311 C 
ATOM     76  O   UNL A   1      29.445  26.319  24.588  1.00  0.00    -0.252 OA
BRANCH  75  77
ATOM     77  C   UNL A   1      31.482  25.576  25.647  1.00  0.00     0.128 C 
ATOM     78  C   UNL A   1      30.783  24.490  26.466  1.00  0.00     0.117 C 
ATOM     79  C   UNL A   1      32.783  24.918  25.213  1.00  0.00     0.135 C 
ATOM     80  C   UNL A   1      31.906  23.596  26.936  1.00  0.00     0.223 C 
ATOM     81  N   UNL A   1      33.036  23.892  26.191  1.00  0.00    -0.341 N 
ATOM     82  O   UNL A   1      31.812  22.752  27.805  1.00  0.00    -0.275 OA
BRANCH  81  83
ATOM     83  C   UNL A   1      34.352  23.286  26.402  1.00  0.00     0.124 C 
BRANCH  83  84
ATOM     84  C   UNL A   1      34.966  22.524  25.210  1.00  0.00     0.057 C 
BRANCH  84  85
ATOM     85  C   UNL A   1      34.234  21.320  24.647  1.00  0.00    -0.042 A 
ATOM     86  C   UNL A   1      33.072  21.430  23.855  1.00  0.00     0.008 A 
ATOM     87  C   UNL A   1      34.751  20.037  24.908  1.00  0.00     0.054 A 
ATOM     88  C   UNL A   1      32.343  20.300  23.468  1.00  0.00     0.051 A 
ATOM     89  C   UNL A   1      34.035  18.937  24.479  1.00  0.00     0.166 A 
ATOM     90  C   UNL A   1      32.847  19.067  23.807  1.00  0.00     0.165 A 
ATOM     91  O   UNL A   1      34.383  17.636  24.666  1.00  0.00    -0.454 OA
ATOM     92  O   UNL A   1      32.273  17.870  23.521  1.00  0.00    -0.454 OA
ATOM     93  C   UNL A   1      33.251  16.964  24.074  1.00  0.00     0.468 C 
ENDBRANCH  84  85
ENDBRANCH  83  84
ENDBRANCH  81  83
ENDBRANCH  75  77
ENDBRANCH  74  75
ENDBRANCH  73  74
ENDBRANCH   1  73
TORSDOF 17
ENDMDL
MODEL 3
REMARK VINA RESULT:     -11.3      7.042     12.369
REMARK SMILES O=C(OCCOCCOC(=O)[C@H]1CC(=O)N(CCc2ccc3c(c2)OCO3)C1)c1ccc(-c2c3nc(c(-c4c(F)c(F)c(F)c(F)c4F)c4ccc([nH]4)c(-c4c(F)c(F)c(F)c(F)c4F)c4nc(c(-c5c(F)c(F)c(F)c(F)c5F)c5ccc2[nH]5)C=C4)C=C3)cc1
REMARK SMILES IDX 7 1 6 2 5 3 4 4 3 5 2 6 1 7 29 8 30 9 91 10 31 11 90 12
REMARK SMILES IDX 32 13 33 14 34 15 84 16 35 17 89 18 83 19 85 20 36 21 88 22
REMARK SMILES IDX 82 23 81 24 37 26 69 27 49 28 68 29 50 30 53 31 67 32 86 33
REMARK SMILES IDX 51 34 52 35 66 37 87 38 54 39 38 40 39 41 47 42 40 43 41 44
REMARK SMILES IDX 45 45 48 46 42 47 43 48 46 49 44 50 70 51 71 52 79 53 72 54
REMARK SMILES IDX 73 55 77 56 80 57 74 58 75 59 78 60 76 61 55 62 56 63 64 64
REMARK SMILES IDX 57 65 58 66 62 67 65 68 59 69 60 70 63 71 61 72 8 73 9 74
REMARK SMILES IDX 10 75 11 76 12 77 13 78 28 79 14 80 16 81 15 82 17 83 18 84
REMARK SMILES IDX 19 85 20 86 24 87 21 88 23 89 22 90 25 91 27 92 26 93
REMARK H PARENT 85 25 53 36
REMARK Flexibility Score: inf
ROOT
ATOM      1  C   UNL A   1      41.204  21.502  26.703  1.00  0.00     0.202 C 
ENDROOT
BRANCH   1   2
ATOM      2  O   UNL A   1      42.115  20.422  26.937  1.00  0.00    -0.374 OA
BRANCH   2   3
ATOM      3  C   UNL A   1      41.906  19.213  26.207  1.00  0.00     0.202 C 
BRANCH   3   4
ATOM      4  C   UNL A   1      43.128  18.384  25.792  1.00  0.00     0.261 C 
BRANCH   4   5
ATOM      5  O   UNL A   1      43.666  18.802  24.527  1.00  0.00    -0.460 OA
BRANCH   5   6
ATOM      6  C   UNL A   1      44.769  19.575  24.358  1.00  0.00     0.338 C 
ATOM      7  O   UNL A   1      45.785  19.101  23.860  1.00  0.00    -0.246 OA
BRANCH   6   8
ATOM      8  C   UNL A   1      44.781  20.995  24.800  1.00  0.00     0.060 A 
ATOM      9  C   UNL A   1      45.350  21.393  26.007  1.00  0.00     0.016 A 
ATOM     10  C   UNL A   1      44.300  21.984  23.935  1.00  0.00     0.016 A 
ATOM     11  C   UNL A   1      45.368  22.706  26.415  1.00  0.00     0.010 A 
ATOM     12  C   UNL A   1      44.405  23.334  24.292  1.00  0.00     0.010 A 
ATOM     13  C   UNL A   1      44.952  23.688  25.533  1.00  0.00    -0.014 A 
BRANCH  13  14
ATOM     14  C   UNL A   1      45.129  25.075  25.975  1.00  0.00     0.031 A 
ATOM     15  C   UNL A   1      46.464  25.711  25.801  1.00  0.00     0.074 A 
ATOM     16  C   UNL A   1      44.046  25.761  26.387  1.00  0.00     0.049 A 
ATOM     17  N   UNL A   1      46.873  26.879  26.208  1.00  0.00    -0.248 NA
ATOM     18  C   UNL A   1      47.472  24.936  25.058  1.00  0.00     0.031 C 
ATOM     19  C   UNL A   1      42.675  25.234  26.424  1.00  0.00     0.029 A 
ATOM     20  N   UNL A   1      43.913  27.049  26.825  1.00  0.00    -0.354 N 
ATOM     21  C   UNL A   1      48.200  26.959  25.820  1.00  0.00     0.074 A 
ATOM     22  C   UNL A   1      48.527  25.737  25.122  1.00  0.00     0.031 C 
ATOM     23  C   UNL A   1      41.844  26.194  26.855  1.00  0.00     0.029 A 
ATOM     24  C   UNL A   1      42.634  27.360  27.220  1.00  0.00     0.049 A 
ATOM     25  H   UNL A   1      44.659  27.691  26.855  1.00  0.00     0.167 HD
ATOM     26  C   UNL A   1      49.061  27.971  26.063  1.00  0.00     0.037 A 
ATOM     27  C   UNL A   1      42.179  28.443  27.875  1.00  0.00     0.037 A 
ATOM     28  C   UNL A   1      48.675  29.174  26.747  1.00  0.00     0.049 A 
ATOM     29  C   UNL A   1      43.190  29.502  28.226  1.00  0.00     0.074 A 
ATOM     30  C   UNL A   1      49.450  30.267  27.077  1.00  0.00     0.029 A 
ATOM     31  N   UNL A   1      47.389  29.434  27.208  1.00  0.00    -0.354 N 
ATOM     32  N   UNL A   1      44.463  29.566  27.910  1.00  0.00    -0.248 NA
ATOM     33  C   UNL A   1      42.717  30.623  29.044  1.00  0.00     0.031 C 
ATOM     34  C   UNL A   1      48.650  31.158  27.796  1.00  0.00     0.029 A 
ATOM     35  C   UNL A   1      47.359  30.652  27.861  1.00  0.00     0.049 A 
ATOM     36  H   UNL A   1      46.614  28.838  27.087  1.00  0.00     0.167 HD
ATOM     37  C   UNL A   1      44.942  30.733  28.482  1.00  0.00     0.074 A 
ATOM     38  C   UNL A   1      43.812  31.365  29.135  1.00  0.00     0.031 C 
ATOM     39  C   UNL A   1      46.200  31.236  28.486  1.00  0.00     0.037 A 
BRANCH  26  40
ATOM     40  C   UNL A   1      50.495  27.773  25.685  1.00  0.00     0.064 A 
ATOM     41  C   UNL A   1      50.967  27.990  24.383  1.00  0.00     0.173 A 
ATOM     42  C   UNL A   1      51.418  27.364  26.660  1.00  0.00     0.173 A 
ATOM     43  F   UNL A   1      50.119  28.347  23.407  1.00  0.00    -0.203 F 
ATOM     44  C   UNL A   1      52.311  27.798  24.071  1.00  0.00     0.198 A 
ATOM     45  C   UNL A   1      52.763  27.197  26.351  1.00  0.00     0.198 A 
ATOM     46  F   UNL A   1      51.011  27.127  27.917  1.00  0.00    -0.203 F 
ATOM     47  F   UNL A   1      52.737  27.971  22.812  1.00  0.00    -0.200 F 
ATOM     48  C   UNL A   1      53.209  27.412  25.056  1.00  0.00     0.200 A 
ATOM     49  F   UNL A   1      53.627  26.827  27.306  1.00  0.00    -0.200 F 
ATOM     50  F   UNL A   1      54.503  27.236  24.756  1.00  0.00    -0.200 F 
ENDBRANCH  26  40
BRANCH  27  51
ATOM     51  C   UNL A   1      40.766  28.525  28.339  1.00  0.00     0.064 A 
ATOM     52  C   UNL A   1      39.758  29.057  27.524  1.00  0.00     0.173 A 
ATOM     53  C   UNL A   1      40.402  28.127  29.637  1.00  0.00     0.173 A 
ATOM     54  F   UNL A   1      40.051  29.471  26.282  1.00  0.00    -0.203 F 
ATOM     55  C   UNL A   1      38.458  29.225  27.999  1.00  0.00     0.198 A 
ATOM     56  C   UNL A   1      39.094  28.256  30.098  1.00  0.00     0.198 A 
ATOM     57  F   UNL A   1      41.321  27.612  30.468  1.00  0.00    -0.203 F 
ATOM     58  F   UNL A   1      37.533  29.806  27.222  1.00  0.00    -0.200 F 
ATOM     59  C   UNL A   1      38.126  28.822  29.285  1.00  0.00     0.200 A 
ATOM     60  F   UNL A   1      38.778  27.849  31.335  1.00  0.00    -0.200 F 
ATOM     61  F   UNL A   1      36.880  28.995  29.744  1.00  0.00    -0.200 F 
ENDBRANCH  27  51
BRANCH  39  62
ATOM     62  C   UNL A   1      46.402  32.535  29.204  1.00  0.00     0.064 A 
ATOM     63  C   UNL A   1      46.804  32.571  30.546  1.00  0.00     0.173 A 
ATOM     64  C   UNL A   1      46.257  33.751  28.520  1.00  0.00     0.173 A 
ATOM     65  F   UNL A   1      46.936  31.432  31.244  1.00  0.00    -0.203 F 
ATOM     66  C   UNL A   1      47.039  33.783  31.184  1.00  0.00     0.198 A 
ATOM     67  C   UNL A   1      46.530  34.959  29.151  1.00  0.00     0.198 A 
ATOM     68  F   UNL A   1      45.881  33.763  27.232  1.00  0.00    -0.203 F 
ATOM     69  F   UNL A   1      47.381  33.800  32.480  1.00  0.00    -0.200 F 
ATOM     70  C   UNL A   1      46.915  34.974  30.484  1.00  0.00     0.200 A 
ATOM     71  F   UNL A   1      46.428  36.106  28.467  1.00  0.00    -0.200 F 
ATOM     72  F   UNL A   1      47.163  36.141  31.094  1.00  0.00    -0.200 F 
ENDBRANCH  39  62
ENDBRANCH  13  14
ENDBRANCH   6   8
ENDBRANCH   5   6
ENDBRANCH   4   5
ENDBRANCH   3   4
ENDBRANCH   2   3
ENDBRANCH   1   2
BRANCH   1  73
ATOM     73  C   UNL A   1      39.954  20.959  26.003  1.00  0.00     0.261 C 
BRANCH  73  74
ATOM     74  O   UNL A   1      38.961  22.000  26.005  1.00  0.00    -0.463 OA
BRANCH  74  75
ATOM     75  C   UNL A   1      37.864  21.736  25.242  1.00  0.00     0.311 C 
ATOM     76  O   UNL A   1      37.520  20.622  24.870  1.00  0.00    -0.252 OA
BRANCH  75  77
ATOM     77  C   UNL A   1      37.112  23.001  24.907  1.00  0.00     0.128 C 
ATOM     78  C   UNL A   1      36.521  22.944  23.498  1.00  0.00     0.117 C 
ATOM     79  C   UNL A   1      35.898  23.228  25.796  1.00  0.00     0.135 C 
ATOM     80  C   UNL A   1      35.223  23.709  23.606  1.00  0.00     0.223 C 
ATOM     81  N   UNL A   1      34.917  23.855  24.950  1.00  0.00    -0.341 N 
ATOM     82  O   UNL A   1      34.562  24.102  22.666  1.00  0.00    -0.275 OA
BRANCH  81  83
ATOM     83  C   UNL A   1      33.771  24.606  25.463  1.00  0.00     0.124 C 
BRANCH  83  84
ATOM     84  C   UNL A   1      33.995  26.105  25.754  1.00  0.00     0.057 C 
BRANCH  84  85
ATOM     85  C   UNL A   1      32.996  27.116  25.226  1.00  0.00    -0.042 A 
ATOM     86  C   UNL A   1      32.652  28.293  25.925  1.00  0.00     0.008 A 
ATOM     87  C   UNL A   1      32.402  26.883  23.970  1.00  0.00     0.054 A 
ATOM     88  C   UNL A   1      31.627  29.134  25.478  1.00  0.00     0.051 A 
ATOM     89  C   UNL A   1      31.424  27.752  23.531  1.00  0.00     0.166 A 
ATOM     90  C   UNL A   1      31.025  28.829  24.281  1.00  0.00     0.165 A 
ATOM     91  O   UNL A   1      30.742  27.658  22.358  1.00  0.00    -0.454 OA
ATOM     92  O   UNL A   1      30.014  29.526  23.701  1.00  0.00    -0.454 OA
ATOM     93  C   UNL A   1      29.835  28.775  22.482  1.00  0.00     0.468 C 
ENDBRANCH  84  85
ENDBRANCH  83  84
ENDBRANCH  81  83
ENDBRANCH  75  77
ENDBRANCH  74  75
ENDBRANCH  73  74
ENDBRANCH   1  73
TORSDOF 17
ENDMDL
