MODEL 1
REMARK VINA RESULT:     -10.8      0.000      0.000
REMARK SMILES C[C@@H]1CCC[C@](C#N)([C@H](O)C(=O)OCCOCCOC(=O)c2ccc(-c3c4nc(c(-c5c(F)c(F)c(F)c(F)c5F)c5ccc([nH]5)c(-c5c(F)c(F)c(F)c(F)c5F)c5nc(c(-c6c(F)c(F)c(F)c(F)c6F)c6ccc3[nH]6)C=C5)C=C4)cc2)C1
REMARK SMILES IDX 16 1 15 2 14 3 13 4 11 5 12 6 9 7 6 8 1 9 2 10 3 11 85 12
REMARK SMILES IDX 4 13 5 14 7 15 8 16 10 17 17 19 18 20 19 21 20 22 21 23
REMARK SMILES IDX 22 24 23 25 84 26 24 27 83 28 25 29 26 30 27 31 77 32 28 33
REMARK SMILES IDX 82 34 76 35 78 36 29 37 81 38 75 39 74 40 30 42 62 43 42 44
REMARK SMILES IDX 61 45 43 46 46 47 60 48 79 49 44 50 45 51 59 53 80 54 47 55
REMARK SMILES IDX 31 56 32 57 40 58 33 59 34 60 38 61 41 62 35 63 36 64 39 65
REMARK SMILES IDX 37 66 63 67 64 68 72 69 65 70 66 71 70 72 73 73 67 74 68 75
REMARK SMILES IDX 71 76 69 77 48 78 49 79 57 80 50 81 51 82 55 83 58 84 52 85
REMARK SMILES IDX 53 86 56 87 54 88
REMARK H PARENT 10 18 78 41 46 52
REMARK Flexibility Score: inf
ROOT
ATOM      1  O   UNL A   1      31.752  28.060  24.634  1.00  0.00    -0.374 OA
ENDROOT
BRANCH   1   2
ATOM      2  C   UNL A   1      30.870  27.856  23.534  1.00  0.00     0.202 C 
BRANCH   2   3
ATOM      3  C   UNL A   1      31.411  27.115  22.310  1.00  0.00     0.261 C 
BRANCH   3   4
ATOM      4  O   UNL A   1      31.553  25.709  22.564  1.00  0.00    -0.461 OA
BRANCH   4   5
ATOM      5  C   UNL A   1      32.754  25.171  22.211  1.00  0.00     0.336 C 
ATOM      6  O   UNL A   1      33.652  25.772  21.639  1.00  0.00    -0.249 OA
BRANCH   5   7
ATOM      7  C   UNL A   1      32.866  23.704  22.675  1.00  0.00     0.244 C 
BRANCH   7   8
ATOM      8  C   UNL A   1      33.893  23.491  23.826  1.00  0.00     0.094 C 
ATOM      9  C   UNL A   1      31.203  22.174  25.633  1.00  0.00     0.008 C 
ATOM     10  C   UNL A   1      32.675  22.442  25.961  1.00  0.00    -0.013 C 
ATOM     11  C   UNL A   1      32.892  23.771  26.687  1.00  0.00     0.003 C 
ATOM     12  C   UNL A   1      33.648  22.281  24.778  1.00  0.00     0.029 C 
ATOM     13  C   UNL A   1      32.949  24.967  25.747  1.00  0.00     0.002 C 
ATOM     14  C   UNL A   1      34.015  24.792  24.666  1.00  0.00     0.026 C 
BRANCH   8  15
ATOM     15  C   UNL A   1      35.204  23.261  23.155  1.00  0.00     0.072 C 
ATOM     16  N   UNL A   1      36.224  23.107  22.622  1.00  0.00    -0.198 NA
ENDBRANCH   8  15
ENDBRANCH   7   8
BRANCH   7  17
ATOM     17  O   UNL A   1      32.997  22.753  21.624  1.00  0.00    -0.380 OA
ATOM     18  H   UNL A   1      33.126  23.216  20.783  1.00  0.00     0.211 HD
ENDBRANCH   7  17
ENDBRANCH   5   7
ENDBRANCH   4   5
ENDBRANCH   3   4
ENDBRANCH   2   3
ENDBRANCH   1   2
BRANCH   1  19
ATOM     19  C   UNL A   1      32.373  29.337  24.763  1.00  0.00     0.202 C 
BRANCH  19  20
ATOM     20  C   UNL A   1      31.770  30.339  25.756  1.00  0.00     0.261 C 
BRANCH  20  21
ATOM     21  O   UNL A   1      32.467  30.375  27.014  1.00  0.00    -0.460 OA
BRANCH  21  22
ATOM     22  C   UNL A   1      33.119  31.539  27.260  1.00  0.00     0.338 C 
ATOM     23  O   UNL A   1      32.663  32.668  27.214  1.00  0.00    -0.246 OA
BRANCH  22  24
ATOM     24  C   UNL A   1      34.460  31.255  27.803  1.00  0.00     0.060 A 
ATOM     25  C   UNL A   1      34.819  29.912  27.989  1.00  0.00     0.016 A 
ATOM     26  C   UNL A   1      35.317  32.281  28.199  1.00  0.00     0.016 A 
ATOM     27  C   UNL A   1      36.027  29.590  28.602  1.00  0.00     0.010 A 
ATOM     28  C   UNL A   1      36.524  31.956  28.825  1.00  0.00     0.010 A 
ATOM     29  C   UNL A   1      36.872  30.611  29.055  1.00  0.00    -0.014 A 
BRANCH  29  30
ATOM     30  C   UNL A   1      38.068  30.275  29.864  1.00  0.00     0.031 A 
ATOM     31  C   UNL A   1      39.090  29.323  29.308  1.00  0.00     0.074 A 
ATOM     32  C   UNL A   1      38.244  30.820  31.080  1.00  0.00     0.049 A 
ATOM     33  N   UNL A   1      40.160  28.829  29.876  1.00  0.00    -0.248 NA
ATOM     34  C   UNL A   1      38.871  28.861  27.929  1.00  0.00     0.031 C 
ATOM     35  C   UNL A   1      37.347  31.789  31.706  1.00  0.00     0.029 A 
ATOM     36  N   UNL A   1      39.232  30.623  32.013  1.00  0.00    -0.354 N 
ATOM     37  C   UNL A   1      40.735  27.988  28.931  1.00  0.00     0.074 A 
ATOM     38  C   UNL A   1      39.878  28.016  27.764  1.00  0.00     0.031 C 
ATOM     39  C   UNL A   1      37.817  32.091  32.928  1.00  0.00     0.029 A 
ATOM     40  C   UNL A   1      39.019  31.301  33.187  1.00  0.00     0.049 A 
ATOM     41  H   UNL A   1      40.016  30.049  31.855  1.00  0.00     0.167 HD
ATOM     42  C   UNL A   1      41.877  27.266  29.028  1.00  0.00     0.037 A 
ATOM     43  C   UNL A   1      39.697  31.262  34.351  1.00  0.00     0.037 A 
ATOM     44  C   UNL A   1      42.724  27.245  30.194  1.00  0.00     0.049 A 
ATOM     45  C   UNL A   1      40.917  30.382  34.463  1.00  0.00     0.074 A 
ATOM     46  C   UNL A   1      43.917  26.569  30.381  1.00  0.00     0.029 A 
ATOM     47  N   UNL A   1      42.459  27.920  31.377  1.00  0.00    -0.354 N 
ATOM     48  N   UNL A   1      41.472  29.615  33.557  1.00  0.00    -0.248 NA
ATOM     49  C   UNL A   1      41.604  30.364  35.762  1.00  0.00     0.031 C 
ATOM     50  C   UNL A   1      44.333  26.772  31.699  1.00  0.00     0.029 A 
ATOM     51  C   UNL A   1      43.443  27.640  32.312  1.00  0.00     0.049 A 
ATOM     52  H   UNL A   1      41.686  28.511  31.529  1.00  0.00     0.167 HD
ATOM     53  C   UNL A   1      42.586  29.048  34.164  1.00  0.00     0.074 A 
ATOM     54  C   UNL A   1      42.637  29.574  35.512  1.00  0.00     0.031 C 
ATOM     55  C   UNL A   1      43.485  28.172  33.651  1.00  0.00     0.037 A 
BRANCH  42  56
ATOM     56  C   UNL A   1      42.262  26.405  27.858  1.00  0.00     0.064 A 
ATOM     57  C   UNL A   1      41.697  25.138  27.647  1.00  0.00     0.173 A 
ATOM     58  C   UNL A   1      43.183  26.875  26.907  1.00  0.00     0.173 A 
ATOM     59  F   UNL A   1      40.818  24.635  28.528  1.00  0.00    -0.203 F 
ATOM     60  C   UNL A   1      42.061  24.363  26.548  1.00  0.00     0.198 A 
ATOM     61  C   UNL A   1      43.517  26.113  25.792  1.00  0.00     0.198 A 
ATOM     62  F   UNL A   1      43.749  28.082  27.054  1.00  0.00    -0.203 F 
ATOM     63  F   UNL A   1      41.548  23.134  26.398  1.00  0.00    -0.200 F 
ATOM     64  C   UNL A   1      42.964  24.854  25.618  1.00  0.00     0.200 A 
ATOM     65  F   UNL A   1      44.376  26.598  24.884  1.00  0.00    -0.200 F 
ATOM     66  F   UNL A   1      43.306  24.112  24.557  1.00  0.00    -0.200 F 
ENDBRANCH  42  56
BRANCH  43  67
ATOM     67  C   UNL A   1      39.223  32.059  35.514  1.00  0.00     0.064 A 
ATOM     68  C   UNL A   1      39.607  33.396  35.682  1.00  0.00     0.173 A 
ATOM     69  C   UNL A   1      38.389  31.493  36.490  1.00  0.00     0.173 A 
ATOM     70  F   UNL A   1      40.423  33.975  34.789  1.00  0.00    -0.203 F 
ATOM     71  C   UNL A   1      39.195  34.129  36.793  1.00  0.00     0.198 A 
ATOM     72  C   UNL A   1      37.947  32.237  37.581  1.00  0.00     0.198 A 
ATOM     73  F   UNL A   1      37.989  30.217  36.378  1.00  0.00    -0.203 F 
ATOM     74  F   UNL A   1      39.622  35.388  36.958  1.00  0.00    -0.200 F 
ATOM     75  C   UNL A   1      38.360  33.551  37.738  1.00  0.00     0.200 A 
ATOM     76  F   UNL A   1      37.126  31.680  38.481  1.00  0.00    -0.200 F 
ATOM     77  F   UNL A   1      37.959  34.258  38.804  1.00  0.00    -0.200 F 
ENDBRANCH  43  67
BRANCH  55  78
ATOM     78  C   UNL A   1      44.627  27.749  34.536  1.00  0.00     0.064 A 
ATOM     79  C   UNL A   1      45.802  28.508  34.642  1.00  0.00     0.173 A 
ATOM     80  C   UNL A   1      44.522  26.594  35.327  1.00  0.00     0.173 A 
ATOM     81  F   UNL A   1      45.961  29.614  33.898  1.00  0.00    -0.203 F 
ATOM     82  C   UNL A   1      46.838  28.112  35.484  1.00  0.00     0.198 A 
ATOM     83  C   UNL A   1      45.543  26.222  36.196  1.00  0.00     0.198 A 
ATOM     84  F   UNL A   1      43.416  25.835  35.272  1.00  0.00    -0.203 F 
ATOM     85  F   UNL A   1      47.973  28.824  35.529  1.00  0.00    -0.200 F 
ATOM     86  C   UNL A   1      46.704  26.976  36.268  1.00  0.00     0.200 A 
ATOM     87  F   UNL A   1      45.402  25.135  36.967  1.00  0.00    -0.200 F 
ATOM     88  F   UNL A   1      47.696  26.604  37.088  1.00  0.00    -0.200 F 
ENDBRANCH  55  78
ENDBRANCH  29  30
ENDBRANCH  22  24
ENDBRANCH  21  22
ENDBRANCH  20  21
ENDBRANCH  19  20
ENDBRANCH   1  19
TORSDOF 17
ENDMDL
MODEL 2
REMARK VINA RESULT:     -10.8      4.392      9.710
REMARK SMILES C[C@@H]1CCC[C@](C#N)([C@H](O)C(=O)OCCOCCOC(=O)c2ccc(-c3c4nc(c(-c5c(F)c(F)c(F)c(F)c5F)c5ccc([nH]5)c(-c5c(F)c(F)c(F)c(F)c5F)c5nc(c(-c6c(F)c(F)c(F)c(F)c6F)c6ccc3[nH]6)C=C5)C=C4)cc2)C1
REMARK SMILES IDX 16 1 15 2 14 3 13 4 11 5 12 6 9 7 6 8 1 9 2 10 3 11 85 12
REMARK SMILES IDX 4 13 5 14 7 15 8 16 10 17 17 19 18 20 19 21 20 22 21 23
REMARK SMILES IDX 22 24 23 25 84 26 24 27 83 28 25 29 26 30 27 31 77 32 28 33
REMARK SMILES IDX 82 34 76 35 78 36 29 37 81 38 75 39 74 40 30 42 62 43 42 44
REMARK SMILES IDX 61 45 43 46 46 47 60 48 79 49 44 50 45 51 59 53 80 54 47 55
REMARK SMILES IDX 31 56 32 57 40 58 33 59 34 60 38 61 41 62 35 63 36 64 39 65
REMARK SMILES IDX 37 66 63 67 64 68 72 69 65 70 66 71 70 72 73 73 67 74 68 75
REMARK SMILES IDX 71 76 69 77 48 78 49 79 57 80 50 81 51 82 55 83 58 84 52 85
REMARK SMILES IDX 53 86 56 87 54 88
REMARK H PARENT 10 18 78 41 46 52
REMARK Flexibility Score: inf
ROOT
ATOM      1  O   UNL A   1      35.470  22.503  24.306  1.00  0.00    -0.374 OA
ENDROOT
BRANCH   1   2
ATOM      2  C   UNL A   1      34.347  23.328  24.603  1.00  0.00     0.202 C 
BRANCH   2   3
ATOM      3  C   UNL A   1      34.448  24.818  24.278  1.00  0.00     0.261 C 
BRANCH   3   4
ATOM      4  O   UNL A   1      33.324  25.267  23.505  1.00  0.00    -0.461 OA
BRANCH   4   5
ATOM      5  C   UNL A   1      33.512  26.435  22.828  1.00  0.00     0.336 C 
ATOM      6  O   UNL A   1      33.634  26.533  21.615  1.00  0.00    -0.249 OA
BRANCH   5   7
ATOM      7  C   UNL A   1      33.498  27.644  23.786  1.00  0.00     0.244 C 
BRANCH   7   8
ATOM      8  C   UNL A   1      32.075  28.026  24.289  1.00  0.00     0.094 C 
ATOM      9  C   UNL A   1      33.719  29.654  26.912  1.00  0.00     0.008 C 
ATOM     10  C   UNL A   1      32.246  29.422  26.561  1.00  0.00    -0.013 C 
ATOM     11  C   UNL A   1      31.640  28.224  27.295  1.00  0.00     0.003 C 
ATOM     12  C   UNL A   1      31.932  29.376  25.054  1.00  0.00     0.029 C 
ATOM     13  C   UNL A   1      31.944  26.892  26.625  1.00  0.00     0.002 C 
ATOM     14  C   UNL A   1      31.502  26.875  25.161  1.00  0.00     0.026 C 
BRANCH   8  15
ATOM     15  C   UNL A   1      31.232  28.126  23.064  1.00  0.00     0.072 C 
ATOM     16  N   UNL A   1      30.585  28.181  22.100  1.00  0.00    -0.198 NA
ENDBRANCH   8  15
ENDBRANCH   7   8
BRANCH   7  17
ATOM     17  O   UNL A   1      34.255  28.765  23.345  1.00  0.00    -0.380 OA
ATOM     18  H   UNL A   1      34.867  29.039  24.046  1.00  0.00     0.211 HD
ENDBRANCH   7  17
ENDBRANCH   5   7
ENDBRANCH   4   5
ENDBRANCH   3   4
ENDBRANCH   2   3
ENDBRANCH   1   2
BRANCH   1  19
ATOM     19  C   UNL A   1      35.610  21.282  25.029  1.00  0.00     0.202 C 
BRANCH  19  20
ATOM     20  C   UNL A   1      36.978  20.587  25.022  1.00  0.00     0.261 C 
BRANCH  20  21
ATOM     21  O   UNL A   1      38.080  21.511  25.069  1.00  0.00    -0.460 OA
BRANCH  21  22
ATOM     22  C   UNL A   1      39.036  21.196  25.978  1.00  0.00     0.338 C 
ATOM     23  O   UNL A   1      39.515  20.097  26.200  1.00  0.00    -0.246 OA
BRANCH  22  24
ATOM     24  C   UNL A   1      39.595  22.430  26.562  1.00  0.00     0.060 A 
ATOM     25  C   UNL A   1      39.109  23.656  26.086  1.00  0.00     0.016 A 
ATOM     26  C   UNL A   1      40.630  22.388  27.496  1.00  0.00     0.016 A 
ATOM     27  C   UNL A   1      39.679  24.850  26.521  1.00  0.00     0.010 A 
ATOM     28  C   UNL A   1      41.209  23.587  27.922  1.00  0.00     0.010 A 
ATOM     29  C   UNL A   1      40.756  24.821  27.416  1.00  0.00    -0.014 A 
BRANCH  29  30
ATOM     30  C   UNL A   1      41.480  26.074  27.742  1.00  0.00     0.031 A 
ATOM     31  C   UNL A   1      40.759  27.172  28.473  1.00  0.00     0.074 A 
ATOM     32  C   UNL A   1      42.768  26.227  27.394  1.00  0.00     0.049 A 
ATOM     33  N   UNL A   1      41.171  28.374  28.782  1.00  0.00    -0.248 NA
ATOM     34  C   UNL A   1      39.386  26.875  28.909  1.00  0.00     0.031 C 
ATOM     35  C   UNL A   1      43.586  25.217  26.723  1.00  0.00     0.029 A 
ATOM     36  N   UNL A   1      43.613  27.299  27.545  1.00  0.00    -0.354 N 
ATOM     37  C   UNL A   1      40.107  28.983  29.434  1.00  0.00     0.074 A 
ATOM     38  C   UNL A   1      39.019  28.028  29.451  1.00  0.00     0.031 C 
ATOM     39  C   UNL A   1      44.811  25.724  26.505  1.00  0.00     0.029 A 
ATOM     40  C   UNL A   1      44.848  27.107  26.978  1.00  0.00     0.049 A 
ATOM     41  H   UNL A   1      43.357  28.126  28.013  1.00  0.00     0.167 HD
ATOM     42  C   UNL A   1      40.047  30.224  29.975  1.00  0.00     0.037 A 
ATOM     43  C   UNL A   1      45.879  27.962  26.825  1.00  0.00     0.037 A 
ATOM     44  C   UNL A   1      41.136  31.168  29.955  1.00  0.00     0.049 A 
ATOM     45  C   UNL A   1      45.756  29.366  27.359  1.00  0.00     0.074 A 
ATOM     46  C   UNL A   1      41.185  32.438  30.501  1.00  0.00     0.029 A 
ATOM     47  N   UNL A   1      42.362  30.950  29.341  1.00  0.00    -0.354 N 
ATOM     48  N   UNL A   1      44.760  29.925  28.002  1.00  0.00    -0.248 NA
ATOM     49  C   UNL A   1      46.904  30.259  27.145  1.00  0.00     0.031 C 
ATOM     50  C   UNL A   1      42.409  33.017  30.153  1.00  0.00     0.029 A 
ATOM     51  C   UNL A   1      43.157  32.079  29.459  1.00  0.00     0.049 A 
ATOM     52  H   UNL A   1      42.627  30.116  28.891  1.00  0.00     0.167 HD
ATOM     53  C   UNL A   1      45.170  31.220  28.294  1.00  0.00     0.074 A 
ATOM     54  C   UNL A   1      46.514  31.358  27.774  1.00  0.00     0.031 C 
ATOM     55  C   UNL A   1      44.495  32.205  28.937  1.00  0.00     0.037 A 
BRANCH  42  56
ATOM     56  C   UNL A   1      38.751  30.651  30.603  1.00  0.00     0.064 A 
ATOM     57  C   UNL A   1      38.550  30.622  31.992  1.00  0.00     0.173 A 
ATOM     58  C   UNL A   1      37.704  31.139  29.802  1.00  0.00     0.173 A 
ATOM     59  F   UNL A   1      39.511  30.158  32.804  1.00  0.00    -0.203 F 
ATOM     60  C   UNL A   1      37.342  31.035  32.551  1.00  0.00     0.198 A 
ATOM     61  C   UNL A   1      36.514  31.584  30.368  1.00  0.00     0.198 A 
ATOM     62  F   UNL A   1      37.844  31.196  28.469  1.00  0.00    -0.203 F 
ATOM     63  F   UNL A   1      37.155  30.947  33.876  1.00  0.00    -0.200 F 
ATOM     64  C   UNL A   1      36.329  31.523  31.740  1.00  0.00     0.200 A 
ATOM     65  F   UNL A   1      35.543  32.073  29.583  1.00  0.00    -0.200 F 
ATOM     66  F   UNL A   1      35.172  31.929  32.280  1.00  0.00    -0.200 F 
ENDBRANCH  42  56
BRANCH  43  67
ATOM     67  C   UNL A   1      47.107  27.522  26.110  1.00  0.00     0.064 A 
ATOM     68  C   UNL A   1      48.209  27.011  26.809  1.00  0.00     0.173 A 
ATOM     69  C   UNL A   1      47.210  27.622  24.714  1.00  0.00     0.173 A 
ATOM     70  F   UNL A   1      48.169  26.917  28.146  1.00  0.00    -0.203 F 
ATOM     71  C   UNL A   1      49.374  26.637  26.142  1.00  0.00     0.198 A 
ATOM     72  C   UNL A   1      48.362  27.215  24.045  1.00  0.00     0.198 A 
ATOM     73  F   UNL A   1      46.185  28.105  23.996  1.00  0.00    -0.203 F 
ATOM     74  F   UNL A   1      50.432  26.203  26.839  1.00  0.00    -0.200 F 
ATOM     75  C   UNL A   1      49.447  26.734  24.760  1.00  0.00     0.200 A 
ATOM     76  F   UNL A   1      48.420  27.294  22.708  1.00  0.00    -0.200 F 
ATOM     77  F   UNL A   1      50.566  26.370  24.118  1.00  0.00    -0.200 F 
ENDBRANCH  43  67
BRANCH  55  78
ATOM     78  C   UNL A   1      45.208  33.513  29.149  1.00  0.00     0.064 A 
ATOM     79  C   UNL A   1      46.028  33.738  30.265  1.00  0.00     0.173 A 
ATOM     80  C   UNL A   1      45.107  34.538  28.195  1.00  0.00     0.173 A 
ATOM     81  F   UNL A   1      46.149  32.796  31.214  1.00  0.00    -0.203 F 
ATOM     82  C   UNL A   1      46.699  34.947  30.430  1.00  0.00     0.198 A 
ATOM     83  C   UNL A   1      45.808  35.732  28.345  1.00  0.00     0.198 A 
ATOM     84  F   UNL A   1      44.342  34.374  27.104  1.00  0.00    -0.203 F 
ATOM     85  F   UNL A   1      47.434  35.159  31.530  1.00  0.00    -0.200 F 
ATOM     86  C   UNL A   1      46.596  35.938  29.466  1.00  0.00     0.200 A 
ATOM     87  F   UNL A   1      45.723  36.679  27.401  1.00  0.00    -0.200 F 
ATOM     88  F   UNL A   1      47.252  37.097  29.620  1.00  0.00    -0.200 F 
ENDBRANCH  55  78
ENDBRANCH  29  30
ENDBRANCH  22  24
ENDBRANCH  21  22
ENDBRANCH  20  21
ENDBRANCH  19  20
ENDBRANCH   1  19
TORSDOF 17
ENDMDL
MODEL 3
REMARK VINA RESULT:     -10.7      0.926      1.687
REMARK SMILES C[C@@H]1CCC[C@](C#N)([C@H](O)C(=O)OCCOCCOC(=O)c2ccc(-c3c4nc(c(-c5c(F)c(F)c(F)c(F)c5F)c5ccc([nH]5)c(-c5c(F)c(F)c(F)c(F)c5F)c5nc(c(-c6c(F)c(F)c(F)c(F)c6F)c6ccc3[nH]6)C=C5)C=C4)cc2)C1
REMARK SMILES IDX 16 1 15 2 14 3 13 4 11 5 12 6 9 7 6 8 1 9 2 10 3 11 85 12
REMARK SMILES IDX 4 13 5 14 7 15 8 16 10 17 17 19 18 20 19 21 20 22 21 23
REMARK SMILES IDX 22 24 23 25 84 26 24 27 83 28 25 29 26 30 27 31 77 32 28 33
REMARK SMILES IDX 82 34 76 35 78 36 29 37 81 38 75 39 74 40 30 42 62 43 42 44
REMARK SMILES IDX 61 45 43 46 46 47 60 48 79 49 44 50 45 51 59 53 80 54 47 55
REMARK SMILES IDX 31 56 32 57 40 58 33 59 34 60 38 61 41 62 35 63 36 64 39 65
REMARK SMILES IDX 37 66 63 67 64 68 72 69 65 70 66 71 70 72 73 73 67 74 68 75
REMARK SMILES IDX 71 76 69 77 48 78 49 79 57 80 50 81 51 82 55 83 58 84 52 85
REMARK SMILES IDX 53 86 56 87 54 88
REMARK H PARENT 10 18 78 41 46 52
REMARK Flexibility Score: inf
ROOT
ATOM      1  O   UNL A   1      31.260  28.084  24.326  1.00  0.00    -0.374 OA
ENDROOT
BRANCH   1   2
ATOM      2  C   UNL A   1      31.047  26.922  25.123  1.00  0.00     0.202 C 
BRANCH   2   3
ATOM      3  C   UNL A   1      30.094  25.853  24.588  1.00  0.00     0.261 C 
BRANCH   3   4
ATOM      4  O   UNL A   1      30.777  24.903  23.756  1.00  0.00    -0.461 OA
BRANCH   4   5
ATOM      5  C   UNL A   1      31.381  23.877  24.419  1.00  0.00     0.336 C 
ATOM      6  O   UNL A   1      31.050  23.459  25.520  1.00  0.00    -0.249 OA
BRANCH   5   7
ATOM      7  C   UNL A   1      32.517  23.260  23.577  1.00  0.00     0.244 C 
BRANCH   7   8
ATOM      8  C   UNL A   1      33.855  24.051  23.658  1.00  0.00     0.094 C 
ATOM      9  C   UNL A   1      35.266  21.045  24.758  1.00  0.00     0.008 C 
ATOM     10  C   UNL A   1      35.808  22.464  24.558  1.00  0.00    -0.013 C 
ATOM     11  C   UNL A   1      35.823  23.284  25.850  1.00  0.00     0.003 C 
ATOM     12  C   UNL A   1      35.168  23.251  23.400  1.00  0.00     0.029 C 
ATOM     13  C   UNL A   1      34.477  23.913  26.178  1.00  0.00     0.002 C 
ATOM     14  C   UNL A   1      33.953  24.774  25.029  1.00  0.00     0.026 C 
BRANCH   8  15
ATOM     15  C   UNL A   1      33.766  25.098  22.601  1.00  0.00     0.072 C 
ATOM     16  N   UNL A   1      33.670  25.909  21.775  1.00  0.00    -0.198 NA
ENDBRANCH   8  15
ENDBRANCH   7   8
BRANCH   7  17
ATOM     17  O   UNL A   1      32.152  22.911  22.246  1.00  0.00    -0.380 OA
ATOM     18  H   UNL A   1      31.346  23.388  21.996  1.00  0.00     0.211 HD
ENDBRANCH   7  17
ENDBRANCH   5   7
ENDBRANCH   4   5
ENDBRANCH   3   4
ENDBRANCH   2   3
ENDBRANCH   1   2
BRANCH   1  19
ATOM     19  C   UNL A   1      31.188  29.354  24.969  1.00  0.00     0.202 C 
BRANCH  19  20
ATOM     20  C   UNL A   1      32.501  30.033  25.384  1.00  0.00     0.261 C 
BRANCH  20  21
ATOM     21  O   UNL A   1      32.631  30.186  26.808  1.00  0.00    -0.460 OA
BRANCH  21  22
ATOM     22  C   UNL A   1      33.232  31.339  27.195  1.00  0.00     0.338 C 
ATOM     23  O   UNL A   1      32.733  32.448  27.266  1.00  0.00    -0.246 OA
BRANCH  22  24
ATOM     24  C   UNL A   1      34.575  31.046  27.730  1.00  0.00     0.060 A 
ATOM     25  C   UNL A   1      34.868  29.717  28.068  1.00  0.00     0.016 A 
ATOM     26  C   UNL A   1      35.499  32.062  27.971  1.00  0.00     0.016 A 
ATOM     27  C   UNL A   1      36.079  29.403  28.681  1.00  0.00     0.010 A 
ATOM     28  C   UNL A   1      36.709  31.746  28.597  1.00  0.00     0.010 A 
ATOM     29  C   UNL A   1      36.992  30.420  28.980  1.00  0.00    -0.014 A 
BRANCH  29  30
ATOM     30  C   UNL A   1      38.197  30.117  29.789  1.00  0.00     0.031 A 
ATOM     31  C   UNL A   1      39.225  29.161  29.250  1.00  0.00     0.074 A 
ATOM     32  C   UNL A   1      38.376  30.694  30.990  1.00  0.00     0.049 A 
ATOM     33  N   UNL A   1      40.304  28.692  29.822  1.00  0.00    -0.248 NA
ATOM     34  C   UNL A   1      39.002  28.663  27.884  1.00  0.00     0.031 C 
ATOM     35  C   UNL A   1      37.473  31.670  31.597  1.00  0.00     0.029 A 
ATOM     36  N   UNL A   1      39.372  30.530  31.920  1.00  0.00    -0.354 N 
ATOM     37  C   UNL A   1      40.881  27.834  28.894  1.00  0.00     0.074 A 
ATOM     38  C   UNL A   1      40.016  27.824  27.733  1.00  0.00     0.031 C 
ATOM     39  C   UNL A   1      37.948  32.007  32.808  1.00  0.00     0.029 A 
ATOM     40  C   UNL A   1      39.160  31.236  33.078  1.00  0.00     0.049 A 
ATOM     41  H   UNL A   1      40.161  29.961  31.771  1.00  0.00     0.167 HD
ATOM     42  C   UNL A   1      42.031  27.126  29.002  1.00  0.00     0.037 A 
ATOM     43  C   UNL A   1      39.847  31.232  34.238  1.00  0.00     0.037 A 
ATOM     44  C   UNL A   1      42.885  27.143  30.162  1.00  0.00     0.049 A 
ATOM     45  C   UNL A   1      41.076  30.368  34.364  1.00  0.00     0.074 A 
ATOM     46  C   UNL A   1      44.086  26.484  30.357  1.00  0.00     0.029 A 
ATOM     47  N   UNL A   1      42.621  27.845  31.330  1.00  0.00    -0.354 N 
ATOM     48  N   UNL A   1      41.633  29.584  33.473  1.00  0.00    -0.248 NA
ATOM     49  C   UNL A   1      41.771  30.389  35.658  1.00  0.00     0.031 C 
ATOM     50  C   UNL A   1      44.509  26.724  31.667  1.00  0.00     0.029 A 
ATOM     51  C   UNL A   1      43.615  27.598  32.264  1.00  0.00     0.049 A 
ATOM     52  H   UNL A   1      41.844  28.431  31.472  1.00  0.00     0.167 HD
ATOM     53  C   UNL A   1      42.756  29.043  34.087  1.00  0.00     0.074 A 
ATOM     54  C   UNL A   1      42.811  29.603  35.421  1.00  0.00     0.031 C 
ATOM     55  C   UNL A   1      43.660  28.163  33.590  1.00  0.00     0.037 A 
BRANCH  42  56
ATOM     56  C   UNL A   1      42.416  26.239  27.851  1.00  0.00     0.064 A 
ATOM     57  C   UNL A   1      41.873  24.956  27.684  1.00  0.00     0.173 A 
ATOM     58  C   UNL A   1      43.315  26.700  26.875  1.00  0.00     0.173 A 
ATOM     59  F   UNL A   1      41.016  24.463  28.591  1.00  0.00    -0.203 F 
ATOM     60  C   UNL A   1      42.237  24.158  26.602  1.00  0.00     0.198 A 
ATOM     61  C   UNL A   1      43.649  25.914  25.776  1.00  0.00     0.198 A 
ATOM     62  F   UNL A   1      43.860  27.921  26.980  1.00  0.00    -0.203 F 
ATOM     63  F   UNL A   1      41.746  22.915  26.493  1.00  0.00    -0.200 F 
ATOM     64  C   UNL A   1      43.118  24.639  25.646  1.00  0.00     0.200 A 
ATOM     65  F   UNL A   1      44.486  26.389  24.844  1.00  0.00    -0.200 F 
ATOM     66  F   UNL A   1      43.460  23.874  24.601  1.00  0.00    -0.200 F 
ENDBRANCH  42  56
BRANCH  43  67
ATOM     67  C   UNL A   1      39.372  32.053  35.384  1.00  0.00     0.064 A 
ATOM     68  C   UNL A   1      39.742  33.399  35.515  1.00  0.00     0.173 A 
ATOM     69  C   UNL A   1      38.552  31.504  36.381  1.00  0.00     0.173 A 
ATOM     70  F   UNL A   1      40.544  33.964  34.601  1.00  0.00    -0.203 F 
ATOM     71  C   UNL A   1      39.330  34.155  36.610  1.00  0.00     0.198 A 
ATOM     72  C   UNL A   1      38.110  32.270  37.456  1.00  0.00     0.198 A 
ATOM     73  F   UNL A   1      38.166  30.221  36.305  1.00  0.00    -0.203 F 
ATOM     74  F   UNL A   1      39.744  35.423  36.739  1.00  0.00    -0.200 F 
ATOM     75  C   UNL A   1      38.509  33.592  37.576  1.00  0.00     0.200 A 
ATOM     76  F   UNL A   1      37.302  31.727  38.377  1.00  0.00    -0.200 F 
ATOM     77  F   UNL A   1      38.108  34.322  38.626  1.00  0.00    -0.200 F 
ENDBRANCH  43  67
BRANCH  55  78
ATOM     78  C   UNL A   1      44.813  27.774  34.477  1.00  0.00     0.064 A 
ATOM     79  C   UNL A   1      44.761  26.643  35.304  1.00  0.00     0.173 A 
ATOM     80  C   UNL A   1      46.004  28.517  34.459  1.00  0.00     0.173 A 
ATOM     81  F   UNL A   1      43.643  25.904  35.368  1.00  0.00    -0.203 F 
ATOM     82  C   UNL A   1      45.848  26.286  36.099  1.00  0.00     0.198 A 
ATOM     83  C   UNL A   1      47.101  28.136  35.227  1.00  0.00     0.198 A 
ATOM     84  F   UNL A   1      46.111  29.605  33.680  1.00  0.00    -0.203 F 
ATOM     85  F   UNL A   1      45.756  25.231  36.921  1.00  0.00    -0.200 F 
ATOM     86  C   UNL A   1      47.019  27.026  36.052  1.00  0.00     0.200 A 
ATOM     87  F   UNL A   1      48.238  28.842  35.163  1.00  0.00    -0.200 F 
ATOM     88  F   UNL A   1      48.068  26.674  36.808  1.00  0.00    -0.200 F 
ENDBRANCH  55  78
ENDBRANCH  29  30
ENDBRANCH  22  24
ENDBRANCH  21  22
ENDBRANCH  20  21
ENDBRANCH  19  20
ENDBRANCH   1  19
TORSDOF 17
ENDMDL
