MODEL 1
REMARK VINA RESULT:     -13.8      0.000      0.000
REMARK SMILES O=C(OCCOCCOC(=O)c1ccc(-c2c3nc(c(-c4c(F)c(F)c(F)c(F)c4F)c4ccc([nH]4)c(-c4c(F)c(F)c(F)c(F)c4F)c4nc(c(-c5c(F)c(F)c(F)c(F)c5F)c5ccc2[nH]5)C=C4)C=C3)cc1)C1=Cc2cc(Cl)cc(-c3ccc(O)cc3)c2O[C@@H]1C(F)(F)F
REMARK SMILES IDX 6 1 5 2 4 3 3 4 2 5 1 6 75 7 76 8 92 9 77 10 91 11 78 12
REMARK SMILES IDX 90 13 79 14 82 15 80 16 81 17 93 18 94 19 95 20 96 21 83 22
REMARK SMILES IDX 84 23 89 24 85 25 88 26 86 27 87 28 7 30 8 31 9 32 10 33
REMARK SMILES IDX 11 34 12 35 13 36 74 37 14 38 73 39 15 40 16 41 17 42 67 43
REMARK SMILES IDX 18 44 72 45 66 46 68 47 19 48 71 49 65 50 64 51 20 53 52 54
REMARK SMILES IDX 32 55 51 56 33 57 36 58 50 59 69 60 34 61 35 62 49 64 70 65
REMARK SMILES IDX 37 66 21 67 22 68 30 69 23 70 24 71 28 72 31 73 25 74 26 75
REMARK SMILES IDX 29 76 27 77 53 78 54 79 62 80 55 81 56 82 60 83 63 84 57 85
REMARK SMILES IDX 58 86 61 87 59 88 38 89 39 90 47 91 40 92 41 93 45 94 48 95
REMARK SMILES IDX 42 96 43 97 46 98 44 99
REMARK H PARENT 87 29 68 52 36 63
REMARK Flexibility Score: inf
ROOT
ATOM      1  O   UNL A   1      33.284  30.362  26.959  1.00  0.00    -0.374 OA
ENDROOT
BRANCH   1   2
ATOM      2  C   UNL A   1      33.264  28.623  27.170  1.00  0.00     0.202 C 
BRANCH   2   3
ATOM      3  C   UNL A   1      31.438  27.445  27.380  1.00  0.00     0.261 C 
BRANCH   3   4
ATOM      4  O   UNL A   1      30.789  26.601  26.365  1.00  0.00    -0.460 OA
BRANCH   4   5
ATOM      5  C   UNL A   1      31.336  25.384  26.384  1.00  0.00     0.338 C 
ATOM      6  O   UNL A   1      31.456  24.690  27.369  1.00  0.00    -0.246 OA
BRANCH   5   7
ATOM      7  C   UNL A   1      32.185  25.423  25.162  1.00  0.00     0.087 C 
ATOM      8  C   UNL A   1      33.620  25.594  25.320  1.00  0.00     0.027 C 
ATOM      9  C   UNL A   1      31.377  23.784  24.678  1.00  0.00     0.316 C 
ATOM     10  C   UNL A   1      34.824  24.264  25.394  1.00  0.00     0.019 A 
ATOM     11  O   UNL A   1      32.570  22.254  24.982  1.00  0.00    -0.475 OA
ATOM     12  C   UNL A   1      36.141  24.569  25.623  1.00  0.00     0.032 A 
ATOM     13  C   UNL A   1      34.361  22.612  25.346  1.00  0.00     0.135 A 
ATOM     14  C   UNL A   1      36.982  23.466  25.840  1.00  0.00     0.042 A 
ATOM     15  C   UNL A   1      35.266  21.616  25.481  1.00  0.00     0.026 A 
ATOM     16  Cl  UNL A   1      38.648  23.794  26.194  1.00  0.00    -0.084 Cl
ATOM     17  C   UNL A   1      36.571  22.080  25.791  1.00  0.00     0.033 A 
BRANCH   9  18
ATOM     18  C   UNL A   1      30.845  24.554  23.220  1.00  0.00     0.430 C 
ATOM     19  F   UNL A   1      31.716  24.693  22.211  1.00  0.00    -0.167 F 
ATOM     20  F   UNL A   1      29.861  23.756  22.696  1.00  0.00    -0.167 F 
ATOM     21  F   UNL A   1      30.219  25.754  23.374  1.00  0.00    -0.167 F 
ENDBRANCH   9  18
BRANCH  15  22
ATOM     22  C   UNL A   1      34.935  20.247  25.305  1.00  0.00    -0.014 A 
ATOM     23  C   UNL A   1      33.083  19.627  25.732  1.00  0.00     0.012 A 
ATOM     24  C   UNL A   1      36.272  18.803  24.716  1.00  0.00     0.012 A 
ATOM     25  C   UNL A   1      32.192  17.846  25.503  1.00  0.00     0.047 A 
ATOM     26  C   UNL A   1      35.409  16.991  24.665  1.00  0.00     0.047 A 
ATOM     27  C   UNL A   1      33.514  16.414  24.928  1.00  0.00     0.115 A 
BRANCH  27  28
ATOM     28  O   UNL A   1      33.112  15.124  24.804  1.00  0.00    -0.508 OA
ATOM     29  H   UNL A   1      32.734  14.679  25.537  1.00  0.00     0.293 HD
ENDBRANCH  27  28
ENDBRANCH  15  22
ENDBRANCH   5   7
ENDBRANCH   4   5
ENDBRANCH   3   4
ENDBRANCH   2   3
ENDBRANCH   1   2
BRANCH   1  30
ATOM     30  C   UNL A   1      32.192  31.348  26.612  1.00  0.00     0.202 C 
BRANCH  30  31
ATOM     31  C   UNL A   1      32.097  32.848  26.963  1.00  0.00     0.261 C 
BRANCH  31  32
ATOM     32  O   UNL A   1      32.659  33.184  28.214  1.00  0.00    -0.460 OA
BRANCH  32  33
ATOM     33  C   UNL A   1      33.773  33.897  27.939  1.00  0.00     0.338 C 
ATOM     34  O   UNL A   1      33.737  34.996  27.395  1.00  0.00    -0.246 OA
BRANCH  33  35
ATOM     35  C   UNL A   1      35.135  33.060  28.317  1.00  0.00     0.060 A 
ATOM     36  C   UNL A   1      35.651  31.245  29.043  1.00  0.00     0.016 A 
ATOM     37  C   UNL A   1      36.118  33.570  28.290  1.00  0.00     0.016 A 
ATOM     38  C   UNL A   1      36.497  30.251  29.516  1.00  0.00     0.010 A 
ATOM     39  C   UNL A   1      37.363  32.226  29.063  1.00  0.00     0.010 A 
ATOM     40  C   UNL A   1      37.580  30.919  29.561  1.00  0.00    -0.014 A 
BRANCH  40  41
ATOM     41  C   UNL A   1      38.739  30.433  30.215  1.00  0.00     0.031 A 
ATOM     42  C   UNL A   1      38.913  30.832  31.621  1.00  0.00     0.074 A 
ATOM     43  C   UNL A   1      39.482  29.607  29.489  1.00  0.00     0.049 A 
ATOM     44  N   UNL A   1      39.810  30.438  32.465  1.00  0.00    -0.248 NA
ATOM     45  C   UNL A   1      37.959  31.815  32.163  1.00  0.00     0.031 C 
ATOM     46  C   UNL A   1      39.234  29.241  28.089  1.00  0.00     0.029 A 
ATOM     47  N   UNL A   1      40.574  28.902  29.848  1.00  0.00    -0.354 N 
ATOM     48  C   UNL A   1      39.521  31.125  33.627  1.00  0.00     0.074 A 
ATOM     49  C   UNL A   1      38.437  32.033  33.371  1.00  0.00     0.031 C 
ATOM     50  C   UNL A   1      40.149  28.337  27.717  1.00  0.00     0.029 A 
ATOM     51  C   UNL A   1      41.035  28.102  28.847  1.00  0.00     0.049 A 
ATOM     52  H   UNL A   1      40.992  28.961  30.738  1.00  0.00     0.167 HD
ATOM     53  C   UNL A   1      40.113  30.944  34.817  1.00  0.00     0.037 A 
ATOM     54  C   UNL A   1      42.078  27.269  28.899  1.00  0.00     0.037 A 
ATOM     55  C   UNL A   1      41.196  30.023  34.970  1.00  0.00     0.049 A 
ATOM     56  C   UNL A   1      42.777  27.166  30.222  1.00  0.00     0.074 A 
ATOM     57  C   UNL A   1      41.923  29.729  36.098  1.00  0.00     0.029 A 
ATOM     58  N   UNL A   1      41.720  29.264  33.925  1.00  0.00    -0.354 N 
ATOM     59  N   UNL A   1      42.506  27.775  31.356  1.00  0.00    -0.248 NA
ATOM     60  C   UNL A   1      43.909  26.248  30.281  1.00  0.00     0.031 C 
ATOM     61  C   UNL A   1      42.960  28.879  35.712  1.00  0.00     0.029 A 
ATOM     62  C   UNL A   1      42.798  28.534  34.374  1.00  0.00     0.049 A 
ATOM     63  H   UNL A   1      41.372  29.252  33.004  1.00  0.00     0.167 HD
ATOM     64  C   UNL A   1      43.408  27.283  32.282  1.00  0.00     0.074 A 
ATOM     65  C   UNL A   1      44.219  26.311  31.566  1.00  0.00     0.031 C 
ATOM     66  C   UNL A   1      43.560  27.586  33.598  1.00  0.00     0.037 A 
BRANCH  53  67
ATOM     67  C   UNL A   1      39.652  31.799  35.947  1.00  0.00     0.064 A 
ATOM     68  C   UNL A   1      38.538  31.473  36.737  1.00  0.00     0.173 A 
ATOM     69  C   UNL A   1      40.313  33.007  36.205  1.00  0.00     0.173 A 
ATOM     70  F   UNL A   1      37.840  30.352  36.498  1.00  0.00    -0.203 F 
ATOM     71  C   UNL A   1      38.086  32.342  37.724  1.00  0.00     0.198 A 
ATOM     72  C   UNL A   1      39.890  33.846  37.227  1.00  0.00     0.198 A 
ATOM     73  F   UNL A   1      41.357  33.381  35.451  1.00  0.00    -0.203 F 
ATOM     74  F   UNL A   1      36.968  32.055  38.406  1.00  0.00    -0.200 F 
ATOM     75  C   UNL A   1      38.771  33.520  37.978  1.00  0.00     0.200 A 
ATOM     76  F   UNL A   1      40.557  34.982  37.471  1.00  0.00    -0.200 F 
ATOM     77  F   UNL A   1      38.342  34.352  38.936  1.00  0.00    -0.200 F 
ENDBRANCH  53  67
BRANCH  54  78
ATOM     78  C   UNL A   1      42.463  26.495  27.705  1.00  0.00     0.064 A 
ATOM     79  C   UNL A   1      41.908  25.237  27.452  1.00  0.00     0.173 A 
ATOM     80  C   UNL A   1      43.398  27.000  26.789  1.00  0.00     0.173 A 
ATOM     81  F   UNL A   1      40.989  24.729  28.287  1.00  0.00    -0.203 F 
ATOM     82  C   UNL A   1      42.328  24.479  26.364  1.00  0.00     0.198 A 
ATOM     83  C   UNL A   1      43.781  26.261  25.676  1.00  0.00     0.198 A 
ATOM     84  F   UNL A   1      43.927  28.220  26.967  1.00  0.00    -0.203 F 
ATOM     85  F   UNL A   1      41.843  23.242  26.191  1.00  0.00    -0.200 F 
ATOM     86  C   UNL A   1      43.264  24.991  25.478  1.00  0.00     0.200 A 
ATOM     87  F   UNL A   1      44.658  26.777  24.804  1.00  0.00    -0.200 F 
ATOM     88  F   UNL A   1      43.675  24.256  24.438  1.00  0.00    -0.200 F 
ENDBRANCH  54  78
BRANCH  66  89
ATOM     89  C   UNL A   1      44.587  26.794  34.344  1.00  0.00     0.064 A 
ATOM     90  C   UNL A   1      44.290  25.566  34.949  1.00  0.00     0.173 A 
ATOM     91  C   UNL A   1      45.901  27.281  34.438  1.00  0.00     0.173 A 
ATOM     92  F   UNL A   1      43.050  25.059  34.879  1.00  0.00    -0.203 F 
ATOM     93  C   UNL A   1      45.251  24.896  35.694  1.00  0.00     0.198 A 
ATOM     94  C   UNL A   1      46.876  26.569  35.119  1.00  0.00     0.198 A 
ATOM     95  F   UNL A   1      46.242  28.439  33.851  1.00  0.00    -0.203 F 
ATOM     96  F   UNL A   1      44.915  23.786  36.366  1.00  0.00    -0.200 F 
ATOM     97  C   UNL A   1      46.544  25.392  35.771  1.00  0.00     0.200 A 
ATOM     98  F   UNL A   1      48.134  27.027  35.151  1.00  0.00    -0.200 F 
ATOM     99  F   UNL A   1      47.470  24.742  36.487  1.00  0.00    -0.200 F 
ENDBRANCH  66  89
ENDBRANCH  40  41
ENDBRANCH  33  35
ENDBRANCH  32  33
ENDBRANCH  31  32
ENDBRANCH  30  31
ENDBRANCH   1  30
TORSDOF 17
ENDMDL
MODEL 2
REMARK VINA RESULT:     -13.0      5.383     11.137
REMARK SMILES O=C(OCCOCCOC(=O)c1ccc(-c2c3nc(c(-c4c(F)c(F)c(F)c(F)c4F)c4ccc([nH]4)c(-c4c(F)c(F)c(F)c(F)c4F)c4nc(c(-c5c(F)c(F)c(F)c(F)c5F)c5ccc2[nH]5)C=C4)C=C3)cc1)C1=Cc2cc(Cl)cc(-c3ccc(O)cc3)c2O[C@@H]1C(F)(F)F
REMARK SMILES IDX 6 1 5 2 4 3 3 4 2 5 1 6 75 7 76 8 92 9 77 10 91 11 78 12
REMARK SMILES IDX 90 13 79 14 82 15 80 16 81 17 93 18 94 19 95 20 96 21 83 22
REMARK SMILES IDX 84 23 89 24 85 25 88 26 86 27 87 28 7 30 8 31 9 32 10 33
REMARK SMILES IDX 11 34 12 35 13 36 74 37 14 38 73 39 15 40 16 41 17 42 67 43
REMARK SMILES IDX 18 44 72 45 66 46 68 47 19 48 71 49 65 50 64 51 20 53 52 54
REMARK SMILES IDX 32 55 51 56 33 57 36 58 50 59 69 60 34 61 35 62 49 64 70 65
REMARK SMILES IDX 37 66 21 67 22 68 30 69 23 70 24 71 28 72 31 73 25 74 26 75
REMARK SMILES IDX 29 76 27 77 53 78 54 79 62 80 55 81 56 82 60 83 63 84 57 85
REMARK SMILES IDX 58 86 61 87 59 88 38 89 39 90 47 91 40 92 41 93 45 94 48 95
REMARK SMILES IDX 42 96 43 97 46 98 44 99
REMARK H PARENT 87 29 68 52 36 63
REMARK Flexibility Score: inf
ROOT
ATOM      1  O   UNL A   1      51.111  25.612  36.225  1.00  0.00    -0.374 OA
ENDROOT
BRANCH   1   2
ATOM      2  C   UNL A   1      50.765  23.977  35.702  1.00  0.00     0.202 C 
BRANCH   2   3
ATOM      3  C   UNL A   1      48.822  23.326  34.950  1.00  0.00     0.261 C 
BRANCH   3   4
ATOM      4  O   UNL A   1      47.815  24.131  34.242  1.00  0.00    -0.460 OA
BRANCH   4   5
ATOM      5  C   UNL A   1      46.607  23.593  34.424  1.00  0.00     0.338 C 
ATOM      6  O   UNL A   1      46.366  22.407  34.424  1.00  0.00    -0.246 OA
BRANCH   5   7
ATOM      7  C   UNL A   1      45.719  24.725  34.039  1.00  0.00     0.087 C 
ATOM      8  C   UNL A   1      46.240  25.739  33.137  1.00  0.00     0.027 C 
ATOM      9  C   UNL A   1      44.458  23.417  33.520  1.00  0.00     0.316 C 
ATOM     10  C   UNL A   1      46.036  25.748  31.353  1.00  0.00     0.019 A 
ATOM     11  O   UNL A   1      44.375  23.202  31.570  1.00  0.00    -0.475 OA
ATOM     12  C   UNL A   1      46.647  26.730  30.617  1.00  0.00     0.032 A 
ATOM     13  C   UNL A   1      45.231  24.480  30.521  1.00  0.00     0.135 A 
ATOM     14  C   UNL A   1      46.583  26.563  29.225  1.00  0.00     0.042 A 
ATOM     15  C   UNL A   1      45.150  24.456  29.171  1.00  0.00     0.026 A 
ATOM     16  Cl  UNL A   1      47.391  27.744  28.244  1.00  0.00    -0.084 Cl
ATOM     17  C   UNL A   1      45.895  25.488  28.544  1.00  0.00     0.033 A 
BRANCH   9  18
ATOM     18  C   UNL A   1      43.352  24.135  34.645  1.00  0.00     0.430 C 
ATOM     19  F   UNL A   1      42.830  25.335  34.356  1.00  0.00    -0.167 F 
ATOM     20  F   UNL A   1      42.260  23.307  34.698  1.00  0.00    -0.167 F 
ATOM     21  F   UNL A   1      43.767  24.181  35.941  1.00  0.00    -0.167 F 
ENDBRANCH   9  18
BRANCH  15  22
ATOM     22  C   UNL A   1      44.373  23.500  28.466  1.00  0.00    -0.014 A 
ATOM     23  C   UNL A   1      45.075  22.742  26.754  1.00  0.00     0.012 A 
ATOM     24  C   UNL A   1      42.496  22.890  29.036  1.00  0.00     0.012 A 
ATOM     25  C   UNL A   1      44.367  21.307  25.548  1.00  0.00     0.047 A 
ATOM     26  C   UNL A   1      41.724  21.587  27.719  1.00  0.00     0.047 A 
ATOM     27  C   UNL A   1      42.507  20.707  26.105  1.00  0.00     0.115 A 
BRANCH  27  28
ATOM     28  O   UNL A   1      41.830  19.801  25.357  1.00  0.00    -0.508 OA
ATOM     29  H   UNL A   1      42.004  19.728  24.438  1.00  0.00     0.293 HD
ENDBRANCH  27  28
ENDBRANCH  15  22
ENDBRANCH   5   7
ENDBRANCH   4   5
ENDBRANCH   3   4
ENDBRANCH   2   3
ENDBRANCH   1   2
BRANCH   1  30
ATOM     30  C   UNL A   1      50.230  26.833  36.364  1.00  0.00     0.202 C 
BRANCH  30  31
ATOM     31  C   UNL A   1      48.700  26.904  36.552  1.00  0.00     0.261 C 
BRANCH  31  32
ATOM     32  O   UNL A   1      48.283  27.791  37.567  1.00  0.00    -0.460 OA
BRANCH  32  33
ATOM     33  C   UNL A   1      47.089  27.328  37.996  1.00  0.00     0.338 C 
ATOM     34  O   UNL A   1      46.951  26.750  39.069  1.00  0.00    -0.246 OA
BRANCH  33  35
ATOM     35  C   UNL A   1      45.917  27.540  36.864  1.00  0.00     0.060 A 
ATOM     36  C   UNL A   1      45.536  28.732  35.277  1.00  0.00     0.016 A 
ATOM     37  C   UNL A   1      44.966  26.978  36.947  1.00  0.00     0.016 A 
ATOM     38  C   UNL A   1      44.804  29.261  34.222  1.00  0.00     0.010 A 
ATOM     39  C   UNL A   1      43.829  27.772  35.522  1.00  0.00     0.010 A 
ATOM     40  C   UNL A   1      43.700  28.662  34.428  1.00  0.00    -0.014 A 
BRANCH  40  41
ATOM     41  C   UNL A   1      42.506  29.030  33.761  1.00  0.00     0.031 A 
ATOM     42  C   UNL A   1      41.602  29.937  34.488  1.00  0.00     0.074 A 
ATOM     43  C   UNL A   1      42.396  28.567  32.521  1.00  0.00     0.049 A 
ATOM     44  N   UNL A   1      40.521  30.506  34.064  1.00  0.00    -0.248 NA
ATOM     45  C   UNL A   1      41.945  30.247  35.886  1.00  0.00     0.031 C 
ATOM     46  C   UNL A   1      43.352  27.675  31.855  1.00  0.00     0.029 A 
ATOM     47  N   UNL A   1      41.446  28.818  31.598  1.00  0.00    -0.354 N 
ATOM     48  C   UNL A   1      40.066  31.236  35.144  1.00  0.00     0.074 A 
ATOM     49  C   UNL A   1      40.915  30.972  36.273  1.00  0.00     0.031 C 
ATOM     50  C   UNL A   1      42.945  27.480  30.594  1.00  0.00     0.029 A 
ATOM     51  C   UNL A   1      41.703  28.214  30.404  1.00  0.00     0.049 A 
ATOM     52  H   UNL A   1      40.654  29.377  31.768  1.00  0.00     0.167 HD
ATOM     53  C   UNL A   1      39.034  32.094  35.136  1.00  0.00     0.037 A 
ATOM     54  C   UNL A   1      40.969  28.289  29.290  1.00  0.00     0.037 A 
ATOM     55  C   UNL A   1      38.238  32.279  33.963  1.00  0.00     0.049 A 
ATOM     56  C   UNL A   1      39.767  29.184  29.350  1.00  0.00     0.074 A 
ATOM     57  C   UNL A   1      37.145  33.093  33.785  1.00  0.00     0.029 A 
ATOM     58  N   UNL A   1      38.452  31.599  32.766  1.00  0.00    -0.354 N 
ATOM     59  N   UNL A   1      39.327  29.921  30.347  1.00  0.00    -0.248 NA
ATOM     60  C   UNL A   1      38.971  29.274  28.130  1.00  0.00     0.031 C 
ATOM     61  C   UNL A   1      36.628  32.820  32.518  1.00  0.00     0.029 A 
ATOM     62  C   UNL A   1      37.477  31.940  31.855  1.00  0.00     0.049 A 
ATOM     63  H   UNL A   1      39.190  30.969  32.597  1.00  0.00     0.167 HD
ATOM     64  C   UNL A   1      38.223  30.601  29.863  1.00  0.00     0.074 A 
ATOM     65  C   UNL A   1      38.083  30.192  28.475  1.00  0.00     0.031 C 
ATOM     66  C   UNL A   1      37.402  31.486  30.488  1.00  0.00     0.037 A 
BRANCH  53  67
ATOM     67  C   UNL A   1      38.705  32.778  36.419  1.00  0.00     0.064 A 
ATOM     68  C   UNL A   1      39.170  34.066  36.730  1.00  0.00     0.173 A 
ATOM     69  C   UNL A   1      37.949  32.098  37.382  1.00  0.00     0.173 A 
ATOM     70  F   UNL A   1      39.940  34.739  35.861  1.00  0.00    -0.203 F 
ATOM     71  C   UNL A   1      38.915  34.633  37.974  1.00  0.00     0.198 A 
ATOM     72  C   UNL A   1      37.652  32.690  38.602  1.00  0.00     0.198 A 
ATOM     73  F   UNL A   1      37.517  30.850  37.147  1.00  0.00    -0.203 F 
ATOM     74  F   UNL A   1      39.444  35.825  38.285  1.00  0.00    -0.200 F 
ATOM     75  C   UNL A   1      38.144  33.951  38.903  1.00  0.00     0.200 A 
ATOM     76  F   UNL A   1      36.905  32.029  39.496  1.00  0.00    -0.200 F 
ATOM     77  F   UNL A   1      37.890  34.502  40.097  1.00  0.00    -0.200 F 
ENDBRANCH  53  67
BRANCH  54  78
ATOM     78  C   UNL A   1      41.377  27.541  28.088  1.00  0.00     0.064 A 
ATOM     79  C   UNL A   1      42.259  28.098  27.156  1.00  0.00     0.173 A 
ATOM     80  C   UNL A   1      40.890  26.248  27.844  1.00  0.00     0.173 A 
ATOM     81  F   UNL A   1      42.771  29.321  27.365  1.00  0.00    -0.203 F 
ATOM     82  C   UNL A   1      42.583  27.419  25.987  1.00  0.00     0.198 A 
ATOM     83  C   UNL A   1      41.253  25.551  26.698  1.00  0.00     0.198 A 
ATOM     84  F   UNL A   1      40.074  25.655  28.729  1.00  0.00    -0.203 F 
ATOM     85  F   UNL A   1      43.363  28.008  25.072  1.00  0.00    -0.200 F 
ATOM     86  C   UNL A   1      42.079  26.146  25.759  1.00  0.00     0.200 A 
ATOM     87  F   UNL A   1      40.793  24.308  26.501  1.00  0.00    -0.200 F 
ATOM     88  F   UNL A   1      42.384  25.498  24.628  1.00  0.00    -0.200 F 
ENDBRANCH  54  78
BRANCH  66  89
ATOM     89  C   UNL A   1      36.343  32.117  29.639  1.00  0.00     0.064 A 
ATOM     90  C   UNL A   1      36.386  33.467  29.270  1.00  0.00     0.173 A 
ATOM     91  C   UNL A   1      35.271  31.335  29.179  1.00  0.00     0.173 A 
ATOM     92  F   UNL A   1      37.396  34.250  29.681  1.00  0.00    -0.203 F 
ATOM     93  C   UNL A   1      35.348  34.033  28.543  1.00  0.00     0.198 A 
ATOM     94  C   UNL A   1      34.276  31.889  28.388  1.00  0.00     0.198 A 
ATOM     95  F   UNL A   1      35.199  30.030  29.482  1.00  0.00    -0.203 F 
ATOM     96  F   UNL A   1      35.346  35.352  28.304  1.00  0.00    -0.200 F 
ATOM     97  C   UNL A   1      34.299  33.244  28.095  1.00  0.00     0.200 A 
ATOM     98  F   UNL A   1      33.290  31.113  27.919  1.00  0.00    -0.200 F 
ATOM     99  F   UNL A   1      33.301  33.791  27.390  1.00  0.00    -0.200 F 
ENDBRANCH  66  89
ENDBRANCH  40  41
ENDBRANCH  33  35
ENDBRANCH  32  33
ENDBRANCH  31  32
ENDBRANCH  30  31
ENDBRANCH   1  30
TORSDOF 17
ENDMDL
MODEL 3
REMARK VINA RESULT:     -12.8      7.495     15.852
REMARK SMILES O=C(OCCOCCOC(=O)c1ccc(-c2c3nc(c(-c4c(F)c(F)c(F)c(F)c4F)c4ccc([nH]4)c(-c4c(F)c(F)c(F)c(F)c4F)c4nc(c(-c5c(F)c(F)c(F)c(F)c5F)c5ccc2[nH]5)C=C4)C=C3)cc1)C1=Cc2cc(Cl)cc(-c3ccc(O)cc3)c2O[C@@H]1C(F)(F)F
REMARK SMILES IDX 6 1 5 2 4 3 3 4 2 5 1 6 75 7 76 8 92 9 77 10 91 11 78 12
REMARK SMILES IDX 90 13 79 14 82 15 80 16 81 17 93 18 94 19 95 20 96 21 83 22
REMARK SMILES IDX 84 23 89 24 85 25 88 26 86 27 87 28 7 30 8 31 9 32 10 33
REMARK SMILES IDX 11 34 12 35 13 36 74 37 14 38 73 39 15 40 16 41 17 42 67 43
REMARK SMILES IDX 18 44 72 45 66 46 68 47 19 48 71 49 65 50 64 51 20 53 52 54
REMARK SMILES IDX 32 55 51 56 33 57 36 58 50 59 69 60 34 61 35 62 49 64 70 65
REMARK SMILES IDX 37 66 21 67 22 68 30 69 23 70 24 71 28 72 31 73 25 74 26 75
REMARK SMILES IDX 29 76 27 77 53 78 54 79 62 80 55 81 56 82 60 83 63 84 57 85
REMARK SMILES IDX 58 86 61 87 59 88 38 89 39 90 47 91 40 92 41 93 45 94 48 95
REMARK SMILES IDX 42 96 43 97 46 98 44 99
REMARK H PARENT 87 29 68 52 36 63
REMARK Flexibility Score: inf
ROOT
ATOM      1  O   UNL A   1      47.813  20.583  34.377  1.00  0.00    -0.374 OA
ENDROOT
BRANCH   1   2
ATOM      2  C   UNL A   1      49.557  20.438  34.295  1.00  0.00     0.202 C 
BRANCH   2   3
ATOM      3  C   UNL A   1      50.802  19.786  35.965  1.00  0.00     0.261 C 
BRANCH   3   4
ATOM      4  O   UNL A   1      50.994  20.456  37.261  1.00  0.00    -0.460 OA
BRANCH   4   5
ATOM      5  C   UNL A   1      50.335  19.787  38.209  1.00  0.00     0.338 C 
ATOM      6  O   UNL A   1      50.623  18.681  38.609  1.00  0.00    -0.246 OA
BRANCH   5   7
ATOM      7  C   UNL A   1      48.997  20.439  38.153  1.00  0.00     0.087 C 
ATOM      8  C   UNL A   1      47.848  19.633  37.771  1.00  0.00     0.027 C 
ATOM      9  C   UNL A   1      49.324  21.014  39.924  1.00  0.00     0.316 C 
ATOM     10  C   UNL A   1      46.738  18.800  38.909  1.00  0.00     0.019 A 
ATOM     11  O   UNL A   1      48.320  19.959  41.242  1.00  0.00    -0.475 OA
ATOM     12  C   UNL A   1      45.737  18.009  38.405  1.00  0.00     0.032 A 
ATOM     13  C   UNL A   1      46.982  18.830  40.608  1.00  0.00     0.135 A 
ATOM     14  C   UNL A   1      45.029  17.258  39.356  1.00  0.00     0.042 A 
ATOM     15  C   UNL A   1      46.186  18.135  41.452  1.00  0.00     0.026 A 
ATOM     16  Cl  UNL A   1      43.790  16.195  38.770  1.00  0.00    -0.084 Cl
ATOM     17  C   UNL A   1      45.249  17.302  40.786  1.00  0.00     0.033 A 
BRANCH   9  18
ATOM     18  C   UNL A   1      49.122  22.640  39.361  1.00  0.00     0.430 C 
ATOM     19  F   UNL A   1      47.928  23.010  38.877  1.00  0.00    -0.167 F 
ATOM     20  F   UNL A   1      49.300  23.453  40.451  1.00  0.00    -0.167 F 
ATOM     21  F   UNL A   1      50.064  23.088  38.486  1.00  0.00    -0.167 F 
ENDBRANCH   9  18
BRANCH  15  22
ATOM     22  C   UNL A   1      46.274  18.253  42.863  1.00  0.00    -0.014 A 
ATOM     23  C   UNL A   1      47.590  17.122  43.858  1.00  0.00     0.012 A 
ATOM     24  C   UNL A   1      45.061  19.460  44.000  1.00  0.00     0.012 A 
ATOM     25  C   UNL A   1      48.110  17.080  45.793  1.00  0.00     0.047 A 
ATOM     26  C   UNL A   1      45.473  19.270  45.955  1.00  0.00     0.047 A 
ATOM     27  C   UNL A   1      46.906  18.267  46.920  1.00  0.00     0.115 A 
BRANCH  27  28
ATOM     28  O   UNL A   1      47.050  18.301  48.269  1.00  0.00    -0.508 OA
ATOM     29  H   UNL A   1      47.499  17.606  48.710  1.00  0.00     0.293 HD
ENDBRANCH  27  28
ENDBRANCH  15  22
ENDBRANCH   5   7
ENDBRANCH   4   5
ENDBRANCH   3   4
ENDBRANCH   2   3
ENDBRANCH   1   2
BRANCH   1  30
ATOM     30  C   UNL A   1      46.914  21.743  34.740  1.00  0.00     0.202 C 
BRANCH  30  31
ATOM     31  C   UNL A   1      47.222  22.957  35.642  1.00  0.00     0.261 C 
BRANCH  31  32
ATOM     32  O   UNL A   1      48.046  23.931  35.037  1.00  0.00    -0.460 OA
BRANCH  32  33
ATOM     33  C   UNL A   1      47.943  25.034  35.810  1.00  0.00     0.338 C 
ATOM     34  O   UNL A   1      48.656  25.224  36.789  1.00  0.00    -0.246 OA
BRANCH  33  35
ATOM     35  C   UNL A   1      46.693  25.989  35.335  1.00  0.00     0.060 A 
ATOM     36  C   UNL A   1      44.701  25.845  35.027  1.00  0.00     0.016 A 
ATOM     37  C   UNL A   1      46.896  27.014  34.964  1.00  0.00     0.016 A 
ATOM     38  C   UNL A   1      43.434  26.260  34.642  1.00  0.00     0.010 A 
ATOM     39  C   UNL A   1      45.127  27.626  34.294  1.00  0.00     0.010 A 
ATOM     40  C   UNL A   1      43.741  27.386  34.135  1.00  0.00    -0.014 A 
BRANCH  40  41
ATOM     41  C   UNL A   1      42.825  28.141  33.362  1.00  0.00     0.031 A 
ATOM     42  C   UNL A   1      42.730  27.793  31.935  1.00  0.00     0.074 A 
ATOM     43  C   UNL A   1      42.106  29.020  34.051  1.00  0.00     0.049 A 
ATOM     44  N   UNL A   1      41.902  28.243  31.050  1.00  0.00    -0.248 NA
ATOM     45  C   UNL A   1      43.698  26.810  31.418  1.00  0.00     0.031 C 
ATOM     46  C   UNL A   1      42.247  29.302  35.485  1.00  0.00     0.029 A 
ATOM     47  N   UNL A   1      41.092  29.805  33.636  1.00  0.00    -0.354 N 
ATOM     48  C   UNL A   1      42.256  27.596  29.882  1.00  0.00     0.074 A 
ATOM     49  C   UNL A   1      43.425  26.799  30.130  1.00  0.00     0.031 C 
ATOM     50  C   UNL A   1      41.310  30.190  35.838  1.00  0.00     0.029 A 
ATOM     51  C   UNL A   1      40.546  30.535  34.649  1.00  0.00     0.049 A 
ATOM     52  H   UNL A   1      40.781  29.846  32.703  1.00  0.00     0.167 HD
ATOM     53  C   UNL A   1      41.591  27.654  28.717  1.00  0.00     0.037 A 
ATOM     54  C   UNL A   1      39.517  31.383  34.564  1.00  0.00     0.037 A 
ATOM     55  C   UNL A   1      40.441  28.490  28.565  1.00  0.00     0.049 A 
ATOM     56  C   UNL A   1      38.861  31.494  33.220  1.00  0.00     0.074 A 
ATOM     57  C   UNL A   1      39.661  28.683  27.451  1.00  0.00     0.029 A 
ATOM     58  N   UNL A   1      39.932  29.299  29.578  1.00  0.00    -0.354 N 
ATOM     59  N   UNL A   1      39.145  30.866  32.100  1.00  0.00    -0.248 NA
ATOM     60  C   UNL A   1      37.730  32.412  33.131  1.00  0.00     0.031 C 
ATOM     61  C   UNL A   1      38.749  29.695  27.756  1.00  0.00     0.029 A 
ATOM     62  C   UNL A   1      38.870  30.034  29.100  1.00  0.00     0.049 A 
ATOM     63  H   UNL A   1      40.279  29.338  30.499  1.00  0.00     0.167 HD
ATOM     64  C   UNL A   1      38.201  31.280  31.177  1.00  0.00     0.074 A 
ATOM     65  C   UNL A   1      37.329  32.200  31.888  1.00  0.00     0.031 C 
ATOM     66  C   UNL A   1      38.050  30.936  29.871  1.00  0.00     0.037 A 
BRANCH  53  67
ATOM     67  C   UNL A   1      42.150  26.879  27.573  1.00  0.00     0.064 A 
ATOM     68  C   UNL A   1      41.821  25.535  27.338  1.00  0.00     0.173 A 
ATOM     69  C   UNL A   1      43.084  27.488  26.726  1.00  0.00     0.173 A 
ATOM     70  F   UNL A   1      40.968  24.891  28.151  1.00  0.00    -0.203 F 
ATOM     71  C   UNL A   1      42.431  24.821  26.312  1.00  0.00     0.198 A 
ATOM     72  C   UNL A   1      43.652  26.787  25.670  1.00  0.00     0.198 A 
ATOM     73  F   UNL A   1      43.461  28.758  26.935  1.00  0.00    -0.203 F 
ATOM     74  F   UNL A   1      42.171  23.515  26.160  1.00  0.00    -0.200 F 
ATOM     75  C   UNL A   1      43.335  25.452  25.471  1.00  0.00     0.200 A 
ATOM     76  F   UNL A   1      44.522  27.401  24.858  1.00  0.00    -0.200 F 
ATOM     77  F   UNL A   1      43.916  24.768  24.477  1.00  0.00    -0.200 F 
ENDBRANCH  53  67
BRANCH  54  78
ATOM     78  C   UNL A   1      39.071  32.121  35.759  1.00  0.00     0.064 A 
ATOM     79  C   UNL A   1      39.493  33.433  35.996  1.00  0.00     0.173 A 
ATOM     80  C   UNL A   1      38.210  31.526  36.694  1.00  0.00     0.173 A 
ATOM     81  F   UNL A   1      40.293  34.050  35.113  1.00  0.00    -0.203 F 
ATOM     82  C   UNL A   1      39.128  34.100  37.160  1.00  0.00     0.198 A 
ATOM     83  C   UNL A   1      37.808  32.212  37.834  1.00  0.00     0.198 A 
ATOM     84  F   UNL A   1      37.745  30.284  36.490  1.00  0.00    -0.203 F 
ATOM     85  F   UNL A   1      39.613  35.325  37.403  1.00  0.00    -0.200 F 
ATOM     86  C   UNL A   1      38.287  33.489  38.078  1.00  0.00     0.200 A 
ATOM     87  F   UNL A   1      36.966  31.630  38.699  1.00  0.00    -0.200 F 
ATOM     88  F   UNL A   1      37.946  34.128  39.204  1.00  0.00    -0.200 F 
ENDBRANCH  54  78
BRANCH  66  89
ATOM     89  C   UNL A   1      36.854  31.502  29.173  1.00  0.00     0.064 A 
ATOM     90  C   UNL A   1      36.782  32.845  28.782  1.00  0.00     0.173 A 
ATOM     91  C   UNL A   1      35.764  30.666  28.882  1.00  0.00     0.173 A 
ATOM     92  F   UNL A   1      37.803  33.680  29.032  1.00  0.00    -0.203 F 
ATOM     93  C   UNL A   1      35.626  33.351  28.202  1.00  0.00     0.198 A 
ATOM     94  C   UNL A   1      34.643  31.159  28.234  1.00  0.00     0.198 A 
ATOM     95  F   UNL A   1      35.796  29.365  29.212  1.00  0.00    -0.203 F 
ATOM     96  F   UNL A   1      35.531  34.662  27.947  1.00  0.00    -0.200 F 
ATOM     97  C   UNL A   1      34.562  32.507  27.920  1.00  0.00     0.200 A 
ATOM     98  F   UNL A   1      33.637  30.331  27.921  1.00  0.00    -0.200 F 
ATOM     99  F   UNL A   1      33.450  32.995  27.357  1.00  0.00    -0.200 F 
ENDBRANCH  66  89
ENDBRANCH  40  41
ENDBRANCH  33  35
ENDBRANCH  32  33
ENDBRANCH  31  32
ENDBRANCH  30  31
ENDBRANCH   1  30
TORSDOF 17
ENDMDL
