MODEL 1
REMARK VINA RESULT:     -11.1      0.000      0.000
REMARK SMILES C[C@@H](Sc1nc2ccccc2c(=O)n1N)C(=O)OCCOCCOC(=O)c1ccc(-c2c3nc(c(-c4c(F)c(F)c(F)c(F)c4F)c4ccc([nH]4)c(-c4c(F)c(F)c(F)c(F)c4F)c4nc(c(-c5c(F)c(F)c(F)c(F)c5F)c5ccc2[nH]5)C=C4)C=C3)cc1
REMARK SMILES IDX 20 1 19 2 18 3 16 4 17 5 2 6 1 7 3 8 4 9 5 10 14 11 6 12
REMARK SMILES IDX 12 13 7 14 11 15 13 16 8 17 10 18 9 19 15 20 21 23 22 24
REMARK SMILES IDX 23 25 24 26 25 27 26 28 27 29 28 30 89 31 29 32 88 33 30 34
REMARK SMILES IDX 31 35 32 36 82 37 33 38 87 39 81 40 83 41 34 42 86 43 80 44
REMARK SMILES IDX 79 45 35 47 67 48 47 49 66 50 48 51 51 52 65 53 84 54 49 55
REMARK SMILES IDX 50 56 64 58 85 59 52 60 36 61 37 62 45 63 38 64 39 65 43 66
REMARK SMILES IDX 46 67 40 68 41 69 44 70 42 71 68 72 69 73 77 74 70 75 71 76
REMARK SMILES IDX 75 77 78 78 72 79 73 80 76 81 74 82 53 83 54 84 62 85 55 86
REMARK SMILES IDX 56 87 60 88 63 89 57 90 58 91 61 92 59 93
REMARK H PARENT 15 21 15 22 83 46 51 57
REMARK Flexibility Score: inf
ROOT
ATOM      1  C   UNL A   1      40.428  21.283  27.200  1.00  0.00     0.202 C 
ENDROOT
BRANCH   1   2
ATOM      2  C   UNL A   1      39.874  22.216  26.122  1.00  0.00     0.261 C 
BRANCH   2   3
ATOM      3  O   UNL A   1      38.445  22.118  26.010  1.00  0.00    -0.462 OA
BRANCH   3   4
ATOM      4  C   UNL A   1      37.780  23.304  25.919  1.00  0.00     0.319 C 
ATOM      5  O   UNL A   1      38.123  24.339  26.482  1.00  0.00    -0.251 OA
BRANCH   4   6
ATOM      6  C   UNL A   1      36.531  23.215  25.047  1.00  0.00     0.161 C 
ATOM      7  C   UNL A   1      36.734  22.576  23.677  1.00  0.00     0.032 C 
BRANCH   6   8
ATOM      8  S   UNL A   1      35.278  22.326  26.027  1.00  0.00    -0.071 SA
BRANCH   8   9
ATOM      9  C   UNL A   1      34.052  23.557  26.195  1.00  0.00     0.191 A 
ATOM     10  N   UNL A   1      34.351  24.735  25.753  1.00  0.00    -0.222 NA
ATOM     11  N   UNL A   1      32.806  23.218  26.718  1.00  0.00    -0.202 N 
ATOM     12  C   UNL A   1      33.355  25.717  25.759  1.00  0.00     0.079 A 
ATOM     13  C   UNL A   1      31.763  24.143  26.773  1.00  0.00     0.280 A 
ATOM     14  C   UNL A   1      33.652  26.972  25.223  1.00  0.00     0.029 A 
ATOM     15  C   UNL A   1      32.063  25.480  26.231  1.00  0.00     0.068 A 
ATOM     16  O   UNL A   1      30.648  23.881  27.223  1.00  0.00    -0.267 OA
ATOM     17  C   UNL A   1      32.672  27.965  25.149  1.00  0.00     0.002 A 
ATOM     18  C   UNL A   1      31.075  26.468  26.166  1.00  0.00     0.016 A 
ATOM     19  C   UNL A   1      31.384  27.712  25.617  1.00  0.00     0.001 A 
BRANCH  11  20
ATOM     20  N   UNL A   1      32.524  21.907  27.226  1.00  0.00    -0.334 N 
ATOM     21  H   UNL A   1      31.685  21.737  27.712  1.00  0.00     0.178 HD
ATOM     22  H   UNL A   1      33.170  21.177  27.090  1.00  0.00     0.178 HD
ENDBRANCH  11  20
ENDBRANCH   8   9
ENDBRANCH   6   8
ENDBRANCH   4   6
ENDBRANCH   3   4
ENDBRANCH   2   3
ENDBRANCH   1   2
BRANCH   1  23
ATOM     23  O   UNL A   1      41.844  21.125  27.240  1.00  0.00    -0.374 OA
BRANCH  23  24
ATOM     24  C   UNL A   1      42.491  20.638  26.065  1.00  0.00     0.202 C 
BRANCH  24  25
ATOM     25  C   UNL A   1      43.453  21.606  25.363  1.00  0.00     0.261 C 
BRANCH  25  26
ATOM     26  O   UNL A   1      42.896  22.929  25.234  1.00  0.00    -0.460 OA
BRANCH  26  27
ATOM     27  C   UNL A   1      43.801  23.935  25.262  1.00  0.00     0.338 C 
ATOM     28  O   UNL A   1      44.625  24.219  24.402  1.00  0.00    -0.246 OA
BRANCH  27  29
ATOM     29  C   UNL A   1      43.559  24.804  26.427  1.00  0.00     0.060 A 
ATOM     30  C   UNL A   1      42.790  24.286  27.477  1.00  0.00     0.016 A 
ATOM     31  C   UNL A   1      44.004  26.127  26.460  1.00  0.00     0.016 A 
ATOM     32  C   UNL A   1      42.439  25.098  28.554  1.00  0.00     0.010 A 
ATOM     33  C   UNL A   1      43.640  26.944  27.536  1.00  0.00     0.010 A 
ATOM     34  C   UNL A   1      42.837  26.441  28.577  1.00  0.00    -0.014 A 
BRANCH  34  35
ATOM     35  C   UNL A   1      42.336  27.338  29.645  1.00  0.00     0.031 A 
ATOM     36  C   UNL A   1      43.027  27.359  30.980  1.00  0.00     0.074 A 
ATOM     37  C   UNL A   1      41.283  28.144  29.419  1.00  0.00     0.049 A 
ATOM     38  N   UNL A   1      42.728  28.039  32.058  1.00  0.00    -0.248 NA
ATOM     39  C   UNL A   1      44.215  26.503  31.119  1.00  0.00     0.031 C 
ATOM     40  C   UNL A   1      40.552  28.239  28.156  1.00  0.00     0.029 A 
ATOM     41  N   UNL A   1      40.639  29.027  30.249  1.00  0.00    -0.354 N 
ATOM     42  C   UNL A   1      43.684  27.690  33.003  1.00  0.00     0.074 A 
ATOM     43  C   UNL A   1      44.563  26.724  32.379  1.00  0.00     0.031 C 
ATOM     44  C   UNL A   1      39.546  29.118  28.302  1.00  0.00     0.029 A 
ATOM     45  C   UNL A   1      39.544  29.623  29.673  1.00  0.00     0.049 A 
ATOM     46  H   UNL A   1      40.934  29.216  31.169  1.00  0.00     0.167 HD
ATOM     47  C   UNL A   1      43.819  28.143  34.272  1.00  0.00     0.037 A 
ATOM     48  C   UNL A   1      38.629  30.459  30.203  1.00  0.00     0.037 A 
ATOM     49  C   UNL A   1      42.950  29.110  34.889  1.00  0.00     0.049 A 
ATOM     50  C   UNL A   1      38.763  30.888  31.642  1.00  0.00     0.074 A 
ATOM     51  C   UNL A   1      43.035  29.660  36.157  1.00  0.00     0.029 A 
ATOM     52  N   UNL A   1      41.831  29.663  34.288  1.00  0.00    -0.354 N 
ATOM     53  N   UNL A   1      39.694  30.585  32.513  1.00  0.00    -0.248 NA
ATOM     54  C   UNL A   1      37.716  31.776  32.170  1.00  0.00     0.031 C 
ATOM     55  C   UNL A   1      41.938  30.508  36.341  1.00  0.00     0.029 A 
ATOM     56  C   UNL A   1      41.197  30.523  35.170  1.00  0.00     0.049 A 
ATOM     57  H   UNL A   1      41.532  29.475  33.369  1.00  0.00     0.167 HD
ATOM     58  C   UNL A   1      39.358  31.257  33.681  1.00  0.00     0.074 A 
ATOM     59  C   UNL A   1      38.148  32.001  33.403  1.00  0.00     0.031 C 
ATOM     60  C   UNL A   1      39.992  31.257  34.879  1.00  0.00     0.037 A 
BRANCH  47  61
ATOM     61  C   UNL A   1      44.940  27.586  35.098  1.00  0.00     0.064 A 
ATOM     62  C   UNL A   1      46.175  28.240  35.197  1.00  0.00     0.173 A 
ATOM     63  C   UNL A   1      44.748  26.423  35.859  1.00  0.00     0.173 A 
ATOM     64  F   UNL A   1      46.411  29.351  34.482  1.00  0.00    -0.203 F 
ATOM     65  C   UNL A   1      47.183  27.744  36.021  1.00  0.00     0.198 A 
ATOM     66  C   UNL A   1      45.749  25.942  36.698  1.00  0.00     0.198 A 
ATOM     67  F   UNL A   1      43.581  25.763  35.801  1.00  0.00    -0.203 F 
ATOM     68  F   UNL A   1      48.366  28.371  36.083  1.00  0.00    -0.200 F 
ATOM     69  C   UNL A   1      46.965  26.601  36.777  1.00  0.00     0.200 A 
ATOM     70  F   UNL A   1      45.532  24.844  37.436  1.00  0.00    -0.200 F 
ATOM     71  F   UNL A   1      47.931  26.134  37.582  1.00  0.00    -0.200 F 
ENDBRANCH  47  61
BRANCH  48  72
ATOM     72  C   UNL A   1      37.480  30.922  29.384  1.00  0.00     0.064 A 
ATOM     73  C   UNL A   1      37.389  32.249  28.944  1.00  0.00     0.173 A 
ATOM     74  C   UNL A   1      36.426  30.054  29.060  1.00  0.00     0.173 A 
ATOM     75  F   UNL A   1      38.357  33.125  29.254  1.00  0.00    -0.203 F 
ATOM     76  C   UNL A   1      36.278  32.697  28.231  1.00  0.00     0.198 A 
ATOM     77  C   UNL A   1      35.330  30.495  28.323  1.00  0.00     0.198 A 
ATOM     78  F   UNL A   1      36.461  28.775  29.462  1.00  0.00    -0.203 F 
ATOM     79  F   UNL A   1      36.191  33.985  27.871  1.00  0.00    -0.200 F 
ATOM     80  C   UNL A   1      35.252  31.818  27.916  1.00  0.00     0.200 A 
ATOM     81  F   UNL A   1      34.345  29.641  28.015  1.00  0.00    -0.200 F 
ATOM     82  F   UNL A   1      34.182  32.251  27.235  1.00  0.00    -0.200 F 
ENDBRANCH  48  72
BRANCH  60  83
ATOM     83  C   UNL A   1      39.401  32.097  35.973  1.00  0.00     0.064 A 
ATOM     84  C   UNL A   1      38.392  31.603  36.811  1.00  0.00     0.173 A 
ATOM     85  C   UNL A   1      39.876  33.396  36.210  1.00  0.00     0.173 A 
ATOM     86  F   UNL A   1      37.892  30.373  36.615  1.00  0.00    -0.203 F 
ATOM     87  C   UNL A   1      37.861  32.387  37.832  1.00  0.00     0.198 A 
ATOM     88  C   UNL A   1      39.364  34.167  37.250  1.00  0.00     0.198 A 
ATOM     89  F   UNL A   1      40.846  33.912  35.440  1.00  0.00    -0.203 F 
ATOM     90  F   UNL A   1      36.866  31.912  38.592  1.00  0.00    -0.200 F 
ATOM     91  C   UNL A   1      38.354  33.665  38.055  1.00  0.00     0.200 A 
ATOM     92  F   UNL A   1      39.849  35.396  37.473  1.00  0.00    -0.200 F 
ATOM     93  F   UNL A   1      37.847  34.416  39.043  1.00  0.00    -0.200 F 
ENDBRANCH  60  83
ENDBRANCH  34  35
ENDBRANCH  27  29
ENDBRANCH  26  27
ENDBRANCH  25  26
ENDBRANCH  24  25
ENDBRANCH  23  24
ENDBRANCH   1  23
TORSDOF 17
ENDMDL
MODEL 2
REMARK VINA RESULT:     -11.0      3.466      9.112
REMARK SMILES C[C@@H](Sc1nc2ccccc2c(=O)n1N)C(=O)OCCOCCOC(=O)c1ccc(-c2c3nc(c(-c4c(F)c(F)c(F)c(F)c4F)c4ccc([nH]4)c(-c4c(F)c(F)c(F)c(F)c4F)c4nc(c(-c5c(F)c(F)c(F)c(F)c5F)c5ccc2[nH]5)C=C4)C=C3)cc1
REMARK SMILES IDX 20 1 19 2 18 3 16 4 17 5 2 6 1 7 3 8 4 9 5 10 14 11 6 12
REMARK SMILES IDX 12 13 7 14 11 15 13 16 8 17 10 18 9 19 15 20 21 23 22 24
REMARK SMILES IDX 23 25 24 26 25 27 26 28 27 29 28 30 89 31 29 32 88 33 30 34
REMARK SMILES IDX 31 35 32 36 82 37 33 38 87 39 81 40 83 41 34 42 86 43 80 44
REMARK SMILES IDX 79 45 35 47 67 48 47 49 66 50 48 51 51 52 65 53 84 54 49 55
REMARK SMILES IDX 50 56 64 58 85 59 52 60 36 61 37 62 45 63 38 64 39 65 43 66
REMARK SMILES IDX 46 67 40 68 41 69 44 70 42 71 68 72 69 73 77 74 70 75 71 76
REMARK SMILES IDX 75 77 78 78 72 79 73 80 76 81 74 82 53 83 54 84 62 85 55 86
REMARK SMILES IDX 56 87 60 88 63 89 57 90 58 91 61 92 59 93
REMARK H PARENT 15 21 15 22 83 46 51 57
REMARK Flexibility Score: inf
ROOT
ATOM      1  C   UNL A   1      31.647  29.395  25.367  1.00  0.00     0.202 C 
ENDROOT
BRANCH   1   2
ATOM      2  C   UNL A   1      32.940  29.157  24.585  1.00  0.00     0.261 C 
BRANCH   2   3
ATOM      3  O   UNL A   1      32.705  29.081  23.169  1.00  0.00    -0.462 OA
BRANCH   3   4
ATOM      4  C   UNL A   1      33.111  27.928  22.567  1.00  0.00     0.319 C 
ATOM      5  O   UNL A   1      34.163  27.799  21.950  1.00  0.00    -0.251 OA
BRANCH   4   6
ATOM      6  C   UNL A   1      32.102  26.795  22.721  1.00  0.00     0.161 C 
ATOM      7  C   UNL A   1      30.636  27.215  22.686  1.00  0.00     0.032 C 
BRANCH   6   8
ATOM      8  S   UNL A   1      32.486  25.578  21.420  1.00  0.00    -0.071 SA
BRANCH   8   9
ATOM      9  C   UNL A   1      33.073  24.241  22.377  1.00  0.00     0.191 A 
ATOM     10  N   UNL A   1      34.356  24.079  22.417  1.00  0.00    -0.222 NA
ATOM     11  N   UNL A   1      32.170  23.467  23.100  1.00  0.00    -0.202 N 
ATOM     12  C   UNL A   1      34.871  23.095  23.269  1.00  0.00     0.079 A 
ATOM     13  C   UNL A   1      32.601  22.456  23.960  1.00  0.00     0.280 A 
ATOM     14  C   UNL A   1      36.258  22.957  23.365  1.00  0.00     0.029 A 
ATOM     15  C   UNL A   1      34.061  22.282  24.062  1.00  0.00     0.068 A 
ATOM     16  O   UNL A   1      31.835  21.754  24.619  1.00  0.00    -0.267 OA
ATOM     17  C   UNL A   1      36.821  22.033  24.249  1.00  0.00     0.002 A 
ATOM     18  C   UNL A   1      34.614  21.349  24.946  1.00  0.00     0.016 A 
ATOM     19  C   UNL A   1      36.000  21.232  25.041  1.00  0.00     0.001 A 
BRANCH  11  20
ATOM     20  N   UNL A   1      30.752  23.660  23.004  1.00  0.00    -0.334 N 
ATOM     21  H   UNL A   1      30.351  24.514  23.289  1.00  0.00     0.178 HD
ATOM     22  H   UNL A   1      30.180  22.941  22.655  1.00  0.00     0.178 HD
ENDBRANCH  11  20
ENDBRANCH   8   9
ENDBRANCH   6   8
ENDBRANCH   4   6
ENDBRANCH   3   4
ENDBRANCH   2   3
ENDBRANCH   1   2
BRANCH   1  23
ATOM     23  O   UNL A   1      31.392  30.734  25.786  1.00  0.00    -0.374 OA
BRANCH  23  24
ATOM     24  C   UNL A   1      32.179  31.255  26.857  1.00  0.00     0.202 C 
BRANCH  24  25
ATOM     25  C   UNL A   1      31.935  32.723  27.232  1.00  0.00     0.261 C 
BRANCH  25  26
ATOM     26  O   UNL A   1      33.160  33.482  27.283  1.00  0.00    -0.460 OA
BRANCH  26  27
ATOM     27  C   UNL A   1      33.285  34.292  28.360  1.00  0.00     0.338 C 
ATOM     28  O   UNL A   1      32.538  35.201  28.698  1.00  0.00    -0.246 OA
BRANCH  27  29
ATOM     29  C   UNL A   1      34.383  33.823  29.223  1.00  0.00     0.060 A 
ATOM     30  C   UNL A   1      35.670  34.315  28.964  1.00  0.00     0.016 A 
ATOM     31  C   UNL A   1      34.179  32.860  30.213  1.00  0.00     0.016 A 
ATOM     32  C   UNL A   1      36.762  33.826  29.677  1.00  0.00     0.010 A 
ATOM     33  C   UNL A   1      35.279  32.361  30.919  1.00  0.00     0.010 A 
ATOM     34  C   UNL A   1      36.579  32.824  30.639  1.00  0.00    -0.014 A 
BRANCH  34  35
ATOM     35  C   UNL A   1      37.758  32.200  31.286  1.00  0.00     0.031 A 
ATOM     36  C   UNL A   1      38.506  31.111  30.569  1.00  0.00     0.074 A 
ATOM     37  C   UNL A   1      38.171  32.617  32.497  1.00  0.00     0.049 A 
ATOM     38  N   UNL A   1      39.536  30.409  30.971  1.00  0.00    -0.248 NA
ATOM     39  C   UNL A   1      38.034  30.767  29.219  1.00  0.00     0.031 C 
ATOM     40  C   UNL A   1      37.550  33.688  33.275  1.00  0.00     0.029 A 
ATOM     41  N   UNL A   1      39.204  32.181  33.287  1.00  0.00    -0.354 N 
ATOM     42  C   UNL A   1      39.832  29.540  29.929  1.00  0.00     0.074 A 
ATOM     43  C   UNL A   1      38.861  29.787  28.884  1.00  0.00     0.031 C 
ATOM     44  C   UNL A   1      38.204  33.812  34.442  1.00  0.00     0.029 A 
ATOM     45  C   UNL A   1      39.268  32.812  34.505  1.00  0.00     0.049 A 
ATOM     46  H   UNL A   1      39.839  31.483  33.008  1.00  0.00     0.167 HD
ATOM     47  C   UNL A   1      40.828  28.626  29.851  1.00  0.00     0.037 A 
ATOM     48  C   UNL A   1      40.075  32.587  35.560  1.00  0.00     0.037 A 
ATOM     49  C   UNL A   1      41.797  28.386  30.887  1.00  0.00     0.049 A 
ATOM     50  C   UNL A   1      41.127  31.512  35.472  1.00  0.00     0.074 A 
ATOM     51  C   UNL A   1      42.869  27.509  30.880  1.00  0.00     0.029 A 
ATOM     52  N   UNL A   1      41.807  29.019  32.120  1.00  0.00    -0.354 N 
ATOM     53  N   UNL A   1      41.424  30.724  34.468  1.00  0.00    -0.248 NA
ATOM     54  C   UNL A   1      41.955  31.294  36.668  1.00  0.00     0.031 C 
ATOM     55  C   UNL A   1      43.497  27.574  32.128  1.00  0.00     0.029 A 
ATOM     56  C   UNL A   1      42.846  28.527  32.895  1.00  0.00     0.049 A 
ATOM     57  H   UNL A   1      41.172  29.716  32.404  1.00  0.00     0.167 HD
ATOM     58  C   UNL A   1      42.482  29.934  34.901  1.00  0.00     0.074 A 
ATOM     59  C   UNL A   1      42.789  30.351  36.252  1.00  0.00     0.031 C 
ATOM     60  C   UNL A   1      43.139  28.951  34.240  1.00  0.00     0.037 A 
BRANCH  47  61
ATOM     61  C   UNL A   1      40.917  27.792  28.608  1.00  0.00     0.064 A 
ATOM     62  C   UNL A   1      40.141  26.636  28.442  1.00  0.00     0.173 A 
ATOM     63  C   UNL A   1      41.733  28.196  27.541  1.00  0.00     0.173 A 
ATOM     64  F   UNL A   1      39.352  26.203  29.437  1.00  0.00    -0.203 F 
ATOM     65  C   UNL A   1      40.187  25.909  27.255  1.00  0.00     0.198 A 
ATOM     66  C   UNL A   1      41.759  27.480  26.348  1.00  0.00     0.198 A 
ATOM     67  F   UNL A   1      42.491  29.298  27.650  1.00  0.00    -0.203 F 
ATOM     68  F   UNL A   1      39.457  24.793  27.125  1.00  0.00    -0.200 F 
ATOM     69  C   UNL A   1      40.989  26.337  26.206  1.00  0.00     0.200 A 
ATOM     70  F   UNL A   1      42.526  27.902  25.332  1.00  0.00    -0.200 F 
ATOM     71  F   UNL A   1      41.019  25.645  25.058  1.00  0.00    -0.200 F 
ENDBRANCH  47  61
BRANCH  48  72
ATOM     72  C   UNL A   1      39.902  33.370  36.811  1.00  0.00     0.064 A 
ATOM     73  C   UNL A   1      40.662  34.520  37.060  1.00  0.00     0.173 A 
ATOM     74  C   UNL A   1      39.001  32.957  37.804  1.00  0.00     0.173 A 
ATOM     75  F   UNL A   1      41.559  34.938  36.153  1.00  0.00    -0.203 F 
ATOM     76  C   UNL A   1      40.545  35.215  38.262  1.00  0.00     0.198 A 
ATOM     77  C   UNL A   1      38.862  33.668  38.993  1.00  0.00     0.198 A 
ATOM     78  F   UNL A   1      38.254  31.859  37.619  1.00  0.00    -0.203 F 
ATOM     79  F   UNL A   1      41.323  36.281  38.496  1.00  0.00    -0.200 F 
ATOM     80  C   UNL A   1      39.641  34.792  39.226  1.00  0.00     0.200 A 
ATOM     81  F   UNL A   1      37.983  33.260  39.918  1.00  0.00    -0.200 F 
ATOM     82  F   UNL A   1      39.532  35.459  40.383  1.00  0.00    -0.200 F 
ENDBRANCH  48  72
BRANCH  60  83
ATOM     83  C   UNL A   1      44.264  28.268  34.961  1.00  0.00     0.064 A 
ATOM     84  C   UNL A   1      44.059  27.084  35.684  1.00  0.00     0.173 A 
ATOM     85  C   UNL A   1      45.568  28.781  34.895  1.00  0.00     0.173 A 
ATOM     86  F   UNL A   1      42.828  26.563  35.791  1.00  0.00    -0.203 F 
ATOM     87  C   UNL A   1      45.114  26.452  36.337  1.00  0.00     0.198 A 
ATOM     88  C   UNL A   1      46.627  28.130  35.525  1.00  0.00     0.198 A 
ATOM     89  F   UNL A   1      45.819  29.906  34.210  1.00  0.00    -0.203 F 
ATOM     90  F   UNL A   1      44.887  25.347  37.060  1.00  0.00    -0.200 F 
ATOM     91  C   UNL A   1      46.398  26.971  36.249  1.00  0.00     0.200 A 
ATOM     92  F   UNL A   1      47.868  28.626  35.429  1.00  0.00    -0.200 F 
ATOM     93  F   UNL A   1      47.413  26.358  36.872  1.00  0.00    -0.200 F 
ENDBRANCH  60  83
ENDBRANCH  34  35
ENDBRANCH  27  29
ENDBRANCH  26  27
ENDBRANCH  25  26
ENDBRANCH  24  25
ENDBRANCH  23  24
ENDBRANCH   1  23
TORSDOF 17
ENDMDL
MODEL 3
REMARK VINA RESULT:     -10.8      3.441      4.705
REMARK SMILES C[C@@H](Sc1nc2ccccc2c(=O)n1N)C(=O)OCCOCCOC(=O)c1ccc(-c2c3nc(c(-c4c(F)c(F)c(F)c(F)c4F)c4ccc([nH]4)c(-c4c(F)c(F)c(F)c(F)c4F)c4nc(c(-c5c(F)c(F)c(F)c(F)c5F)c5ccc2[nH]5)C=C4)C=C3)cc1
REMARK SMILES IDX 20 1 19 2 18 3 16 4 17 5 2 6 1 7 3 8 4 9 5 10 14 11 6 12
REMARK SMILES IDX 12 13 7 14 11 15 13 16 8 17 10 18 9 19 15 20 21 23 22 24
REMARK SMILES IDX 23 25 24 26 25 27 26 28 27 29 28 30 89 31 29 32 88 33 30 34
REMARK SMILES IDX 31 35 32 36 82 37 33 38 87 39 81 40 83 41 34 42 86 43 80 44
REMARK SMILES IDX 79 45 35 47 67 48 47 49 66 50 48 51 51 52 65 53 84 54 49 55
REMARK SMILES IDX 50 56 64 58 85 59 52 60 36 61 37 62 45 63 38 64 39 65 43 66
REMARK SMILES IDX 46 67 40 68 41 69 44 70 42 71 68 72 69 73 77 74 70 75 71 76
REMARK SMILES IDX 75 77 78 78 72 79 73 80 76 81 74 82 53 83 54 84 62 85 55 86
REMARK SMILES IDX 56 87 60 88 63 89 57 90 58 91 61 92 59 93
REMARK H PARENT 15 21 15 22 83 46 51 57
REMARK Flexibility Score: inf
ROOT
ATOM      1  C   UNL A   1      35.145  20.701  25.402  1.00  0.00     0.202 C 
ENDROOT
BRANCH   1   2
ATOM      2  C   UNL A   1      33.885  20.275  24.647  1.00  0.00     0.261 C 
BRANCH   2   3
ATOM      3  O   UNL A   1      32.690  20.765  25.277  1.00  0.00    -0.462 OA
BRANCH   3   4
ATOM      4  C   UNL A   1      32.356  22.052  24.983  1.00  0.00     0.319 C 
ATOM      5  O   UNL A   1      32.081  22.461  23.859  1.00  0.00    -0.251 OA
BRANCH   4   6
ATOM      6  C   UNL A   1      32.373  22.961  26.208  1.00  0.00     0.161 C 
ATOM      7  C   UNL A   1      33.342  24.137  26.137  1.00  0.00     0.032 C 
BRANCH   6   8
ATOM      8  S   UNL A   1      30.656  23.517  26.464  1.00  0.00    -0.071 SA
BRANCH   8   9
ATOM      9  C   UNL A   1      30.769  25.187  25.966  1.00  0.00     0.191 A 
ATOM     10  N   UNL A   1      31.119  26.038  26.875  1.00  0.00    -0.222 NA
ATOM     11  N   UNL A   1      30.556  25.520  24.631  1.00  0.00    -0.202 N 
ATOM     12  C   UNL A   1      31.339  27.365  26.489  1.00  0.00     0.079 A 
ATOM     13  C   UNL A   1      30.739  26.823  24.167  1.00  0.00     0.280 A 
ATOM     14  C   UNL A   1      31.779  28.275  27.452  1.00  0.00     0.029 A 
ATOM     15  C   UNL A   1      31.185  27.804  25.173  1.00  0.00     0.068 A 
ATOM     16  O   UNL A   1      30.566  27.156  22.996  1.00  0.00    -0.267 OA
ATOM     17  C   UNL A   1      32.072  29.595  27.102  1.00  0.00     0.002 A 
ATOM     18  C   UNL A   1      31.471  29.125  24.812  1.00  0.00     0.016 A 
ATOM     19  C   UNL A   1      31.922  30.019  25.782  1.00  0.00     0.001 A 
BRANCH  11  20
ATOM     20  N   UNL A   1      30.140  24.550  23.661  1.00  0.00    -0.334 N 
ATOM     21  H   UNL A   1      29.749  23.695  23.954  1.00  0.00     0.178 HD
ATOM     22  H   UNL A   1      30.245  24.738  22.700  1.00  0.00     0.178 HD
ENDBRANCH  11  20
ENDBRANCH   8   9
ENDBRANCH   6   8
ENDBRANCH   4   6
ENDBRANCH   3   4
ENDBRANCH   2   3
ENDBRANCH   1   2
BRANCH   1  23
ATOM     23  O   UNL A   1      36.217  21.214  24.615  1.00  0.00    -0.374 OA
BRANCH  23  24
ATOM     24  C   UNL A   1      36.062  22.516  24.050  1.00  0.00     0.202 C 
BRANCH  24  25
ATOM     25  C   UNL A   1      36.994  23.610  24.586  1.00  0.00     0.261 C 
BRANCH  25  26
ATOM     26  O   UNL A   1      37.306  23.424  25.980  1.00  0.00    -0.460 OA
BRANCH  26  27
ATOM     27  C   UNL A   1      38.605  23.149  26.243  1.00  0.00     0.338 C 
ATOM     28  O   UNL A   1      39.241  22.161  25.898  1.00  0.00    -0.246 OA
BRANCH  27  29
ATOM     29  C   UNL A   1      39.252  24.310  26.877  1.00  0.00     0.060 A 
ATOM     30  C   UNL A   1      39.052  24.497  28.251  1.00  0.00     0.016 A 
ATOM     31  C   UNL A   1      39.973  25.246  26.132  1.00  0.00     0.016 A 
ATOM     32  C   UNL A   1      39.550  25.636  28.882  1.00  0.00     0.010 A 
ATOM     33  C   UNL A   1      40.461  26.395  26.765  1.00  0.00     0.010 A 
ATOM     34  C   UNL A   1      40.233  26.607  28.138  1.00  0.00    -0.014 A 
BRANCH  34  35
ATOM     35  C   UNL A   1      40.627  27.884  28.780  1.00  0.00     0.031 A 
ATOM     36  C   UNL A   1      42.044  28.073  29.244  1.00  0.00     0.074 A 
ATOM     37  C   UNL A   1      39.730  28.875  28.931  1.00  0.00     0.049 A 
ATOM     38  N   UNL A   1      42.586  29.093  29.862  1.00  0.00    -0.248 NA
ATOM     39  C   UNL A   1      42.978  26.969  28.974  1.00  0.00     0.031 C 
ATOM     40  C   UNL A   1      38.337  28.824  28.491  1.00  0.00     0.029 A 
ATOM     41  N   UNL A   1      39.857  30.114  29.507  1.00  0.00    -0.354 N 
ATOM     42  C   UNL A   1      43.917  28.753  30.058  1.00  0.00     0.074 A 
ATOM     43  C   UNL A   1      44.100  27.424  29.512  1.00  0.00     0.031 C 
ATOM     44  C   UNL A   1      37.732  29.974  28.831  1.00  0.00     0.029 A 
ATOM     45  C   UNL A   1      38.685  30.828  29.537  1.00  0.00     0.049 A 
ATOM     46  H   UNL A   1      40.708  30.459  29.863  1.00  0.00     0.167 HD
ATOM     47  C   UNL A   1      44.899  29.487  30.635  1.00  0.00     0.037 A 
ATOM     48  C   UNL A   1      38.407  32.021  30.097  1.00  0.00     0.037 A 
ATOM     49  C   UNL A   1      44.718  30.810  31.170  1.00  0.00     0.049 A 
ATOM     50  C   UNL A   1      39.502  32.784  30.798  1.00  0.00     0.074 A 
ATOM     51  C   UNL A   1      45.665  31.648  31.736  1.00  0.00     0.029 A 
ATOM     52  N   UNL A   1      43.509  31.485  31.216  1.00  0.00    -0.354 N 
ATOM     53  N   UNL A   1      40.767  32.472  30.942  1.00  0.00    -0.248 NA
ATOM     54  C   UNL A   1      39.129  34.065  31.416  1.00  0.00     0.031 C 
ATOM     55  C   UNL A   1      45.018  32.810  32.170  1.00  0.00     0.029 A 
ATOM     56  C   UNL A   1      43.677  32.716  31.832  1.00  0.00     0.049 A 
ATOM     57  H   UNL A   1      42.656  31.143  30.862  1.00  0.00     0.167 HD
ATOM     58  C   UNL A   1      41.342  33.521  31.646  1.00  0.00     0.074 A 
ATOM     59  C   UNL A   1      40.294  34.491  31.883  1.00  0.00     0.031 C 
ATOM     60  C   UNL A   1      42.624  33.670  32.061  1.00  0.00     0.037 A 
BRANCH  47  61
ATOM     61  C   UNL A   1      46.262  28.873  30.740  1.00  0.00     0.064 A 
ATOM     62  C   UNL A   1      47.212  29.013  29.719  1.00  0.00     0.173 A 
ATOM     63  C   UNL A   1      46.647  28.200  31.910  1.00  0.00     0.173 A 
ATOM     64  F   UNL A   1      46.889  29.640  28.577  1.00  0.00    -0.203 F 
ATOM     65  C   UNL A   1      48.496  28.493  29.861  1.00  0.00     0.198 A 
ATOM     66  C   UNL A   1      47.938  27.701  32.057  1.00  0.00     0.198 A 
ATOM     67  F   UNL A   1      45.775  28.044  32.917  1.00  0.00    -0.203 F 
ATOM     68  F   UNL A   1      49.382  28.615  28.863  1.00  0.00    -0.200 F 
ATOM     69  C   UNL A   1      48.860  27.846  31.033  1.00  0.00     0.200 A 
ATOM     70  F   UNL A   1      48.291  27.086  33.195  1.00  0.00    -0.200 F 
ATOM     71  F   UNL A   1      50.102  27.359  31.174  1.00  0.00    -0.200 F 
ENDBRANCH  47  61
BRANCH  48  72
ATOM     72  C   UNL A   1      37.023  32.562  30.054  1.00  0.00     0.064 A 
ATOM     73  C   UNL A   1      36.569  33.310  28.960  1.00  0.00     0.173 A 
ATOM     74  C   UNL A   1      36.141  32.376  31.129  1.00  0.00     0.173 A 
ATOM     75  F   UNL A   1      37.387  33.541  27.921  1.00  0.00    -0.203 F 
ATOM     76  C   UNL A   1      35.293  33.870  28.951  1.00  0.00     0.198 A 
ATOM     77  C   UNL A   1      34.855  32.911  31.107  1.00  0.00     0.198 A 
ATOM     78  F   UNL A   1      36.528  31.673  32.203  1.00  0.00    -0.203 F 
ATOM     79  F   UNL A   1      34.904  34.627  27.916  1.00  0.00    -0.200 F 
ATOM     80  C   UNL A   1      34.435  33.666  30.022  1.00  0.00     0.200 A 
ATOM     81  F   UNL A   1      34.028  32.705  32.139  1.00  0.00    -0.200 F 
ATOM     82  F   UNL A   1      33.210  34.209  30.014  1.00  0.00    -0.200 F 
ENDBRANCH  48  72
BRANCH  60  83
ATOM     83  C   UNL A   1      42.968  34.930  32.799  1.00  0.00     0.064 A 
ATOM     84  C   UNL A   1      42.906  35.000  34.199  1.00  0.00     0.173 A 
ATOM     85  C   UNL A   1      43.402  36.069  32.104  1.00  0.00     0.173 A 
ATOM     86  F   UNL A   1      42.481  33.943  34.909  1.00  0.00    -0.203 F 
ATOM     87  C   UNL A   1      43.241  36.170  34.873  1.00  0.00     0.198 A 
ATOM     88  C   UNL A   1      43.765  37.229  32.783  1.00  0.00     0.198 A 
ATOM     89  F   UNL A   1      43.486  36.052  30.765  1.00  0.00    -0.203 F 
ATOM     90  F   UNL A   1      43.131  36.228  36.208  1.00  0.00    -0.200 F 
ATOM     91  C   UNL A   1      43.678  37.281  34.166  1.00  0.00     0.200 A 
ATOM     92  F   UNL A   1      44.199  38.296  32.099  1.00  0.00    -0.200 F 
ATOM     93  F   UNL A   1      44.008  38.404  34.817  1.00  0.00    -0.200 F 
ENDBRANCH  60  83
ENDBRANCH  34  35
ENDBRANCH  27  29
ENDBRANCH  26  27
ENDBRANCH  25  26
ENDBRANCH  24  25
ENDBRANCH  23  24
ENDBRANCH   1  23
TORSDOF 17
ENDMDL
