MODEL 1
REMARK VINA RESULT:     -11.4      0.000      0.000
REMARK SMILES O=C(OCCOCCOC(=O)c1cccc([C@@H]2CCC[N@@H+](Cc3cccc(OCCO)c3)C2)c1)c1ccc(-c2c3nc(c(-c4c(F)c(F)c(F)c(F)c4F)c4ccc([nH]4)c(-c4c(F)c(F)c(F)c(F)c4F)c4nc(c(-c5c(F)c(F)c(F)c(F)c5F)c5ccc2[nH]5)C=C4)C=C3)cc1
REMARK SMILES IDX 8 1 7 2 6 3 5 4 4 5 3 6 2 7 1 8 35 9 36 10 97 11 37 12 96 13
REMARK SMILES IDX 38 14 39 15 40 16 90 17 41 18 95 19 89 20 91 21 42 22 94 23
REMARK SMILES IDX 88 24 87 25 43 27 75 28 55 29 74 30 56 31 59 32 73 33 92 34
REMARK SMILES IDX 57 35 58 36 72 38 93 39 60 40 44 41 45 42 53 43 46 44 47 45
REMARK SMILES IDX 51 46 54 47 48 48 49 49 52 50 50 51 76 52 77 53 85 54 78 55
REMARK SMILES IDX 79 56 83 57 86 58 80 59 81 60 84 61 82 62 61 63 62 64 70 65
REMARK SMILES IDX 63 66 64 67 68 68 71 69 65 70 66 71 69 72 67 73 9 74 10 75
REMARK SMILES IDX 11 76 12 77 13 78 34 79 14 80 16 81 15 82 17 83 18 84 33 85
REMARK SMILES IDX 19 86 21 87 20 88 22 90 23 91 24 92 32 93 25 94 27 95 26 96
REMARK SMILES IDX 28 97 29 98 30 99 31 100
REMARK H PARENT 91 26 59 37 21 89 31 101
REMARK Flexibility Score: inf
ROOT
ATOM      1  C   UNL A   1      41.350  22.256  26.664  1.00  0.00     0.261 C 
ENDROOT
BRANCH   1   2
ATOM      2  C   UNL A   1      42.294  21.490  27.596  1.00  0.00     0.202 C 
BRANCH   2   3
ATOM      3  O   UNL A   1      42.099  20.093  27.379  1.00  0.00    -0.374 OA
BRANCH   3   4
ATOM      4  C   UNL A   1      41.994  19.655  26.027  1.00  0.00     0.202 C 
BRANCH   4   5
ATOM      5  C   UNL A   1      43.113  18.688  25.644  1.00  0.00     0.261 C 
BRANCH   5   6
ATOM      6  O   UNL A   1      43.771  19.144  24.451  1.00  0.00    -0.460 OA
BRANCH   6   7
ATOM      7  C   UNL A   1      44.899  19.883  24.346  1.00  0.00     0.338 C 
ATOM      8  O   UNL A   1      45.891  19.362  23.836  1.00  0.00    -0.246 OA
BRANCH   7   9
ATOM      9  C   UNL A   1      45.014  21.316  24.763  1.00  0.00     0.060 A 
ATOM     10  C   UNL A   1      44.535  22.413  24.046  1.00  0.00     0.016 A 
ATOM     11  C   UNL A   1      45.587  21.562  26.024  1.00  0.00     0.016 A 
ATOM     12  C   UNL A   1      44.641  23.705  24.529  1.00  0.00     0.010 A 
ATOM     13  C   UNL A   1      45.691  22.862  26.530  1.00  0.00     0.010 A 
ATOM     14  C   UNL A   1      45.231  23.937  25.767  1.00  0.00    -0.014 A 
BRANCH  14  15
ATOM     15  C   UNL A   1      45.484  25.342  26.121  1.00  0.00     0.031 A 
ATOM     16  C   UNL A   1      44.379  26.101  26.784  1.00  0.00     0.074 A 
ATOM     17  C   UNL A   1      46.733  25.829  26.034  1.00  0.00     0.049 A 
ATOM     18  N   UNL A   1      44.368  27.324  27.240  1.00  0.00    -0.248 NA
ATOM     19  C   UNL A   1      43.115  25.370  26.988  1.00  0.00     0.031 C 
ATOM     20  C   UNL A   1      47.894  25.081  25.542  1.00  0.00     0.029 A 
ATOM     21  N   UNL A   1      47.248  27.039  26.407  1.00  0.00    -0.354 N 
ATOM     22  C   UNL A   1      43.094  27.517  27.755  1.00  0.00     0.074 A 
ATOM     23  C   UNL A   1      42.358  26.289  27.563  1.00  0.00     0.031 C 
ATOM     24  C   UNL A   1      48.992  25.841  25.678  1.00  0.00     0.029 A 
ATOM     25  C   UNL A   1      48.602  27.144  26.204  1.00  0.00     0.049 A 
ATOM     26  H   UNL A   1      46.701  27.765  26.785  1.00  0.00     0.167 HD
ATOM     27  C   UNL A   1      42.591  28.635  28.326  1.00  0.00     0.037 A 
ATOM     28  C   UNL A   1      49.418  28.195  26.405  1.00  0.00     0.037 A 
ATOM     29  C   UNL A   1      43.357  29.837  28.503  1.00  0.00     0.049 A 
ATOM     30  C   UNL A   1      48.808  29.458  26.954  1.00  0.00     0.074 A 
ATOM     31  C   UNL A   1      42.950  31.063  28.991  1.00  0.00     0.029 A 
ATOM     32  N   UNL A   1      44.707  29.952  28.192  1.00  0.00    -0.354 N 
ATOM     33  N   UNL A   1      47.578  29.673  27.360  1.00  0.00    -0.248 NA
ATOM     34  C   UNL A   1      49.689  30.626  27.057  1.00  0.00     0.031 C 
ATOM     35  C   UNL A   1      44.046  31.933  28.932  1.00  0.00     0.029 A 
ATOM     36  C   UNL A   1      45.148  31.235  28.461  1.00  0.00     0.049 A 
ATOM     37  H   UNL A   1      45.268  29.226  27.833  1.00  0.00     0.167 HD
ATOM     38  C   UNL A   1      47.540  30.992  27.786  1.00  0.00     0.074 A 
ATOM     39  C   UNL A   1      48.880  31.520  27.606  1.00  0.00     0.031 C 
ATOM     40  C   UNL A   1      46.498  31.708  28.277  1.00  0.00     0.037 A 
BRANCH  27  41
ATOM     41  C   UNL A   1      41.137  28.613  28.693  1.00  0.00     0.064 A 
ATOM     42  C   UNL A   1      40.130  28.999  27.796  1.00  0.00     0.173 A 
ATOM     43  C   UNL A   1      40.753  28.255  29.995  1.00  0.00     0.173 A 
ATOM     44  F   UNL A   1      40.446  29.383  26.550  1.00  0.00    -0.203 F 
ATOM     45  C   UNL A   1      38.797  29.060  28.199  1.00  0.00     0.198 A 
ATOM     46  C   UNL A   1      39.417  28.292  30.387  1.00  0.00     0.198 A 
ATOM     47  F   UNL A   1      41.677  27.891  30.896  1.00  0.00    -0.203 F 
ATOM     48  F   UNL A   1      37.859  29.497  27.347  1.00  0.00    -0.200 F 
ATOM     49  C   UNL A   1      38.442  28.705  29.493  1.00  0.00     0.200 A 
ATOM     50  F   UNL A   1      39.078  27.949  31.636  1.00  0.00    -0.200 F 
ATOM     51  F   UNL A   1      37.162  28.779  29.883  1.00  0.00    -0.200 F 
ENDBRANCH  27  41
BRANCH  28  52
ATOM     52  C   UNL A   1      50.862  28.112  26.052  1.00  0.00     0.064 A 
ATOM     53  C   UNL A   1      51.307  28.320  24.739  1.00  0.00     0.173 A 
ATOM     54  C   UNL A   1      51.829  27.801  27.021  1.00  0.00     0.173 A 
ATOM     55  F   UNL A   1      50.425  28.596  23.767  1.00  0.00    -0.203 F 
ATOM     56  C   UNL A   1      52.658  28.204  24.408  1.00  0.00     0.198 A 
ATOM     57  C   UNL A   1      53.181  27.716  26.696  1.00  0.00     0.198 A 
ATOM     58  F   UNL A   1      51.462  27.583  28.293  1.00  0.00    -0.203 F 
ATOM     59  F   UNL A   1      53.048  28.358  23.135  1.00  0.00    -0.200 F 
ATOM     60  C   UNL A   1      53.594  27.908  25.387  1.00  0.00     0.200 A 
ATOM     61  F   UNL A   1      54.082  27.443  27.649  1.00  0.00    -0.200 F 
ATOM     62  F   UNL A   1      54.891  27.796  25.068  1.00  0.00    -0.200 F 
ENDBRANCH  28  52
BRANCH  40  63
ATOM     63  C   UNL A   1      46.787  33.120  28.688  1.00  0.00     0.064 A 
ATOM     64  C   UNL A   1      47.223  33.435  29.982  1.00  0.00     0.173 A 
ATOM     65  C   UNL A   1      46.663  34.162  27.757  1.00  0.00     0.173 A 
ATOM     66  F   UNL A   1      47.343  32.472  30.909  1.00  0.00    -0.203 F 
ATOM     67  C   UNL A   1      47.499  34.751  30.339  1.00  0.00     0.198 A 
ATOM     68  C   UNL A   1      46.970  35.471  28.109  1.00  0.00     0.198 A 
ATOM     69  F   UNL A   1      46.256  33.906  26.505  1.00  0.00    -0.203 F 
ATOM     70  F   UNL A   1      47.866  35.039  31.595  1.00  0.00    -0.200 F 
ATOM     71  C   UNL A   1      47.379  35.766  29.401  1.00  0.00     0.200 A 
ATOM     72  F   UNL A   1      46.868  36.449  27.197  1.00  0.00    -0.200 F 
ATOM     73  F   UNL A   1      47.653  37.032  29.744  1.00  0.00    -0.200 F 
ENDBRANCH  40  63
ENDBRANCH  14  15
ENDBRANCH   7   9
ENDBRANCH   6   7
ENDBRANCH   5   6
ENDBRANCH   4   5
ENDBRANCH   3   4
ENDBRANCH   2   3
ENDBRANCH   1   2
BRANCH   1  74
ATOM     74  O   UNL A   1      40.163  22.589  27.392  1.00  0.00    -0.460 OA
BRANCH  74  75
ATOM     75  C   UNL A   1      39.367  23.549  26.848  1.00  0.00     0.338 C 
ATOM     76  O   UNL A   1      39.521  24.757  26.915  1.00  0.00    -0.246 OA
BRANCH  75  77
ATOM     77  C   UNL A   1      38.340  22.872  26.014  1.00  0.00     0.060 A 
ATOM     78  C   UNL A   1      38.470  21.537  25.632  1.00  0.00     0.016 A 
ATOM     79  C   UNL A   1      37.201  23.576  25.637  1.00  0.00     0.020 A 
ATOM     80  C   UNL A   1      37.462  20.936  24.870  1.00  0.00     0.001 A 
ATOM     81  C   UNL A   1      36.257  23.040  24.766  1.00  0.00    -0.038 A 
ATOM     82  C   UNL A   1      36.372  21.691  24.418  1.00  0.00     0.004 A 
BRANCH  81  83
ATOM     83  C   UNL A   1      35.224  23.958  24.144  1.00  0.00     0.074 C 
ATOM     84  C   UNL A   1      34.573  24.866  25.209  1.00  0.00     0.020 C 
ATOM     85  C   UNL A   1      34.145  23.224  23.323  1.00  0.00     0.270 C 
ATOM     86  C   UNL A   1      33.429  24.202  25.980  1.00  0.00     0.062 C 
ATOM     87  N   UNL A   1      33.088  22.556  24.104  1.00  0.00    -0.331 N 
ATOM     88  C   UNL A   1      32.446  23.467  25.064  1.00  0.00     0.262 C 
ATOM     89  H   UNL A   1      33.553  21.832  24.652  1.00  0.00     0.348 HD
BRANCH  87  90
ATOM     90  C   UNL A   1      32.099  21.848  23.249  1.00  0.00     0.299 C 
BRANCH  90  91
ATOM     91  C   UNL A   1      32.211  20.332  23.255  1.00  0.00     0.010 A 
ATOM     92  C   UNL A   1      32.008  19.589  22.086  1.00  0.00     0.010 A 
ATOM     93  C   UNL A   1      32.673  19.673  24.405  1.00  0.00     0.056 A 
ATOM     94  C   UNL A   1      32.347  18.236  22.052  1.00  0.00     0.004 A 
ATOM     95  C   UNL A   1      33.137  18.364  24.340  1.00  0.00     0.119 A 
ATOM     96  C   UNL A   1      32.939  17.637  23.167  1.00  0.00     0.046 A 
BRANCH  95  97
ATOM     97  O   UNL A   1      33.842  17.723  25.324  1.00  0.00    -0.491 OA
BRANCH  97  98
ATOM     98  C   UNL A   1      33.823  16.287  25.361  1.00  0.00     0.257 C 
BRANCH  98  99
ATOM     99  C   UNL A   1      35.219  15.674  25.195  1.00  0.00     0.197 C 
BRANCH  99 100
ATOM    100  O   UNL A   1      36.203  16.309  26.001  1.00  0.00    -0.393 OA
ATOM    101  H   UNL A   1      35.807  17.067  26.459  1.00  0.00     0.210 HD
ENDBRANCH  99 100
ENDBRANCH  98  99
ENDBRANCH  97  98
ENDBRANCH  95  97
ENDBRANCH  90  91
ENDBRANCH  87  90
ENDBRANCH  81  83
ENDBRANCH  75  77
ENDBRANCH  74  75
ENDBRANCH   1  74
TORSDOF 21
ENDMDL
MODEL 2
REMARK VINA RESULT:     -11.2      2.200      4.163
REMARK SMILES O=C(OCCOCCOC(=O)c1cccc([C@@H]2CCC[N@@H+](Cc3cccc(OCCO)c3)C2)c1)c1ccc(-c2c3nc(c(-c4c(F)c(F)c(F)c(F)c4F)c4ccc([nH]4)c(-c4c(F)c(F)c(F)c(F)c4F)c4nc(c(-c5c(F)c(F)c(F)c(F)c5F)c5ccc2[nH]5)C=C4)C=C3)cc1
REMARK SMILES IDX 8 1 7 2 6 3 5 4 4 5 3 6 2 7 1 8 35 9 36 10 97 11 37 12 96 13
REMARK SMILES IDX 38 14 39 15 40 16 90 17 41 18 95 19 89 20 91 21 42 22 94 23
REMARK SMILES IDX 88 24 87 25 43 27 75 28 55 29 74 30 56 31 59 32 73 33 92 34
REMARK SMILES IDX 57 35 58 36 72 38 93 39 60 40 44 41 45 42 53 43 46 44 47 45
REMARK SMILES IDX 51 46 54 47 48 48 49 49 52 50 50 51 76 52 77 53 85 54 78 55
REMARK SMILES IDX 79 56 83 57 86 58 80 59 81 60 84 61 82 62 61 63 62 64 70 65
REMARK SMILES IDX 63 66 64 67 68 68 71 69 65 70 66 71 69 72 67 73 9 74 10 75
REMARK SMILES IDX 11 76 12 77 13 78 34 79 14 80 16 81 15 82 17 83 18 84 33 85
REMARK SMILES IDX 19 86 21 87 20 88 22 90 23 91 24 92 32 93 25 94 27 95 26 96
REMARK SMILES IDX 28 97 29 98 30 99 31 100
REMARK H PARENT 91 26 59 37 21 89 31 101
REMARK Flexibility Score: inf
ROOT
ATOM      1  C   UNL A   1      40.222  21.823  26.875  1.00  0.00     0.261 C 
ENDROOT
BRANCH   1   2
ATOM      2  C   UNL A   1      41.527  21.530  26.128  1.00  0.00     0.202 C 
BRANCH   2   3
ATOM      3  O   UNL A   1      41.532  20.150  25.762  1.00  0.00    -0.374 OA
BRANCH   3   4
ATOM      4  C   UNL A   1      42.262  19.260  26.602  1.00  0.00     0.202 C 
BRANCH   4   5
ATOM      5  C   UNL A   1      43.140  18.301  25.801  1.00  0.00     0.261 C 
BRANCH   5   6
ATOM      6  O   UNL A   1      43.580  18.932  24.588  1.00  0.00    -0.460 OA
BRANCH   6   7
ATOM      7  C   UNL A   1      44.695  19.670  24.383  1.00  0.00     0.338 C 
ATOM      8  O   UNL A   1      45.648  19.140  23.812  1.00  0.00    -0.246 OA
BRANCH   7   9
ATOM      9  C   UNL A   1      44.836  21.112  24.760  1.00  0.00     0.060 A 
ATOM     10  C   UNL A   1      44.520  22.201  23.947  1.00  0.00     0.016 A 
ATOM     11  C   UNL A   1      45.251  21.381  26.078  1.00  0.00     0.016 A 
ATOM     12  C   UNL A   1      44.637  23.505  24.394  1.00  0.00     0.010 A 
ATOM     13  C   UNL A   1      45.362  22.695  26.547  1.00  0.00     0.010 A 
ATOM     14  C   UNL A   1      45.070  23.759  25.690  1.00  0.00    -0.014 A 
BRANCH  14  15
ATOM     15  C   UNL A   1      45.354  25.163  26.025  1.00  0.00     0.031 A 
ATOM     16  C   UNL A   1      44.268  25.955  26.679  1.00  0.00     0.074 A 
ATOM     17  C   UNL A   1      46.614  25.620  25.930  1.00  0.00     0.049 A 
ATOM     18  N   UNL A   1      44.284  27.184  27.117  1.00  0.00    -0.248 NA
ATOM     19  C   UNL A   1      42.988  25.255  26.894  1.00  0.00     0.031 C 
ATOM     20  C   UNL A   1      47.757  24.840  25.447  1.00  0.00     0.029 A 
ATOM     21  N   UNL A   1      47.157  26.824  26.285  1.00  0.00    -0.354 N 
ATOM     22  C   UNL A   1      43.016  27.412  27.631  1.00  0.00     0.074 A 
ATOM     23  C   UNL A   1      42.252  26.198  27.457  1.00  0.00     0.031 C 
ATOM     24  C   UNL A   1      48.872  25.577  25.571  1.00  0.00     0.029 A 
ATOM     25  C   UNL A   1      48.512  26.895  26.080  1.00  0.00     0.049 A 
ATOM     26  H   UNL A   1      46.626  27.567  26.654  1.00  0.00     0.167 HD
ATOM     27  C   UNL A   1      42.538  28.549  28.187  1.00  0.00     0.037 A 
ATOM     28  C   UNL A   1      49.352  27.930  26.265  1.00  0.00     0.037 A 
ATOM     29  C   UNL A   1      43.331  29.736  28.347  1.00  0.00     0.049 A 
ATOM     30  C   UNL A   1      48.770  29.214  26.798  1.00  0.00     0.074 A 
ATOM     31  C   UNL A   1      42.953  30.978  28.818  1.00  0.00     0.029 A 
ATOM     32  N   UNL A   1      44.684  29.817  28.033  1.00  0.00    -0.354 N 
ATOM     33  N   UNL A   1      47.546  29.463  27.202  1.00  0.00    -0.248 NA
ATOM     34  C   UNL A   1      49.677  30.363  26.883  1.00  0.00     0.031 C 
ATOM     35  C   UNL A   1      44.067  31.822  28.746  1.00  0.00     0.029 A 
ATOM     36  C   UNL A   1      45.153  31.093  28.283  1.00  0.00     0.049 A 
ATOM     37  H   UNL A   1      45.227  29.073  27.683  1.00  0.00     0.167 HD
ATOM     38  C   UNL A   1      47.538  30.787  27.610  1.00  0.00     0.074 A 
ATOM     39  C   UNL A   1      48.889  31.283  27.421  1.00  0.00     0.031 C 
ATOM     40  C   UNL A   1      46.513  31.533  28.092  1.00  0.00     0.037 A 
BRANCH  27  41
ATOM     41  C   UNL A   1      41.085  28.565  28.556  1.00  0.00     0.064 A 
ATOM     42  C   UNL A   1      40.086  28.962  27.655  1.00  0.00     0.173 A 
ATOM     43  C   UNL A   1      40.695  28.232  29.863  1.00  0.00     0.173 A 
ATOM     44  F   UNL A   1      40.409  29.323  26.404  1.00  0.00    -0.203 F 
ATOM     45  C   UNL A   1      38.755  29.058  28.059  1.00  0.00     0.198 A 
ATOM     46  C   UNL A   1      39.361  28.304  30.255  1.00  0.00     0.198 A 
ATOM     47  F   UNL A   1      41.612  27.858  30.767  1.00  0.00    -0.203 F 
ATOM     48  F   UNL A   1      37.826  29.506  27.202  1.00  0.00    -0.200 F 
ATOM     49  C   UNL A   1      38.394  28.728  29.357  1.00  0.00     0.200 A 
ATOM     50  F   UNL A   1      39.016  27.984  31.509  1.00  0.00    -0.200 F 
ATOM     51  F   UNL A   1      37.116  28.835  29.748  1.00  0.00    -0.200 F 
ENDBRANCH  27  41
BRANCH  28  52
ATOM     52  C   UNL A   1      50.793  27.810  25.912  1.00  0.00     0.064 A 
ATOM     53  C   UNL A   1      51.767  27.560  26.889  1.00  0.00     0.173 A 
ATOM     54  C   UNL A   1      51.230  27.963  24.587  1.00  0.00     0.173 A 
ATOM     55  F   UNL A   1      51.410  27.430  28.174  1.00  0.00    -0.203 F 
ATOM     56  C   UNL A   1      53.120  27.486  26.556  1.00  0.00     0.198 A 
ATOM     57  C   UNL A   1      52.578  27.857  24.250  1.00  0.00     0.198 A 
ATOM     58  F   UNL A   1      50.344  28.211  23.610  1.00  0.00    -0.203 F 
ATOM     59  F   UNL A   1      54.035  27.298  27.517  1.00  0.00    -0.200 F 
ATOM     60  C   UNL A   1      53.524  27.628  25.237  1.00  0.00     0.200 A 
ATOM     61  F   UNL A   1      52.959  27.982  22.972  1.00  0.00    -0.200 F 
ATOM     62  F   UNL A   1      54.823  27.557  24.918  1.00  0.00    -0.200 F 
ENDBRANCH  28  52
BRANCH  40  63
ATOM     63  C   UNL A   1      46.834  32.944  28.483  1.00  0.00     0.064 A 
ATOM     64  C   UNL A   1      46.705  34.006  27.578  1.00  0.00     0.173 A 
ATOM     65  C   UNL A   1      47.234  33.235  29.795  1.00  0.00     0.173 A 
ATOM     66  F   UNL A   1      46.339  33.772  26.308  1.00  0.00    -0.203 F 
ATOM     67  C   UNL A   1      46.995  35.310  27.965  1.00  0.00     0.198 A 
ATOM     68  C   UNL A   1      47.492  34.543  30.188  1.00  0.00     0.198 A 
ATOM     69  F   UNL A   1      47.362  32.251  30.699  1.00  0.00    -0.203 F 
ATOM     70  F   UNL A   1      46.916  36.306  27.072  1.00  0.00    -0.200 F 
ATOM     71  C   UNL A   1      47.381  35.578  29.271  1.00  0.00     0.200 A 
ATOM     72  F   UNL A   1      47.850  34.803  31.453  1.00  0.00    -0.200 F 
ATOM     73  F   UNL A   1      47.652  36.836  29.645  1.00  0.00    -0.200 F 
ENDBRANCH  40  63
ENDBRANCH  14  15
ENDBRANCH   7   9
ENDBRANCH   6   7
ENDBRANCH   5   6
ENDBRANCH   4   5
ENDBRANCH   3   4
ENDBRANCH   2   3
ENDBRANCH   1   2
BRANCH   1  74
ATOM     74  O   UNL A   1      39.176  21.999  25.913  1.00  0.00    -0.460 OA
BRANCH  74  75
ATOM     75  C   UNL A   1      38.361  23.073  26.093  1.00  0.00     0.338 C 
ATOM     76  O   UNL A   1      38.633  24.113  26.669  1.00  0.00    -0.246 OA
BRANCH  75  77
ATOM     77  C   UNL A   1      37.110  22.831  25.328  1.00  0.00     0.060 A 
ATOM     78  C   UNL A   1      37.037  23.056  23.955  1.00  0.00     0.016 A 
ATOM     79  C   UNL A   1      35.996  22.329  25.992  1.00  0.00     0.020 A 
ATOM     80  C   UNL A   1      35.844  22.786  23.274  1.00  0.00     0.001 A 
ATOM     81  C   UNL A   1      34.764  22.185  25.362  1.00  0.00    -0.038 A 
ATOM     82  C   UNL A   1      34.705  22.376  23.978  1.00  0.00     0.004 A 
BRANCH  81  83
ATOM     83  C   UNL A   1      33.527  21.948  26.206  1.00  0.00     0.074 C 
ATOM     84  C   UNL A   1      32.465  21.146  25.424  1.00  0.00     0.020 C 
ATOM     85  C   UNL A   1      32.913  23.235  26.794  1.00  0.00     0.270 C 
ATOM     86  C   UNL A   1      31.595  22.001  24.498  1.00  0.00     0.062 C 
ATOM     87  N   UNL A   1      32.124  24.055  25.858  1.00  0.00    -0.331 N 
ATOM     88  C   UNL A   1      31.080  23.273  25.177  1.00  0.00     0.262 C 
ATOM     89  H   UNL A   1      32.773  24.368  25.136  1.00  0.00     0.348 HD
BRANCH  87  90
ATOM     90  C   UNL A   1      31.585  25.290  26.486  1.00  0.00     0.299 C 
BRANCH  90  91
ATOM     91  C   UNL A   1      32.097  26.591  25.889  1.00  0.00     0.010 A 
ATOM     92  C   UNL A   1      33.418  26.708  25.440  1.00  0.00     0.010 A 
ATOM     93  C   UNL A   1      31.201  27.642  25.639  1.00  0.00     0.056 A 
ATOM     94  C   UNL A   1      33.801  27.815  24.683  1.00  0.00     0.004 A 
ATOM     95  C   UNL A   1      31.537  28.678  24.775  1.00  0.00     0.119 A 
ATOM     96  C   UNL A   1      32.854  28.779  24.326  1.00  0.00     0.046 A 
BRANCH  95  97
ATOM     97  O   UNL A   1      30.663  29.598  24.261  1.00  0.00    -0.491 OA
BRANCH  97  98
ATOM     98  C   UNL A   1      29.604  29.139  23.407  1.00  0.00     0.257 C 
BRANCH  98  99
ATOM     99  C   UNL A   1      29.703  29.707  21.986  1.00  0.00     0.197 C 
BRANCH  99 100
ATOM    100  O   UNL A   1      31.027  30.080  21.628  1.00  0.00    -0.393 OA
ATOM    101  H   UNL A   1      31.393  29.424  21.014  1.00  0.00     0.210 HD
ENDBRANCH  99 100
ENDBRANCH  98  99
ENDBRANCH  97  98
ENDBRANCH  95  97
ENDBRANCH  90  91
ENDBRANCH  87  90
ENDBRANCH  81  83
ENDBRANCH  75  77
ENDBRANCH  74  75
ENDBRANCH   1  74
TORSDOF 21
ENDMDL
MODEL 3
REMARK VINA RESULT:     -11.2      3.584      9.426
REMARK SMILES O=C(OCCOCCOC(=O)c1cccc([C@@H]2CCC[N@@H+](Cc3cccc(OCCO)c3)C2)c1)c1ccc(-c2c3nc(c(-c4c(F)c(F)c(F)c(F)c4F)c4ccc([nH]4)c(-c4c(F)c(F)c(F)c(F)c4F)c4nc(c(-c5c(F)c(F)c(F)c(F)c5F)c5ccc2[nH]5)C=C4)C=C3)cc1
REMARK SMILES IDX 8 1 7 2 6 3 5 4 4 5 3 6 2 7 1 8 35 9 36 10 97 11 37 12 96 13
REMARK SMILES IDX 38 14 39 15 40 16 90 17 41 18 95 19 89 20 91 21 42 22 94 23
REMARK SMILES IDX 88 24 87 25 43 27 75 28 55 29 74 30 56 31 59 32 73 33 92 34
REMARK SMILES IDX 57 35 58 36 72 38 93 39 60 40 44 41 45 42 53 43 46 44 47 45
REMARK SMILES IDX 51 46 54 47 48 48 49 49 52 50 50 51 76 52 77 53 85 54 78 55
REMARK SMILES IDX 79 56 83 57 86 58 80 59 81 60 84 61 82 62 61 63 62 64 70 65
REMARK SMILES IDX 63 66 64 67 68 68 71 69 65 70 66 71 69 72 67 73 9 74 10 75
REMARK SMILES IDX 11 76 12 77 13 78 34 79 14 80 16 81 15 82 17 83 18 84 33 85
REMARK SMILES IDX 19 86 21 87 20 88 22 90 23 91 24 92 32 93 25 94 27 95 26 96
REMARK SMILES IDX 28 97 29 98 30 99 31 100
REMARK H PARENT 91 26 59 37 21 89 31 101
REMARK Flexibility Score: inf
ROOT
ATOM      1  C   UNL A   1      33.602  22.430  27.966  1.00  0.00     0.261 C 
ENDROOT
BRANCH   1   2
ATOM      2  C   UNL A   1      34.442  21.602  26.988  1.00  0.00     0.202 C 
BRANCH   2   3
ATOM      3  O   UNL A   1      35.471  22.439  26.462  1.00  0.00    -0.374 OA
BRANCH   3   4
ATOM      4  C   UNL A   1      36.016  22.079  25.195  1.00  0.00     0.202 C 
BRANCH   4   5
ATOM      5  C   UNL A   1      37.095  21.006  25.315  1.00  0.00     0.261 C 
BRANCH   5   6
ATOM      6  O   UNL A   1      38.397  21.607  25.237  1.00  0.00    -0.460 OA
BRANCH   6   7
ATOM      7  C   UNL A   1      39.327  21.723  26.213  1.00  0.00     0.338 C 
ATOM      8  O   UNL A   1      39.798  20.692  26.695  1.00  0.00    -0.246 OA
BRANCH   7   9
ATOM      9  C   UNL A   1      39.865  23.025  26.718  1.00  0.00     0.060 A 
ATOM     10  C   UNL A   1      39.457  24.292  26.299  1.00  0.00     0.016 A 
ATOM     11  C   UNL A   1      40.809  22.957  27.760  1.00  0.00     0.016 A 
ATOM     12  C   UNL A   1      39.976  25.448  26.854  1.00  0.00     0.010 A 
ATOM     13  C   UNL A   1      41.333  24.118  28.339  1.00  0.00     0.010 A 
ATOM     14  C   UNL A   1      40.925  25.367  27.867  1.00  0.00    -0.014 A 
BRANCH  14  15
ATOM     15  C   UNL A   1      41.568  26.628  28.267  1.00  0.00     0.031 A 
ATOM     16  C   UNL A   1      42.944  26.902  27.748  1.00  0.00     0.074 A 
ATOM     17  C   UNL A   1      40.841  27.568  28.896  1.00  0.00     0.049 A 
ATOM     18  N   UNL A   1      43.698  27.954  27.909  1.00  0.00    -0.248 NA
ATOM     19  C   UNL A   1      43.544  25.852  26.906  1.00  0.00     0.031 C 
ATOM     20  C   UNL A   1      39.437  27.420  29.289  1.00  0.00     0.029 A 
ATOM     21  N   UNL A   1      41.159  28.846  29.263  1.00  0.00    -0.354 N 
ATOM     22  C   UNL A   1      44.869  27.682  27.216  1.00  0.00     0.074 A 
ATOM     23  C   UNL A   1      44.729  26.370  26.628  1.00  0.00     0.031 C 
ATOM     24  C   UNL A   1      39.006  28.579  29.810  1.00  0.00     0.029 A 
ATOM     25  C   UNL A   1      40.117  29.523  29.846  1.00  0.00     0.049 A 
ATOM     26  H   UNL A   1      42.049  29.242  29.122  1.00  0.00     0.167 HD
ATOM     27  C   UNL A   1      45.965  28.464  27.100  1.00  0.00     0.037 A 
ATOM     28  C   UNL A   1      40.089  30.763  30.368  1.00  0.00     0.037 A 
ATOM     29  C   UNL A   1      46.065  29.768  27.697  1.00  0.00     0.049 A 
ATOM     30  C   UNL A   1      41.356  31.575  30.306  1.00  0.00     0.074 A 
ATOM     31  C   UNL A   1      47.142  30.631  27.725  1.00  0.00     0.029 A 
ATOM     32  N   UNL A   1      45.025  30.394  28.376  1.00  0.00    -0.354 N 
ATOM     33  N   UNL A   1      42.498  31.285  29.728  1.00  0.00    -0.248 NA
ATOM     34  C   UNL A   1      41.338  32.877  30.982  1.00  0.00     0.031 C 
ATOM     35  C   UNL A   1      46.767  31.761  28.462  1.00  0.00     0.029 A 
ATOM     36  C   UNL A   1      45.440  31.627  28.844  1.00  0.00     0.049 A 
ATOM     37  H   UNL A   1      44.125  30.014  28.504  1.00  0.00     0.167 HD
ATOM     38  C   UNL A   1      43.329  32.371  29.950  1.00  0.00     0.074 A 
ATOM     39  C   UNL A   1      42.548  33.338  30.701  1.00  0.00     0.031 C 
ATOM     40  C   UNL A   1      44.619  32.559  29.576  1.00  0.00     0.037 A 
BRANCH  27  41
ATOM     41  C   UNL A   1      47.146  27.876  26.387  1.00  0.00     0.064 A 
ATOM     42  C   UNL A   1      47.294  27.946  24.994  1.00  0.00     0.173 A 
ATOM     43  C   UNL A   1      48.121  27.175  27.115  1.00  0.00     0.173 A 
ATOM     44  F   UNL A   1      46.373  28.575  24.248  1.00  0.00    -0.203 F 
ATOM     45  C   UNL A   1      48.353  27.305  24.353  1.00  0.00     0.198 A 
ATOM     46  C   UNL A   1      49.192  26.559  26.474  1.00  0.00     0.198 A 
ATOM     47  F   UNL A   1      48.021  27.067  28.448  1.00  0.00    -0.203 F 
ATOM     48  F   UNL A   1      48.437  27.326  23.015  1.00  0.00    -0.200 F 
ATOM     49  C   UNL A   1      49.302  26.615  25.094  1.00  0.00     0.200 A 
ATOM     50  F   UNL A   1      50.106  25.893  27.192  1.00  0.00    -0.200 F 
ATOM     51  F   UNL A   1      50.312  25.988  24.474  1.00  0.00    -0.200 F 
ENDBRANCH  27  41
BRANCH  28  52
ATOM     52  C   UNL A   1      38.855  31.283  31.018  1.00  0.00     0.064 A 
ATOM     53  C   UNL A   1      37.925  32.056  30.309  1.00  0.00     0.173 A 
ATOM     54  C   UNL A   1      38.589  31.033  32.373  1.00  0.00     0.173 A 
ATOM     55  F   UNL A   1      38.139  32.347  29.018  1.00  0.00    -0.203 F 
ATOM     56  C   UNL A   1      36.789  32.572  30.935  1.00  0.00     0.198 A 
ATOM     57  C   UNL A   1      37.438  31.522  32.990  1.00  0.00     0.198 A 
ATOM     58  F   UNL A   1      39.447  30.306  33.105  1.00  0.00    -0.203 F 
ATOM     59  F   UNL A   1      35.943  33.351  30.246  1.00  0.00    -0.200 F 
ATOM     60  C   UNL A   1      36.544  32.300  32.272  1.00  0.00     0.200 A 
ATOM     61  F   UNL A   1      37.201  31.244  34.279  1.00  0.00    -0.200 F 
ATOM     62  F   UNL A   1      35.453  32.795  32.872  1.00  0.00    -0.200 F 
ENDBRANCH  28  52
BRANCH  40  63
ATOM     63  C   UNL A   1      45.240  33.874  29.940  1.00  0.00     0.064 A 
ATOM     64  C   UNL A   1      45.930  34.052  31.147  1.00  0.00     0.173 A 
ATOM     65  C   UNL A   1      45.176  34.953  29.047  1.00  0.00     0.173 A 
ATOM     66  F   UNL A   1      46.004  33.051  32.038  1.00  0.00    -0.203 F 
ATOM     67  C   UNL A   1      46.511  35.276  31.460  1.00  0.00     0.198 A 
ATOM     68  C   UNL A   1      45.785  36.165  29.349  1.00  0.00     0.198 A 
ATOM     69  F   UNL A   1      44.533  34.826  27.876  1.00  0.00    -0.203 F 
ATOM     70  F   UNL A   1      47.123  35.443  32.641  1.00  0.00    -0.200 F 
ATOM     71  C   UNL A   1      46.444  36.329  30.558  1.00  0.00     0.200 A 
ATOM     72  F   UNL A   1      45.733  37.176  28.471  1.00  0.00    -0.200 F 
ATOM     73  F   UNL A   1      47.012  37.505  30.858  1.00  0.00    -0.200 F 
ENDBRANCH  40  63
ENDBRANCH  14  15
ENDBRANCH   7   9
ENDBRANCH   6   7
ENDBRANCH   5   6
ENDBRANCH   4   5
ENDBRANCH   3   4
ENDBRANCH   2   3
ENDBRANCH   1   2
BRANCH   1  74
ATOM     74  O   UNL A   1      33.088  23.571  27.271  1.00  0.00    -0.460 OA
BRANCH  74  75
ATOM     75  C   UNL A   1      31.827  23.459  26.773  1.00  0.00     0.338 C 
ATOM     76  O   UNL A   1      30.809  23.211  27.397  1.00  0.00    -0.246 OA
BRANCH  75  77
ATOM     77  C   UNL A   1      31.866  23.846  25.338  1.00  0.00     0.060 A 
ATOM     78  C   UNL A   1      32.505  23.055  24.384  1.00  0.00     0.016 A 
ATOM     79  C   UNL A   1      31.216  25.005  24.930  1.00  0.00     0.020 A 
ATOM     80  C   UNL A   1      32.490  23.446  23.041  1.00  0.00     0.001 A 
ATOM     81  C   UNL A   1      31.307  25.483  23.626  1.00  0.00    -0.038 A 
ATOM     82  C   UNL A   1      31.915  24.668  22.667  1.00  0.00     0.004 A 
BRANCH  81  83
ATOM     83  C   UNL A   1      30.857  26.899  23.327  1.00  0.00     0.074 C 
ATOM     84  C   UNL A   1      31.798  27.578  22.309  1.00  0.00     0.020 C 
ATOM     85  C   UNL A   1      30.684  27.781  24.580  1.00  0.00     0.270 C 
ATOM     86  C   UNL A   1      33.062  28.176  22.932  1.00  0.00     0.062 C 
ATOM     87  N   UNL A   1      31.928  28.297  25.178  1.00  0.00    -0.331 N 
ATOM     88  C   UNL A   1      32.771  28.993  24.194  1.00  0.00     0.262 C 
ATOM     89  H   UNL A   1      32.455  27.481  25.490  1.00  0.00     0.348 HD
BRANCH  87  90
ATOM     90  C   UNL A   1      31.687  29.115  26.396  1.00  0.00     0.299 C 
BRANCH  90  91
ATOM     91  C   UNL A   1      32.940  29.651  27.070  1.00  0.00     0.010 A 
ATOM     92  C   UNL A   1      34.102  28.874  27.154  1.00  0.00     0.010 A 
ATOM     93  C   UNL A   1      32.991  30.993  27.476  1.00  0.00     0.056 A 
ATOM     94  C   UNL A   1      35.303  29.459  27.555  1.00  0.00     0.004 A 
ATOM     95  C   UNL A   1      34.207  31.613  27.745  1.00  0.00     0.119 A 
ATOM     96  C   UNL A   1      35.359  30.830  27.817  1.00  0.00     0.046 A 
BRANCH  95  97
ATOM     97  O   UNL A   1      34.395  32.961  27.891  1.00  0.00    -0.491 OA
BRANCH  97  98
ATOM     98  C   UNL A   1      33.243  33.819  27.905  1.00  0.00     0.257 C 
BRANCH  98  99
ATOM     99  C   UNL A   1      33.415  35.024  28.837  1.00  0.00     0.197 C 
BRANCH  99 100
ATOM    100  O   UNL A   1      32.444  36.039  28.617  1.00  0.00    -0.393 OA
ATOM    101  H   UNL A   1      32.832  36.746  28.077  1.00  0.00     0.210 HD
ENDBRANCH  99 100
ENDBRANCH  98  99
ENDBRANCH  97  98
ENDBRANCH  95  97
ENDBRANCH  90  91
ENDBRANCH  87  90
ENDBRANCH  81  83
ENDBRANCH  75  77
ENDBRANCH  74  75
ENDBRANCH   1  74
TORSDOF 21
ENDMDL
