MODEL 1
REMARK VINA RESULT:     -12.0      0.000      0.000
REMARK SMILES CN(C)C(=O)c1cccc(N2CCC3(CC2)[C@H](C(=O)OCCOCCOC(=O)c2ccc(-c4c5nc(c(-c6c(F)c(F)c(F)c(F)c6F)c6ccc([nH]6)c(-c6c(F)c(F)c(F)c(F)c6F)c6nc(c(-c7c(F)c(F)c(F)c(F)c7F)c7ccc4[nH]7)C=C6)C=C5)cc2)CC(=O)N3C)n1
REMARK SMILES IDX 23 1 22 2 21 3 20 4 18 5 19 6 17 7 11 8 12 9 16 10 13 11
REMARK SMILES IDX 15 12 14 13 95 14 92 15 93 16 96 17 94 18 10 19 6 20 7 21
REMARK SMILES IDX 97 22 8 23 9 24 4 25 1 26 2 27 3 28 5 29 24 30 25 31 26 32
REMARK SMILES IDX 27 33 28 34 29 35 30 36 91 37 31 38 90 39 32 40 33 41 34 42
REMARK SMILES IDX 84 43 35 44 89 45 83 46 85 47 36 48 88 49 82 50 81 51 37 53
REMARK SMILES IDX 69 54 49 55 68 56 50 57 53 58 67 59 86 60 51 61 52 62 66 64
REMARK SMILES IDX 87 65 54 66 38 67 39 68 47 69 40 70 41 71 45 72 48 73 42 74
REMARK SMILES IDX 43 75 46 76 44 77 70 78 71 79 79 80 72 81 73 82 77 83 80 84
REMARK SMILES IDX 74 85 75 86 78 87 76 88 55 89 56 90 64 91 57 92 58 93 62 94
REMARK SMILES IDX 65 95 59 96 60 97 63 98 61 99
REMARK H PARENT 85 52 53 63
REMARK Flexibility Score: inf
ROOT
ATOM      1  O   UNL A   1      31.026  28.583  25.361  1.00  0.00    -0.374 OA
ENDROOT
BRANCH   1   2
ATOM      2  C   UNL A   1      31.199  27.534  24.413  1.00  0.00     0.202 C 
BRANCH   2   3
ATOM      3  C   UNL A   1      32.632  27.080  24.131  1.00  0.00     0.261 C 
BRANCH   3   4
ATOM      4  O   UNL A   1      32.691  25.708  23.686  1.00  0.00    -0.463 OA
BRANCH   4   5
ATOM      5  C   UNL A   1      33.637  25.449  22.755  1.00  0.00     0.311 C 
ATOM      6  O   UNL A   1      34.166  26.302  22.049  1.00  0.00    -0.252 OA
BRANCH   5   7
ATOM      7  C   UNL A   1      33.946  23.982  22.572  1.00  0.00     0.134 C 
ATOM      8  N   UNL A   1      36.978  23.100  25.389  1.00  0.00    -0.356 N 
ATOM      9  C   UNL A   1      35.693  23.072  26.074  1.00  0.00     0.120 C 
ATOM     10  C   UNL A   1      37.036  22.255  24.202  1.00  0.00     0.120 C 
ATOM     11  C   UNL A   1      34.626  23.666  25.127  1.00  0.00     0.051 C 
ATOM     12  C   UNL A   1      36.051  22.800  23.179  1.00  0.00     0.051 C 
ATOM     13  C   UNL A   1      34.605  23.084  23.687  1.00  0.00     0.060 C 
ATOM     14  N   UNL A   1      33.743  21.883  23.637  1.00  0.00    -0.339 N 
ATOM     15  C   UNL A   1      32.693  23.280  22.067  1.00  0.00     0.118 C 
ATOM     16  C   UNL A   1      32.589  22.041  22.884  1.00  0.00     0.223 C 
ATOM     17  C   UNL A   1      33.845  20.742  24.524  1.00  0.00     0.147 C 
ATOM     18  O   UNL A   1      31.633  21.282  22.854  1.00  0.00    -0.275 OA
BRANCH   8  19
ATOM     19  C   UNL A   1      38.157  23.216  26.125  1.00  0.00     0.129 A 
ATOM     20  C   UNL A   1      40.139  22.362  27.000  1.00  0.00     0.130 A 
ATOM     21  C   UNL A   1      40.527  23.596  27.511  1.00  0.00     0.034 A 
ATOM     22  N   UNL A   1      38.967  22.154  26.322  1.00  0.00    -0.226 NA
ATOM     23  C   UNL A   1      39.657  24.661  27.374  1.00  0.00     0.006 A 
ATOM     24  C   UNL A   1      38.472  24.466  26.675  1.00  0.00     0.047 A 
BRANCH  20  25
ATOM     25  C   UNL A   1      41.108  21.215  27.064  1.00  0.00     0.272 C 
ATOM     26  C   UNL A   1      42.897  19.882  26.069  1.00  0.00     0.146 C 
ATOM     27  N   UNL A   1      42.166  21.137  26.140  1.00  0.00    -0.343 N 
ATOM     28  C   UNL A   1      42.635  22.229  25.298  1.00  0.00     0.146 C 
ATOM     29  O   UNL A   1      40.911  20.324  27.892  1.00  0.00    -0.267 OA
ENDBRANCH  20  25
ENDBRANCH   8  19
ENDBRANCH   5   7
ENDBRANCH   4   5
ENDBRANCH   3   4
ENDBRANCH   2   3
ENDBRANCH   1   2
BRANCH   1  30
ATOM     30  C   UNL A   1      31.902  29.706  25.285  1.00  0.00     0.202 C 
BRANCH  30  31
ATOM     31  C   UNL A   1      32.344  30.328  26.620  1.00  0.00     0.261 C 
BRANCH  31  32
ATOM     32  O   UNL A   1      33.775  30.470  26.718  1.00  0.00    -0.460 OA
BRANCH  32  33
ATOM     33  C   UNL A   1      34.204  31.390  27.613  1.00  0.00     0.338 C 
ATOM     34  O   UNL A   1      33.540  32.277  28.132  1.00  0.00    -0.246 OA
BRANCH  33  35
ATOM     35  C   UNL A   1      35.570  31.063  28.072  1.00  0.00     0.060 A 
ATOM     36  C   UNL A   1      35.835  29.722  28.377  1.00  0.00     0.016 A 
ATOM     37  C   UNL A   1      36.554  32.035  28.271  1.00  0.00     0.016 A 
ATOM     38  C   UNL A   1      37.051  29.357  28.952  1.00  0.00     0.010 A 
ATOM     39  C   UNL A   1      37.781  31.665  28.845  1.00  0.00     0.010 A 
ATOM     40  C   UNL A   1      38.016  30.332  29.236  1.00  0.00    -0.014 A 
BRANCH  40  41
ATOM     41  C   UNL A   1      39.173  29.971  30.101  1.00  0.00     0.031 A 
ATOM     42  C   UNL A   1      39.227  30.505  31.511  1.00  0.00     0.074 A 
ATOM     43  C   UNL A   1      40.126  29.122  29.678  1.00  0.00     0.049 A 
ATOM     44  N   UNL A   1      40.124  30.305  32.444  1.00  0.00    -0.248 NA
ATOM     45  C   UNL A   1      38.117  31.378  31.924  1.00  0.00     0.031 C 
ATOM     46  C   UNL A   1      40.173  28.493  28.360  1.00  0.00     0.029 A 
ATOM     47  N   UNL A   1      41.238  28.634  30.322  1.00  0.00    -0.354 N 
ATOM     48  C   UNL A   1      39.692  31.031  33.547  1.00  0.00     0.074 A 
ATOM     49  C   UNL A   1      38.473  31.705  33.157  1.00  0.00     0.031 C 
ATOM     50  C   UNL A   1      41.258  27.704  28.291  1.00  0.00     0.029 A 
ATOM     51  C   UNL A   1      42.003  27.798  29.546  1.00  0.00     0.049 A 
ATOM     52  H   UNL A   1      41.467  28.865  31.251  1.00  0.00     0.167 HD
ATOM     53  C   UNL A   1      40.249  31.118  34.779  1.00  0.00     0.037 A 
ATOM     54  C   UNL A   1      43.178  27.191  29.811  1.00  0.00     0.037 A 
ATOM     55  C   UNL A   1      41.458  30.444  35.176  1.00  0.00     0.049 A 
ATOM     56  C   UNL A   1      43.821  27.371  31.164  1.00  0.00     0.074 A 
ATOM     57  C   UNL A   1      42.085  30.456  36.411  1.00  0.00     0.029 A 
ATOM     58  N   UNL A   1      42.229  29.646  34.344  1.00  0.00    -0.354 N 
ATOM     59  N   UNL A   1      43.388  28.033  32.209  1.00  0.00    -0.248 NA
ATOM     60  C   UNL A   1      45.119  26.710  31.374  1.00  0.00     0.031 C 
ATOM     61  C   UNL A   1      43.269  29.718  36.308  1.00  0.00     0.029 A 
ATOM     62  C   UNL A   1      43.344  29.188  35.031  1.00  0.00     0.049 A 
ATOM     63  H   UNL A   1      42.016  29.436  33.406  1.00  0.00     0.167 HD
ATOM     64  C   UNL A   1      44.339  27.842  33.206  1.00  0.00     0.074 A 
ATOM     65  C   UNL A   1      45.365  26.989  32.646  1.00  0.00     0.031 C 
ATOM     66  C   UNL A   1      44.357  28.330  34.471  1.00  0.00     0.037 A 
BRANCH  53  67
ATOM     67  C   UNL A   1      39.570  31.999  35.790  1.00  0.00     0.064 A 
ATOM     68  C   UNL A   1      38.576  31.510  36.649  1.00  0.00     0.173 A 
ATOM     69  C   UNL A   1      39.952  33.342  35.927  1.00  0.00     0.173 A 
ATOM     70  F   UNL A   1      38.165  30.236  36.552  1.00  0.00    -0.203 F 
ATOM     71  C   UNL A   1      37.972  32.339  37.591  1.00  0.00     0.198 A 
ATOM     72  C   UNL A   1      39.370  34.159  36.891  1.00  0.00     0.198 A 
ATOM     73  F   UNL A   1      40.904  33.860  35.135  1.00  0.00    -0.203 F 
ATOM     74  F   UNL A   1      36.989  31.863  38.369  1.00  0.00    -0.200 F 
ATOM     75  C   UNL A   1      38.375  33.660  37.718  1.00  0.00     0.200 A 
ATOM     76  F   UNL A   1      39.773  35.431  37.024  1.00  0.00    -0.200 F 
ATOM     77  F   UNL A   1      37.799  34.453  38.632  1.00  0.00    -0.200 F 
ENDBRANCH  53  67
BRANCH  54  78
ATOM     78  C   UNL A   1      43.842  26.366  28.767  1.00  0.00     0.064 A 
ATOM     79  C   UNL A   1      44.519  26.960  27.691  1.00  0.00     0.173 A 
ATOM     80  C   UNL A   1      43.783  24.964  28.804  1.00  0.00     0.173 A 
ATOM     81  F   UNL A   1      44.579  28.295  27.594  1.00  0.00    -0.203 F 
ATOM     82  C   UNL A   1      45.090  26.184  26.684  1.00  0.00     0.198 A 
ATOM     83  C   UNL A   1      44.383  24.190  27.814  1.00  0.00     0.198 A 
ATOM     84  F   UNL A   1      43.143  24.346  29.808  1.00  0.00    -0.203 F 
ATOM     85  F   UNL A   1      45.680  26.779  25.638  1.00  0.00    -0.200 F 
ATOM     86  C   UNL A   1      45.027  24.800  26.749  1.00  0.00     0.200 A 
ATOM     87  F   UNL A   1      44.329  22.853  27.887  1.00  0.00    -0.200 F 
ATOM     88  F   UNL A   1      45.576  24.056  25.780  1.00  0.00    -0.200 F 
ENDBRANCH  54  78
BRANCH  66  89
ATOM     89  C   UNL A   1      45.499  27.920  35.361  1.00  0.00     0.064 A 
ATOM     90  C   UNL A   1      45.434  26.778  36.172  1.00  0.00     0.173 A 
ATOM     91  C   UNL A   1      46.692  28.660  35.368  1.00  0.00     0.173 A 
ATOM     92  F   UNL A   1      44.314  26.041  36.213  1.00  0.00    -0.203 F 
ATOM     93  C   UNL A   1      46.510  26.408  36.977  1.00  0.00     0.198 A 
ATOM     94  C   UNL A   1      47.778  28.267  36.147  1.00  0.00     0.198 A 
ATOM     95  F   UNL A   1      46.815  29.757  34.605  1.00  0.00    -0.203 F 
ATOM     96  F   UNL A   1      46.405  25.341  37.783  1.00  0.00    -0.200 F 
ATOM     97  C   UNL A   1      47.682  27.147  36.957  1.00  0.00     0.200 A 
ATOM     98  F   UNL A   1      48.917  28.974  36.113  1.00  0.00    -0.200 F 
ATOM     99  F   UNL A   1      48.719  26.785  37.726  1.00  0.00    -0.200 F 
ENDBRANCH  66  89
ENDBRANCH  40  41
ENDBRANCH  33  35
ENDBRANCH  32  33
ENDBRANCH  31  32
ENDBRANCH  30  31
ENDBRANCH   1  30
TORSDOF 16
ENDMDL
MODEL 2
REMARK VINA RESULT:     -11.9      0.577      7.089
REMARK SMILES CN(C)C(=O)c1cccc(N2CCC3(CC2)[C@H](C(=O)OCCOCCOC(=O)c2ccc(-c4c5nc(c(-c6c(F)c(F)c(F)c(F)c6F)c6ccc([nH]6)c(-c6c(F)c(F)c(F)c(F)c6F)c6nc(c(-c7c(F)c(F)c(F)c(F)c7F)c7ccc4[nH]7)C=C6)C=C5)cc2)CC(=O)N3C)n1
REMARK SMILES IDX 23 1 22 2 21 3 20 4 18 5 19 6 17 7 11 8 12 9 16 10 13 11
REMARK SMILES IDX 15 12 14 13 95 14 92 15 93 16 96 17 94 18 10 19 6 20 7 21
REMARK SMILES IDX 97 22 8 23 9 24 4 25 1 26 2 27 3 28 5 29 24 30 25 31 26 32
REMARK SMILES IDX 27 33 28 34 29 35 30 36 91 37 31 38 90 39 32 40 33 41 34 42
REMARK SMILES IDX 84 43 35 44 89 45 83 46 85 47 36 48 88 49 82 50 81 51 37 53
REMARK SMILES IDX 69 54 49 55 68 56 50 57 53 58 67 59 86 60 51 61 52 62 66 64
REMARK SMILES IDX 87 65 54 66 38 67 39 68 47 69 40 70 41 71 45 72 48 73 42 74
REMARK SMILES IDX 43 75 46 76 44 77 70 78 71 79 79 80 72 81 73 82 77 83 80 84
REMARK SMILES IDX 74 85 75 86 78 87 76 88 55 89 56 90 64 91 57 92 58 93 62 94
REMARK SMILES IDX 65 95 59 96 60 97 63 98 61 99
REMARK H PARENT 85 52 53 63
REMARK Flexibility Score: inf
ROOT
ATOM      1  O   UNL A   1      31.221  27.296  26.912  1.00  0.00    -0.374 OA
ENDROOT
BRANCH   1   2
ATOM      2  C   UNL A   1      30.998  26.986  25.539  1.00  0.00     0.202 C 
BRANCH   2   3
ATOM      3  C   UNL A   1      32.227  26.918  24.631  1.00  0.00     0.261 C 
BRANCH   3   4
ATOM      4  O   UNL A   1      32.362  25.631  23.994  1.00  0.00    -0.463 OA
BRANCH   4   5
ATOM      5  C   UNL A   1      33.430  25.508  23.174  1.00  0.00     0.311 C 
ATOM      6  O   UNL A   1      34.025  26.453  22.665  1.00  0.00    -0.252 OA
BRANCH   5   7
ATOM      7  C   UNL A   1      33.799  24.082  22.841  1.00  0.00     0.134 C 
ATOM      8  N   UNL A   1      36.975  23.094  25.457  1.00  0.00    -0.356 N 
ATOM      9  C   UNL A   1      35.721  22.937  26.179  1.00  0.00     0.120 C 
ATOM     10  C   UNL A   1      37.028  22.368  24.194  1.00  0.00     0.120 C 
ATOM     11  C   UNL A   1      34.592  23.562  25.330  1.00  0.00     0.051 C 
ATOM     12  C   UNL A   1      35.980  22.955  23.261  1.00  0.00     0.051 C 
ATOM     13  C   UNL A   1      34.543  23.118  23.842  1.00  0.00     0.060 C 
ATOM     14  N   UNL A   1      33.736  21.885  23.707  1.00  0.00    -0.339 N 
ATOM     15  C   UNL A   1      32.563  23.368  22.314  1.00  0.00     0.118 C 
ATOM     16  C   UNL A   1      32.548  22.054  23.013  1.00  0.00     0.223 C 
ATOM     17  C   UNL A   1      33.926  20.673  24.478  1.00  0.00     0.147 C 
ATOM     18  O   UNL A   1      31.628  21.255  22.942  1.00  0.00    -0.275 OA
BRANCH   8  19
ATOM     19  C   UNL A   1      38.175  23.199  26.161  1.00  0.00     0.129 A 
ATOM     20  C   UNL A   1      40.162  22.322  27.000  1.00  0.00     0.130 A 
ATOM     21  C   UNL A   1      40.587  23.557  27.478  1.00  0.00     0.034 A 
ATOM     22  N   UNL A   1      38.969  22.126  26.356  1.00  0.00    -0.226 NA
ATOM     23  C   UNL A   1      39.734  24.637  27.344  1.00  0.00     0.006 A 
ATOM     24  C   UNL A   1      38.528  24.453  26.679  1.00  0.00     0.047 A 
BRANCH  20  25
ATOM     25  C   UNL A   1      41.110  21.157  27.060  1.00  0.00     0.272 C 
ATOM     26  C   UNL A   1      42.872  19.793  26.059  1.00  0.00     0.146 C 
ATOM     27  N   UNL A   1      42.164  21.061  26.133  1.00  0.00    -0.343 N 
ATOM     28  C   UNL A   1      42.650  22.144  25.291  1.00  0.00     0.146 C 
ATOM     29  O   UNL A   1      40.900  20.270  27.889  1.00  0.00    -0.267 OA
ENDBRANCH  20  25
ENDBRANCH   8  19
ENDBRANCH   5   7
ENDBRANCH   4   5
ENDBRANCH   3   4
ENDBRANCH   2   3
ENDBRANCH   1   2
BRANCH   1  30
ATOM     30  C   UNL A   1      32.358  28.090  27.243  1.00  0.00     0.202 C 
BRANCH  30  31
ATOM     31  C   UNL A   1      32.245  29.601  26.981  1.00  0.00     0.261 C 
BRANCH  31  32
ATOM     32  O   UNL A   1      33.492  30.184  26.555  1.00  0.00    -0.460 OA
BRANCH  32  33
ATOM     33  C   UNL A   1      33.925  31.228  27.299  1.00  0.00     0.338 C 
ATOM     34  O   UNL A   1      33.277  32.209  27.640  1.00  0.00    -0.246 OA
BRANCH  33  35
ATOM     35  C   UNL A   1      35.264  30.944  27.855  1.00  0.00     0.060 A 
ATOM     36  C   UNL A   1      35.502  29.638  28.305  1.00  0.00     0.016 A 
ATOM     37  C   UNL A   1      36.247  31.926  28.005  1.00  0.00     0.016 A 
ATOM     38  C   UNL A   1      36.685  29.328  28.973  1.00  0.00     0.010 A 
ATOM     39  C   UNL A   1      37.440  31.610  28.672  1.00  0.00     0.010 A 
ATOM     40  C   UNL A   1      37.644  30.323  29.205  1.00  0.00    -0.014 A 
BRANCH  40  41
ATOM     41  C   UNL A   1      38.754  30.045  30.157  1.00  0.00     0.031 A 
ATOM     42  C   UNL A   1      39.928  29.221  29.692  1.00  0.00     0.074 A 
ATOM     43  C   UNL A   1      38.767  30.577  31.393  1.00  0.00     0.049 A 
ATOM     44  N   UNL A   1      41.012  28.873  30.341  1.00  0.00    -0.248 NA
ATOM     45  C   UNL A   1      39.874  28.725  28.308  1.00  0.00     0.031 C 
ATOM     46  C   UNL A   1      37.724  31.431  31.956  1.00  0.00     0.029 A 
ATOM     47  N   UNL A   1      39.701  30.480  32.397  1.00  0.00    -0.354 N 
ATOM     48  C   UNL A   1      41.761  28.115  29.449  1.00  0.00     0.074 A 
ATOM     49  C   UNL A   1      40.993  28.022  28.226  1.00  0.00     0.031 C 
ATOM     50  C   UNL A   1      38.073  31.780  33.206  1.00  0.00     0.029 A 
ATOM     51  C   UNL A   1      39.347  31.147  33.545  1.00  0.00     0.049 A 
ATOM     52  H   UNL A   1      40.542  29.979  32.304  1.00  0.00     0.167 HD
ATOM     53  C   UNL A   1      42.984  27.559  29.623  1.00  0.00     0.037 A 
ATOM     54  C   UNL A   1      39.970  31.223  34.739  1.00  0.00     0.037 A 
ATOM     55  C   UNL A   1      43.757  27.655  30.834  1.00  0.00     0.049 A 
ATOM     56  C   UNL A   1      41.294  30.525  34.935  1.00  0.00     0.074 A 
ATOM     57  C   UNL A   1      45.017  27.141  31.095  1.00  0.00     0.029 A 
ATOM     58  N   UNL A   1      43.341  28.296  31.991  1.00  0.00    -0.354 N 
ATOM     59  N   UNL A   1      42.006  29.839  34.076  1.00  0.00    -0.248 NA
ATOM     60  C   UNL A   1      41.901  30.619  36.271  1.00  0.00     0.031 C 
ATOM     61  C   UNL A   1      45.334  27.417  32.429  1.00  0.00     0.029 A 
ATOM     62  C   UNL A   1      44.305  28.163  32.978  1.00  0.00     0.049 A 
ATOM     63  H   UNL A   1      42.487  28.776  32.095  1.00  0.00     0.167 HD
ATOM     64  C   UNL A   1      43.156  29.449  34.754  1.00  0.00     0.074 A 
ATOM     65  C   UNL A   1      43.054  29.989  36.093  1.00  0.00     0.031 C 
ATOM     66  C   UNL A   1      44.202  28.712  34.306  1.00  0.00     0.037 A 
BRANCH  53  67
ATOM     67  C   UNL A   1      43.559  26.769  28.482  1.00  0.00     0.064 A 
ATOM     68  C   UNL A   1      44.140  27.392  27.368  1.00  0.00     0.173 A 
ATOM     69  C   UNL A   1      43.565  25.366  28.525  1.00  0.00     0.173 A 
ATOM     70  F   UNL A   1      44.150  28.730  27.270  1.00  0.00    -0.203 F 
ATOM     71  C   UNL A   1      44.684  26.640  26.328  1.00  0.00     0.198 A 
ATOM     72  C   UNL A   1      44.139  24.618  27.501  1.00  0.00     0.198 A 
ATOM     73  F   UNL A   1      43.029  24.719  29.571  1.00  0.00    -0.203 F 
ATOM     74  F   UNL A   1      45.190  27.256  25.251  1.00  0.00    -0.200 F 
ATOM     75  C   UNL A   1      44.690  25.255  26.400  1.00  0.00     0.200 A 
ATOM     76  F   UNL A   1      44.160  23.281  27.580  1.00  0.00    -0.200 F 
ATOM     77  F   UNL A   1      45.223  24.534  25.403  1.00  0.00    -0.200 F 
ENDBRANCH  53  67
BRANCH  54  78
ATOM     78  C   UNL A   1      39.345  31.976  35.859  1.00  0.00     0.064 A 
ATOM     79  C   UNL A   1      38.420  31.366  36.719  1.00  0.00     0.173 A 
ATOM     80  C   UNL A   1      39.632  33.333  36.070  1.00  0.00     0.173 A 
ATOM     81  F   UNL A   1      38.090  30.079  36.542  1.00  0.00    -0.203 F 
ATOM     82  C   UNL A   1      37.792  32.089  37.731  1.00  0.00     0.198 A 
ATOM     83  C   UNL A   1      39.029  34.047  37.103  1.00  0.00     0.198 A 
ATOM     84  F   UNL A   1      40.505  33.967  35.272  1.00  0.00    -0.203 F 
ATOM     85  F   UNL A   1      36.870  31.496  38.502  1.00  0.00    -0.200 F 
ATOM     86  C   UNL A   1      38.101  33.428  37.927  1.00  0.00     0.200 A 
ATOM     87  F   UNL A   1      39.338  35.336  37.294  1.00  0.00    -0.200 F 
ATOM     88  F   UNL A   1      37.497  34.122  38.900  1.00  0.00    -0.200 F 
ENDBRANCH  54  78
BRANCH  66  89
ATOM     89  C   UNL A   1      45.348  28.479  35.252  1.00  0.00     0.064 A 
ATOM     90  C   UNL A   1      45.411  27.346  36.077  1.00  0.00     0.173 A 
ATOM     91  C   UNL A   1      46.421  29.382  35.301  1.00  0.00     0.173 A 
ATOM     92  F   UNL A   1      44.407  26.456  36.080  1.00  0.00    -0.203 F 
ATOM     93  C   UNL A   1      46.490  27.142  36.935  1.00  0.00     0.198 A 
ATOM     94  C   UNL A   1      47.515  29.157  36.134  1.00  0.00     0.198 A 
ATOM     95  F   UNL A   1      46.420  30.479  34.528  1.00  0.00    -0.203 F 
ATOM     96  F   UNL A   1      46.502  26.079  37.751  1.00  0.00    -0.200 F 
ATOM     97  C   UNL A   1      47.543  28.042  36.956  1.00  0.00     0.200 A 
ATOM     98  F   UNL A   1      48.540  30.021  36.139  1.00  0.00    -0.200 F 
ATOM     99  F   UNL A   1      48.585  27.840  37.776  1.00  0.00    -0.200 F 
ENDBRANCH  66  89
ENDBRANCH  40  41
ENDBRANCH  33  35
ENDBRANCH  32  33
ENDBRANCH  31  32
ENDBRANCH  30  31
ENDBRANCH   1  30
TORSDOF 16
ENDMDL
MODEL 3
REMARK VINA RESULT:     -11.8      2.577      4.227
REMARK SMILES CN(C)C(=O)c1cccc(N2CCC3(CC2)[C@H](C(=O)OCCOCCOC(=O)c2ccc(-c4c5nc(c(-c6c(F)c(F)c(F)c(F)c6F)c6ccc([nH]6)c(-c6c(F)c(F)c(F)c(F)c6F)c6nc(c(-c7c(F)c(F)c(F)c(F)c7F)c7ccc4[nH]7)C=C6)C=C5)cc2)CC(=O)N3C)n1
REMARK SMILES IDX 23 1 22 2 21 3 20 4 18 5 19 6 17 7 11 8 12 9 16 10 13 11
REMARK SMILES IDX 15 12 14 13 95 14 92 15 93 16 96 17 94 18 10 19 6 20 7 21
REMARK SMILES IDX 97 22 8 23 9 24 4 25 1 26 2 27 3 28 5 29 24 30 25 31 26 32
REMARK SMILES IDX 27 33 28 34 29 35 30 36 91 37 31 38 90 39 32 40 33 41 34 42
REMARK SMILES IDX 84 43 35 44 89 45 83 46 85 47 36 48 88 49 82 50 81 51 37 53
REMARK SMILES IDX 69 54 49 55 68 56 50 57 53 58 67 59 86 60 51 61 52 62 66 64
REMARK SMILES IDX 87 65 54 66 38 67 39 68 47 69 40 70 41 71 45 72 48 73 42 74
REMARK SMILES IDX 43 75 46 76 44 77 70 78 71 79 79 80 72 81 73 82 77 83 80 84
REMARK SMILES IDX 74 85 75 86 78 87 76 88 55 89 56 90 64 91 57 92 58 93 62 94
REMARK SMILES IDX 65 95 59 96 60 97 63 98 61 99
REMARK H PARENT 85 52 53 63
REMARK Flexibility Score: inf
ROOT
ATOM      1  O   UNL A   1      33.826  31.189  27.972  1.00  0.00    -0.374 OA
ENDROOT
BRANCH   1   2
ATOM      2  C   UNL A   1      34.833  30.375  27.377  1.00  0.00     0.202 C 
BRANCH   2   3
ATOM      3  C   UNL A   1      34.367  29.130  26.621  1.00  0.00     0.261 C 
BRANCH   3   4
ATOM      4  O   UNL A   1      33.611  28.234  27.462  1.00  0.00    -0.463 OA
BRANCH   4   5
ATOM      5  C   UNL A   1      32.364  27.952  27.021  1.00  0.00     0.311 C 
ATOM      6  O   UNL A   1      31.383  27.831  27.748  1.00  0.00    -0.252 OA
BRANCH   5   7
ATOM      7  C   UNL A   1      32.271  27.695  25.535  1.00  0.00     0.134 C 
ATOM      8  N   UNL A   1      33.896  23.833  24.947  1.00  0.00    -0.356 N 
ATOM      9  C   UNL A   1      32.514  23.688  25.382  1.00  0.00     0.120 C 
ATOM     10  C   UNL A   1      34.066  24.707  23.792  1.00  0.00     0.120 C 
ATOM     11  C   UNL A   1      32.012  25.066  25.867  1.00  0.00     0.051 C 
ATOM     12  C   UNL A   1      33.647  26.113  24.192  1.00  0.00     0.051 C 
ATOM     13  C   UNL A   1      32.265  26.254  24.899  1.00  0.00     0.060 C 
ATOM     14  N   UNL A   1      31.148  26.369  23.935  1.00  0.00    -0.339 N 
ATOM     15  C   UNL A   1      31.087  28.472  24.980  1.00  0.00     0.118 C 
ATOM     16  C   UNL A   1      30.379  27.514  24.089  1.00  0.00     0.223 C 
ATOM     17  C   UNL A   1      30.634  25.291  23.115  1.00  0.00     0.147 C 
ATOM     18  O   UNL A   1      29.301  27.739  23.563  1.00  0.00    -0.275 OA
BRANCH   8  19
ATOM     19  C   UNL A   1      34.772  22.751  25.039  1.00  0.00     0.129 A 
ATOM     20  C   UNL A   1      35.265  20.477  24.944  1.00  0.00     0.130 A 
ATOM     21  C   UNL A   1      36.626  20.693  25.130  1.00  0.00     0.034 A 
ATOM     22  N   UNL A   1      34.334  21.482  24.906  1.00  0.00    -0.226 NA
ATOM     23  C   UNL A   1      37.058  21.988  25.343  1.00  0.00     0.006 A 
ATOM     24  C   UNL A   1      36.125  23.017  25.292  1.00  0.00     0.047 A 
BRANCH  20  25
ATOM     25  C   UNL A   1      34.788  19.087  24.626  1.00  0.00     0.272 C 
ATOM     26  C   UNL A   1      32.980  17.471  24.342  1.00  0.00     0.146 C 
ATOM     27  N   UNL A   1      33.426  18.854  24.367  1.00  0.00    -0.343 N 
ATOM     28  C   UNL A   1      32.438  19.877  24.054  1.00  0.00     0.146 C 
ATOM     29  O   UNL A   1      35.603  18.163  24.665  1.00  0.00    -0.267 OA
ENDBRANCH  20  25
ENDBRANCH   8  19
ENDBRANCH   5   7
ENDBRANCH   4   5
ENDBRANCH   3   4
ENDBRANCH   2   3
ENDBRANCH   1   2
BRANCH   1  30
ATOM     30  C   UNL A   1      32.701  31.553  27.174  1.00  0.00     0.202 C 
BRANCH  30  31
ATOM     31  C   UNL A   1      32.134  32.966  27.385  1.00  0.00     0.261 C 
BRANCH  31  32
ATOM     32  O   UNL A   1      33.151  33.986  27.322  1.00  0.00    -0.460 OA
BRANCH  32  33
ATOM     33  C   UNL A   1      33.264  34.758  28.427  1.00  0.00     0.338 C 
ATOM     34  O   UNL A   1      32.476  35.612  28.812  1.00  0.00    -0.246 OA
BRANCH  33  35
ATOM     35  C   UNL A   1      34.386  34.293  29.269  1.00  0.00     0.060 A 
ATOM     36  C   UNL A   1      35.678  34.453  28.750  1.00  0.00     0.016 A 
ATOM     37  C   UNL A   1      34.198  33.655  30.497  1.00  0.00     0.016 A 
ATOM     38  C   UNL A   1      36.776  33.911  29.416  1.00  0.00     0.010 A 
ATOM     39  C   UNL A   1      35.306  33.115  31.169  1.00  0.00     0.010 A 
ATOM     40  C   UNL A   1      36.595  33.195  30.607  1.00  0.00    -0.014 A 
BRANCH  40  41
ATOM     41  C   UNL A   1      37.726  32.389  31.143  1.00  0.00     0.031 A 
ATOM     42  C   UNL A   1      38.210  32.652  32.547  1.00  0.00     0.074 A 
ATOM     43  C   UNL A   1      38.270  31.385  30.432  1.00  0.00     0.049 A 
ATOM     44  N   UNL A   1      39.162  32.060  33.224  1.00  0.00    -0.248 NA
ATOM     45  C   UNL A   1      37.525  33.723  33.287  1.00  0.00     0.031 C 
ATOM     46  C   UNL A   1      37.868  30.990  29.084  1.00  0.00     0.029 A 
ATOM     47  N   UNL A   1      39.279  30.508  30.752  1.00  0.00    -0.354 N 
ATOM     48  C   UNL A   1      39.194  32.691  34.462  1.00  0.00     0.074 A 
ATOM     49  C   UNL A   1      38.193  33.734  34.430  1.00  0.00     0.031 C 
ATOM     50  C   UNL A   1      38.622  29.950  28.691  1.00  0.00     0.029 A 
ATOM     51  C   UNL A   1      39.584  29.627  29.745  1.00  0.00     0.049 A 
ATOM     52  H   UNL A   1      39.740  30.512  31.622  1.00  0.00     0.167 HD
ATOM     53  C   UNL A   1      39.975  32.419  35.536  1.00  0.00     0.037 A 
ATOM     54  C   UNL A   1      40.542  28.679  29.672  1.00  0.00     0.037 A 
ATOM     55  C   UNL A   1      40.968  31.377  35.577  1.00  0.00     0.049 A 
ATOM     56  C   UNL A   1      41.454  28.451  30.852  1.00  0.00     0.074 A 
ATOM     57  C   UNL A   1      41.792  31.013  36.629  1.00  0.00     0.029 A 
ATOM     58  N   UNL A   1      41.281  30.539  34.517  1.00  0.00    -0.354 N 
ATOM     59  N   UNL A   1      41.455  29.031  32.027  1.00  0.00    -0.248 NA
ATOM     60  C   UNL A   1      42.499  27.427  30.693  1.00  0.00     0.031 C 
ATOM     61  C   UNL A   1      42.646  29.998  36.186  1.00  0.00     0.029 A 
ATOM     62  C   UNL A   1      42.309  29.682  34.881  1.00  0.00     0.049 A 
ATOM     63  H   UNL A   1      40.839  30.551  33.637  1.00  0.00     0.167 HD
ATOM     64  C   UNL A   1      42.472  28.423  32.755  1.00  0.00     0.074 A 
ATOM     65  C   UNL A   1      43.058  27.417  31.894  1.00  0.00     0.031 C 
ATOM     66  C   UNL A   1      42.881  28.675  34.023  1.00  0.00     0.037 A 
BRANCH  53  67
ATOM     67  C   UNL A   1      39.807  33.280  36.756  1.00  0.00     0.064 A 
ATOM     68  C   UNL A   1      40.601  34.415  36.975  1.00  0.00     0.173 A 
ATOM     69  C   UNL A   1      38.809  32.986  37.697  1.00  0.00     0.173 A 
ATOM     70  F   UNL A   1      41.577  34.735  36.112  1.00  0.00    -0.203 F 
ATOM     71  C   UNL A   1      40.418  35.209  38.105  1.00  0.00     0.198 A 
ATOM     72  C   UNL A   1      38.607  33.800  38.808  1.00  0.00     0.198 A 
ATOM     73  F   UNL A   1      38.017  31.915  37.533  1.00  0.00    -0.203 F 
ATOM     74  F   UNL A   1      41.220  36.262  38.319  1.00  0.00    -0.200 F 
ATOM     75  C   UNL A   1      39.416  34.907  39.015  1.00  0.00     0.200 A 
ATOM     76  F   UNL A   1      37.628  33.516  39.677  1.00  0.00    -0.200 F 
ATOM     77  F   UNL A   1      39.236  35.679  40.096  1.00  0.00    -0.200 F 
ENDBRANCH  53  67
BRANCH  54  78
ATOM     78  C   UNL A   1      40.706  27.880  28.429  1.00  0.00     0.064 A 
ATOM     79  C   UNL A   1      40.087  26.630  28.280  1.00  0.00     0.173 A 
ATOM     80  C   UNL A   1      41.514  28.334  27.376  1.00  0.00     0.173 A 
ATOM     81  F   UNL A   1      39.328  26.137  29.269  1.00  0.00    -0.203 F 
ATOM     82  C   UNL A   1      40.290  25.857  27.138  1.00  0.00     0.198 A 
ATOM     83  C   UNL A   1      41.690  27.576  26.221  1.00  0.00     0.198 A 
ATOM     84  F   UNL A   1      42.134  29.521  27.469  1.00  0.00    -0.203 F 
ATOM     85  F   UNL A   1      39.733  24.641  27.047  1.00  0.00    -0.200 F 
ATOM     86  C   UNL A   1      41.086  26.333  26.106  1.00  0.00     0.200 A 
ATOM     87  F   UNL A   1      42.450  28.045  25.223  1.00  0.00    -0.200 F 
ATOM     88  F   UNL A   1      41.280  25.590  25.009  1.00  0.00    -0.200 F 
ENDBRANCH  54  78
BRANCH  66  89
ATOM     89  C   UNL A   1      43.987  27.824  34.582  1.00  0.00     0.064 A 
ATOM     90  C   UNL A   1      43.743  26.557  35.134  1.00  0.00     0.173 A 
ATOM     91  C   UNL A   1      45.319  28.265  34.525  1.00  0.00     0.173 A 
ATOM     92  F   UNL A   1      42.488  26.091  35.224  1.00  0.00    -0.203 F 
ATOM     93  C   UNL A   1      44.785  25.778  35.632  1.00  0.00     0.198 A 
ATOM     94  C   UNL A   1      46.363  27.468  34.992  1.00  0.00     0.198 A 
ATOM     95  F   UNL A   1      45.614  29.464  34.000  1.00  0.00    -0.203 F 
ATOM     96  F   UNL A   1      44.520  24.593  36.201  1.00  0.00    -0.200 F 
ATOM     97  C   UNL A   1      46.093  26.230  35.553  1.00  0.00     0.200 A 
ATOM     98  F   UNL A   1      47.628  27.901  34.899  1.00  0.00    -0.200 F 
ATOM     99  F   UNL A   1      47.095  25.476  36.025  1.00  0.00    -0.200 F 
ENDBRANCH  66  89
ENDBRANCH  40  41
ENDBRANCH  33  35
ENDBRANCH  32  33
ENDBRANCH  31  32
ENDBRANCH  30  31
ENDBRANCH   1  30
TORSDOF 16
ENDMDL
