MODEL 1
REMARK VINA RESULT:     -10.8      0.000      0.000
REMARK SMILES O=C(C[N@@H+](CC(F)(F)F)[C@H]1CCCC[C@H]1O)OCCOCCOC(=O)c1ccc(-c2c3nc(c(-c4c(F)c(F)c(F)c(F)c4F)c4ccc([nH]4)c(-c4c(F)c(F)c(F)c(F)c4F)c4nc(c(-c5c(F)c(F)c(F)c(F)c5F)c5ccc2[nH]5)C=C4)C=C3)cc1
REMARK SMILES IDX 19 1 18 2 17 3 2 4 1 5 3 6 4 7 5 9 6 10 7 11 8 12 9 13 10 14
REMARK SMILES IDX 11 15 15 16 12 17 14 18 13 19 16 20 20 22 21 23 22 24 23 25
REMARK SMILES IDX 24 26 25 27 26 28 27 29 88 30 28 31 87 32 29 33 30 34 31 35
REMARK SMILES IDX 81 36 32 37 86 38 80 39 82 40 33 41 85 42 79 43 78 44 34 46
REMARK SMILES IDX 66 47 46 48 65 49 47 50 50 51 64 52 83 53 48 54 49 55 63 57
REMARK SMILES IDX 84 58 51 59 35 60 36 61 44 62 37 63 38 64 42 65 45 66 39 67
REMARK SMILES IDX 40 68 43 69 41 70 67 71 68 72 76 73 69 74 70 75 74 76 77 77
REMARK SMILES IDX 71 78 72 79 75 80 73 81 52 82 53 83 61 84 54 85 55 86 59 87
REMARK SMILES IDX 62 88 56 89 57 90 60 91 58 92
REMARK H PARENT 4 8 16 21 82 45 50 56
REMARK Flexibility Score: inf
ROOT
ATOM      1  C   UNL A   1      34.754  23.219  24.694  1.00  0.00     0.202 C 
ENDROOT
BRANCH   1   2
ATOM      2  C   UNL A   1      34.256  23.277  23.255  1.00  0.00     0.261 C 
BRANCH   2   3
ATOM      3  O   UNL A   1      34.511  24.543  22.620  1.00  0.00    -0.459 OA
BRANCH   3   4
ATOM      4  C   UNL A   1      33.605  25.543  22.486  1.00  0.00     0.361 C 
ATOM      5  O   UNL A   1      33.294  25.939  21.363  1.00  0.00    -0.245 OA
BRANCH   4   6
ATOM      6  C   UNL A   1      33.048  26.222  23.733  1.00  0.00     0.387 C 
BRANCH   6   7
ATOM      7  N   UNL A   1      31.619  25.954  23.943  1.00  0.00    -0.314 N 
ATOM      8  H   UNL A   1      31.206  25.539  23.106  1.00  0.00     0.349 HD
BRANCH   7   9
ATOM      9  C   UNL A   1      31.382  24.842  24.888  1.00  0.00     0.380 C 
BRANCH   9  10
ATOM     10  C   UNL A   1      31.738  24.979  26.382  1.00  0.00     0.438 C 
ATOM     11  F   UNL A   1      31.442  26.200  26.872  1.00  0.00    -0.165 F 
ATOM     12  F   UNL A   1      31.067  24.067  27.121  1.00  0.00    -0.165 F 
ATOM     13  F   UNL A   1      33.060  24.771  26.593  1.00  0.00    -0.165 F 
ENDBRANCH   9  10
ENDBRANCH   7   9
BRANCH   7  14
ATOM     14  C   UNL A   1      30.814  27.186  24.006  1.00  0.00     0.213 C 
ATOM     15  C   UNL A   1      31.771  28.351  24.352  1.00  0.00     0.068 C 
ATOM     16  C   UNL A   1      29.920  27.580  22.802  1.00  0.00     0.172 C 
ATOM     17  C   UNL A   1      30.994  29.627  24.668  1.00  0.00     0.006 C 
ATOM     18  C   UNL A   1      29.133  28.852  23.132  1.00  0.00     0.038 C 
ATOM     19  C   UNL A   1      30.045  30.010  23.540  1.00  0.00     0.003 C 
BRANCH  16  20
ATOM     20  O   UNL A   1      30.693  27.811  21.625  1.00  0.00    -0.387 OA
ATOM     21  H   UNL A   1      30.734  28.764  21.446  1.00  0.00     0.211 HD
ENDBRANCH  16  20
ENDBRANCH   7  14
ENDBRANCH   6   7
ENDBRANCH   4   6
ENDBRANCH   3   4
ENDBRANCH   2   3
ENDBRANCH   1   2
BRANCH   1  22
ATOM     22  O   UNL A   1      36.012  22.585  24.909  1.00  0.00    -0.374 OA
BRANCH  22  23
ATOM     23  C   UNL A   1      36.055  21.167  24.694  1.00  0.00     0.202 C 
BRANCH  23  24
ATOM     24  C   UNL A   1      37.389  20.484  25.003  1.00  0.00     0.261 C 
BRANCH  24  25
ATOM     25  O   UNL A   1      38.444  21.452  25.092  1.00  0.00    -0.460 OA
BRANCH  25  26
ATOM     26  C   UNL A   1      39.385  21.172  26.018  1.00  0.00     0.338 C 
ATOM     27  O   UNL A   1      39.984  20.115  26.169  1.00  0.00    -0.246 OA
BRANCH  26  28
ATOM     28  C   UNL A   1      39.765  22.406  26.730  1.00  0.00     0.060 A 
ATOM     29  C   UNL A   1      39.075  23.576  26.387  1.00  0.00     0.016 A 
ATOM     30  C   UNL A   1      40.799  22.437  27.670  1.00  0.00     0.016 A 
ATOM     31  C   UNL A   1      39.500  24.801  26.879  1.00  0.00     0.010 A 
ATOM     32  C   UNL A   1      41.230  23.669  28.164  1.00  0.00     0.010 A 
ATOM     33  C   UNL A   1      40.631  24.854  27.703  1.00  0.00    -0.014 A 
BRANCH  33  34
ATOM     34  C   UNL A   1      41.343  26.144  27.823  1.00  0.00     0.031 A 
ATOM     35  C   UNL A   1      40.652  27.259  28.560  1.00  0.00     0.074 A 
ATOM     36  C   UNL A   1      42.597  26.288  27.365  1.00  0.00     0.049 A 
ATOM     37  N   UNL A   1      41.071  28.468  28.830  1.00  0.00    -0.248 NA
ATOM     38  C   UNL A   1      39.297  26.971  29.062  1.00  0.00     0.031 C 
ATOM     39  C   UNL A   1      43.371  25.253  26.684  1.00  0.00     0.029 A 
ATOM     40  N   UNL A   1      43.440  27.366  27.419  1.00  0.00    -0.354 N 
ATOM     41  C   UNL A   1      40.030  29.082  29.517  1.00  0.00     0.074 A 
ATOM     42  C   UNL A   1      38.947  28.131  29.594  1.00  0.00     0.031 C 
ATOM     43  C   UNL A   1      44.584  25.749  26.381  1.00  0.00     0.029 A 
ATOM     44  C   UNL A   1      44.656  27.139  26.827  1.00  0.00     0.049 A 
ATOM     45  H   UNL A   1      43.196  28.221  27.840  1.00  0.00     0.167 HD
ATOM     46  C   UNL A   1      39.990  30.327  30.048  1.00  0.00     0.037 A 
ATOM     47  C   UNL A   1      45.702  27.971  26.666  1.00  0.00     0.037 A 
ATOM     48  C   UNL A   1      41.081  31.259  29.976  1.00  0.00     0.049 A 
ATOM     49  C   UNL A   1      45.615  29.366  27.226  1.00  0.00     0.074 A 
ATOM     50  C   UNL A   1      41.160  32.541  30.487  1.00  0.00     0.029 A 
ATOM     51  N   UNL A   1      42.291  31.002  29.345  1.00  0.00    -0.354 N 
ATOM     52  N   UNL A   1      44.638  29.935  27.893  1.00  0.00    -0.248 NA
ATOM     53  C   UNL A   1      46.784  30.232  27.024  1.00  0.00     0.031 C 
ATOM     54  C   UNL A   1      42.398  33.080  30.122  1.00  0.00     0.029 A 
ATOM     55  C   UNL A   1      43.116  32.111  29.437  1.00  0.00     0.049 A 
ATOM     56  H   UNL A   1      42.527  30.158  28.897  1.00  0.00     0.167 HD
ATOM     57  C   UNL A   1      45.089  31.207  28.225  1.00  0.00     0.074 A 
ATOM     58  C   UNL A   1      46.431  31.321  27.692  1.00  0.00     0.031 C 
ATOM     59  C   UNL A   1      44.455  32.190  28.912  1.00  0.00     0.037 A 
BRANCH  46  60
ATOM     60  C   UNL A   1      38.716  30.754  30.715  1.00  0.00     0.064 A 
ATOM     61  C   UNL A   1      37.617  31.234  29.985  1.00  0.00     0.173 A 
ATOM     62  C   UNL A   1      38.588  30.676  32.110  1.00  0.00     0.173 A 
ATOM     63  F   UNL A   1      37.692  31.350  28.650  1.00  0.00    -0.203 F 
ATOM     64  C   UNL A   1      36.451  31.644  30.628  1.00  0.00     0.198 A 
ATOM     65  C   UNL A   1      37.411  31.057  32.748  1.00  0.00     0.198 A 
ATOM     66  F   UNL A   1      39.608  30.228  32.858  1.00  0.00    -0.203 F 
ATOM     67  F   UNL A   1      35.435  32.150  29.913  1.00  0.00    -0.200 F 
ATOM     68  C   UNL A   1      36.346  31.549  32.007  1.00  0.00     0.200 A 
ATOM     69  F   UNL A   1      37.308  30.955  34.079  1.00  0.00    -0.200 F 
ATOM     70  F   UNL A   1      35.222  31.940  32.624  1.00  0.00    -0.200 F 
ENDBRANCH  46  60
BRANCH  47  71
ATOM     71  C   UNL A   1      46.923  27.501  25.960  1.00  0.00     0.064 A 
ATOM     72  C   UNL A   1      47.983  26.911  26.662  1.00  0.00     0.173 A 
ATOM     73  C   UNL A   1      47.061  27.646  24.571  1.00  0.00     0.173 A 
ATOM     74  F   UNL A   1      47.908  26.770  27.993  1.00  0.00    -0.203 F 
ATOM     75  C   UNL A   1      49.142  26.503  26.006  1.00  0.00     0.198 A 
ATOM     76  C   UNL A   1      48.209  27.211  23.913  1.00  0.00     0.198 A 
ATOM     77  F   UNL A   1      46.076  28.204  23.853  1.00  0.00    -0.203 F 
ATOM     78  F   UNL A   1      50.159  25.985  26.708  1.00  0.00    -0.200 F 
ATOM     79  C   UNL A   1      49.252  26.648  24.631  1.00  0.00     0.200 A 
ATOM     80  F   UNL A   1      48.304  27.341  22.582  1.00  0.00    -0.200 F 
ATOM     81  F   UNL A   1      50.366  26.252  24.000  1.00  0.00    -0.200 F 
ENDBRANCH  47  71
BRANCH  59  82
ATOM     82  C   UNL A   1      45.231  33.447  29.179  1.00  0.00     0.064 A 
ATOM     83  C   UNL A   1      45.158  34.560  28.330  1.00  0.00     0.173 A 
ATOM     84  C   UNL A   1      46.040  33.545  30.322  1.00  0.00     0.173 A 
ATOM     85  F   UNL A   1      44.407  34.514  27.219  1.00  0.00    -0.203 F 
ATOM     86  C   UNL A   1      45.897  35.710  28.594  1.00  0.00     0.198 A 
ATOM     87  C   UNL A   1      46.750  34.708  30.602  1.00  0.00     0.198 A 
ATOM     88  F   UNL A   1      46.135  32.513  31.175  1.00  0.00    -0.203 F 
ATOM     89  F   UNL A   1      45.861  36.739  27.735  1.00  0.00    -0.200 F 
ATOM     90  C   UNL A   1      46.688  35.786  29.731  1.00  0.00     0.200 A 
ATOM     91  F   UNL A   1      47.499  34.784  31.711  1.00  0.00    -0.200 F 
ATOM     92  F   UNL A   1      47.397  36.893  29.984  1.00  0.00    -0.200 F 
ENDBRANCH  59  82
ENDBRANCH  33  34
ENDBRANCH  26  28
ENDBRANCH  25  26
ENDBRANCH  24  25
ENDBRANCH  23  24
ENDBRANCH  22  23
ENDBRANCH   1  22
TORSDOF 19
ENDMDL
MODEL 2
REMARK VINA RESULT:     -10.7      4.386      9.836
REMARK SMILES O=C(C[N@@H+](CC(F)(F)F)[C@H]1CCCC[C@H]1O)OCCOCCOC(=O)c1ccc(-c2c3nc(c(-c4c(F)c(F)c(F)c(F)c4F)c4ccc([nH]4)c(-c4c(F)c(F)c(F)c(F)c4F)c4nc(c(-c5c(F)c(F)c(F)c(F)c5F)c5ccc2[nH]5)C=C4)C=C3)cc1
REMARK SMILES IDX 19 1 18 2 17 3 2 4 1 5 3 6 4 7 5 9 6 10 7 11 8 12 9 13 10 14
REMARK SMILES IDX 11 15 15 16 12 17 14 18 13 19 16 20 20 22 21 23 22 24 23 25
REMARK SMILES IDX 24 26 25 27 26 28 27 29 88 30 28 31 87 32 29 33 30 34 31 35
REMARK SMILES IDX 81 36 32 37 86 38 80 39 82 40 33 41 85 42 79 43 78 44 34 46
REMARK SMILES IDX 66 47 46 48 65 49 47 50 50 51 64 52 83 53 48 54 49 55 63 57
REMARK SMILES IDX 84 58 51 59 35 60 36 61 44 62 37 63 38 64 42 65 45 66 39 67
REMARK SMILES IDX 40 68 43 69 41 70 67 71 68 72 76 73 69 74 70 75 74 76 77 77
REMARK SMILES IDX 71 78 72 79 75 80 73 81 52 82 53 83 61 84 54 85 55 86 59 87
REMARK SMILES IDX 62 88 56 89 57 90 60 91 58 92
REMARK H PARENT 4 8 16 21 82 45 50 56
REMARK Flexibility Score: inf
ROOT
ATOM      1  C   UNL A   1      31.592  27.512  25.523  1.00  0.00     0.202 C 
ENDROOT
BRANCH   1   2
ATOM      2  C   UNL A   1      31.747  26.306  26.441  1.00  0.00     0.261 C 
BRANCH   2   3
ATOM      3  O   UNL A   1      31.090  25.127  25.940  1.00  0.00    -0.459 OA
BRANCH   3   4
ATOM      4  C   UNL A   1      31.100  23.914  26.547  1.00  0.00     0.361 C 
ATOM      5  O   UNL A   1      30.161  23.588  27.275  1.00  0.00    -0.245 OA
BRANCH   4   6
ATOM      6  C   UNL A   1      32.313  23.005  26.387  1.00  0.00     0.387 C 
BRANCH   6   7
ATOM      7  N   UNL A   1      32.490  22.519  25.012  1.00  0.00    -0.314 N 
ATOM      8  H   UNL A   1      31.703  22.805  24.428  1.00  0.00     0.349 HD
BRANCH   7   9
ATOM      9  C   UNL A   1      33.574  23.225  24.295  1.00  0.00     0.380 C 
BRANCH   9  10
ATOM     10  C   UNL A   1      33.261  24.202  23.144  1.00  0.00     0.438 C 
ATOM     11  F   UNL A   1      33.627  23.713  21.940  1.00  0.00    -0.165 F 
ATOM     12  F   UNL A   1      31.938  24.474  23.090  1.00  0.00    -0.165 F 
ATOM     13  F   UNL A   1      33.906  25.381  23.312  1.00  0.00    -0.165 F 
ENDBRANCH   9  10
ENDBRANCH   7   9
BRANCH   7  14
ATOM     14  C   UNL A   1      32.335  21.058  24.902  1.00  0.00     0.213 C 
ATOM     15  C   UNL A   1      32.492  20.683  23.410  1.00  0.00     0.068 C 
ATOM     16  C   UNL A   1      33.217  20.127  25.774  1.00  0.00     0.172 C 
ATOM     17  C   UNL A   1      32.117  19.223  23.166  1.00  0.00     0.006 C 
ATOM     18  C   UNL A   1      32.826  18.666  25.535  1.00  0.00     0.038 C 
ATOM     19  C   UNL A   1      32.909  18.275  24.059  1.00  0.00     0.003 C 
BRANCH  16  20
ATOM     20  O   UNL A   1      34.604  20.285  25.477  1.00  0.00    -0.387 OA
ATOM     21  H   UNL A   1      34.951  19.460  25.103  1.00  0.00     0.211 HD
ENDBRANCH  16  20
ENDBRANCH   7  14
ENDBRANCH   6   7
ENDBRANCH   4   6
ENDBRANCH   3   4
ENDBRANCH   2   3
ENDBRANCH   1   2
BRANCH   1  22
ATOM     22  O   UNL A   1      32.183  28.731  25.965  1.00  0.00    -0.374 OA
BRANCH  22  23
ATOM     23  C   UNL A   1      31.610  29.940  25.447  1.00  0.00     0.202 C 
BRANCH  23  24
ATOM     24  C   UNL A   1      31.738  31.176  26.340  1.00  0.00     0.261 C 
BRANCH  24  25
ATOM     25  O   UNL A   1      32.739  30.971  27.348  1.00  0.00    -0.460 OA
BRANCH  25  26
ATOM     26  C   UNL A   1      33.524  32.043  27.586  1.00  0.00     0.338 C 
ATOM     27  O   UNL A   1      33.169  33.209  27.705  1.00  0.00    -0.246 OA
BRANCH  26  28
ATOM     28  C   UNL A   1      34.894  31.597  27.895  1.00  0.00     0.060 A 
ATOM     29  C   UNL A   1      35.097  30.218  28.039  1.00  0.00     0.016 A 
ATOM     30  C   UNL A   1      35.945  32.498  28.092  1.00  0.00     0.016 A 
ATOM     31  C   UNL A   1      36.312  29.742  28.508  1.00  0.00     0.010 A 
ATOM     32  C   UNL A   1      37.167  32.020  28.566  1.00  0.00     0.010 A 
ATOM     33  C   UNL A   1      37.320  30.651  28.850  1.00  0.00    -0.014 A 
BRANCH  33  34
ATOM     34  C   UNL A   1      38.385  30.196  29.769  1.00  0.00     0.031 A 
ATOM     35  C   UNL A   1      39.401  29.223  29.235  1.00  0.00     0.074 A 
ATOM     36  C   UNL A   1      38.491  30.697  31.009  1.00  0.00     0.049 A 
ATOM     37  N   UNL A   1      40.446  28.699  29.821  1.00  0.00    -0.248 NA
ATOM     38  C   UNL A   1      39.213  28.778  27.842  1.00  0.00     0.031 C 
ATOM     39  C   UNL A   1      37.588  31.681  31.603  1.00  0.00     0.029 A 
ATOM     40  N   UNL A   1      39.418  30.451  31.988  1.00  0.00    -0.354 N 
ATOM     41  C   UNL A   1      41.024  27.858  28.878  1.00  0.00     0.074 A 
ATOM     42  C   UNL A   1      40.201  27.912  27.692  1.00  0.00     0.031 C 
ATOM     43  C   UNL A   1      38.008  31.957  32.850  1.00  0.00     0.029 A 
ATOM     44  C   UNL A   1      39.191  31.151  33.144  1.00  0.00     0.049 A 
ATOM     45  H   UNL A   1      40.172  29.829  31.871  1.00  0.00     0.167 HD
ATOM     46  C   UNL A   1      42.152  27.117  28.989  1.00  0.00     0.037 A 
ATOM     47  C   UNL A   1      39.869  31.133  34.307  1.00  0.00     0.037 A 
ATOM     48  C   UNL A   1      42.970  27.083  30.170  1.00  0.00     0.049 A 
ATOM     49  C   UNL A   1      41.095  30.265  34.420  1.00  0.00     0.074 A 
ATOM     50  C   UNL A   1      44.140  26.382  30.393  1.00  0.00     0.029 A 
ATOM     51  N   UNL A   1      42.695  27.788  31.334  1.00  0.00    -0.354 N 
ATOM     52  N   UNL A   1      41.651  29.489  33.520  1.00  0.00    -0.248 NA
ATOM     53  C   UNL A   1      41.798  30.282  35.710  1.00  0.00     0.031 C 
ATOM     54  C   UNL A   1      44.546  26.621  31.711  1.00  0.00     0.029 A 
ATOM     55  C   UNL A   1      43.663  27.522  32.287  1.00  0.00     0.049 A 
ATOM     56  H   UNL A   1      41.924  28.388  31.463  1.00  0.00     0.167 HD
ATOM     57  C   UNL A   1      42.788  28.959  34.117  1.00  0.00     0.074 A 
ATOM     58  C   UNL A   1      42.846  29.511  35.456  1.00  0.00     0.031 C 
ATOM     59  C   UNL A   1      43.705  28.100  33.606  1.00  0.00     0.037 A 
BRANCH  46  60
ATOM     60  C   UNL A   1      42.537  26.262  27.817  1.00  0.00     0.064 A 
ATOM     61  C   UNL A   1      41.991  24.986  27.614  1.00  0.00     0.173 A 
ATOM     62  C   UNL A   1      43.466  26.732  26.875  1.00  0.00     0.173 A 
ATOM     63  F   UNL A   1      41.115  24.479  28.495  1.00  0.00    -0.203 F 
ATOM     64  C   UNL A   1      42.379  24.202  26.530  1.00  0.00     0.198 A 
ATOM     65  C   UNL A   1      43.828  25.959  25.776  1.00  0.00     0.198 A 
ATOM     66  F   UNL A   1      44.022  27.944  27.021  1.00  0.00    -0.203 F 
ATOM     67  F   UNL A   1      41.883  22.964  26.388  1.00  0.00    -0.200 F 
ATOM     68  C   UNL A   1      43.291  24.692  25.608  1.00  0.00     0.200 A 
ATOM     69  F   UNL A   1      44.702  26.439  24.880  1.00  0.00    -0.200 F 
ATOM     70  F   UNL A   1      43.661  23.938  24.563  1.00  0.00    -0.200 F 
ENDBRANCH  46  60
BRANCH  47  71
ATOM     71  C   UNL A   1      39.415  31.972  35.446  1.00  0.00     0.064 A 
ATOM     72  C   UNL A   1      39.888  33.281  35.615  1.00  0.00     0.173 A 
ATOM     73  C   UNL A   1      38.508  31.478  36.397  1.00  0.00     0.173 A 
ATOM     74  F   UNL A   1      40.772  33.790  34.745  1.00  0.00    -0.203 F 
ATOM     75  C   UNL A   1      39.489  34.055  36.702  1.00  0.00     0.198 A 
ATOM     76  C   UNL A   1      38.088  32.264  37.467  1.00  0.00     0.198 A 
ATOM     77  F   UNL A   1      38.025  30.233  36.280  1.00  0.00    -0.203 F 
ATOM     78  F   UNL A   1      39.994  35.286  36.865  1.00  0.00    -0.200 F 
ATOM     79  C   UNL A   1      38.585  33.549  37.624  1.00  0.00     0.200 A 
ATOM     80  F   UNL A   1      37.204  31.776  38.347  1.00  0.00    -0.200 F 
ATOM     81  F   UNL A   1      38.199  34.296  38.668  1.00  0.00    -0.200 F 
ENDBRANCH  47  71
BRANCH  59  82
ATOM     82  C   UNL A   1      44.879  27.756  34.476  1.00  0.00     0.064 A 
ATOM     83  C   UNL A   1      44.853  26.672  35.365  1.00  0.00     0.173 A 
ATOM     84  C   UNL A   1      46.060  28.511  34.395  1.00  0.00     0.173 A 
ATOM     85  F   UNL A   1      43.745  25.925  35.488  1.00  0.00    -0.203 F 
ATOM     86  C   UNL A   1      45.951  26.382  36.171  1.00  0.00     0.198 A 
ATOM     87  C   UNL A   1      47.168  28.197  35.176  1.00  0.00     0.198 A 
ATOM     88  F   UNL A   1      46.142  29.551  33.551  1.00  0.00    -0.203 F 
ATOM     89  F   UNL A   1      45.882  25.380  37.059  1.00  0.00    -0.200 F 
ATOM     90  C   UNL A   1      47.109  27.140  36.071  1.00  0.00     0.200 A 
ATOM     91  F   UNL A   1      48.291  28.920  35.065  1.00  0.00    -0.200 F 
ATOM     92  F   UNL A   1      48.165  26.858  36.845  1.00  0.00    -0.200 F 
ENDBRANCH  59  82
ENDBRANCH  33  34
ENDBRANCH  26  28
ENDBRANCH  25  26
ENDBRANCH  24  25
ENDBRANCH  23  24
ENDBRANCH  22  23
ENDBRANCH   1  22
TORSDOF 19
ENDMDL
MODEL 3
REMARK VINA RESULT:     -10.7      4.372      9.704
REMARK SMILES O=C(C[N@@H+](CC(F)(F)F)[C@H]1CCCC[C@H]1O)OCCOCCOC(=O)c1ccc(-c2c3nc(c(-c4c(F)c(F)c(F)c(F)c4F)c4ccc([nH]4)c(-c4c(F)c(F)c(F)c(F)c4F)c4nc(c(-c5c(F)c(F)c(F)c(F)c5F)c5ccc2[nH]5)C=C4)C=C3)cc1
REMARK SMILES IDX 19 1 18 2 17 3 2 4 1 5 3 6 4 7 5 9 6 10 7 11 8 12 9 13 10 14
REMARK SMILES IDX 11 15 15 16 12 17 14 18 13 19 16 20 20 22 21 23 22 24 23 25
REMARK SMILES IDX 24 26 25 27 26 28 27 29 88 30 28 31 87 32 29 33 30 34 31 35
REMARK SMILES IDX 81 36 32 37 86 38 80 39 82 40 33 41 85 42 79 43 78 44 34 46
REMARK SMILES IDX 66 47 46 48 65 49 47 50 50 51 64 52 83 53 48 54 49 55 63 57
REMARK SMILES IDX 84 58 51 59 35 60 36 61 44 62 37 63 38 64 42 65 45 66 39 67
REMARK SMILES IDX 40 68 43 69 41 70 67 71 68 72 76 73 69 74 70 75 74 76 77 77
REMARK SMILES IDX 71 78 72 79 75 80 73 81 52 82 53 83 61 84 54 85 55 86 59 87
REMARK SMILES IDX 62 88 56 89 57 90 60 91 58 92
REMARK H PARENT 4 8 16 21 82 45 50 56
REMARK Flexibility Score: inf
ROOT
ATOM      1  C   UNL A   1      31.674  27.071  25.591  1.00  0.00     0.202 C 
ENDROOT
BRANCH   1   2
ATOM      2  C   UNL A   1      31.869  25.814  26.432  1.00  0.00     0.261 C 
BRANCH   2   3
ATOM      3  O   UNL A   1      31.606  24.601  25.703  1.00  0.00    -0.459 OA
BRANCH   3   4
ATOM      4  C   UNL A   1      31.942  23.355  26.120  1.00  0.00     0.361 C 
ATOM      5  O   UNL A   1      32.132  23.143  27.318  1.00  0.00    -0.245 OA
BRANCH   4   6
ATOM      6  C   UNL A   1      32.163  22.253  25.089  1.00  0.00     0.387 C 
BRANCH   6   7
ATOM      7  N   UNL A   1      33.131  21.240  25.530  1.00  0.00    -0.314 N 
ATOM      8  H   UNL A   1      33.283  21.305  26.538  1.00  0.00     0.349 HD
BRANCH   7   9
ATOM      9  C   UNL A   1      32.585  19.868  25.469  1.00  0.00     0.380 C 
BRANCH   9  10
ATOM     10  C   UNL A   1      32.873  18.950  24.264  1.00  0.00     0.438 C 
ATOM     11  F   UNL A   1      34.167  18.569  24.205  1.00  0.00    -0.165 F 
ATOM     12  F   UNL A   1      32.119  17.830  24.323  1.00  0.00    -0.165 F 
ATOM     13  F   UNL A   1      32.583  19.569  23.095  1.00  0.00    -0.165 F 
ENDBRANCH   9  10
ENDBRANCH   7   9
BRANCH   7  14
ATOM     14  C   UNL A   1      34.503  21.531  25.075  1.00  0.00     0.213 C 
ATOM     15  C   UNL A   1      34.426  22.729  24.100  1.00  0.00     0.068 C 
ATOM     16  C   UNL A   1      35.621  21.774  26.122  1.00  0.00     0.172 C 
ATOM     17  C   UNL A   1      35.764  22.954  23.399  1.00  0.00     0.006 C 
ATOM     18  C   UNL A   1      36.961  21.985  25.411  1.00  0.00     0.038 C 
ATOM     19  C   UNL A   1      36.907  23.123  24.392  1.00  0.00     0.003 C 
BRANCH  16  20
ATOM     20  O   UNL A   1      35.346  22.918  26.930  1.00  0.00    -0.387 OA
ATOM     21  H   UNL A   1      34.797  23.543  26.431  1.00  0.00     0.211 HD
ENDBRANCH  16  20
ENDBRANCH   7  14
ENDBRANCH   6   7
ENDBRANCH   4   6
ENDBRANCH   3   4
ENDBRANCH   2   3
ENDBRANCH   1   2
BRANCH   1  22
ATOM     22  O   UNL A   1      32.669  28.084  25.718  1.00  0.00    -0.374 OA
BRANCH  22  23
ATOM     23  C   UNL A   1      32.375  29.344  25.099  1.00  0.00     0.202 C 
BRANCH  23  24
ATOM     24  C   UNL A   1      31.849  30.439  26.030  1.00  0.00     0.261 C 
BRANCH  24  25
ATOM     25  O   UNL A   1      32.589  30.457  27.259  1.00  0.00    -0.460 OA
BRANCH  25  26
ATOM     26  C   UNL A   1      33.332  31.568  27.449  1.00  0.00     0.338 C 
ATOM     27  O   UNL A   1      32.930  32.722  27.533  1.00  0.00    -0.246 OA
BRANCH  26  28
ATOM     28  C   UNL A   1      34.723  31.189  27.756  1.00  0.00     0.060 A 
ATOM     29  C   UNL A   1      35.001  29.820  27.862  1.00  0.00     0.016 A 
ATOM     30  C   UNL A   1      35.721  32.141  27.987  1.00  0.00     0.016 A 
ATOM     31  C   UNL A   1      36.238  29.398  28.327  1.00  0.00     0.010 A 
ATOM     32  C   UNL A   1      36.965  31.718  28.457  1.00  0.00     0.010 A 
ATOM     33  C   UNL A   1      37.192  30.352  28.703  1.00  0.00    -0.014 A 
BRANCH  33  34
ATOM     34  C   UNL A   1      38.274  29.930  29.616  1.00  0.00     0.031 A 
ATOM     35  C   UNL A   1      39.292  28.953  29.091  1.00  0.00     0.074 A 
ATOM     36  C   UNL A   1      38.394  30.463  30.842  1.00  0.00     0.049 A 
ATOM     37  N   UNL A   1      40.350  28.453  29.675  1.00  0.00    -0.248 NA
ATOM     38  C   UNL A   1      39.087  28.472  27.713  1.00  0.00     0.031 C 
ATOM     39  C   UNL A   1      37.491  31.453  31.424  1.00  0.00     0.029 A 
ATOM     40  N   UNL A   1      39.338  30.250  31.812  1.00  0.00    -0.354 N 
ATOM     41  C   UNL A   1      40.922  27.595  28.744  1.00  0.00     0.074 A 
ATOM     42  C   UNL A   1      40.081  27.611  27.570  1.00  0.00     0.031 C 
ATOM     43  C   UNL A   1      37.927  31.764  32.658  1.00  0.00     0.029 A 
ATOM     44  C   UNL A   1      39.122  30.977  32.954  1.00  0.00     0.049 A 
ATOM     45  H   UNL A   1      40.096  29.633  31.699  1.00  0.00     0.167 HD
ATOM     46  C   UNL A   1      42.059  26.867  28.856  1.00  0.00     0.037 A 
ATOM     47  C   UNL A   1      39.818  30.994  34.106  1.00  0.00     0.037 A 
ATOM     48  C   UNL A   1      42.895  26.871  30.025  1.00  0.00     0.049 A 
ATOM     49  C   UNL A   1      41.053  30.141  34.223  1.00  0.00     0.074 A 
ATOM     50  C   UNL A   1      44.074  26.186  30.248  1.00  0.00     0.029 A 
ATOM     51  N   UNL A   1      42.630  27.602  31.175  1.00  0.00    -0.354 N 
ATOM     52  N   UNL A   1      41.603  29.347  33.333  1.00  0.00    -0.248 NA
ATOM     53  C   UNL A   1      41.776  30.196  35.500  1.00  0.00     0.031 C 
ATOM     54  C   UNL A   1      44.498  26.462  31.553  1.00  0.00     0.029 A 
ATOM     55  C   UNL A   1      43.616  27.369  32.119  1.00  0.00     0.049 A 
ATOM     56  H   UNL A   1      41.856  28.198  31.301  1.00  0.00     0.167 HD
ATOM     57  C   UNL A   1      42.754  28.844  33.926  1.00  0.00     0.074 A 
ATOM     58  C   UNL A   1      42.827  29.429  35.250  1.00  0.00     0.031 C 
ATOM     59  C   UNL A   1      43.672  27.980  33.423  1.00  0.00     0.037 A 
BRANCH  46  60
ATOM     60  C   UNL A   1      42.435  25.987  27.700  1.00  0.00     0.064 A 
ATOM     61  C   UNL A   1      43.364  26.389  26.728  1.00  0.00     0.173 A 
ATOM     62  C   UNL A   1      41.861  24.713  27.567  1.00  0.00     0.173 A 
ATOM     63  F   UNL A   1      43.927  27.606  26.796  1.00  0.00    -0.203 F 
ATOM     64  C   UNL A   1      43.683  25.563  25.653  1.00  0.00     0.198 A 
ATOM     65  C   UNL A   1      42.205  23.877  26.509  1.00  0.00     0.198 A 
ATOM     66  F   UNL A   1      40.965  24.278  28.465  1.00  0.00    -0.203 F 
ATOM     67  F   UNL A   1      44.532  25.992  24.708  1.00  0.00    -0.200 F 
ATOM     68  C   UNL A   1      43.109  24.305  25.548  1.00  0.00     0.200 A 
ATOM     69  F   UNL A   1      41.657  22.658  26.414  1.00  0.00    -0.200 F 
ATOM     70  F   UNL A   1      43.420  23.509  24.516  1.00  0.00    -0.200 F 
ENDBRANCH  46  60
BRANCH  47  71
ATOM     71  C   UNL A   1      39.373  31.857  35.231  1.00  0.00     0.064 A 
ATOM     72  C   UNL A   1      39.765  33.201  35.312  1.00  0.00     0.173 A 
ATOM     73  C   UNL A   1      38.556  31.353  36.255  1.00  0.00     0.173 A 
ATOM     74  F   UNL A   1      40.562  33.723  34.369  1.00  0.00    -0.203 F 
ATOM     75  C   UNL A   1      39.377  34.001  36.384  1.00  0.00     0.198 A 
ATOM     76  C   UNL A   1      38.144  32.163  37.311  1.00  0.00     0.198 A 
ATOM     77  F   UNL A   1      38.151  30.076  36.225  1.00  0.00    -0.203 F 
ATOM     78  F   UNL A   1      39.806  35.268  36.461  1.00  0.00    -0.200 F 
ATOM     79  C   UNL A   1      38.561  33.483  37.380  1.00  0.00     0.200 A 
ATOM     80  F   UNL A   1      37.346  31.662  38.264  1.00  0.00    -0.200 F 
ATOM     81  F   UNL A   1      38.186  34.255  38.410  1.00  0.00    -0.200 F 
ENDBRANCH  47  71
BRANCH  59  82
ATOM     82  C   UNL A   1      44.862  27.668  34.284  1.00  0.00     0.064 A 
ATOM     83  C   UNL A   1      46.027  28.447  34.250  1.00  0.00     0.173 A 
ATOM     84  C   UNL A   1      44.820  26.586  35.176  1.00  0.00     0.173 A 
ATOM     85  F   UNL A   1      46.121  29.487  33.406  1.00  0.00    -0.203 F 
ATOM     86  C   UNL A   1      47.122  28.129  35.049  1.00  0.00     0.198 A 
ATOM     87  C   UNL A   1      45.903  26.292  35.999  1.00  0.00     0.198 A 
ATOM     88  F   UNL A   1      43.724  25.816  35.257  1.00  0.00    -0.203 F 
ATOM     89  F   UNL A   1      48.249  28.850  34.955  1.00  0.00    -0.200 F 
ATOM     90  C   UNL A   1      47.057  27.057  35.927  1.00  0.00     0.200 A 
ATOM     91  F   UNL A   1      45.831  25.267  36.859  1.00  0.00    -0.200 F 
ATOM     92  F   UNL A   1      48.111  26.755  36.696  1.00  0.00    -0.200 F 
ENDBRANCH  59  82
ENDBRANCH  33  34
ENDBRANCH  26  28
ENDBRANCH  25  26
ENDBRANCH  24  25
ENDBRANCH  23  24
ENDBRANCH  22  23
ENDBRANCH   1  22
TORSDOF 19
ENDMDL
