MODEL 1
REMARK VINA RESULT:      -9.0      0.000      0.000
REMARK SMILES C[C@H](NC(=O)OCc1ccccc1)C(=O)NCC(=O)N1CCC[C@H]1C(=O)OCCOCCOC(=O)c1ccc(-c2c3nc(c(-c4c(F)c(F)c(F)c(F)c4F)c4ccc([nH]4)c(-c4c(F)c(F)c(F)c(F)c4F)c4nc(c(-c5c(F)c(F)c(F)c(F)c5F)c5ccc2[nH]5)C=C4)C=C3)cc1
REMARK SMILES IDX 27 1 25 2 26 3 24 4 20 5 21 6 22 7 23 8 18 9 19 10 17 11
REMARK SMILES IDX 16 12 14 13 15 14 2 16 1 17 3 18 4 19 5 21 6 22 7 23 8 24
REMARK SMILES IDX 9 25 13 26 10 27 12 28 11 29 28 30 29 31 30 32 31 33 32 34
REMARK SMILES IDX 33 35 34 36 35 37 36 38 37 39 98 40 38 41 97 42 39 43 40 44
REMARK SMILES IDX 41 45 91 46 42 47 96 48 90 49 92 50 43 51 95 52 89 53 88 54
REMARK SMILES IDX 44 56 76 57 56 58 75 59 57 60 60 61 74 62 93 63 58 64 59 65
REMARK SMILES IDX 73 67 94 68 61 69 45 70 46 71 54 72 47 73 48 74 52 75 55 76
REMARK SMILES IDX 49 77 50 78 53 79 51 80 77 81 78 82 86 83 79 84 80 85 84 86
REMARK SMILES IDX 87 87 81 88 82 89 85 90 83 91 62 92 63 93 71 94 64 95 65 96
REMARK SMILES IDX 69 97 72 98 66 99 67 100 70 101 68 102
REMARK H PARENT 16 15 3 20 92 55 60 66
REMARK Flexibility Score: inf
ROOT
ATOM      1  O   UNL A   1      47.057  26.475  24.212  1.00  0.00    -0.462 OA
ENDROOT
BRANCH   1   2
ATOM      2  C   UNL A   1      46.552  25.476  24.982  1.00  0.00     0.328 C 
ATOM      3  O   UNL A   1      47.169  24.480  25.343  1.00  0.00    -0.250 OA
BRANCH   2   4
ATOM      4  C   UNL A   1      45.097  25.782  25.355  1.00  0.00     0.195 C 
ATOM      5  N   UNL A   1      44.789  25.216  26.655  1.00  0.00    -0.327 N 
ATOM      6  C   UNL A   1      45.160  26.178  27.675  1.00  0.00     0.120 C 
ATOM      7  C   UNL A   1      44.896  27.534  27.031  1.00  0.00     0.024 C 
ATOM      8  C   UNL A   1      44.915  27.292  25.522  1.00  0.00     0.039 C 
BRANCH   5   9
ATOM      9  C   UNL A   1      44.302  23.935  26.706  1.00  0.00     0.242 C 
ATOM     10  O   UNL A   1      44.740  23.137  27.548  1.00  0.00    -0.273 OA
BRANCH   9  11
ATOM     11  C   UNL A   1      43.302  23.381  25.683  1.00  0.00     0.216 C 
BRANCH  11  12
ATOM     12  N   UNL A   1      43.724  22.873  24.401  1.00  0.00    -0.345 N 
ATOM     13  C   UNL A   1      44.361  21.717  24.077  1.00  0.00     0.242 C 
ATOM     14  O   UNL A   1      44.495  21.481  22.871  1.00  0.00    -0.273 OA
ATOM     15  H   UNL A   1      43.518  23.458  23.637  1.00  0.00     0.164 HD
BRANCH  13  16
ATOM     16  C   UNL A   1      44.855  20.691  25.124  1.00  0.00     0.171 C 
ATOM     17  C   UNL A   1      46.362  20.505  25.057  1.00  0.00     0.042 C 
BRANCH  16  18
ATOM     18  N   UNL A   1      44.034  19.484  25.203  1.00  0.00    -0.310 N 
ATOM     19  C   UNL A   1      42.755  19.268  25.595  1.00  0.00     0.408 C 
ATOM     20  H   UNL A   1      44.502  18.667  24.914  1.00  0.00     0.167 HD
ATOM     21  O   UNL A   1      42.334  18.122  25.728  1.00  0.00    -0.225 OA
BRANCH  19  22
ATOM     22  O   UNL A   1      42.048  20.397  25.813  1.00  0.00    -0.445 OA
BRANCH  22  23
ATOM     23  C   UNL A   1      40.723  20.211  26.337  1.00  0.00     0.270 C 
BRANCH  23  24
ATOM     24  C   UNL A   1      40.006  21.521  26.554  1.00  0.00    -0.011 A 
ATOM     25  C   UNL A   1      38.825  21.797  25.851  1.00  0.00     0.007 A 
ATOM     26  C   UNL A   1      40.525  22.493  27.423  1.00  0.00     0.007 A 
ATOM     27  C   UNL A   1      38.203  23.039  25.978  1.00  0.00     0.000 A 
ATOM     28  C   UNL A   1      39.905  23.737  27.542  1.00  0.00     0.000 A 
ATOM     29  C   UNL A   1      38.749  24.012  26.813  1.00  0.00     0.000 A 
ENDBRANCH  23  24
ENDBRANCH  22  23
ENDBRANCH  19  22
ENDBRANCH  16  18
ENDBRANCH  13  16
ENDBRANCH  11  12
ENDBRANCH   9  11
ENDBRANCH   5   9
ENDBRANCH   2   4
ENDBRANCH   1   2
BRANCH   1  30
ATOM     30  C   UNL A   1      48.442  26.763  24.405  1.00  0.00     0.261 C 
BRANCH  30  31
ATOM     31  C   UNL A   1      49.061  27.187  23.073  1.00  0.00     0.202 C 
BRANCH  31  32
ATOM     32  O   UNL A   1      50.473  27.041  22.922  1.00  0.00    -0.374 OA
BRANCH  32  33
ATOM     33  C   UNL A   1      51.333  27.591  23.920  1.00  0.00     0.202 C 
BRANCH  33  34
ATOM     34  C   UNL A   1      52.351  26.677  24.619  1.00  0.00     0.261 C 
BRANCH  34  35
ATOM     35  O   UNL A   1      52.659  27.068  25.967  1.00  0.00    -0.460 OA
BRANCH  35  36
ATOM     36  C   UNL A   1      52.536  26.077  26.883  1.00  0.00     0.338 C 
ATOM     37  O   UNL A   1      53.292  25.141  27.073  1.00  0.00    -0.246 OA
BRANCH  36  38
ATOM     38  C   UNL A   1      51.412  26.372  27.788  1.00  0.00     0.060 A 
ATOM     39  C   UNL A   1      50.162  25.811  27.490  1.00  0.00     0.016 A 
ATOM     40  C   UNL A   1      51.558  27.266  28.847  1.00  0.00     0.016 A 
ATOM     41  C   UNL A   1      49.042  26.167  28.235  1.00  0.00     0.010 A 
ATOM     42  C   UNL A   1      50.431  27.633  29.585  1.00  0.00     0.010 A 
ATOM     43  C   UNL A   1      49.164  27.110  29.263  1.00  0.00    -0.014 A 
BRANCH  43  44
ATOM     44  C   UNL A   1      47.950  27.663  29.906  1.00  0.00     0.031 A 
ATOM     45  C   UNL A   1      47.351  26.933  31.073  1.00  0.00     0.074 A 
ATOM     46  C   UNL A   1      47.389  28.798  29.453  1.00  0.00     0.049 A 
ATOM     47  N   UNL A   1      46.240  27.170  31.722  1.00  0.00    -0.248 NA
ATOM     48  C   UNL A   1      48.103  25.771  31.570  1.00  0.00     0.031 C 
ATOM     49  C   UNL A   1      47.908  29.615  28.359  1.00  0.00     0.029 A 
ATOM     50  N   UNL A   1      46.246  29.444  29.850  1.00  0.00    -0.354 N 
ATOM     51  C   UNL A   1      46.151  26.176  32.688  1.00  0.00     0.074 A 
ATOM     52  C   UNL A   1      47.303  25.319  32.523  1.00  0.00     0.031 C 
ATOM     53  C   UNL A   1      47.073  30.647  28.156  1.00  0.00     0.029 A 
ATOM     54  C   UNL A   1      45.940  30.535  29.075  1.00  0.00     0.049 A 
ATOM     55  H   UNL A   1      45.698  29.154  30.614  1.00  0.00     0.167 HD
ATOM     56  C   UNL A   1      45.191  26.001  33.628  1.00  0.00     0.037 A 
ATOM     57  C   UNL A   1      44.853  31.330  29.085  1.00  0.00     0.037 A 
ATOM     58  C   UNL A   1      44.048  26.862  33.784  1.00  0.00     0.049 A 
ATOM     59  C   UNL A   1      43.760  31.071  30.090  1.00  0.00     0.074 A 
ATOM     60  C   UNL A   1      43.035  26.790  34.722  1.00  0.00     0.029 A 
ATOM     61  N   UNL A   1      43.761  27.948  32.967  1.00  0.00    -0.354 N 
ATOM     62  N   UNL A   1      43.689  30.147  31.018  1.00  0.00    -0.248 NA
ATOM     63  C   UNL A   1      42.596  31.968  30.051  1.00  0.00     0.031 C 
ATOM     64  C   UNL A   1      42.098  27.787  34.431  1.00  0.00     0.029 A 
ATOM     65  C   UNL A   1      42.566  28.531  33.358  1.00  0.00     0.049 A 
ATOM     66  H   UNL A   1      44.322  28.258  32.220  1.00  0.00     0.167 HD
ATOM     67  C   UNL A   1      42.496  30.370  31.693  1.00  0.00     0.074 A 
ATOM     68  C   UNL A   1      41.876  31.522  31.071  1.00  0.00     0.031 C 
ATOM     69  C   UNL A   1      41.966  29.685  32.737  1.00  0.00     0.037 A 
BRANCH  56  70
ATOM     70  C   UNL A   1      45.314  24.807  34.532  1.00  0.00     0.064 A 
ATOM     71  C   UNL A   1      45.911  24.890  35.800  1.00  0.00     0.173 A 
ATOM     72  C   UNL A   1      44.805  23.563  34.131  1.00  0.00     0.173 A 
ATOM     73  F   UNL A   1      46.423  26.053  36.230  1.00  0.00    -0.203 F 
ATOM     74  C   UNL A   1      46.027  23.765  36.614  1.00  0.00     0.198 A 
ATOM     75  C   UNL A   1      44.889  22.448  34.961  1.00  0.00     0.198 A 
ATOM     76  F   UNL A   1      44.218  23.425  32.931  1.00  0.00    -0.203 F 
ATOM     77  F   UNL A   1      46.655  23.857  37.794  1.00  0.00    -0.200 F 
ATOM     78  C   UNL A   1      45.510  22.549  36.197  1.00  0.00     0.200 A 
ATOM     79  F   UNL A   1      44.375  21.277  34.564  1.00  0.00    -0.200 F 
ATOM     80  F   UNL A   1      45.618  21.468  36.983  1.00  0.00    -0.200 F 
ENDBRANCH  56  70
BRANCH  57  81
ATOM     81  C   UNL A   1      44.738  32.432  28.095  1.00  0.00     0.064 A 
ATOM     82  C   UNL A   1      45.160  33.731  28.407  1.00  0.00     0.173 A 
ATOM     83  C   UNL A   1      44.207  32.208  26.816  1.00  0.00     0.173 A 
ATOM     84  F   UNL A   1      45.653  34.000  29.625  1.00  0.00    -0.203 F 
ATOM     85  C   UNL A   1      45.045  34.767  27.482  1.00  0.00     0.198 A 
ATOM     86  C   UNL A   1      44.121  33.238  25.881  1.00  0.00     0.198 A 
ATOM     87  F   UNL A   1      43.787  30.984  26.467  1.00  0.00    -0.203 F 
ATOM     88  F   UNL A   1      45.418  36.008  27.820  1.00  0.00    -0.200 F 
ATOM     89  C   UNL A   1      44.533  34.518  26.217  1.00  0.00     0.200 A 
ATOM     90  F   UNL A   1      43.641  32.989  24.655  1.00  0.00    -0.200 F 
ATOM     91  F   UNL A   1      44.432  35.512  25.325  1.00  0.00    -0.200 F 
ENDBRANCH  57  81
BRANCH  69  92
ATOM     92  C   UNL A   1      40.673  30.188  33.317  1.00  0.00     0.064 A 
ATOM     93  C   UNL A   1      40.634  31.241  34.243  1.00  0.00     0.173 A 
ATOM     94  C   UNL A   1      39.450  29.651  32.884  1.00  0.00     0.173 A 
ATOM     95  F   UNL A   1      41.774  31.781  34.701  1.00  0.00    -0.203 F 
ATOM     96  C   UNL A   1      39.419  31.724  34.727  1.00  0.00     0.198 A 
ATOM     97  C   UNL A   1      38.239  30.159  33.343  1.00  0.00     0.198 A 
ATOM     98  F   UNL A   1      39.431  28.647  31.994  1.00  0.00    -0.203 F 
ATOM     99  F   UNL A   1      39.407  32.702  35.643  1.00  0.00    -0.200 F 
ATOM    100  C   UNL A   1      38.224  31.190  34.268  1.00  0.00     0.200 A 
ATOM    101  F   UNL A   1      37.085  29.654  32.884  1.00  0.00    -0.200 F 
ATOM    102  F   UNL A   1      37.057  31.668  34.722  1.00  0.00    -0.200 F 
ENDBRANCH  69  92
ENDBRANCH  43  44
ENDBRANCH  36  38
ENDBRANCH  35  36
ENDBRANCH  34  35
ENDBRANCH  33  34
ENDBRANCH  32  33
ENDBRANCH  31  32
ENDBRANCH  30  31
ENDBRANCH   1  30
TORSDOF 22
ENDMDL
MODEL 2
REMARK VINA RESULT:      -8.7      3.831      7.951
REMARK SMILES C[C@H](NC(=O)OCc1ccccc1)C(=O)NCC(=O)N1CCC[C@H]1C(=O)OCCOCCOC(=O)c1ccc(-c2c3nc(c(-c4c(F)c(F)c(F)c(F)c4F)c4ccc([nH]4)c(-c4c(F)c(F)c(F)c(F)c4F)c4nc(c(-c5c(F)c(F)c(F)c(F)c5F)c5ccc2[nH]5)C=C4)C=C3)cc1
REMARK SMILES IDX 27 1 25 2 26 3 24 4 20 5 21 6 22 7 23 8 18 9 19 10 17 11
REMARK SMILES IDX 16 12 14 13 15 14 2 16 1 17 3 18 4 19 5 21 6 22 7 23 8 24
REMARK SMILES IDX 9 25 13 26 10 27 12 28 11 29 28 30 29 31 30 32 31 33 32 34
REMARK SMILES IDX 33 35 34 36 35 37 36 38 37 39 98 40 38 41 97 42 39 43 40 44
REMARK SMILES IDX 41 45 91 46 42 47 96 48 90 49 92 50 43 51 95 52 89 53 88 54
REMARK SMILES IDX 44 56 76 57 56 58 75 59 57 60 60 61 74 62 93 63 58 64 59 65
REMARK SMILES IDX 73 67 94 68 61 69 45 70 46 71 54 72 47 73 48 74 52 75 55 76
REMARK SMILES IDX 49 77 50 78 53 79 51 80 77 81 78 82 86 83 79 84 80 85 84 86
REMARK SMILES IDX 87 87 81 88 82 89 85 90 83 91 62 92 63 93 71 94 64 95 65 96
REMARK SMILES IDX 69 97 72 98 66 99 67 100 70 101 68 102
REMARK H PARENT 16 15 3 20 92 55 60 66
REMARK Flexibility Score: inf
ROOT
ATOM      1  O   UNL A   1      44.779  23.800  25.260  1.00  0.00    -0.462 OA
ENDROOT
BRANCH   1   2
ATOM      2  C   UNL A   1      43.955  22.757  24.981  1.00  0.00     0.328 C 
ATOM      3  O   UNL A   1      43.308  22.621  23.948  1.00  0.00    -0.250 OA
BRANCH   2   4
ATOM      4  C   UNL A   1      43.962  21.754  26.141  1.00  0.00     0.195 C 
ATOM      5  N   UNL A   1      42.834  22.004  27.019  1.00  0.00    -0.327 N 
ATOM      6  C   UNL A   1      41.687  21.276  26.513  1.00  0.00     0.120 C 
ATOM      7  C   UNL A   1      42.280  20.013  25.900  1.00  0.00     0.024 C 
ATOM      8  C   UNL A   1      43.743  20.339  25.600  1.00  0.00     0.039 C 
BRANCH   5   9
ATOM      9  C   UNL A   1      43.007  22.877  28.063  1.00  0.00     0.242 C 
ATOM     10  O   UNL A   1      43.628  22.519  29.075  1.00  0.00    -0.273 OA
BRANCH   9  11
ATOM     11  C   UNL A   1      42.363  24.269  28.103  1.00  0.00     0.216 C 
BRANCH  11  12
ATOM     12  N   UNL A   1      42.343  25.134  26.949  1.00  0.00    -0.345 N 
ATOM     13  C   UNL A   1      41.298  25.643  26.246  1.00  0.00     0.242 C 
ATOM     14  O   UNL A   1      41.575  26.463  25.364  1.00  0.00    -0.273 OA
ATOM     15  H   UNL A   1      43.231  25.399  26.618  1.00  0.00     0.164 HD
BRANCH  13  16
ATOM     16  C   UNL A   1      39.819  25.293  26.539  1.00  0.00     0.171 C 
ATOM     17  C   UNL A   1      39.394  25.768  27.918  1.00  0.00     0.042 C 
BRANCH  16  18
ATOM     18  N   UNL A   1      39.447  23.932  26.155  1.00  0.00    -0.310 N 
ATOM     19  C   UNL A   1      38.252  23.297  26.071  1.00  0.00     0.408 C 
ATOM     20  H   UNL A   1      40.214  23.366  25.908  1.00  0.00     0.167 HD
ATOM     21  O   UNL A   1      38.209  22.086  25.877  1.00  0.00    -0.225 OA
BRANCH  19  22
ATOM     22  O   UNL A   1      37.185  24.109  26.223  1.00  0.00    -0.445 OA
BRANCH  22  23
ATOM     23  C   UNL A   1      35.902  23.464  26.182  1.00  0.00     0.270 C 
BRANCH  23  24
ATOM     24  C   UNL A   1      35.118  23.834  24.946  1.00  0.00    -0.011 A 
ATOM     25  C   UNL A   1      34.481  25.080  24.868  1.00  0.00     0.007 A 
ATOM     26  C   UNL A   1      34.981  22.931  23.880  1.00  0.00     0.007 A 
ATOM     27  C   UNL A   1      33.682  25.396  23.769  1.00  0.00     0.000 A 
ATOM     28  C   UNL A   1      34.176  23.247  22.786  1.00  0.00     0.000 A 
ATOM     29  C   UNL A   1      33.520  24.476  22.736  1.00  0.00     0.000 A 
ENDBRANCH  23  24
ENDBRANCH  22  23
ENDBRANCH  19  22
ENDBRANCH  16  18
ENDBRANCH  13  16
ENDBRANCH  11  12
ENDBRANCH   9  11
ENDBRANCH   5   9
ENDBRANCH   2   4
ENDBRANCH   1   2
BRANCH   1  30
ATOM     30  C   UNL A   1      46.007  23.462  25.905  1.00  0.00     0.261 C 
BRANCH  30  31
ATOM     31  C   UNL A   1      46.550  24.691  26.634  1.00  0.00     0.202 C 
BRANCH  31  32
ATOM     32  O   UNL A   1      47.319  25.624  25.877  1.00  0.00    -0.374 OA
BRANCH  32  33
ATOM     33  C   UNL A   1      46.770  26.154  24.671  1.00  0.00     0.202 C 
BRANCH  33  34
ATOM     34  C   UNL A   1      47.270  27.510  24.151  1.00  0.00     0.261 C 
BRANCH  34  35
ATOM     35  O   UNL A   1      46.630  28.642  24.761  1.00  0.00    -0.460 OA
BRANCH  35  36
ATOM     36  C   UNL A   1      47.149  29.003  25.960  1.00  0.00     0.338 C 
ATOM     37  O   UNL A   1      48.309  29.272  26.219  1.00  0.00    -0.246 OA
BRANCH  36  38
ATOM     38  C   UNL A   1      46.062  29.214  26.931  1.00  0.00     0.060 A 
ATOM     39  C   UNL A   1      45.682  30.532  27.218  1.00  0.00     0.016 A 
ATOM     40  C   UNL A   1      45.499  28.143  27.623  1.00  0.00     0.016 A 
ATOM     41  C   UNL A   1      44.755  30.788  28.225  1.00  0.00     0.010 A 
ATOM     42  C   UNL A   1      44.580  28.401  28.643  1.00  0.00     0.010 A 
ATOM     43  C   UNL A   1      44.229  29.725  28.969  1.00  0.00    -0.014 A 
BRANCH  43  44
ATOM     44  C   UNL A   1      43.425  29.999  30.182  1.00  0.00     0.031 A 
ATOM     45  C   UNL A   1      41.952  30.252  30.034  1.00  0.00     0.074 A 
ATOM     46  C   UNL A   1      44.001  30.026  31.396  1.00  0.00     0.049 A 
ATOM     47  N   UNL A   1      41.075  30.614  30.935  1.00  0.00    -0.248 NA
ATOM     48  C   UNL A   1      41.394  30.083  28.684  1.00  0.00     0.031 C 
ATOM     49  C   UNL A   1      45.410  29.751  31.666  1.00  0.00     0.029 A 
ATOM     50  N   UNL A   1      43.469  30.318  32.626  1.00  0.00    -0.354 N 
ATOM     51  C   UNL A   1      39.869  30.734  30.258  1.00  0.00     0.074 A 
ATOM     52  C   UNL A   1      40.132  30.435  28.868  1.00  0.00     0.031 C 
ATOM     53  C   UNL A   1      45.638  29.908  32.980  1.00  0.00     0.029 A 
ATOM     54  C   UNL A   1      44.402  30.338  33.633  1.00  0.00     0.049 A 
ATOM     55  H   UNL A   1      42.512  30.497  32.773  1.00  0.00     0.167 HD
ATOM     56  C   UNL A   1      38.654  31.064  30.756  1.00  0.00     0.037 A 
ATOM     57  C   UNL A   1      44.278  30.697  34.925  1.00  0.00     0.037 A 
ATOM     58  C   UNL A   1      38.404  31.359  32.143  1.00  0.00     0.049 A 
ATOM     59  C   UNL A   1      42.932  31.133  35.443  1.00  0.00     0.074 A 
ATOM     60  C   UNL A   1      37.205  31.674  32.756  1.00  0.00     0.029 A 
ATOM     61  N   UNL A   1      39.379  31.388  33.132  1.00  0.00    -0.354 N 
ATOM     62  N   UNL A   1      41.788  31.224  34.806  1.00  0.00    -0.248 NA
ATOM     63  C   UNL A   1      42.858  31.517  36.859  1.00  0.00     0.031 C 
ATOM     64  C   UNL A   1      37.464  31.963  34.099  1.00  0.00     0.029 A 
ATOM     65  C   UNL A   1      38.813  31.753  34.342  1.00  0.00     0.049 A 
ATOM     66  H   UNL A   1      40.331  31.181  32.993  1.00  0.00     0.167 HD
ATOM     67  C   UNL A   1      40.856  31.639  35.748  1.00  0.00     0.074 A 
ATOM     68  C   UNL A   1      41.566  31.778  37.002  1.00  0.00     0.031 C 
ATOM     69  C   UNL A   1      39.530  31.876  35.587  1.00  0.00     0.037 A 
BRANCH  56  70
ATOM     70  C   UNL A   1      37.510  31.166  29.787  1.00  0.00     0.064 A 
ATOM     71  C   UNL A   1      37.147  32.381  29.186  1.00  0.00     0.173 A 
ATOM     72  C   UNL A   1      36.777  30.021  29.438  1.00  0.00     0.173 A 
ATOM     73  F   UNL A   1      37.807  33.509  29.491  1.00  0.00    -0.203 F 
ATOM     74  C   UNL A   1      36.072  32.452  28.302  1.00  0.00     0.198 A 
ATOM     75  C   UNL A   1      35.726  30.088  28.527  1.00  0.00     0.198 A 
ATOM     76  F   UNL A   1      37.083  28.830  29.977  1.00  0.00    -0.203 F 
ATOM     77  F   UNL A   1      35.708  33.635  27.787  1.00  0.00    -0.200 F 
ATOM     78  C   UNL A   1      35.369  31.305  27.969  1.00  0.00     0.200 A 
ATOM     79  F   UNL A   1      35.058  28.976  28.193  1.00  0.00    -0.200 F 
ATOM     80  F   UNL A   1      34.338  31.375  27.114  1.00  0.00    -0.200 F 
ENDBRANCH  56  70
BRANCH  57  81
ATOM     81  C   UNL A   1      45.470  30.677  35.812  1.00  0.00     0.064 A 
ATOM     82  C   UNL A   1      45.788  29.543  36.571  1.00  0.00     0.173 A 
ATOM     83  C   UNL A   1      46.319  31.790  35.916  1.00  0.00     0.173 A 
ATOM     84  F   UNL A   1      44.995  28.462  36.524  1.00  0.00    -0.203 F 
ATOM     85  C   UNL A   1      46.901  29.526  37.410  1.00  0.00     0.198 A 
ATOM     86  C   UNL A   1      47.448  31.761  36.731  1.00  0.00     0.198 A 
ATOM     87  F   UNL A   1      46.059  32.901  35.212  1.00  0.00    -0.203 F 
ATOM     88  F   UNL A   1      47.158  28.444  38.156  1.00  0.00    -0.200 F 
ATOM     89  C   UNL A   1      47.735  30.632  37.482  1.00  0.00     0.200 A 
ATOM     90  F   UNL A   1      48.259  32.826  36.785  1.00  0.00    -0.200 F 
ATOM     91  F   UNL A   1      48.810  30.612  38.281  1.00  0.00    -0.200 F 
ENDBRANCH  57  81
BRANCH  69  92
ATOM     92  C   UNL A   1      38.738  32.263  36.806  1.00  0.00     0.064 A 
ATOM     93  C   UNL A   1      37.913  31.348  37.477  1.00  0.00     0.173 A 
ATOM     94  C   UNL A   1      38.863  33.552  37.348  1.00  0.00     0.173 A 
ATOM     95  F   UNL A   1      37.748  30.107  36.994  1.00  0.00    -0.203 F 
ATOM     96  C   UNL A   1      37.230  31.716  38.634  1.00  0.00     0.198 A 
ATOM     97  C   UNL A   1      38.206  33.905  38.523  1.00  0.00     0.198 A 
ATOM     98  F   UNL A   1      39.644  34.464  36.749  1.00  0.00    -0.203 F 
ATOM     99  F   UNL A   1      36.414  30.838  39.235  1.00  0.00    -0.200 F 
ATOM    100  C   UNL A   1      37.386  32.989  39.161  1.00  0.00     0.200 A 
ATOM    101  F   UNL A   1      38.373  35.130  39.040  1.00  0.00    -0.200 F 
ATOM    102  F   UNL A   1      36.741  33.335  40.284  1.00  0.00    -0.200 F 
ENDBRANCH  69  92
ENDBRANCH  43  44
ENDBRANCH  36  38
ENDBRANCH  35  36
ENDBRANCH  34  35
ENDBRANCH  33  34
ENDBRANCH  32  33
ENDBRANCH  31  32
ENDBRANCH  30  31
ENDBRANCH   1  30
TORSDOF 22
ENDMDL
MODEL 3
REMARK VINA RESULT:      -8.7      6.131     12.641
REMARK SMILES C[C@H](NC(=O)OCc1ccccc1)C(=O)NCC(=O)N1CCC[C@H]1C(=O)OCCOCCOC(=O)c1ccc(-c2c3nc(c(-c4c(F)c(F)c(F)c(F)c4F)c4ccc([nH]4)c(-c4c(F)c(F)c(F)c(F)c4F)c4nc(c(-c5c(F)c(F)c(F)c(F)c5F)c5ccc2[nH]5)C=C4)C=C3)cc1
REMARK SMILES IDX 27 1 25 2 26 3 24 4 20 5 21 6 22 7 23 8 18 9 19 10 17 11
REMARK SMILES IDX 16 12 14 13 15 14 2 16 1 17 3 18 4 19 5 21 6 22 7 23 8 24
REMARK SMILES IDX 9 25 13 26 10 27 12 28 11 29 28 30 29 31 30 32 31 33 32 34
REMARK SMILES IDX 33 35 34 36 35 37 36 38 37 39 98 40 38 41 97 42 39 43 40 44
REMARK SMILES IDX 41 45 91 46 42 47 96 48 90 49 92 50 43 51 95 52 89 53 88 54
REMARK SMILES IDX 44 56 76 57 56 58 75 59 57 60 60 61 74 62 93 63 58 64 59 65
REMARK SMILES IDX 73 67 94 68 61 69 45 70 46 71 54 72 47 73 48 74 52 75 55 76
REMARK SMILES IDX 49 77 50 78 53 79 51 80 77 81 78 82 86 83 79 84 80 85 84 86
REMARK SMILES IDX 87 87 81 88 82 89 85 90 83 91 62 92 63 93 71 94 64 95 65 96
REMARK SMILES IDX 69 97 72 98 66 99 67 100 70 101 68 102
REMARK H PARENT 16 15 3 20 92 55 60 66
REMARK Flexibility Score: inf
ROOT
ATOM      1  O   UNL A   1      40.686  35.003  37.665  1.00  0.00    -0.462 OA
ENDROOT
BRANCH   1   2
ATOM      2  C   UNL A   1      39.775  34.802  36.678  1.00  0.00     0.328 C 
ATOM      3  O   UNL A   1      39.517  35.596  35.780  1.00  0.00    -0.250 OA
BRANCH   2   4
ATOM      4  C   UNL A   1      39.122  33.424  36.836  1.00  0.00     0.195 C 
ATOM      5  N   UNL A   1      38.273  33.144  35.693  1.00  0.00    -0.327 N 
ATOM      6  C   UNL A   1      39.084  32.543  34.653  1.00  0.00     0.120 C 
ATOM      7  C   UNL A   1      40.128  31.729  35.408  1.00  0.00     0.024 C 
ATOM      8  C   UNL A   1      40.200  32.337  36.809  1.00  0.00     0.039 C 
BRANCH   5   9
ATOM      9  C   UNL A   1      36.958  33.529  35.753  1.00  0.00     0.242 C 
ATOM     10  O   UNL A   1      36.337  33.454  36.824  1.00  0.00    -0.273 OA
BRANCH   9  11
ATOM     11  C   UNL A   1      36.153  33.952  34.517  1.00  0.00     0.216 C 
BRANCH  11  12
ATOM     12  N   UNL A   1      34.782  33.549  34.325  1.00  0.00    -0.345 N 
ATOM     13  C   UNL A   1      33.998  33.587  33.216  1.00  0.00     0.242 C 
ATOM     14  O   UNL A   1      32.885  33.059  33.309  1.00  0.00    -0.273 OA
ATOM     15  H   UNL A   1      34.343  33.186  35.128  1.00  0.00     0.164 HD
BRANCH  13  16
ATOM     16  C   UNL A   1      34.455  34.193  31.867  1.00  0.00     0.171 C 
ATOM     17  C   UNL A   1      33.996  35.634  31.718  1.00  0.00     0.042 C 
BRANCH  16  18
ATOM     18  N   UNL A   1      34.257  33.306  30.722  1.00  0.00    -0.310 N 
ATOM     19  C   UNL A   1      35.016  32.321  30.182  1.00  0.00     0.408 C 
ATOM     20  H   UNL A   1      33.405  33.452  30.251  1.00  0.00     0.167 HD
ATOM     21  O   UNL A   1      34.704  31.820  29.106  1.00  0.00    -0.225 OA
BRANCH  19  22
ATOM     22  O   UNL A   1      36.092  31.987  30.925  1.00  0.00    -0.445 OA
BRANCH  22  23
ATOM     23  C   UNL A   1      35.962  30.784  31.701  1.00  0.00     0.270 C 
BRANCH  23  24
ATOM     24  C   UNL A   1      37.078  29.805  31.427  1.00  0.00    -0.011 A 
ATOM     25  C   UNL A   1      37.822  29.278  32.491  1.00  0.00     0.007 A 
ATOM     26  C   UNL A   1      37.412  29.440  30.114  1.00  0.00     0.007 A 
ATOM     27  C   UNL A   1      38.911  28.441  32.244  1.00  0.00     0.000 A 
ATOM     28  C   UNL A   1      38.506  28.609  29.870  1.00  0.00     0.000 A 
ATOM     29  C   UNL A   1      39.259  28.118  30.934  1.00  0.00     0.000 A 
ENDBRANCH  23  24
ENDBRANCH  22  23
ENDBRANCH  19  22
ENDBRANCH  16  18
ENDBRANCH  13  16
ENDBRANCH  11  12
ENDBRANCH   9  11
ENDBRANCH   5   9
ENDBRANCH   2   4
ENDBRANCH   1   2
BRANCH   1  30
ATOM     30  C   UNL A   1      40.151  35.138  38.982  1.00  0.00     0.261 C 
BRANCH  30  31
ATOM     31  C   UNL A   1      41.211  34.726  40.003  1.00  0.00     0.202 C 
BRANCH  31  32
ATOM     32  O   UNL A   1      42.580  34.825  39.613  1.00  0.00    -0.374 OA
BRANCH  32  33
ATOM     33  C   UNL A   1      43.568  35.055  40.618  1.00  0.00     0.202 C 
BRANCH  33  34
ATOM     34  C   UNL A   1      43.886  33.940  41.626  1.00  0.00     0.261 C 
BRANCH  34  35
ATOM     35  O   UNL A   1      44.018  32.638  41.034  1.00  0.00    -0.460 OA
BRANCH  35  36
ATOM     36  C   UNL A   1      45.217  32.406  40.445  1.00  0.00     0.338 C 
ATOM     37  O   UNL A   1      46.315  32.387  40.974  1.00  0.00    -0.246 OA
BRANCH  36  38
ATOM     38  C   UNL A   1      45.014  31.984  39.049  1.00  0.00     0.060 A 
ATOM     39  C   UNL A   1      43.781  31.411  38.707  1.00  0.00     0.016 A 
ATOM     40  C   UNL A   1      46.050  32.053  38.120  1.00  0.00     0.016 A 
ATOM     41  C   UNL A   1      43.588  30.875  37.437  1.00  0.00     0.010 A 
ATOM     42  C   UNL A   1      45.860  31.502  36.850  1.00  0.00     0.010 A 
ATOM     43  C   UNL A   1      44.641  30.883  36.514  1.00  0.00    -0.014 A 
BRANCH  43  44
ATOM     44  C   UNL A   1      44.523  30.118  35.252  1.00  0.00     0.031 A 
ATOM     45  C   UNL A   1      43.848  30.761  34.075  1.00  0.00     0.074 A 
ATOM     46  C   UNL A   1      45.007  28.867  35.159  1.00  0.00     0.049 A 
ATOM     47  N   UNL A   1      43.540  30.249  32.911  1.00  0.00    -0.248 NA
ATOM     48  C   UNL A   1      43.461  32.170  34.236  1.00  0.00     0.031 C 
ATOM     49  C   UNL A   1      45.720  28.160  36.219  1.00  0.00     0.029 A 
ATOM     50  N   UNL A   1      44.951  27.967  34.125  1.00  0.00    -0.354 N 
ATOM     51  C   UNL A   1      42.905  31.267  32.211  1.00  0.00     0.074 A 
ATOM     52  C   UNL A   1      42.848  32.415  33.088  1.00  0.00     0.031 C 
ATOM     53  C   UNL A   1      46.019  26.923  35.789  1.00  0.00     0.029 A 
ATOM     54  C   UNL A   1      45.478  26.740  34.442  1.00  0.00     0.049 A 
ATOM     55  H   UNL A   1      44.570  28.180  33.243  1.00  0.00     0.167 HD
ATOM     56  C   UNL A   1      42.417  31.241  30.947  1.00  0.00     0.037 A 
ATOM     57  C   UNL A   1      45.489  25.592  33.739  1.00  0.00     0.037 A 
ATOM     58  C   UNL A   1      42.481  30.092  30.082  1.00  0.00     0.049 A 
ATOM     59  C   UNL A   1      44.874  25.564  32.364  1.00  0.00     0.074 A 
ATOM     60  C   UNL A   1      42.043  29.971  28.775  1.00  0.00     0.029 A 
ATOM     61  N   UNL A   1      43.005  28.859  30.445  1.00  0.00    -0.354 N 
ATOM     62  N   UNL A   1      44.296  26.533  31.694  1.00  0.00    -0.248 NA
ATOM     63  C   UNL A   1      44.912  24.283  31.644  1.00  0.00     0.031 C 
ATOM     64  C   UNL A   1      42.238  28.647  28.371  1.00  0.00     0.029 A 
ATOM     65  C   UNL A   1      42.868  27.961  29.399  1.00  0.00     0.049 A 
ATOM     66  H   UNL A   1      43.413  28.653  31.317  1.00  0.00     0.167 HD
ATOM     67  C   UNL A   1      43.935  25.991  30.468  1.00  0.00     0.074 A 
ATOM     68  C   UNL A   1      44.363  24.608  30.482  1.00  0.00     0.031 C 
ATOM     69  C   UNL A   1      43.310  26.589  29.422  1.00  0.00     0.037 A 
BRANCH  56  70
ATOM     70  C   UNL A   1      41.731  32.479  30.442  1.00  0.00     0.064 A 
ATOM     71  C   UNL A   1      42.421  33.479  29.739  1.00  0.00     0.173 A 
ATOM     72  C   UNL A   1      40.354  32.656  30.646  1.00  0.00     0.173 A 
ATOM     73  F   UNL A   1      43.741  33.366  29.525  1.00  0.00    -0.203 F 
ATOM     74  C   UNL A   1      41.766  34.626  29.294  1.00  0.00     0.198 A 
ATOM     75  C   UNL A   1      39.695  33.786  30.168  1.00  0.00     0.198 A 
ATOM     76  F   UNL A   1      39.642  31.729  31.306  1.00  0.00    -0.203 F 
ATOM     77  F   UNL A   1      42.458  35.594  28.678  1.00  0.00    -0.200 F 
ATOM     78  C   UNL A   1      40.404  34.774  29.502  1.00  0.00     0.200 A 
ATOM     79  F   UNL A   1      38.375  33.919  30.356  1.00  0.00    -0.200 F 
ATOM     80  F   UNL A   1      39.774  35.875  29.068  1.00  0.00    -0.200 F 
ENDBRANCH  56  70
BRANCH  57  81
ATOM     81  C   UNL A   1      46.089  24.370  34.334  1.00  0.00     0.064 A 
ATOM     82  C   UNL A   1      45.291  23.406  34.965  1.00  0.00     0.173 A 
ATOM     83  C   UNL A   1      47.472  24.137  34.279  1.00  0.00     0.173 A 
ATOM     84  F   UNL A   1      43.967  23.594  35.064  1.00  0.00    -0.203 F 
ATOM     85  C   UNL A   1      45.855  22.263  35.531  1.00  0.00     0.198 A 
ATOM     86  C   UNL A   1      48.030  22.980  34.817  1.00  0.00     0.198 A 
ATOM     87  F   UNL A   1      48.280  25.028  33.687  1.00  0.00    -0.203 F 
ATOM     88  F   UNL A   1      45.074  21.379  36.165  1.00  0.00    -0.200 F 
ATOM     89  C   UNL A   1      47.222  22.047  35.449  1.00  0.00     0.200 A 
ATOM     90  F   UNL A   1      49.350  22.768  34.721  1.00  0.00    -0.200 F 
ATOM     91  F   UNL A   1      47.761  20.944  35.984  1.00  0.00    -0.200 F 
ENDBRANCH  57  81
BRANCH  69  92
ATOM     92  C   UNL A   1      43.094  25.772  28.179  1.00  0.00     0.064 A 
ATOM     93  C   UNL A   1      44.066  25.678  27.173  1.00  0.00     0.173 A 
ATOM     94  C   UNL A   1      41.920  25.015  28.028  1.00  0.00     0.173 A 
ATOM     95  F   UNL A   1      45.200  26.390  27.261  1.00  0.00    -0.203 F 
ATOM     96  C   UNL A   1      43.863  24.872  26.054  1.00  0.00     0.198 A 
ATOM     97  C   UNL A   1      41.736  24.185  26.926  1.00  0.00     0.198 A 
ATOM     98  F   UNL A   1      40.961  25.063  28.964  1.00  0.00    -0.203 F 
ATOM     99  F   UNL A   1      44.788  24.831  25.084  1.00  0.00    -0.200 F 
ATOM    100  C   UNL A   1      42.704  24.119  25.938  1.00  0.00     0.200 A 
ATOM    101  F   UNL A   1      40.623  23.445  26.826  1.00  0.00    -0.200 F 
ATOM    102  F   UNL A   1      42.519  23.332  24.869  1.00  0.00    -0.200 F 
ENDBRANCH  69  92
ENDBRANCH  43  44
ENDBRANCH  36  38
ENDBRANCH  35  36
ENDBRANCH  34  35
ENDBRANCH  33  34
ENDBRANCH  32  33
ENDBRANCH  31  32
ENDBRANCH  30  31
ENDBRANCH   1  30
TORSDOF 22
ENDMDL
