MODEL 1
REMARK VINA RESULT:      -9.5      0.000      0.000
REMARK SMILES O=C(OCCOCCOC(=O)c1cccc2c1cc(Br)c1ccccc12)c1ccc(-c2c3nc(c(-c4c(F)c(F)c(F)c(F)c4F)c4ccc([nH]4)c(-c4c(F)c(F)c(F)c(F)c4F)c4nc(c(-c5c(F)c(F)c(F)c(F)c5F)c5ccc2[nH]5)C=C4)C=C3)cc1
REMARK SMILES IDX 5 1 4 2 3 3 2 4 1 5 27 6 28 7 89 8 29 9 88 10 30 11 31 12
REMARK SMILES IDX 32 13 82 14 33 15 87 16 81 17 83 18 34 19 86 20 80 21 79 22
REMARK SMILES IDX 35 24 67 25 47 26 66 27 48 28 51 29 65 30 84 31 49 32 50 33
REMARK SMILES IDX 64 35 85 36 52 37 36 38 37 39 45 40 38 41 39 42 43 43 46 44
REMARK SMILES IDX 40 45 41 46 44 47 42 48 68 49 69 50 77 51 70 52 71 53 75 54
REMARK SMILES IDX 78 55 72 56 73 57 76 58 74 59 53 60 54 61 62 62 55 63 56 64
REMARK SMILES IDX 60 65 63 66 57 67 58 68 61 69 59 70 6 71 7 72 8 73 9 74
REMARK SMILES IDX 10 75 11 76 12 77 13 78 17 79 14 80 16 81 18 82 15 83 26 84
REMARK SMILES IDX 19 85 21 86 25 87 20 88 22 89 24 90 23 91
REMARK H PARENT 83 23 51 34
REMARK Flexibility Score: inf
ROOT
ATOM      1  C   UNL A   1      33.307  37.160  31.302  1.00  0.00     0.202 C 
ENDROOT
BRANCH   1   2
ATOM      2  C   UNL A   1      32.476  36.100  30.579  1.00  0.00     0.261 C 
BRANCH   2   3
ATOM      3  O   UNL A   1      33.040  35.767  29.304  1.00  0.00    -0.460 OA
BRANCH   3   4
ATOM      4  C   UNL A   1      33.576  34.594  28.899  1.00  0.00     0.338 C 
ATOM      5  O   UNL A   1      32.983  33.980  28.009  1.00  0.00    -0.246 OA
BRANCH   4   6
ATOM      6  C   UNL A   1      34.853  33.985  29.418  1.00  0.00     0.060 A 
ATOM      7  C   UNL A   1      36.024  34.329  28.712  1.00  0.00     0.016 A 
ATOM      8  C   UNL A   1      34.988  33.076  30.471  1.00  0.00     0.016 A 
ATOM      9  C   UNL A   1      37.259  33.745  29.009  1.00  0.00     0.010 A 
ATOM     10  C   UNL A   1      36.211  32.479  30.770  1.00  0.00     0.010 A 
ATOM     11  C   UNL A   1      37.345  32.798  30.029  1.00  0.00    -0.014 A 
BRANCH  11  12
ATOM     12  C   UNL A   1      38.619  32.169  30.404  1.00  0.00     0.031 A 
ATOM     13  C   UNL A   1      39.585  32.880  31.297  1.00  0.00     0.074 A 
ATOM     14  C   UNL A   1      38.932  31.007  29.812  1.00  0.00     0.049 A 
ATOM     15  N   UNL A   1      40.754  32.483  31.728  1.00  0.00    -0.248 NA
ATOM     16  C   UNL A   1      39.195  34.224  31.750  1.00  0.00     0.031 C 
ATOM     17  C   UNL A   1      38.073  30.300  28.862  1.00  0.00     0.029 A 
ATOM     18  N   UNL A   1      40.056  30.235  29.896  1.00  0.00    -0.354 N 
ATOM     19  C   UNL A   1      41.227  33.511  32.529  1.00  0.00     0.074 A 
ATOM     20  C   UNL A   1      40.250  34.578  32.473  1.00  0.00     0.031 C 
ATOM     21  C   UNL A   1      38.707  29.195  28.442  1.00  0.00     0.029 A 
ATOM     22  C   UNL A   1      40.008  29.123  29.098  1.00  0.00     0.049 A 
ATOM     23  H   UNL A   1      40.824  30.458  30.471  1.00  0.00     0.167 HD
ATOM     24  C   UNL A   1      42.370  33.540  33.258  1.00  0.00     0.037 A 
ATOM     25  C   UNL A   1      40.915  28.146  28.931  1.00  0.00     0.037 A 
ATOM     26  C   UNL A   1      43.346  32.479  33.245  1.00  0.00     0.049 A 
ATOM     27  C   UNL A   1      42.177  28.200  29.738  1.00  0.00     0.074 A 
ATOM     28  C   UNL A   1      44.519  32.367  33.970  1.00  0.00     0.029 A 
ATOM     29  N   UNL A   1      43.268  31.349  32.437  1.00  0.00    -0.354 N 
ATOM     30  N   UNL A   1      42.578  29.122  30.581  1.00  0.00    -0.248 NA
ATOM     31  C   UNL A   1      43.099  27.069  29.592  1.00  0.00     0.031 C 
ATOM     32  C   UNL A   1      45.171  31.194  33.567  1.00  0.00     0.029 A 
ATOM     33  C   UNL A   1      44.382  30.547  32.628  1.00  0.00     0.049 A 
ATOM     34  H   UNL A   1      42.527  31.148  31.821  1.00  0.00     0.167 HD
ATOM     35  C   UNL A   1      43.795  28.685  31.076  1.00  0.00     0.074 A 
ATOM     36  C   UNL A   1      44.051  27.396  30.455  1.00  0.00     0.031 C 
ATOM     37  C   UNL A   1      44.627  29.289  31.961  1.00  0.00     0.037 A 
BRANCH  24  38
ATOM     38  C   UNL A   1      42.609  34.743  34.127  1.00  0.00     0.064 A 
ATOM     39  C   UNL A   1      42.912  35.997  33.571  1.00  0.00     0.173 A 
ATOM     40  C   UNL A   1      42.505  34.661  35.525  1.00  0.00     0.173 A 
ATOM     41  F   UNL A   1      43.030  36.136  32.241  1.00  0.00    -0.203 F 
ATOM     42  C   UNL A   1      43.134  37.111  34.378  1.00  0.00     0.198 A 
ATOM     43  C   UNL A   1      42.698  35.784  36.328  1.00  0.00     0.198 A 
ATOM     44  F   UNL A   1      42.210  33.493  36.114  1.00  0.00    -0.203 F 
ATOM     45  F   UNL A   1      43.470  38.284  33.822  1.00  0.00    -0.200 F 
ATOM     46  C   UNL A   1      43.021  37.006  35.755  1.00  0.00     0.200 A 
ATOM     47  F   UNL A   1      42.574  35.685  37.659  1.00  0.00    -0.200 F 
ATOM     48  F   UNL A   1      43.227  38.079  36.530  1.00  0.00    -0.200 F 
ENDBRANCH  24  38
BRANCH  25  49
ATOM     49  C   UNL A   1      40.576  27.009  28.044  1.00  0.00     0.064 A 
ATOM     50  C   UNL A   1      41.292  26.806  26.858  1.00  0.00     0.173 A 
ATOM     51  C   UNL A   1      39.640  26.037  28.423  1.00  0.00     0.173 A 
ATOM     52  F   UNL A   1      42.194  27.715  26.457  1.00  0.00    -0.203 F 
ATOM     53  C   UNL A   1      41.093  25.664  26.086  1.00  0.00     0.198 A 
ATOM     54  C   UNL A   1      39.456  24.885  27.661  1.00  0.00     0.198 A 
ATOM     55  F   UNL A   1      38.947  26.179  29.562  1.00  0.00    -0.203 F 
ATOM     56  F   UNL A   1      41.794  25.491  24.958  1.00  0.00    -0.200 F 
ATOM     57  C   UNL A   1      40.185  24.699  26.495  1.00  0.00     0.200 A 
ATOM     58  F   UNL A   1      38.595  23.943  28.069  1.00  0.00    -0.200 F 
ATOM     59  F   UNL A   1      40.021  23.583  25.772  1.00  0.00    -0.200 F 
ENDBRANCH  25  49
BRANCH  37  60
ATOM     60  C   UNL A   1      45.901  28.564  32.280  1.00  0.00     0.064 A 
ATOM     61  C   UNL A   1      47.070  28.785  31.537  1.00  0.00     0.173 A 
ATOM     62  C   UNL A   1      45.956  27.647  33.339  1.00  0.00     0.173 A 
ATOM     63  F   UNL A   1      47.062  29.642  30.504  1.00  0.00    -0.203 F 
ATOM     64  C   UNL A   1      48.239  28.087  31.821  1.00  0.00     0.198 A 
ATOM     65  C   UNL A   1      47.136  26.972  33.639  1.00  0.00     0.198 A 
ATOM     66  F   UNL A   1      44.866  27.404  34.083  1.00  0.00    -0.203 F 
ATOM     67  F   UNL A   1      49.327  28.270  31.060  1.00  0.00    -0.200 F 
ATOM     68  C   UNL A   1      48.273  27.185  32.874  1.00  0.00     0.200 A 
ATOM     69  F   UNL A   1      47.170  26.110  34.664  1.00  0.00    -0.200 F 
ATOM     70  F   UNL A   1      49.399  26.511  33.143  1.00  0.00    -0.200 F 
ENDBRANCH  37  60
ENDBRANCH  11  12
ENDBRANCH   4   6
ENDBRANCH   3   4
ENDBRANCH   2   3
ENDBRANCH   1   2
BRANCH   1  71
ATOM     71  O   UNL A   1      32.986  37.269  32.686  1.00  0.00    -0.374 OA
BRANCH  71  72
ATOM     72  C   UNL A   1      33.997  36.788  33.575  1.00  0.00     0.202 C 
BRANCH  72  73
ATOM     73  C   UNL A   1      34.764  35.620  32.956  1.00  0.00     0.261 C 
BRANCH  73  74
ATOM     74  O   UNL A   1      35.758  35.150  33.884  1.00  0.00    -0.460 OA
BRANCH  74  75
ATOM     75  C   UNL A   1      35.703  33.837  34.227  1.00  0.00     0.338 C 
ATOM     76  O   UNL A   1      34.793  33.059  34.003  1.00  0.00    -0.246 OA
BRANCH  75  77
ATOM     77  C   UNL A   1      37.018  33.473  34.824  1.00  0.00     0.067 A 
ATOM     78  C   UNL A   1      37.606  34.426  35.665  1.00  0.00     0.016 A 
ATOM     79  C   UNL A   1      37.691  32.255  34.497  1.00  0.00    -0.002 A 
ATOM     80  C   UNL A   1      38.867  34.198  36.181  1.00  0.00     0.002 A 
ATOM     81  C   UNL A   1      38.988  32.014  35.020  1.00  0.00    -0.010 A 
ATOM     82  C   UNL A   1      37.149  31.282  33.632  1.00  0.00     0.026 A 
ATOM     83  C   UNL A   1      39.537  33.017  35.861  1.00  0.00     0.009 A 
ATOM     84  C   UNL A   1      39.706  30.807  34.670  1.00  0.00    -0.009 A 
ATOM     85  C   UNL A   1      37.878  30.168  33.210  1.00  0.00     0.026 A 
ATOM     86  C   UNL A   1      39.161  29.901  33.720  1.00  0.00    -0.004 A 
ATOM     87  C   UNL A   1      40.965  30.466  35.231  1.00  0.00     0.009 A 
ATOM     88  Br  UNL A   1      37.030  29.071  31.897  1.00  0.00    -0.050 Br
ATOM     89  C   UNL A   1      39.919  28.766  33.334  1.00  0.00     0.010 A 
ATOM     90  C   UNL A   1      41.676  29.322  34.861  1.00  0.00     0.001 A 
ATOM     91  C   UNL A   1      41.160  28.479  33.895  1.00  0.00     0.001 A 
ENDBRANCH  75  77
ENDBRANCH  74  75
ENDBRANCH  73  74
ENDBRANCH  72  73
ENDBRANCH  71  72
ENDBRANCH   1  71
TORSDOF 14
ENDMDL
MODEL 2
REMARK VINA RESULT:      -9.4      0.285      2.033
REMARK SMILES O=C(OCCOCCOC(=O)c1cccc2c1cc(Br)c1ccccc12)c1ccc(-c2c3nc(c(-c4c(F)c(F)c(F)c(F)c4F)c4ccc([nH]4)c(-c4c(F)c(F)c(F)c(F)c4F)c4nc(c(-c5c(F)c(F)c(F)c(F)c5F)c5ccc2[nH]5)C=C4)C=C3)cc1
REMARK SMILES IDX 5 1 4 2 3 3 2 4 1 5 27 6 28 7 89 8 29 9 88 10 30 11 31 12
REMARK SMILES IDX 32 13 82 14 33 15 87 16 81 17 83 18 34 19 86 20 80 21 79 22
REMARK SMILES IDX 35 24 67 25 47 26 66 27 48 28 51 29 65 30 84 31 49 32 50 33
REMARK SMILES IDX 64 35 85 36 52 37 36 38 37 39 45 40 38 41 39 42 43 43 46 44
REMARK SMILES IDX 40 45 41 46 44 47 42 48 68 49 69 50 77 51 70 52 71 53 75 54
REMARK SMILES IDX 78 55 72 56 73 57 76 58 74 59 53 60 54 61 62 62 55 63 56 64
REMARK SMILES IDX 60 65 63 66 57 67 58 68 61 69 59 70 6 71 7 72 8 73 9 74
REMARK SMILES IDX 10 75 11 76 12 77 13 78 17 79 14 80 16 81 18 82 15 83 26 84
REMARK SMILES IDX 19 85 21 86 25 87 20 88 22 89 24 90 23 91
REMARK H PARENT 83 23 51 34
REMARK Flexibility Score: inf
ROOT
ATOM      1  C   UNL A   1      33.279  37.224  31.359  1.00  0.00     0.202 C 
ENDROOT
BRANCH   1   2
ATOM      2  C   UNL A   1      32.572  36.206  30.466  1.00  0.00     0.261 C 
BRANCH   2   3
ATOM      3  O   UNL A   1      33.373  35.851  29.332  1.00  0.00    -0.460 OA
BRANCH   3   4
ATOM      4  C   UNL A   1      33.726  34.620  28.899  1.00  0.00     0.338 C 
ATOM      5  O   UNL A   1      32.912  34.013  28.200  1.00  0.00    -0.246 OA
BRANCH   4   6
ATOM      6  C   UNL A   1      35.041  33.937  29.170  1.00  0.00     0.060 A 
ATOM      7  C   UNL A   1      35.115  33.212  30.378  1.00  0.00     0.016 A 
ATOM      8  C   UNL A   1      36.202  34.000  28.393  1.00  0.00     0.016 A 
ATOM      9  C   UNL A   1      36.309  32.630  30.813  1.00  0.00     0.010 A 
ATOM     10  C   UNL A   1      37.400  33.433  28.822  1.00  0.00     0.010 A 
ATOM     11  C   UNL A   1      37.461  32.763  30.040  1.00  0.00    -0.014 A 
BRANCH  11  12
ATOM     12  C   UNL A   1      38.739  32.150  30.432  1.00  0.00     0.031 A 
ATOM     13  C   UNL A   1      39.709  32.897  31.291  1.00  0.00     0.074 A 
ATOM     14  C   UNL A   1      39.049  30.965  29.886  1.00  0.00     0.049 A 
ATOM     15  N   UNL A   1      40.880  32.519  31.730  1.00  0.00    -0.248 NA
ATOM     16  C   UNL A   1      39.320  34.258  31.692  1.00  0.00     0.031 C 
ATOM     17  C   UNL A   1      38.186  30.220  28.969  1.00  0.00     0.029 A 
ATOM     18  N   UNL A   1      40.174  30.199  29.994  1.00  0.00    -0.354 N 
ATOM     19  C   UNL A   1      41.358  33.578  32.487  1.00  0.00     0.074 A 
ATOM     20  C   UNL A   1      40.379  34.641  32.394  1.00  0.00     0.031 C 
ATOM     21  C   UNL A   1      38.818  29.100  28.591  1.00  0.00     0.029 A 
ATOM     22  C   UNL A   1      40.123  29.055  29.242  1.00  0.00     0.049 A 
ATOM     23  H   UNL A   1      40.945  30.445  30.556  1.00  0.00     0.167 HD
ATOM     24  C   UNL A   1      42.504  33.638  33.207  1.00  0.00     0.037 A 
ATOM     25  C   UNL A   1      41.030  28.073  29.109  1.00  0.00     0.037 A 
ATOM     26  C   UNL A   1      43.482  32.577  33.232  1.00  0.00     0.049 A 
ATOM     27  C   UNL A   1      42.297  28.160  29.906  1.00  0.00     0.074 A 
ATOM     28  C   UNL A   1      44.659  32.495  33.953  1.00  0.00     0.029 A 
ATOM     29  N   UNL A   1      43.400  31.416  32.470  1.00  0.00    -0.354 N 
ATOM     30  N   UNL A   1      42.701  29.116  30.708  1.00  0.00    -0.248 NA
ATOM     31  C   UNL A   1      43.219  27.025  29.800  1.00  0.00     0.031 C 
ATOM     32  C   UNL A   1      45.310  31.308  33.593  1.00  0.00     0.029 A 
ATOM     33  C   UNL A   1      44.516  30.623  32.686  1.00  0.00     0.049 A 
ATOM     34  H   UNL A   1      42.656  31.190  31.866  1.00  0.00     0.167 HD
ATOM     35  C   UNL A   1      43.922  28.700  31.213  1.00  0.00     0.074 A 
ATOM     36  C   UNL A   1      44.176  27.388  30.643  1.00  0.00     0.031 C 
ATOM     37  C   UNL A   1      44.758  29.340  32.069  1.00  0.00     0.037 A 
BRANCH  24  38
ATOM     38  C   UNL A   1      42.747  34.875  34.026  1.00  0.00     0.064 A 
ATOM     39  C   UNL A   1      42.702  34.841  35.430  1.00  0.00     0.173 A 
ATOM     40  C   UNL A   1      43.057  36.100  33.416  1.00  0.00     0.173 A 
ATOM     41  F   UNL A   1      42.405  33.699  36.069  1.00  0.00    -0.203 F 
ATOM     42  C   UNL A   1      42.927  35.988  36.188  1.00  0.00     0.198 A 
ATOM     43  C   UNL A   1      43.311  37.240  34.178  1.00  0.00     0.198 A 
ATOM     44  F   UNL A   1      43.122  36.194  32.079  1.00  0.00    -0.203 F 
ATOM     45  F   UNL A   1      42.830  35.938  37.524  1.00  0.00    -0.200 F 
ATOM     46  C   UNL A   1      43.237  37.185  35.562  1.00  0.00     0.200 A 
ATOM     47  F   UNL A   1      43.626  38.393  33.573  1.00  0.00    -0.200 F 
ATOM     48  F   UNL A   1      43.461  38.287  36.292  1.00  0.00    -0.200 F 
ENDBRANCH  24  38
BRANCH  25  49
ATOM     49  C   UNL A   1      40.687  26.901  28.269  1.00  0.00     0.064 A 
ATOM     50  C   UNL A   1      39.691  26.008  28.682  1.00  0.00     0.173 A 
ATOM     51  C   UNL A   1      41.239  26.728  26.992  1.00  0.00     0.173 A 
ATOM     52  F   UNL A   1      39.141  26.137  29.899  1.00  0.00    -0.203 F 
ATOM     53  C   UNL A   1      39.249  24.989  27.844  1.00  0.00     0.198 A 
ATOM     54  C   UNL A   1      40.781  25.720  26.146  1.00  0.00     0.198 A 
ATOM     55  F   UNL A   1      42.180  27.573  26.546  1.00  0.00    -0.203 F 
ATOM     56  F   UNL A   1      38.291  24.150  28.261  1.00  0.00    -0.200 F 
ATOM     57  C   UNL A   1      39.786  24.853  26.572  1.00  0.00     0.200 A 
ATOM     58  F   UNL A   1      41.285  25.605  24.910  1.00  0.00    -0.200 F 
ATOM     59  F   UNL A   1      39.333  23.895  25.752  1.00  0.00    -0.200 F 
ENDBRANCH  25  49
BRANCH  37  60
ATOM     60  C   UNL A   1      46.035  28.629  32.409  1.00  0.00     0.064 A 
ATOM     61  C   UNL A   1      46.110  27.748  33.498  1.00  0.00     0.173 A 
ATOM     62  C   UNL A   1      47.189  28.824  31.637  1.00  0.00     0.173 A 
ATOM     63  F   UNL A   1      45.035  27.542  34.274  1.00  0.00    -0.203 F 
ATOM     64  C   UNL A   1      47.305  27.115  33.823  1.00  0.00     0.198 A 
ATOM     65  C   UNL A   1      48.376  28.166  31.948  1.00  0.00     0.198 A 
ATOM     66  F   UNL A   1      47.167  29.653  30.582  1.00  0.00    -0.203 F 
ATOM     67  F   UNL A   1      47.370  26.324  34.903  1.00  0.00    -0.200 F 
ATOM     68  C   UNL A   1      48.435  27.320  33.046  1.00  0.00     0.200 A 
ATOM     69  F   UNL A   1      49.464  28.357  31.190  1.00  0.00    -0.200 F 
ATOM     70  F   UNL A   1      49.586  26.713  33.363  1.00  0.00    -0.200 F 
ENDBRANCH  37  60
ENDBRANCH  11  12
ENDBRANCH   4   6
ENDBRANCH   3   4
ENDBRANCH   2   3
ENDBRANCH   1   2
BRANCH   1  71
ATOM     71  O   UNL A   1      32.940  37.087  32.737  1.00  0.00    -0.374 OA
BRANCH  71  72
ATOM     72  C   UNL A   1      34.013  36.661  33.579  1.00  0.00     0.202 C 
BRANCH  72  73
ATOM     73  C   UNL A   1      34.798  35.519  32.936  1.00  0.00     0.261 C 
BRANCH  73  74
ATOM     74  O   UNL A   1      35.872  35.121  33.806  1.00  0.00    -0.460 OA
BRANCH  74  75
ATOM     75  C   UNL A   1      35.862  33.834  34.243  1.00  0.00     0.338 C 
ATOM     76  O   UNL A   1      34.975  33.015  34.084  1.00  0.00    -0.246 OA
BRANCH  75  77
ATOM     77  C   UNL A   1      37.192  33.556  34.852  1.00  0.00     0.067 A 
ATOM     78  C   UNL A   1      37.747  34.578  35.633  1.00  0.00     0.016 A 
ATOM     79  C   UNL A   1      37.909  32.347  34.591  1.00  0.00    -0.002 A 
ATOM     80  C   UNL A   1      39.017  34.429  36.153  1.00  0.00     0.002 A 
ATOM     81  C   UNL A   1      39.217  32.187  35.120  1.00  0.00    -0.010 A 
ATOM     82  C   UNL A   1      37.402  31.307  33.788  1.00  0.00     0.026 A 
ATOM     83  C   UNL A   1      39.731  33.257  35.898  1.00  0.00     0.009 A 
ATOM     84  C   UNL A   1      39.979  30.990  34.836  1.00  0.00    -0.009 A 
ATOM     85  C   UNL A   1      38.171  30.198  33.426  1.00  0.00     0.026 A 
ATOM     86  C   UNL A   1      39.465  30.010  33.943  1.00  0.00    -0.004 A 
ATOM     87  C   UNL A   1      41.252  30.729  35.408  1.00  0.00     0.009 A 
ATOM     88  Br  UNL A   1      37.360  28.995  32.185  1.00  0.00    -0.050 Br
ATOM     89  C   UNL A   1      40.265  28.884  33.619  1.00  0.00     0.010 A 
ATOM     90  C   UNL A   1      42.006  29.593  35.100  1.00  0.00     0.001 A 
ATOM     91  C   UNL A   1      41.518  28.677  34.189  1.00  0.00     0.001 A 
ENDBRANCH  75  77
ENDBRANCH  74  75
ENDBRANCH  73  74
ENDBRANCH  72  73
ENDBRANCH  71  72
ENDBRANCH   1  71
TORSDOF 14
ENDMDL
MODEL 3
REMARK VINA RESULT:      -9.4      3.873      6.896
REMARK SMILES O=C(OCCOCCOC(=O)c1cccc2c1cc(Br)c1ccccc12)c1ccc(-c2c3nc(c(-c4c(F)c(F)c(F)c(F)c4F)c4ccc([nH]4)c(-c4c(F)c(F)c(F)c(F)c4F)c4nc(c(-c5c(F)c(F)c(F)c(F)c5F)c5ccc2[nH]5)C=C4)C=C3)cc1
REMARK SMILES IDX 5 1 4 2 3 3 2 4 1 5 27 6 28 7 89 8 29 9 88 10 30 11 31 12
REMARK SMILES IDX 32 13 82 14 33 15 87 16 81 17 83 18 34 19 86 20 80 21 79 22
REMARK SMILES IDX 35 24 67 25 47 26 66 27 48 28 51 29 65 30 84 31 49 32 50 33
REMARK SMILES IDX 64 35 85 36 52 37 36 38 37 39 45 40 38 41 39 42 43 43 46 44
REMARK SMILES IDX 40 45 41 46 44 47 42 48 68 49 69 50 77 51 70 52 71 53 75 54
REMARK SMILES IDX 78 55 72 56 73 57 76 58 74 59 53 60 54 61 62 62 55 63 56 64
REMARK SMILES IDX 60 65 63 66 57 67 58 68 61 69 59 70 6 71 7 72 8 73 9 74
REMARK SMILES IDX 10 75 11 76 12 77 13 78 17 79 14 80 16 81 18 82 15 83 26 84
REMARK SMILES IDX 19 85 21 86 25 87 20 88 22 89 24 90 23 91
REMARK H PARENT 83 23 51 34
REMARK Flexibility Score: inf
ROOT
ATOM      1  C   UNL A   1      31.402  32.007  26.876  1.00  0.00     0.202 C 
ENDROOT
BRANCH   1   2
ATOM      2  C   UNL A   1      32.489  33.081  26.839  1.00  0.00     0.261 C 
BRANCH   2   3
ATOM      3  O   UNL A   1      32.161  34.193  27.680  1.00  0.00    -0.460 OA
BRANCH   3   4
ATOM      4  C   UNL A   1      32.906  34.766  28.652  1.00  0.00     0.338 C 
ATOM      5  O   UNL A   1      32.627  35.923  28.970  1.00  0.00    -0.246 OA
BRANCH   4   6
ATOM      6  C   UNL A   1      34.030  34.100  29.404  1.00  0.00     0.060 A 
ATOM      7  C   UNL A   1      35.328  34.359  28.918  1.00  0.00     0.016 A 
ATOM      8  C   UNL A   1      33.918  33.212  30.478  1.00  0.00     0.016 A 
ATOM      9  C   UNL A   1      36.451  33.715  29.443  1.00  0.00     0.010 A 
ATOM     10  C   UNL A   1      35.029  32.555  31.003  1.00  0.00     0.010 A 
ATOM     11  C   UNL A   1      36.295  32.791  30.475  1.00  0.00    -0.014 A 
BRANCH  11  12
ATOM     12  C   UNL A   1      37.441  32.102  31.085  1.00  0.00     0.031 A 
ATOM     13  C   UNL A   1      37.965  32.529  32.418  1.00  0.00     0.074 A 
ATOM     14  C   UNL A   1      38.069  31.175  30.346  1.00  0.00     0.049 A 
ATOM     15  N   UNL A   1      38.966  32.043  33.105  1.00  0.00    -0.248 NA
ATOM     16  C   UNL A   1      37.288  33.669  33.057  1.00  0.00     0.031 C 
ATOM     17  C   UNL A   1      37.664  30.770  28.999  1.00  0.00     0.029 A 
ATOM     18  N   UNL A   1      39.187  30.435  30.603  1.00  0.00    -0.354 N 
ATOM     19  C   UNL A   1      39.021  32.791  34.271  1.00  0.00     0.074 A 
ATOM     20  C   UNL A   1      37.995  33.809  34.171  1.00  0.00     0.031 C 
ATOM     21  C   UNL A   1      38.529  29.854  28.543  1.00  0.00     0.029 A 
ATOM     22  C   UNL A   1      39.540  29.612  29.566  1.00  0.00     0.049 A 
ATOM     23  H   UNL A   1      39.690  30.488  31.448  1.00  0.00     0.167 HD
ATOM     24  C   UNL A   1      39.847  32.622  35.331  1.00  0.00     0.037 A 
ATOM     25  C   UNL A   1      40.562  28.746  29.466  1.00  0.00     0.037 A 
ATOM     26  C   UNL A   1      40.894  31.630  35.371  1.00  0.00     0.049 A 
ATOM     27  C   UNL A   1      41.472  28.578  30.646  1.00  0.00     0.074 A 
ATOM     28  C   UNL A   1      41.767  31.327  36.400  1.00  0.00     0.029 A 
ATOM     29  N   UNL A   1      41.223  30.793  34.310  1.00  0.00    -0.354 N 
ATOM     30  N   UNL A   1      41.458  29.212  31.794  1.00  0.00    -0.248 NA
ATOM     31  C   UNL A   1      42.519  27.559  30.528  1.00  0.00     0.031 C 
ATOM     32  C   UNL A   1      42.653  30.340  35.945  1.00  0.00     0.029 A 
ATOM     33  C   UNL A   1      42.301  29.991  34.650  1.00  0.00     0.049 A 
ATOM     34  H   UNL A   1      40.757  30.773  33.443  1.00  0.00     0.167 HD
ATOM     35  C   UNL A   1      42.488  28.669  32.544  1.00  0.00     0.074 A 
ATOM     36  C   UNL A   1      43.088  27.630  31.724  1.00  0.00     0.031 C 
ATOM     37  C   UNL A   1      42.902  28.995  33.794  1.00  0.00     0.037 A 
BRANCH  24  38
ATOM     38  C   UNL A   1      39.639  33.513  36.524  1.00  0.00     0.064 A 
ATOM     39  C   UNL A   1      38.811  33.124  37.591  1.00  0.00     0.173 A 
ATOM     40  C   UNL A   1      40.290  34.753  36.626  1.00  0.00     0.173 A 
ATOM     41  F   UNL A   1      38.158  31.953  37.546  1.00  0.00    -0.203 F 
ATOM     42  C   UNL A   1      38.619  33.951  38.695  1.00  0.00     0.198 A 
ATOM     43  C   UNL A   1      40.119  35.565  37.746  1.00  0.00     0.198 A 
ATOM     44  F   UNL A   1      41.099  35.176  35.643  1.00  0.00    -0.203 F 
ATOM     45  F   UNL A   1      37.786  33.576  39.676  1.00  0.00    -0.200 F 
ATOM     46  C   UNL A   1      39.278  35.168  38.775  1.00  0.00     0.200 A 
ATOM     47  F   UNL A   1      40.768  36.735  37.830  1.00  0.00    -0.200 F 
ATOM     48  F   UNL A   1      39.099  35.960  39.841  1.00  0.00    -0.200 F 
ENDBRANCH  24  38
BRANCH  25  49
ATOM     49  C   UNL A   1      40.675  27.921  28.241  1.00  0.00     0.064 A 
ATOM     50  C   UNL A   1      41.481  28.347  27.179  1.00  0.00     0.173 A 
ATOM     51  C   UNL A   1      40.100  26.645  28.161  1.00  0.00     0.173 A 
ATOM     52  F   UNL A   1      42.046  29.564  27.214  1.00  0.00    -0.203 F 
ATOM     53  C   UNL A   1      41.721  27.522  26.083  1.00  0.00     0.198 A 
ATOM     54  C   UNL A   1      40.357  25.811  27.073  1.00  0.00     0.198 A 
ATOM     55  F   UNL A   1      39.338  26.186  29.164  1.00  0.00    -0.203 F 
ATOM     56  F   UNL A   1      42.501  27.951  25.082  1.00  0.00    -0.200 F 
ATOM     57  C   UNL A   1      41.169  26.250  26.038  1.00  0.00     0.200 A 
ATOM     58  F   UNL A   1      39.841  24.575  27.042  1.00  0.00    -0.200 F 
ATOM     59  F   UNL A   1      41.430  25.442  25.001  1.00  0.00    -0.200 F 
ENDBRANCH  25  49
BRANCH  37  60
ATOM     60  C   UNL A   1      44.077  28.231  34.326  1.00  0.00     0.064 A 
ATOM     61  C   UNL A   1      43.909  27.011  34.998  1.00  0.00     0.173 A 
ATOM     62  C   UNL A   1      45.382  28.717  34.160  1.00  0.00     0.173 A 
ATOM     63  F   UNL A   1      42.679  26.513  35.196  1.00  0.00    -0.203 F 
ATOM     64  C   UNL A   1      45.003  26.322  35.514  1.00  0.00     0.198 A 
ATOM     65  C   UNL A   1      46.476  28.010  34.651  1.00  0.00     0.198 A 
ATOM     66  F   UNL A   1      45.596  29.877  33.519  1.00  0.00    -0.203 F 
ATOM     67  F   UNL A   1      44.813  25.189  36.204  1.00  0.00    -0.200 F 
ATOM     68  C   UNL A   1      46.285  26.819  35.336  1.00  0.00     0.200 A 
ATOM     69  F   UNL A   1      47.715  28.486  34.468  1.00  0.00    -0.200 F 
ATOM     70  F   UNL A   1      47.336  26.157  35.836  1.00  0.00    -0.200 F 
ENDBRANCH  37  60
ENDBRANCH  11  12
ENDBRANCH   4   6
ENDBRANCH   3   4
ENDBRANCH   2   3
ENDBRANCH   1   2
BRANCH   1  71
ATOM     71  O   UNL A   1      31.820  30.771  26.304  1.00  0.00    -0.374 OA
BRANCH  71  72
ATOM     72  C   UNL A   1      32.149  29.753  27.251  1.00  0.00     0.202 C 
BRANCH  72  73
ATOM     73  C   UNL A   1      33.576  29.247  27.043  1.00  0.00     0.261 C 
BRANCH  73  74
ATOM     74  O   UNL A   1      33.554  27.832  26.787  1.00  0.00    -0.460 OA
BRANCH  74  75
ATOM     75  C   UNL A   1      33.459  27.446  25.487  1.00  0.00     0.338 C 
ATOM     76  O   UNL A   1      34.028  27.944  24.532  1.00  0.00    -0.246 OA
BRANCH  75  77
ATOM     77  C   UNL A   1      32.622  26.216  25.444  1.00  0.00     0.067 A 
ATOM     78  C   UNL A   1      31.251  26.384  25.681  1.00  0.00     0.016 A 
ATOM     79  C   UNL A   1      33.189  24.917  25.256  1.00  0.00    -0.002 A 
ATOM     80  C   UNL A   1      30.428  25.277  25.749  1.00  0.00     0.002 A 
ATOM     81  C   UNL A   1      32.350  23.774  25.327  1.00  0.00    -0.010 A 
ATOM     82  C   UNL A   1      34.565  24.699  25.045  1.00  0.00     0.026 A 
ATOM     83  C   UNL A   1      30.971  24.004  25.575  1.00  0.00     0.009 A 
ATOM     84  C   UNL A   1      32.908  22.447  25.181  1.00  0.00    -0.009 A 
ATOM     85  C   UNL A   1      35.123  23.419  25.006  1.00  0.00     0.026 A 
ATOM     86  C   UNL A   1      34.314  22.270  25.065  1.00  0.00    -0.004 A 
ATOM     87  C   UNL A   1      32.112  21.271  25.151  1.00  0.00     0.009 A 
ATOM     88  Br  UNL A   1      37.028  23.347  24.895  1.00  0.00    -0.050 Br
ATOM     89  C   UNL A   1      34.843  20.955  25.003  1.00  0.00     0.010 A 
ATOM     90  C   UNL A   1      32.654  19.988  25.052  1.00  0.00     0.001 A 
ATOM     91  C   UNL A   1      34.025  19.829  24.996  1.00  0.00     0.001 A 
ENDBRANCH  75  77
ENDBRANCH  74  75
ENDBRANCH  73  74
ENDBRANCH  72  73
ENDBRANCH  71  72
ENDBRANCH   1  71
TORSDOF 14
ENDMDL
