MODEL 1
REMARK VINA RESULT:     -11.0      0.000      0.000
REMARK SMILES [NH3+][C@H](Cc1cc(F)c(F)c(F)c1)C(=O)OCCOCCOC(=O)c1ccc(-c2c3nc(c(-c4c(F)c(F)c(F)c(F)c4F)c4ccc([nH]4)c(-c4c(F)c(F)c(F)c(F)c4F)c4nc(c(-c5c(F)c(F)c(F)c(F)c5F)c5ccc2[nH]5)C=C4)C=C3)cc1
REMARK SMILES IDX 18 1 17 2 16 3 15 4 13 5 14 6 2 7 1 8 3 12 4 13 5 14 12 15
REMARK SMILES IDX 6 16 10 17 7 18 8 19 11 20 9 21 19 22 20 23 21 24 22 25
REMARK SMILES IDX 23 26 24 27 25 28 86 29 26 30 85 31 27 32 28 33 29 34 79 35
REMARK SMILES IDX 30 36 84 37 78 38 80 39 31 40 83 41 77 42 76 43 32 45 64 46
REMARK SMILES IDX 44 47 63 48 45 49 48 50 62 51 81 52 46 53 47 54 61 56 82 57
REMARK SMILES IDX 49 58 33 59 34 60 42 61 35 62 36 63 40 64 43 65 37 66 38 67
REMARK SMILES IDX 41 68 39 69 65 70 66 71 74 72 67 73 68 74 72 75 75 76 69 77
REMARK SMILES IDX 70 78 73 79 71 80 50 81 51 82 59 83 52 84 53 85 57 86 60 87
REMARK SMILES IDX 54 88 55 89 58 90 56 91
REMARK H PARENT 1 9 1 10 1 11 80 44 48 55
REMARK Flexibility Score: inf
ROOT
ATOM      1  O   UNL A   1      45.895  21.200  25.688  1.00  0.00    -0.374 OA
ENDROOT
BRANCH   1   2
ATOM      2  C   UNL A   1      46.009  20.088  24.797  1.00  0.00     0.202 C 
BRANCH   2   3
ATOM      3  C   UNL A   1      44.768  19.196  24.730  1.00  0.00     0.261 C 
BRANCH   3   4
ATOM      4  O   UNL A   1      43.675  19.837  25.415  1.00  0.00    -0.459 OA
BRANCH   4   5
ATOM      5  C   UNL A   1      42.676  19.030  25.855  1.00  0.00     0.365 C 
ATOM      6  O   UNL A   1      42.670  17.810  25.727  1.00  0.00    -0.245 OA
BRANCH   5   7
ATOM      7  C   UNL A   1      41.542  19.816  26.551  1.00  0.00     0.296 C 
BRANCH   7   8
ATOM      8  N   UNL A   1      41.546  19.577  28.007  1.00  0.00    -0.346 N 
ATOM      9  H   UNL A   1      42.368  20.017  28.422  1.00  0.00     0.345 HD
ATOM     10  H   UNL A   1      41.571  18.573  28.187  1.00  0.00     0.345 HD
ATOM     11  H   UNL A   1      40.702  19.975  28.420  1.00  0.00     0.345 HD
ENDBRANCH   7   8
BRANCH   7  12
ATOM     12  C   UNL A   1      40.132  19.762  25.918  1.00  0.00     0.113 C 
BRANCH  12  13
ATOM     13  C   UNL A   1      39.220  20.969  25.810  1.00  0.00    -0.035 A 
ATOM     14  C   UNL A   1      39.443  22.199  26.441  1.00  0.00     0.046 A 
ATOM     15  C   UNL A   1      38.067  20.840  25.010  1.00  0.00     0.046 A 
ATOM     16  C   UNL A   1      38.537  23.252  26.283  1.00  0.00     0.162 A 
ATOM     17  C   UNL A   1      37.176  21.901  24.858  1.00  0.00     0.162 A 
ATOM     18  F   UNL A   1      38.771  24.409  26.918  1.00  0.00    -0.204 F 
ATOM     19  C   UNL A   1      37.405  23.109  25.496  1.00  0.00     0.194 A 
ATOM     20  F   UNL A   1      36.079  21.732  24.106  1.00  0.00    -0.204 F 
ATOM     21  F   UNL A   1      36.536  24.119  25.363  1.00  0.00    -0.200 F 
ENDBRANCH  12  13
ENDBRANCH   7  12
ENDBRANCH   5   7
ENDBRANCH   4   5
ENDBRANCH   3   4
ENDBRANCH   2   3
ENDBRANCH   1   2
BRANCH   1  22
ATOM     22  C   UNL A   1      46.236  22.481  25.162  1.00  0.00     0.202 C 
BRANCH  22  23
ATOM     23  C   UNL A   1      45.350  22.972  24.011  1.00  0.00     0.261 C 
BRANCH  23  24
ATOM     24  O   UNL A   1      44.485  24.050  24.413  1.00  0.00    -0.460 OA
BRANCH  24  25
ATOM     25  C   UNL A   1      43.364  23.662  25.067  1.00  0.00     0.338 C 
ATOM     26  O   UNL A   1      42.673  22.677  24.836  1.00  0.00    -0.246 OA
BRANCH  25  27
ATOM     27  C   UNL A   1      43.139  24.515  26.247  1.00  0.00     0.060 A 
ATOM     28  C   UNL A   1      42.271  24.038  27.236  1.00  0.00     0.016 A 
ATOM     29  C   UNL A   1      43.708  25.785  26.361  1.00  0.00     0.016 A 
ATOM     30  C   UNL A   1      41.944  24.842  28.327  1.00  0.00     0.010 A 
ATOM     31  C   UNL A   1      43.380  26.591  27.458  1.00  0.00     0.010 A 
ATOM     32  C   UNL A   1      42.473  26.136  28.431  1.00  0.00    -0.014 A 
BRANCH  32  33
ATOM     33  C   UNL A   1      41.984  27.043  29.499  1.00  0.00     0.031 A 
ATOM     34  C   UNL A   1      42.727  27.114  30.804  1.00  0.00     0.074 A 
ATOM     35  C   UNL A   1      40.915  27.834  29.291  1.00  0.00     0.049 A 
ATOM     36  N   UNL A   1      42.468  27.833  31.868  1.00  0.00    -0.248 NA
ATOM     37  C   UNL A   1      43.925  26.268  30.929  1.00  0.00     0.031 C 
ATOM     38  C   UNL A   1      40.133  27.885  28.058  1.00  0.00     0.029 A 
ATOM     39  N   UNL A   1      40.307  28.748  30.115  1.00  0.00    -0.354 N 
ATOM     40  C   UNL A   1      43.466  27.525  32.784  1.00  0.00     0.074 A 
ATOM     41  C   UNL A   1      44.322  26.537  32.165  1.00  0.00     0.031 C 
ATOM     42  C   UNL A   1      39.147  28.786  28.205  1.00  0.00     0.029 A 
ATOM     43  C   UNL A   1      39.209  29.351  29.552  1.00  0.00     0.049 A 
ATOM     44  H   UNL A   1      40.627  28.953  31.023  1.00  0.00     0.167 HD
ATOM     45  C   UNL A   1      43.656  28.032  34.024  1.00  0.00     0.037 A 
ATOM     46  C   UNL A   1      38.342  30.243  30.071  1.00  0.00     0.037 A 
ATOM     47  C   UNL A   1      42.813  29.024  34.638  1.00  0.00     0.049 A 
ATOM     48  C   UNL A   1      38.534  30.736  31.482  1.00  0.00     0.074 A 
ATOM     49  C   UNL A   1      42.948  29.614  35.883  1.00  0.00     0.029 A 
ATOM     50  N   UNL A   1      41.681  29.570  34.055  1.00  0.00    -0.354 N 
ATOM     51  N   UNL A   1      39.491  30.452  32.333  1.00  0.00    -0.248 NA
ATOM     52  C   UNL A   1      37.525  31.667  32.007  1.00  0.00     0.031 C 
ATOM     53  C   UNL A   1      41.871  30.484  36.072  1.00  0.00     0.029 A 
ATOM     54  C   UNL A   1      41.091  30.471  34.927  1.00  0.00     0.049 A 
ATOM     55  H   UNL A   1      41.346  29.352  33.156  1.00  0.00     0.167 HD
ATOM     56  C   UNL A   1      39.209  31.179  33.482  1.00  0.00     0.074 A 
ATOM     57  C   UNL A   1      38.001  31.931  33.217  1.00  0.00     0.031 C 
ATOM     58  C   UNL A   1      39.891  31.216  34.652  1.00  0.00     0.037 A 
BRANCH  45  59
ATOM     59  C   UNL A   1      44.822  27.529  34.819  1.00  0.00     0.064 A 
ATOM     60  C   UNL A   1      44.662  26.460  35.714  1.00  0.00     0.173 A 
ATOM     61  C   UNL A   1      46.069  28.167  34.770  1.00  0.00     0.173 A 
ATOM     62  F   UNL A   1      43.485  25.822  35.802  1.00  0.00    -0.203 F 
ATOM     63  C   UNL A   1      45.704  26.063  36.547  1.00  0.00     0.198 A 
ATOM     64  C   UNL A   1      47.116  27.752  35.589  1.00  0.00     0.198 A 
ATOM     65  F   UNL A   1      46.272  29.187  33.923  1.00  0.00    -0.203 F 
ATOM     66  F   UNL A   1      45.518  25.063  37.420  1.00  0.00    -0.200 F 
ATOM     67  C   UNL A   1      46.930  26.709  36.484  1.00  0.00     0.200 A 
ATOM     68  F   UNL A   1      48.305  28.366  35.516  1.00  0.00    -0.200 F 
ATOM     69  F   UNL A   1      47.931  26.327  37.287  1.00  0.00    -0.200 F 
ENDBRANCH  45  59
BRANCH  46  70
ATOM     70  C   UNL A   1      37.199  30.722  29.252  1.00  0.00     0.064 A 
ATOM     71  C   UNL A   1      36.122  29.878  28.941  1.00  0.00     0.173 A 
ATOM     72  C   UNL A   1      37.160  32.034  28.764  1.00  0.00     0.173 A 
ATOM     73  F   UNL A   1      36.107  28.615  29.392  1.00  0.00    -0.203 F 
ATOM     74  C   UNL A   1      35.060  30.322  28.156  1.00  0.00     0.198 A 
ATOM     75  C   UNL A   1      36.084  32.487  28.001  1.00  0.00     0.198 A 
ATOM     76  F   UNL A   1      38.151  32.889  29.059  1.00  0.00    -0.203 F 
ATOM     77  F   UNL A   1      34.058  29.487  27.852  1.00  0.00    -0.200 F 
ATOM     78  C   UNL A   1      35.040  31.628  27.691  1.00  0.00     0.200 A 
ATOM     79  F   UNL A   1      36.055  33.758  27.576  1.00  0.00    -0.200 F 
ATOM     80  F   UNL A   1      34.011  32.061  26.950  1.00  0.00    -0.200 F 
ENDBRANCH  46  70
BRANCH  58  81
ATOM     81  C   UNL A   1      39.367  32.102  35.743  1.00  0.00     0.064 A 
ATOM     82  C   UNL A   1      39.904  33.382  35.943  1.00  0.00     0.173 A 
ATOM     83  C   UNL A   1      38.399  31.645  36.650  1.00  0.00     0.173 A 
ATOM     84  F   UNL A   1      40.839  33.860  35.109  1.00  0.00    -0.203 F 
ATOM     85  C   UNL A   1      39.506  34.166  37.022  1.00  0.00     0.198 A 
ATOM     86  C   UNL A   1      37.985  32.442  37.714  1.00  0.00     0.198 A 
ATOM     87  F   UNL A   1      37.847  30.433  36.495  1.00  0.00    -0.203 F 
ATOM     88  F   UNL A   1      40.062  35.371  37.215  1.00  0.00    -0.200 F 
ATOM     89  C   UNL A   1      38.547  33.696  37.906  1.00  0.00     0.200 A 
ATOM     90  F   UNL A   1      37.043  31.995  38.556  1.00  0.00    -0.200 F 
ATOM     91  F   UNL A   1      38.163  34.452  38.944  1.00  0.00    -0.200 F 
ENDBRANCH  58  81
ENDBRANCH  32  33
ENDBRANCH  25  27
ENDBRANCH  24  25
ENDBRANCH  23  24
ENDBRANCH  22  23
ENDBRANCH   1  22
TORSDOF 17
ENDMDL
MODEL 2
REMARK VINA RESULT:     -11.0      0.800      7.586
REMARK SMILES [NH3+][C@H](Cc1cc(F)c(F)c(F)c1)C(=O)OCCOCCOC(=O)c1ccc(-c2c3nc(c(-c4c(F)c(F)c(F)c(F)c4F)c4ccc([nH]4)c(-c4c(F)c(F)c(F)c(F)c4F)c4nc(c(-c5c(F)c(F)c(F)c(F)c5F)c5ccc2[nH]5)C=C4)C=C3)cc1
REMARK SMILES IDX 18 1 17 2 16 3 15 4 13 5 14 6 2 7 1 8 3 12 4 13 5 14 12 15
REMARK SMILES IDX 6 16 10 17 7 18 8 19 11 20 9 21 19 22 20 23 21 24 22 25
REMARK SMILES IDX 23 26 24 27 25 28 86 29 26 30 85 31 27 32 28 33 29 34 79 35
REMARK SMILES IDX 30 36 84 37 78 38 80 39 31 40 83 41 77 42 76 43 32 45 64 46
REMARK SMILES IDX 44 47 63 48 45 49 48 50 62 51 81 52 46 53 47 54 61 56 82 57
REMARK SMILES IDX 49 58 33 59 34 60 42 61 35 62 36 63 40 64 43 65 37 66 38 67
REMARK SMILES IDX 41 68 39 69 65 70 66 71 74 72 67 73 68 74 72 75 75 76 69 77
REMARK SMILES IDX 70 78 73 79 71 80 50 81 51 82 59 83 52 84 53 85 57 86 60 87
REMARK SMILES IDX 54 88 55 89 58 90 56 91
REMARK H PARENT 1 9 1 10 1 11 80 44 48 55
REMARK Flexibility Score: inf
ROOT
ATOM      1  O   UNL A   1      46.033  21.012  25.582  1.00  0.00    -0.374 OA
ENDROOT
BRANCH   1   2
ATOM      2  C   UNL A   1      45.690  20.243  24.427  1.00  0.00     0.202 C 
BRANCH   2   3
ATOM      3  C   UNL A   1      44.752  19.066  24.700  1.00  0.00     0.261 C 
BRANCH   3   4
ATOM      4  O   UNL A   1      43.407  19.552  24.878  1.00  0.00    -0.459 OA
BRANCH   4   5
ATOM      5  C   UNL A   1      42.660  18.936  25.829  1.00  0.00     0.365 C 
ATOM      6  O   UNL A   1      42.282  17.772  25.761  1.00  0.00    -0.245 OA
BRANCH   5   7
ATOM      7  C   UNL A   1      42.342  19.864  27.024  1.00  0.00     0.296 C 
BRANCH   7   8
ATOM      8  N   UNL A   1      41.429  19.205  27.979  1.00  0.00    -0.346 N 
ATOM      9  H   UNL A   1      41.889  19.119  28.885  1.00  0.00     0.345 HD
ATOM     10  H   UNL A   1      41.185  18.278  27.632  1.00  0.00     0.345 HD
ATOM     11  H   UNL A   1      40.581  19.764  28.080  1.00  0.00     0.345 HD
ENDBRANCH   7   8
BRANCH   7  12
ATOM     12  C   UNL A   1      41.966  21.333  26.719  1.00  0.00     0.113 C 
BRANCH  12  13
ATOM     13  C   UNL A   1      40.550  21.788  26.428  1.00  0.00    -0.035 A 
ATOM     14  C   UNL A   1      40.010  23.021  26.817  1.00  0.00     0.046 A 
ATOM     15  C   UNL A   1      39.720  20.905  25.709  1.00  0.00     0.046 A 
ATOM     16  C   UNL A   1      38.687  23.346  26.505  1.00  0.00     0.162 A 
ATOM     17  C   UNL A   1      38.404  21.245  25.401  1.00  0.00     0.162 A 
ATOM     18  F   UNL A   1      38.196  24.526  26.909  1.00  0.00    -0.204 F 
ATOM     19  C   UNL A   1      37.882  22.465  25.800  1.00  0.00     0.194 A 
ATOM     20  F   UNL A   1      37.640  20.369  24.735  1.00  0.00    -0.204 F 
ATOM     21  F   UNL A   1      36.611  22.781  25.519  1.00  0.00    -0.200 F 
ENDBRANCH  12  13
ENDBRANCH   7  12
ENDBRANCH   5   7
ENDBRANCH   4   5
ENDBRANCH   3   4
ENDBRANCH   2   3
ENDBRANCH   1   2
BRANCH   1  22
ATOM     22  C   UNL A   1      45.440  22.305  25.691  1.00  0.00     0.202 C 
BRANCH  22  23
ATOM     23  C   UNL A   1      44.678  22.782  24.450  1.00  0.00     0.261 C 
BRANCH  23  24
ATOM     24  O   UNL A   1      43.848  23.925  24.729  1.00  0.00    -0.460 OA
BRANCH  24  25
ATOM     25  C   UNL A   1      44.523  25.035  25.113  1.00  0.00     0.338 C 
ATOM     26  O   UNL A   1      45.554  25.483  24.626  1.00  0.00    -0.246 OA
BRANCH  25  27
ATOM     27  C   UNL A   1      43.759  25.769  26.136  1.00  0.00     0.060 A 
ATOM     28  C   UNL A   1      44.109  27.104  26.374  1.00  0.00     0.016 A 
ATOM     29  C   UNL A   1      42.764  25.155  26.900  1.00  0.00     0.016 A 
ATOM     30  C   UNL A   1      43.488  27.818  27.397  1.00  0.00     0.010 A 
ATOM     31  C   UNL A   1      42.140  25.874  27.926  1.00  0.00     0.010 A 
ATOM     32  C   UNL A   1      42.519  27.200  28.199  1.00  0.00    -0.014 A 
BRANCH  32  33
ATOM     33  C   UNL A   1      41.992  27.912  29.391  1.00  0.00     0.031 A 
ATOM     34  C   UNL A   1      40.717  28.699  29.276  1.00  0.00     0.074 A 
ATOM     35  C   UNL A   1      42.618  27.818  30.578  1.00  0.00     0.049 A 
ATOM     36  N   UNL A   1      40.087  29.398  30.188  1.00  0.00    -0.248 NA
ATOM     37  C   UNL A   1      40.056  28.697  27.961  1.00  0.00     0.031 C 
ATOM     38  C   UNL A   1      43.840  27.056  30.827  1.00  0.00     0.029 A 
ATOM     39  N   UNL A   1      42.308  28.367  31.798  1.00  0.00    -0.354 N 
ATOM     40  C   UNL A   1      38.964  29.916  29.559  1.00  0.00     0.074 A 
ATOM     41  C   UNL A   1      39.006  29.476  28.181  1.00  0.00     0.031 C 
ATOM     42  C   UNL A   1      44.176  27.184  32.123  1.00  0.00     0.029 A 
ATOM     43  C   UNL A   1      43.212  28.062  32.785  1.00  0.00     0.049 A 
ATOM     44  H   UNL A   1      41.512  28.926  31.951  1.00  0.00     0.167 HD
ATOM     45  C   UNL A   1      37.979  30.680  30.088  1.00  0.00     0.037 A 
ATOM     46  C   UNL A   1      43.267  28.461  34.071  1.00  0.00     0.037 A 
ATOM     47  C   UNL A   1      37.928  31.109  31.460  1.00  0.00     0.049 A 
ATOM     48  C   UNL A   1      42.197  29.372  34.616  1.00  0.00     0.074 A 
ATOM     49  C   UNL A   1      36.953  31.864  32.089  1.00  0.00     0.029 A 
ATOM     50  N   UNL A   1      38.891  30.823  32.415  1.00  0.00    -0.354 N 
ATOM     51  N   UNL A   1      41.130  29.842  34.017  1.00  0.00    -0.248 NA
ATOM     52  C   UNL A   1      42.343  29.813  36.010  1.00  0.00     0.031 C 
ATOM     53  C   UNL A   1      37.349  32.074  33.412  1.00  0.00     0.029 A 
ATOM     54  C   UNL A   1      38.546  31.411  33.621  1.00  0.00     0.049 A 
ATOM     55  H   UNL A   1      39.699  30.283  32.259  1.00  0.00     0.167 HD
ATOM     56  C   UNL A   1      40.471  30.617  34.963  1.00  0.00     0.074 A 
ATOM     57  C   UNL A   1      41.248  30.543  36.181  1.00  0.00     0.031 C 
ATOM     58  C   UNL A   1      39.325  31.328  34.829  1.00  0.00     0.037 A 
BRANCH  45  59
ATOM     59  C   UNL A   1      36.865  31.114  29.186  1.00  0.00     0.064 A 
ATOM     60  C   UNL A   1      36.783  32.445  28.749  1.00  0.00     0.173 A 
ATOM     61  C   UNL A   1      35.825  30.240  28.839  1.00  0.00     0.173 A 
ATOM     62  F   UNL A   1      37.749  33.320  29.062  1.00  0.00    -0.203 F 
ATOM     63  C   UNL A   1      35.687  32.889  28.014  1.00  0.00     0.198 A 
ATOM     64  C   UNL A   1      34.742  30.683  28.083  1.00  0.00     0.198 A 
ATOM     65  F   UNL A   1      35.865  28.956  29.226  1.00  0.00    -0.203 F 
ATOM     66  F   UNL A   1      35.612  34.173  27.637  1.00  0.00    -0.200 F 
ATOM     67  C   UNL A   1      34.669  32.008  27.681  1.00  0.00     0.200 A 
ATOM     68  F   UNL A   1      33.766  29.827  27.749  1.00  0.00    -0.200 F 
ATOM     69  F   UNL A   1      33.614  32.438  26.975  1.00  0.00    -0.200 F 
ENDBRANCH  45  59
BRANCH  46  70
ATOM     70  C   UNL A   1      44.387  28.008  34.936  1.00  0.00     0.064 A 
ATOM     71  C   UNL A   1      45.589  28.728  35.007  1.00  0.00     0.173 A 
ATOM     72  C   UNL A   1      44.278  26.845  35.710  1.00  0.00     0.173 A 
ATOM     73  F   UNL A   1      45.740  29.853  34.293  1.00  0.00    -0.203 F 
ATOM     74  C   UNL A   1      46.645  28.292  35.804  1.00  0.00     0.198 A 
ATOM     75  C   UNL A   1      45.325  26.423  36.528  1.00  0.00     0.198 A 
ATOM     76  F   UNL A   1      43.137  26.138  35.699  1.00  0.00    -0.203 F 
ATOM     77  F   UNL A   1      47.791  28.984  35.833  1.00  0.00    -0.200 F 
ATOM     78  C   UNL A   1      46.511  27.143  36.567  1.00  0.00     0.200 A 
ATOM     79  F   UNL A   1      45.181  25.327  37.285  1.00  0.00    -0.200 F 
ATOM     80  F   UNL A   1      47.521  26.731  37.346  1.00  0.00    -0.200 F 
ENDBRANCH  46  70
BRANCH  58  81
ATOM     81  C   UNL A   1      38.822  32.081  36.024  1.00  0.00     0.064 A 
ATOM     82  C   UNL A   1      39.165  33.428  36.215  1.00  0.00     0.173 A 
ATOM     83  C   UNL A   1      38.081  31.442  37.028  1.00  0.00     0.173 A 
ATOM     84  F   UNL A   1      39.882  34.081  35.288  1.00  0.00    -0.203 F 
ATOM     85  C   UNL A   1      38.800  34.102  37.377  1.00  0.00     0.198 A 
ATOM     86  C   UNL A   1      37.695  32.127  38.178  1.00  0.00     0.198 A 
ATOM     87  F   UNL A   1      37.719  30.159  36.887  1.00  0.00    -0.203 F 
ATOM     88  F   UNL A   1      39.172  35.378  37.554  1.00  0.00    -0.200 F 
ATOM     89  C   UNL A   1      38.066  33.453  38.356  1.00  0.00     0.200 A 
ATOM     90  F   UNL A   1      36.968  31.504  39.115  1.00  0.00    -0.200 F 
ATOM     91  F   UNL A   1      37.713  34.103  39.473  1.00  0.00    -0.200 F 
ENDBRANCH  58  81
ENDBRANCH  32  33
ENDBRANCH  25  27
ENDBRANCH  24  25
ENDBRANCH  23  24
ENDBRANCH  22  23
ENDBRANCH   1  22
TORSDOF 17
ENDMDL
MODEL 3
REMARK VINA RESULT:     -10.8      4.127      5.999
REMARK SMILES [NH3+][C@H](Cc1cc(F)c(F)c(F)c1)C(=O)OCCOCCOC(=O)c1ccc(-c2c3nc(c(-c4c(F)c(F)c(F)c(F)c4F)c4ccc([nH]4)c(-c4c(F)c(F)c(F)c(F)c4F)c4nc(c(-c5c(F)c(F)c(F)c(F)c5F)c5ccc2[nH]5)C=C4)C=C3)cc1
REMARK SMILES IDX 18 1 17 2 16 3 15 4 13 5 14 6 2 7 1 8 3 12 4 13 5 14 12 15
REMARK SMILES IDX 6 16 10 17 7 18 8 19 11 20 9 21 19 22 20 23 21 24 22 25
REMARK SMILES IDX 23 26 24 27 25 28 86 29 26 30 85 31 27 32 28 33 29 34 79 35
REMARK SMILES IDX 30 36 84 37 78 38 80 39 31 40 83 41 77 42 76 43 32 45 64 46
REMARK SMILES IDX 44 47 63 48 45 49 48 50 62 51 81 52 46 53 47 54 61 56 82 57
REMARK SMILES IDX 49 58 33 59 34 60 42 61 35 62 36 63 40 64 43 65 37 66 38 67
REMARK SMILES IDX 41 68 39 69 65 70 66 71 74 72 67 73 68 74 72 75 75 76 69 77
REMARK SMILES IDX 70 78 73 79 71 80 50 81 51 82 59 83 52 84 53 85 57 86 60 87
REMARK SMILES IDX 54 88 55 89 58 90 56 91
REMARK H PARENT 1 9 1 10 1 11 80 44 48 55
REMARK Flexibility Score: inf
ROOT
ATOM      1  O   UNL A   1      42.042  18.859  25.798  1.00  0.00    -0.374 OA
ENDROOT
BRANCH   1   2
ATOM      2  C   UNL A   1      43.427  18.521  25.908  1.00  0.00     0.202 C 
BRANCH   2   3
ATOM      3  C   UNL A   1      44.258  18.830  24.661  1.00  0.00     0.261 C 
BRANCH   3   4
ATOM      4  O   UNL A   1      44.166  20.235  24.354  1.00  0.00    -0.459 OA
BRANCH   4   5
ATOM      5  C   UNL A   1      45.230  21.003  24.699  1.00  0.00     0.365 C 
ATOM      6  O   UNL A   1      46.185  20.601  25.356  1.00  0.00    -0.245 OA
BRANCH   5   7
ATOM      7  C   UNL A   1      45.117  22.448  24.162  1.00  0.00     0.296 C 
BRANCH   7   8
ATOM      8  N   UNL A   1      46.443  22.986  23.800  1.00  0.00    -0.346 N 
ATOM      9  H   UNL A   1      47.015  23.074  24.641  1.00  0.00     0.345 HD
ATOM     10  H   UNL A   1      46.332  23.902  23.367  1.00  0.00     0.345 HD
ATOM     11  H   UNL A   1      46.899  22.352  23.144  1.00  0.00     0.345 HD
ENDBRANCH   7   8
BRANCH   7  12
ATOM     12  C   UNL A   1      44.237  23.446  24.951  1.00  0.00     0.113 C 
BRANCH  12  13
ATOM     13  C   UNL A   1      44.265  23.568  26.462  1.00  0.00    -0.035 A 
ATOM     14  C   UNL A   1      45.369  23.996  27.210  1.00  0.00     0.046 A 
ATOM     15  C   UNL A   1      43.089  23.230  27.161  1.00  0.00     0.046 A 
ATOM     16  C   UNL A   1      45.297  24.069  28.603  1.00  0.00     0.162 A 
ATOM     17  C   UNL A   1      43.031  23.314  28.551  1.00  0.00     0.162 A 
ATOM     18  F   UNL A   1      46.379  24.464  29.290  1.00  0.00    -0.204 F 
ATOM     19  C   UNL A   1      44.134  23.730  29.277  1.00  0.00     0.194 A 
ATOM     20  F   UNL A   1      41.900  22.963  29.180  1.00  0.00    -0.204 F 
ATOM     21  F   UNL A   1      44.080  23.791  30.614  1.00  0.00    -0.200 F 
ENDBRANCH  12  13
ENDBRANCH   7  12
ENDBRANCH   5   7
ENDBRANCH   4   5
ENDBRANCH   3   4
ENDBRANCH   2   3
ENDBRANCH   1   2
BRANCH   1  22
ATOM     22  C   UNL A   1      41.536  19.804  26.740  1.00  0.00     0.202 C 
BRANCH  22  23
ATOM     23  C   UNL A   1      40.235  20.503  26.330  1.00  0.00     0.261 C 
BRANCH  23  24
ATOM     24  O   UNL A   1      40.025  21.728  27.056  1.00  0.00    -0.460 OA
BRANCH  24  25
ATOM     25  C   UNL A   1      39.154  22.588  26.476  1.00  0.00     0.338 C 
ATOM     26  O   UNL A   1      38.209  22.309  25.748  1.00  0.00    -0.246 OA
BRANCH  25  27
ATOM     27  C   UNL A   1      39.385  23.957  26.967  1.00  0.00     0.060 A 
ATOM     28  C   UNL A   1      39.929  24.884  26.069  1.00  0.00     0.016 A 
ATOM     29  C   UNL A   1      39.140  24.320  28.292  1.00  0.00     0.016 A 
ATOM     30  C   UNL A   1      40.260  26.167  26.504  1.00  0.00     0.010 A 
ATOM     31  C   UNL A   1      39.472  25.609  28.727  1.00  0.00     0.010 A 
ATOM     32  C   UNL A   1      40.061  26.530  27.843  1.00  0.00    -0.014 A 
BRANCH  32  33
ATOM     33  C   UNL A   1      40.576  27.833  28.333  1.00  0.00     0.031 A 
ATOM     34  C   UNL A   1      42.060  28.068  28.382  1.00  0.00     0.074 A 
ATOM     35  C   UNL A   1      39.728  28.816  28.687  1.00  0.00     0.049 A 
ATOM     36  N   UNL A   1      42.720  29.127  28.780  1.00  0.00    -0.248 NA
ATOM     37  C   UNL A   1      42.919  26.968  27.914  1.00  0.00     0.031 C 
ATOM     38  C   UNL A   1      38.270  28.725  28.649  1.00  0.00     0.029 A 
ATOM     39  N   UNL A   1      39.976  30.087  29.145  1.00  0.00    -0.354 N 
ATOM     40  C   UNL A   1      44.064  28.820  28.614  1.00  0.00     0.074 A 
ATOM     41  C   UNL A   1      44.131  27.469  28.102  1.00  0.00     0.031 C 
ATOM     42  C   UNL A   1      37.750  29.892  29.065  1.00  0.00     0.029 A 
ATOM     43  C   UNL A   1      38.838  30.800  29.429  1.00  0.00     0.049 A 
ATOM     44  H   UNL A   1      40.882  30.452  29.258  1.00  0.00     0.167 HD
ATOM     45  C   UNL A   1      45.142  29.602  28.854  1.00  0.00     0.037 A 
ATOM     46  C   UNL A   1      38.689  32.038  29.943  1.00  0.00     0.037 A 
ATOM     47  C   UNL A   1      45.077  30.951  29.351  1.00  0.00     0.049 A 
ATOM     48  C   UNL A   1      39.909  32.860  30.271  1.00  0.00     0.074 A 
ATOM     49  C   UNL A   1      46.120  31.826  29.599  1.00  0.00     0.029 A 
ATOM     50  N   UNL A   1      43.907  31.618  29.676  1.00  0.00    -0.354 N 
ATOM     51  N   UNL A   1      41.174  32.567  30.093  1.00  0.00    -0.248 NA
ATOM     52  C   UNL A   1      39.681  34.180  30.877  1.00  0.00     0.031 C 
ATOM     53  C   UNL A   1      45.585  33.007  30.119  1.00  0.00     0.029 A 
ATOM     54  C   UNL A   1      44.206  32.886  30.150  1.00  0.00     0.049 A 
ATOM     55  H   UNL A   1      43.000  31.248  29.585  1.00  0.00     0.167 HD
ATOM     56  C   UNL A   1      41.889  33.668  30.547  1.00  0.00     0.074 A 
ATOM     57  C   UNL A   1      40.918  34.643  30.995  1.00  0.00     0.031 C 
ATOM     58  C   UNL A   1      43.231  33.850  30.590  1.00  0.00     0.037 A 
BRANCH  45  59
ATOM     59  C   UNL A   1      46.500  29.028  28.588  1.00  0.00     0.064 A 
ATOM     60  C   UNL A   1      47.040  29.054  27.293  1.00  0.00     0.173 A 
ATOM     61  C   UNL A   1      47.221  28.366  29.591  1.00  0.00     0.173 A 
ATOM     62  F   UNL A   1      46.383  29.670  26.299  1.00  0.00    -0.203 F 
ATOM     63  C   UNL A   1      48.244  28.416  27.008  1.00  0.00     0.198 A 
ATOM     64  C   UNL A   1      48.437  27.748  29.306  1.00  0.00     0.198 A 
ATOM     65  F   UNL A   1      46.750  28.324  30.846  1.00  0.00    -0.203 F 
ATOM     66  F   UNL A   1      48.723  28.422  25.757  1.00  0.00    -0.200 F 
ATOM     67  C   UNL A   1      48.941  27.765  28.014  1.00  0.00     0.200 A 
ATOM     68  F   UNL A   1      49.119  27.133  30.283  1.00  0.00    -0.200 F 
ATOM     69  F   UNL A   1      50.099  27.150  27.738  1.00  0.00    -0.200 F 
ENDBRANCH  45  59
BRANCH  46  70
ATOM     70  C   UNL A   1      37.326  32.575  30.190  1.00  0.00     0.064 A 
ATOM     71  C   UNL A   1      36.692  32.406  31.430  1.00  0.00     0.173 A 
ATOM     72  C   UNL A   1      36.630  33.268  29.192  1.00  0.00     0.173 A 
ATOM     73  F   UNL A   1      37.320  31.758  32.422  1.00  0.00    -0.203 F 
ATOM     74  C   UNL A   1      35.406  32.893  31.655  1.00  0.00     0.198 A 
ATOM     75  C   UNL A   1      35.354  33.778  29.425  1.00  0.00     0.198 A 
ATOM     76  F   UNL A   1      37.206  33.481  27.999  1.00  0.00    -0.203 F 
ATOM     77  F   UNL A   1      34.814  32.695  32.840  1.00  0.00    -0.200 F 
ATOM     78  C   UNL A   1      34.741  33.583  30.654  1.00  0.00     0.200 A 
ATOM     79  F   UNL A   1      34.725  34.469  28.464  1.00  0.00    -0.200 F 
ATOM     80  F   UNL A   1      33.510  34.066  30.875  1.00  0.00    -0.200 F 
ENDBRANCH  46  70
BRANCH  58  81
ATOM     81  C   UNL A   1      43.747  35.151  31.128  1.00  0.00     0.064 A 
ATOM     82  C   UNL A   1      44.080  35.280  32.485  1.00  0.00     0.173 A 
ATOM     83  C   UNL A   1      43.819  36.295  30.322  1.00  0.00     0.173 A 
ATOM     84  F   UNL A   1      44.017  34.217  33.300  1.00  0.00    -0.203 F 
ATOM     85  C   UNL A   1      44.448  36.512  33.019  1.00  0.00     0.198 A 
ATOM     86  C   UNL A   1      44.213  37.521  30.853  1.00  0.00     0.198 A 
ATOM     87  F   UNL A   1      43.522  36.221  29.016  1.00  0.00    -0.203 F 
ATOM     88  F   UNL A   1      44.725  36.619  34.326  1.00  0.00    -0.200 F 
ATOM     89  C   UNL A   1      44.516  37.630  32.203  1.00  0.00     0.200 A 
ATOM     90  F   UNL A   1      44.297  38.597  30.059  1.00  0.00    -0.200 F 
ATOM     91  F   UNL A   1      44.872  38.815  32.717  1.00  0.00    -0.200 F 
ENDBRANCH  58  81
ENDBRANCH  32  33
ENDBRANCH  25  27
ENDBRANCH  24  25
ENDBRANCH  23  24
ENDBRANCH  22  23
ENDBRANCH   1  22
TORSDOF 17
ENDMDL
