MODEL 1
REMARK VINA RESULT:     -11.3      0.000      0.000
REMARK SMILES O=C(OCCOCCOC(=O)[C@H]1CC[C@@H]([NH+]2CCCC2)CC1)c1ccc(-c2c3nc(c(-c4c(F)c(F)c(F)c(F)c4F)c4ccc([nH]4)c(-c4c(F)c(F)c(F)c(F)c4F)c4nc(c(-c5c(F)c(F)c(F)c(F)c5F)c5ccc2[nH]5)C=C4)C=C3)cc1
REMARK SMILES IDX 5 1 4 2 3 3 2 4 1 5 23 6 24 7 85 8 25 9 84 10 26 11 27 12
REMARK SMILES IDX 28 13 78 14 29 15 83 16 77 17 79 18 30 19 82 20 76 21 75 22
REMARK SMILES IDX 31 24 63 25 43 26 62 27 44 28 47 29 61 30 80 31 45 32 46 33
REMARK SMILES IDX 60 35 81 36 48 37 32 38 33 39 41 40 34 41 35 42 39 43 42 44
REMARK SMILES IDX 36 45 37 46 40 47 38 48 64 49 65 50 73 51 66 52 67 53 71 54
REMARK SMILES IDX 74 55 68 56 69 57 72 58 70 59 49 60 50 61 58 62 51 63 52 64
REMARK SMILES IDX 56 65 59 66 53 67 54 68 57 69 55 70 6 71 7 72 8 73 9 74
REMARK SMILES IDX 10 75 11 76 12 77 13 78 22 79 14 80 21 81 15 82 16 83 17 84
REMARK SMILES IDX 20 85 18 87 19 88
REMARK H PARENT 79 23 47 34 16 86
REMARK Flexibility Score: inf
ROOT
ATOM      1  C   UNL A   1      31.729  29.137  24.763  1.00  0.00     0.202 C 
ENDROOT
BRANCH   1   2
ATOM      2  C   UNL A   1      32.042  29.655  26.165  1.00  0.00     0.261 C 
BRANCH   2   3
ATOM      3  O   UNL A   1      33.207  30.504  26.125  1.00  0.00    -0.460 OA
BRANCH   3   4
ATOM      4  C   UNL A   1      33.667  31.299  27.122  1.00  0.00     0.338 C 
ATOM      5  O   UNL A   1      33.033  32.290  27.469  1.00  0.00    -0.246 OA
BRANCH   4   6
ATOM      6  C   UNL A   1      34.923  30.968  27.836  1.00  0.00     0.060 A 
ATOM      7  C   UNL A   1      35.190  29.689  28.308  1.00  0.00     0.016 A 
ATOM      8  C   UNL A   1      35.899  31.954  28.001  1.00  0.00     0.016 A 
ATOM      9  C   UNL A   1      36.303  29.394  29.041  1.00  0.00     0.010 A 
ATOM     10  C   UNL A   1      37.092  31.645  28.661  1.00  0.00     0.010 A 
ATOM     11  C   UNL A   1      37.279  30.359  29.186  1.00  0.00    -0.014 A 
BRANCH  11  12
ATOM     12  C   UNL A   1      38.418  29.954  30.006  1.00  0.00     0.031 A 
ATOM     13  C   UNL A   1      39.479  29.136  29.355  1.00  0.00     0.074 A 
ATOM     14  C   UNL A   1      38.580  30.537  31.208  1.00  0.00     0.049 A 
ATOM     15  N   UNL A   1      40.548  28.612  29.877  1.00  0.00    -0.248 NA
ATOM     16  C   UNL A   1      39.324  28.892  27.908  1.00  0.00     0.031 C 
ATOM     17  C   UNL A   1      37.673  31.536  31.792  1.00  0.00     0.029 A 
ATOM     18  N   UNL A   1      39.585  30.431  32.124  1.00  0.00    -0.354 N 
ATOM     19  C   UNL A   1      41.164  27.927  28.840  1.00  0.00     0.074 A 
ATOM     20  C   UNL A   1      40.366  28.116  27.653  1.00  0.00     0.031 C 
ATOM     21  C   UNL A   1      38.184  31.972  32.952  1.00  0.00     0.029 A 
ATOM     22  C   UNL A   1      39.383  31.201  33.243  1.00  0.00     0.049 A 
ATOM     23  H   UNL A   1      40.376  29.861  31.995  1.00  0.00     0.167 HD
ATOM     24  C   UNL A   1      42.292  27.187  28.912  1.00  0.00     0.037 A 
ATOM     25  C   UNL A   1      40.070  31.217  34.397  1.00  0.00     0.037 A 
ATOM     26  C   UNL A   1      43.042  27.050  30.130  1.00  0.00     0.049 A 
ATOM     27  C   UNL A   1      41.241  30.278  34.494  1.00  0.00     0.074 A 
ATOM     28  C   UNL A   1      44.142  26.259  30.390  1.00  0.00     0.029 A 
ATOM     29  N   UNL A   1      42.754  27.745  31.302  1.00  0.00    -0.354 N 
ATOM     30  N   UNL A   1      41.758  29.505  33.565  1.00  0.00    -0.248 NA
ATOM     31  C   UNL A   1      41.905  30.184  35.796  1.00  0.00     0.031 C 
ATOM     32  C   UNL A   1      44.487  26.437  31.735  1.00  0.00     0.029 A 
ATOM     33  C   UNL A   1      43.642  27.387  32.296  1.00  0.00     0.049 A 
ATOM     34  H   UNL A   1      42.023  28.396  31.405  1.00  0.00     0.167 HD
ATOM     35  C   UNL A   1      42.818  28.845  34.161  1.00  0.00     0.074 A 
ATOM     36  C   UNL A   1      42.882  29.328  35.529  1.00  0.00     0.031 C 
ATOM     37  C   UNL A   1      43.661  27.919  33.638  1.00  0.00     0.037 A 
BRANCH  24  38
ATOM     38  C   UNL A   1      42.674  26.411  27.690  1.00  0.00     0.064 A 
ATOM     39  C   UNL A   1      42.176  25.126  27.427  1.00  0.00     0.173 A 
ATOM     40  C   UNL A   1      43.617  26.942  26.796  1.00  0.00     0.173 A 
ATOM     41  F   UNL A   1      41.305  24.554  28.272  1.00  0.00    -0.203 F 
ATOM     42  C   UNL A   1      42.630  24.391  26.334  1.00  0.00     0.198 A 
ATOM     43  C   UNL A   1      44.047  26.218  25.689  1.00  0.00     0.198 A 
ATOM     44  F   UNL A   1      44.142  28.158  27.011  1.00  0.00    -0.203 F 
ATOM     45  F   UNL A   1      42.195  23.139  26.142  1.00  0.00    -0.200 F 
ATOM     46  C   UNL A   1      43.561  24.939  25.464  1.00  0.00     0.200 A 
ATOM     47  F   UNL A   1      44.949  26.749  24.852  1.00  0.00    -0.200 F 
ATOM     48  F   UNL A   1      44.007  24.227  24.419  1.00  0.00    -0.200 F 
ENDBRANCH  24  38
BRANCH  25  49
ATOM     49  C   UNL A   1      39.620  32.052  35.542  1.00  0.00     0.064 A 
ATOM     50  C   UNL A   1      38.635  31.602  36.430  1.00  0.00     0.173 A 
ATOM     51  C   UNL A   1      40.157  33.332  35.767  1.00  0.00     0.173 A 
ATOM     52  F   UNL A   1      38.076  30.395  36.254  1.00  0.00    -0.203 F 
ATOM     53  C   UNL A   1      38.188  32.405  37.480  1.00  0.00     0.198 A 
ATOM     54  C   UNL A   1      39.735  34.119  36.836  1.00  0.00     0.198 A 
ATOM     55  F   UNL A   1      41.102  33.820  34.949  1.00  0.00    -0.203 F 
ATOM     56  F   UNL A   1      37.206  31.969  38.281  1.00  0.00    -0.200 F 
ATOM     57  C   UNL A   1      38.743  33.659  37.685  1.00  0.00     0.200 A 
ATOM     58  F   UNL A   1      40.287  35.323  37.038  1.00  0.00    -0.200 F 
ATOM     59  F   UNL A   1      38.311  34.430  38.694  1.00  0.00    -0.200 F 
ENDBRANCH  25  49
BRANCH  37  60
ATOM     60  C   UNL A   1      44.743  27.419  34.544  1.00  0.00     0.064 A 
ATOM     61  C   UNL A   1      45.962  28.099  34.679  1.00  0.00     0.173 A 
ATOM     62  C   UNL A   1      44.528  26.273  35.323  1.00  0.00     0.173 A 
ATOM     63  F   UNL A   1      46.214  29.188  33.938  1.00  0.00    -0.203 F 
ATOM     64  C   UNL A   1      46.940  27.631  35.549  1.00  0.00     0.198 A 
ATOM     65  C   UNL A   1      45.494  25.831  36.218  1.00  0.00     0.198 A 
ATOM     66  F   UNL A   1      43.373  25.597  35.229  1.00  0.00    -0.203 F 
ATOM     67  F   UNL A   1      48.118  28.263  35.629  1.00  0.00    -0.200 F 
ATOM     68  C   UNL A   1      46.701  26.505  36.325  1.00  0.00     0.200 A 
ATOM     69  F   UNL A   1      45.255  24.755  36.979  1.00  0.00    -0.200 F 
ATOM     70  F   UNL A   1      47.640  26.066  37.174  1.00  0.00    -0.200 F 
ENDBRANCH  37  60
ENDBRANCH  11  12
ENDBRANCH   4   6
ENDBRANCH   3   4
ENDBRANCH   2   3
ENDBRANCH   1   2
BRANCH   1  71
ATOM     71  O   UNL A   1      30.721  28.138  24.627  1.00  0.00    -0.374 OA
BRANCH  71  72
ATOM     72  C   UNL A   1      31.142  26.772  24.639  1.00  0.00     0.202 C 
BRANCH  72  73
ATOM     73  C   UNL A   1      30.363  26.030  25.723  1.00  0.00     0.261 C 
BRANCH  73  74
ATOM     74  O   UNL A   1      31.309  25.532  26.680  1.00  0.00    -0.463 OA
BRANCH  74  75
ATOM     75  C   UNL A   1      31.344  24.183  26.871  1.00  0.00     0.309 C 
ATOM     76  O   UNL A   1      30.398  23.487  27.227  1.00  0.00    -0.252 OA
BRANCH  75  77
ATOM     77  C   UNL A   1      32.738  23.643  26.575  1.00  0.00     0.099 C 
ATOM     78  C   UNL A   1      33.065  22.437  27.469  1.00  0.00     0.021 C 
ATOM     79  C   UNL A   1      32.820  23.392  25.073  1.00  0.00     0.021 C 
ATOM     80  C   UNL A   1      34.016  21.379  26.928  1.00  0.00     0.066 C 
ATOM     81  C   UNL A   1      33.909  22.414  24.682  1.00  0.00     0.066 C 
ATOM     82  C   UNL A   1      33.839  21.073  25.435  1.00  0.00     0.184 C 
BRANCH  82  83
ATOM     83  N   UNL A   1      32.771  20.121  25.093  1.00  0.00    -0.333 N 
ATOM     84  C   UNL A   1      32.931  18.777  25.648  1.00  0.00     0.262 C 
ATOM     85  C   UNL A   1      32.257  19.944  23.742  1.00  0.00     0.262 C 
ATOM     86  H   UNL A   1      32.067  20.696  25.555  1.00  0.00     0.348 HD
ATOM     87  C   UNL A   1      33.345  17.916  24.469  1.00  0.00     0.067 C 
ATOM     88  C   UNL A   1      32.609  18.529  23.294  1.00  0.00     0.067 C 
ENDBRANCH  82  83
ENDBRANCH  75  77
ENDBRANCH  74  75
ENDBRANCH  73  74
ENDBRANCH  72  73
ENDBRANCH  71  72
ENDBRANCH   1  71
TORSDOF 15
ENDMDL
MODEL 2
REMARK VINA RESULT:     -11.2      1.159      2.074
REMARK SMILES O=C(OCCOCCOC(=O)[C@H]1CC[C@@H]([NH+]2CCCC2)CC1)c1ccc(-c2c3nc(c(-c4c(F)c(F)c(F)c(F)c4F)c4ccc([nH]4)c(-c4c(F)c(F)c(F)c(F)c4F)c4nc(c(-c5c(F)c(F)c(F)c(F)c5F)c5ccc2[nH]5)C=C4)C=C3)cc1
REMARK SMILES IDX 5 1 4 2 3 3 2 4 1 5 23 6 24 7 85 8 25 9 84 10 26 11 27 12
REMARK SMILES IDX 28 13 78 14 29 15 83 16 77 17 79 18 30 19 82 20 76 21 75 22
REMARK SMILES IDX 31 24 63 25 43 26 62 27 44 28 47 29 61 30 80 31 45 32 46 33
REMARK SMILES IDX 60 35 81 36 48 37 32 38 33 39 41 40 34 41 35 42 39 43 42 44
REMARK SMILES IDX 36 45 37 46 40 47 38 48 64 49 65 50 73 51 66 52 67 53 71 54
REMARK SMILES IDX 74 55 68 56 69 57 72 58 70 59 49 60 50 61 58 62 51 63 52 64
REMARK SMILES IDX 56 65 59 66 53 67 54 68 57 69 55 70 6 71 7 72 8 73 9 74
REMARK SMILES IDX 10 75 11 76 12 77 13 78 22 79 14 80 21 81 15 82 16 83 17 84
REMARK SMILES IDX 20 85 18 87 19 88
REMARK H PARENT 79 23 47 34 16 86
REMARK Flexibility Score: inf
ROOT
ATOM      1  C   UNL A   1      31.419  28.858  25.548  1.00  0.00     0.202 C 
ENDROOT
BRANCH   1   2
ATOM      2  C   UNL A   1      31.743  30.329  25.795  1.00  0.00     0.261 C 
BRANCH   2   3
ATOM      3  O   UNL A   1      33.124  30.470  26.184  1.00  0.00    -0.460 OA
BRANCH   3   4
ATOM      4  C   UNL A   1      33.623  31.311  27.122  1.00  0.00     0.338 C 
ATOM      5  O   UNL A   1      33.026  32.342  27.411  1.00  0.00    -0.246 OA
BRANCH   4   6
ATOM      6  C   UNL A   1      34.878  30.985  27.840  1.00  0.00     0.060 A 
ATOM      7  C   UNL A   1      35.142  29.711  28.326  1.00  0.00     0.016 A 
ATOM      8  C   UNL A   1      35.855  31.971  27.996  1.00  0.00     0.016 A 
ATOM      9  C   UNL A   1      36.254  29.421  29.063  1.00  0.00     0.010 A 
ATOM     10  C   UNL A   1      37.047  31.667  28.661  1.00  0.00     0.010 A 
ATOM     11  C   UNL A   1      37.232  30.387  29.200  1.00  0.00    -0.014 A 
BRANCH  11  12
ATOM     12  C   UNL A   1      38.369  29.988  30.025  1.00  0.00     0.031 A 
ATOM     13  C   UNL A   1      39.441  29.183  29.377  1.00  0.00     0.074 A 
ATOM     14  C   UNL A   1      38.518  30.567  31.230  1.00  0.00     0.049 A 
ATOM     15  N   UNL A   1      40.512  28.666  29.903  1.00  0.00    -0.248 NA
ATOM     16  C   UNL A   1      39.298  28.944  27.928  1.00  0.00     0.031 C 
ATOM     17  C   UNL A   1      37.598  31.555  31.813  1.00  0.00     0.029 A 
ATOM     18  N   UNL A   1      39.517  30.466  32.152  1.00  0.00    -0.354 N 
ATOM     19  C   UNL A   1      41.141  27.992  28.868  1.00  0.00     0.074 A 
ATOM     20  C   UNL A   1      40.349  28.179  27.676  1.00  0.00     0.031 C 
ATOM     21  C   UNL A   1      38.098  31.990  32.979  1.00  0.00     0.029 A 
ATOM     22  C   UNL A   1      39.302  31.229  33.274  1.00  0.00     0.049 A 
ATOM     23  H   UNL A   1      40.315  29.903  32.026  1.00  0.00     0.167 HD
ATOM     24  C   UNL A   1      42.275  27.261  28.943  1.00  0.00     0.037 A 
ATOM     25  C   UNL A   1      39.981  31.246  34.432  1.00  0.00     0.037 A 
ATOM     26  C   UNL A   1      43.019  27.125  30.165  1.00  0.00     0.049 A 
ATOM     27  C   UNL A   1      41.160  30.317  34.533  1.00  0.00     0.074 A 
ATOM     28  C   UNL A   1      44.124  26.344  30.429  1.00  0.00     0.029 A 
ATOM     29  N   UNL A   1      42.716  27.813  31.338  1.00  0.00    -0.354 N 
ATOM     30  N   UNL A   1      41.690  29.553  33.603  1.00  0.00    -0.248 NA
ATOM     31  C   UNL A   1      41.816  30.223  35.838  1.00  0.00     0.031 C 
ATOM     32  C   UNL A   1      44.458  26.519  31.777  1.00  0.00     0.029 A 
ATOM     33  C   UNL A   1      43.602  27.458  32.337  1.00  0.00     0.049 A 
ATOM     34  H   UNL A   1      41.978  28.457  31.440  1.00  0.00     0.167 HD
ATOM     35  C   UNL A   1      42.752  28.900  34.203  1.00  0.00     0.074 A 
ATOM     36  C   UNL A   1      42.803  29.377  35.573  1.00  0.00     0.031 C 
ATOM     37  C   UNL A   1      43.607  27.984  33.682  1.00  0.00     0.037 A 
BRANCH  24  38
ATOM     38  C   UNL A   1      42.672  26.494  27.720  1.00  0.00     0.064 A 
ATOM     39  C   UNL A   1      42.203  25.199  27.458  1.00  0.00     0.173 A 
ATOM     40  C   UNL A   1      43.600  27.047  26.824  1.00  0.00     0.173 A 
ATOM     41  F   UNL A   1      41.347  24.606  28.306  1.00  0.00    -0.203 F 
ATOM     42  C   UNL A   1      42.672  24.474  26.364  1.00  0.00     0.198 A 
ATOM     43  C   UNL A   1      44.044  26.334  25.716  1.00  0.00     0.198 A 
ATOM     44  F   UNL A   1      44.098  28.275  27.038  1.00  0.00    -0.203 F 
ATOM     45  F   UNL A   1      42.264  23.212  26.173  1.00  0.00    -0.200 F 
ATOM     46  C   UNL A   1      43.588  25.044  25.492  1.00  0.00     0.200 A 
ATOM     47  F   UNL A   1      44.932  26.885  24.877  1.00  0.00    -0.200 F 
ATOM     48  F   UNL A   1      44.047  24.342  24.445  1.00  0.00    -0.200 F 
ENDBRANCH  24  38
BRANCH  25  49
ATOM     49  C   UNL A   1      39.517  32.071  35.578  1.00  0.00     0.064 A 
ATOM     50  C   UNL A   1      40.016  33.361  35.798  1.00  0.00     0.173 A 
ATOM     51  C   UNL A   1      38.569  31.580  36.494  1.00  0.00     0.173 A 
ATOM     52  F   UNL A   1      40.934  33.874  34.966  1.00  0.00    -0.203 F 
ATOM     53  C   UNL A   1      39.606  34.116  36.897  1.00  0.00     0.198 A 
ATOM     54  C   UNL A   1      38.134  32.349  37.571  1.00  0.00     0.198 A 
ATOM     55  F   UNL A   1      38.056  30.350  36.339  1.00  0.00    -0.203 F 
ATOM     56  F   UNL A   1      40.141  35.326  37.111  1.00  0.00    -0.200 F 
ATOM     57  C   UNL A   1      38.661  33.612  37.778  1.00  0.00     0.200 A 
ATOM     58  F   UNL A   1      37.209  31.861  38.410  1.00  0.00    -0.200 F 
ATOM     59  F   UNL A   1      38.269  34.339  38.835  1.00  0.00    -0.200 F 
ENDBRANCH  25  49
BRANCH  37  60
ATOM     60  C   UNL A   1      44.688  27.490  34.592  1.00  0.00     0.064 A 
ATOM     61  C   UNL A   1      45.909  28.167  34.720  1.00  0.00     0.173 A 
ATOM     62  C   UNL A   1      44.469  26.352  35.383  1.00  0.00     0.173 A 
ATOM     63  F   UNL A   1      46.164  29.247  33.968  1.00  0.00    -0.203 F 
ATOM     64  C   UNL A   1      46.885  27.705  35.594  1.00  0.00     0.198 A 
ATOM     65  C   UNL A   1      45.434  25.917  36.282  1.00  0.00     0.198 A 
ATOM     66  F   UNL A   1      43.312  25.680  35.296  1.00  0.00    -0.203 F 
ATOM     67  F   UNL A   1      48.066  28.334  35.667  1.00  0.00    -0.200 F 
ATOM     68  C   UNL A   1      46.644  26.588  36.381  1.00  0.00     0.200 A 
ATOM     69  F   UNL A   1      45.192  24.850  37.055  1.00  0.00    -0.200 F 
ATOM     70  F   UNL A   1      47.581  26.155  37.235  1.00  0.00    -0.200 F 
ENDBRANCH  37  60
ENDBRANCH  11  12
ENDBRANCH   4   6
ENDBRANCH   3   4
ENDBRANCH   2   3
ENDBRANCH   1   2
BRANCH   1  71
ATOM     71  O   UNL A   1      30.908  28.490  24.269  1.00  0.00    -0.374 OA
BRANCH  71  72
ATOM     72  C   UNL A   1      31.849  28.045  23.288  1.00  0.00     0.202 C 
BRANCH  72  73
ATOM     73  C   UNL A   1      31.522  26.600  22.919  1.00  0.00     0.261 C 
BRANCH  73  74
ATOM     74  O   UNL A   1      32.526  25.760  23.506  1.00  0.00    -0.463 OA
BRANCH  74  75
ATOM     75  C   UNL A   1      33.519  25.315  22.685  1.00  0.00     0.309 C 
ATOM     76  O   UNL A   1      33.646  25.602  21.499  1.00  0.00    -0.252 OA
BRANCH  75  77
ATOM     77  C   UNL A   1      34.468  24.401  23.449  1.00  0.00     0.099 C 
ATOM     78  C   UNL A   1      34.592  24.836  24.918  1.00  0.00     0.021 C 
ATOM     79  C   UNL A   1      34.000  22.967  23.224  1.00  0.00     0.021 C 
ATOM     80  C   UNL A   1      34.889  23.769  25.961  1.00  0.00     0.066 C 
ATOM     81  C   UNL A   1      34.494  21.997  24.278  1.00  0.00     0.066 C 
ATOM     82  C   UNL A   1      34.176  22.432  25.719  1.00  0.00     0.184 C 
BRANCH  82  83
ATOM     83  N   UNL A   1      32.787  22.346  26.198  1.00  0.00    -0.333 N 
ATOM     84  C   UNL A   1      31.817  21.857  25.218  1.00  0.00     0.262 C 
ATOM     85  C   UNL A   1      32.122  23.417  26.927  1.00  0.00     0.262 C 
ATOM     86  H   UNL A   1      33.045  21.674  26.920  1.00  0.00     0.348 HD
ATOM     87  C   UNL A   1      31.034  23.087  24.798  1.00  0.00     0.067 C 
ATOM     88  C   UNL A   1      30.981  23.932  26.056  1.00  0.00     0.067 C 
ENDBRANCH  82  83
ENDBRANCH  75  77
ENDBRANCH  74  75
ENDBRANCH  73  74
ENDBRANCH  72  73
ENDBRANCH  71  72
ENDBRANCH   1  71
TORSDOF 15
ENDMDL
MODEL 3
REMARK VINA RESULT:     -11.2      3.285      8.869
REMARK SMILES O=C(OCCOCCOC(=O)[C@H]1CC[C@@H]([NH+]2CCCC2)CC1)c1ccc(-c2c3nc(c(-c4c(F)c(F)c(F)c(F)c4F)c4ccc([nH]4)c(-c4c(F)c(F)c(F)c(F)c4F)c4nc(c(-c5c(F)c(F)c(F)c(F)c5F)c5ccc2[nH]5)C=C4)C=C3)cc1
REMARK SMILES IDX 5 1 4 2 3 3 2 4 1 5 23 6 24 7 85 8 25 9 84 10 26 11 27 12
REMARK SMILES IDX 28 13 78 14 29 15 83 16 77 17 79 18 30 19 82 20 76 21 75 22
REMARK SMILES IDX 31 24 63 25 43 26 62 27 44 28 47 29 61 30 80 31 45 32 46 33
REMARK SMILES IDX 60 35 81 36 48 37 32 38 33 39 41 40 34 41 35 42 39 43 42 44
REMARK SMILES IDX 36 45 37 46 40 47 38 48 64 49 65 50 73 51 66 52 67 53 71 54
REMARK SMILES IDX 74 55 68 56 69 57 72 58 70 59 49 60 50 61 58 62 51 63 52 64
REMARK SMILES IDX 56 65 59 66 53 67 54 68 57 69 55 70 6 71 7 72 8 73 9 74
REMARK SMILES IDX 10 75 11 76 12 77 13 78 22 79 14 80 21 81 15 82 16 83 17 84
REMARK SMILES IDX 20 85 18 87 19 88
REMARK H PARENT 79 23 47 34 16 86
REMARK Flexibility Score: inf
ROOT
ATOM      1  C   UNL A   1      33.915  35.161  28.617  1.00  0.00     0.202 C 
ENDROOT
BRANCH   1   2
ATOM      2  C   UNL A   1      33.122  36.282  29.285  1.00  0.00     0.261 C 
BRANCH   2   3
ATOM      3  O   UNL A   1      32.351  35.751  30.382  1.00  0.00    -0.460 OA
BRANCH   3   4
ATOM      4  C   UNL A   1      32.684  35.776  31.695  1.00  0.00     0.338 C 
ATOM      5  O   UNL A   1      32.001  36.403  32.497  1.00  0.00    -0.246 OA
BRANCH   4   6
ATOM      6  C   UNL A   1      33.856  35.017  32.194  1.00  0.00     0.060 A 
ATOM      7  C   UNL A   1      35.128  35.573  32.250  1.00  0.00     0.016 A 
ATOM      8  C   UNL A   1      33.678  33.716  32.672  1.00  0.00     0.016 A 
ATOM      9  C   UNL A   1      36.227  34.857  32.625  1.00  0.00     0.010 A 
ATOM     10  C   UNL A   1      34.777  32.999  33.156  1.00  0.00     0.010 A 
ATOM     11  C   UNL A   1      36.052  33.579  33.119  1.00  0.00    -0.014 A 
BRANCH  11  12
ATOM     12  C   UNL A   1      37.290  32.888  33.471  1.00  0.00     0.031 A 
ATOM     13  C   UNL A   1      37.820  33.083  34.849  1.00  0.00     0.074 A 
ATOM     14  C   UNL A   1      37.745  31.931  32.642  1.00  0.00     0.049 A 
ATOM     15  N   UNL A   1      38.916  32.628  35.379  1.00  0.00    -0.248 NA
ATOM     16  C   UNL A   1      36.986  33.884  35.766  1.00  0.00     0.031 C 
ATOM     17  C   UNL A   1      37.113  31.541  31.373  1.00  0.00     0.029 A 
ATOM     18  N   UNL A   1      38.796  31.071  32.763  1.00  0.00    -0.354 N 
ATOM     19  C   UNL A   1      38.937  33.135  36.670  1.00  0.00     0.074 A 
ATOM     20  C   UNL A   1      37.737  33.914  36.856  1.00  0.00     0.031 C 
ATOM     21  C   UNL A   1      37.773  30.496  30.853  1.00  0.00     0.029 A 
ATOM     22  C   UNL A   1      38.933  30.226  31.688  1.00  0.00     0.049 A 
ATOM     23  H   UNL A   1      39.395  31.055  33.543  1.00  0.00     0.167 HD
ATOM     24  C   UNL A   1      39.908  32.967  37.593  1.00  0.00     0.037 A 
ATOM     25  C   UNL A   1      39.935  29.380  31.398  1.00  0.00     0.037 A 
ATOM     26  C   UNL A   1      41.076  32.168  37.341  1.00  0.00     0.049 A 
ATOM     27  C   UNL A   1      41.070  29.318  32.382  1.00  0.00     0.074 A 
ATOM     28  C   UNL A   1      42.191  31.982  38.132  1.00  0.00     0.029 A 
ATOM     29  N   UNL A   1      41.263  31.409  36.188  1.00  0.00    -0.354 N 
ATOM     30  N   UNL A   1      41.179  29.907  33.552  1.00  0.00    -0.248 NA
ATOM     31  C   UNL A   1      42.229  28.509  32.003  1.00  0.00     0.031 C 
ATOM     32  C   UNL A   1      43.075  31.152  37.433  1.00  0.00     0.029 A 
ATOM     33  C   UNL A   1      42.485  30.768  36.235  1.00  0.00     0.049 A 
ATOM     34  H   UNL A   1      40.617  31.340  35.448  1.00  0.00     0.167 HD
ATOM     35  C   UNL A   1      42.410  29.527  34.059  1.00  0.00     0.074 A 
ATOM     36  C   UNL A   1      42.999  28.638  33.074  1.00  0.00     0.031 C 
ATOM     37  C   UNL A   1      43.008  29.881  35.224  1.00  0.00     0.037 A 
BRANCH  24  38
ATOM     38  C   UNL A   1      39.778  33.746  38.865  1.00  0.00     0.064 A 
ATOM     39  C   UNL A   1      38.985  33.313  39.937  1.00  0.00     0.173 A 
ATOM     40  C   UNL A   1      40.413  34.993  38.984  1.00  0.00     0.173 A 
ATOM     41  F   UNL A   1      38.322  32.148  39.859  1.00  0.00    -0.203 F 
ATOM     42  C   UNL A   1      38.806  34.111  41.065  1.00  0.00     0.198 A 
ATOM     43  C   UNL A   1      40.256  35.775  40.123  1.00  0.00     0.198 A 
ATOM     44  F   UNL A   1      41.167  35.466  37.979  1.00  0.00    -0.203 F 
ATOM     45  F   UNL A   1      37.986  33.709  42.046  1.00  0.00    -0.200 F 
ATOM     46  C   UNL A   1      39.444  35.338  41.159  1.00  0.00     0.200 A 
ATOM     47  F   UNL A   1      40.872  36.962  40.210  1.00  0.00    -0.200 F 
ATOM     48  F   UNL A   1      39.262  36.111  42.240  1.00  0.00    -0.200 F 
ENDBRANCH  24  38
BRANCH  25  49
ATOM     49  C   UNL A   1      39.950  28.627  30.115  1.00  0.00     0.064 A 
ATOM     50  C   UNL A   1      39.393  27.346  30.015  1.00  0.00     0.173 A 
ATOM     51  C   UNL A   1      40.539  29.168  28.959  1.00  0.00     0.173 A 
ATOM     52  F   UNL A   1      38.832  26.774  31.090  1.00  0.00    -0.203 F 
ATOM     53  C   UNL A   1      39.445  26.628  28.819  1.00  0.00     0.198 A 
ATOM     54  C   UNL A   1      40.559  28.465  27.756  1.00  0.00     0.198 A 
ATOM     55  F   UNL A   1      41.093  30.390  28.992  1.00  0.00    -0.203 F 
ATOM     56  F   UNL A   1      38.951  25.383  28.767  1.00  0.00    -0.200 F 
ATOM     57  C   UNL A   1      40.022  27.190  27.690  1.00  0.00     0.200 A 
ATOM     58  F   UNL A   1      41.105  29.021  26.666  1.00  0.00    -0.200 F 
ATOM     59  F   UNL A   1      40.072  26.498  26.543  1.00  0.00    -0.200 F 
ENDBRANCH  25  49
BRANCH  37  60
ATOM     60  C   UNL A   1      44.342  29.259  35.501  1.00  0.00     0.064 A 
ATOM     61  C   UNL A   1      45.537  29.870  35.098  1.00  0.00     0.173 A 
ATOM     62  C   UNL A   1      44.416  28.061  36.228  1.00  0.00     0.173 A 
ATOM     63  F   UNL A   1      45.508  31.006  34.385  1.00  0.00    -0.203 F 
ATOM     64  C   UNL A   1      46.764  29.287  35.393  1.00  0.00     0.198 A 
ATOM     65  C   UNL A   1      45.646  27.503  36.552  1.00  0.00     0.198 A 
ATOM     66  F   UNL A   1      43.296  27.448  36.638  1.00  0.00    -0.203 F 
ATOM     67  F   UNL A   1      47.895  29.858  34.957  1.00  0.00    -0.200 F 
ATOM     68  C   UNL A   1      46.818  28.112  36.129  1.00  0.00     0.200 A 
ATOM     69  F   UNL A   1      45.697  26.378  37.278  1.00  0.00    -0.200 F 
ATOM     70  F   UNL A   1      48.003  27.561  36.425  1.00  0.00    -0.200 F 
ENDBRANCH  37  60
ENDBRANCH  11  12
ENDBRANCH   4   6
ENDBRANCH   3   4
ENDBRANCH   2   3
ENDBRANCH   1   2
BRANCH   1  71
ATOM     71  O   UNL A   1      33.456  33.822  28.786  1.00  0.00    -0.374 OA
BRANCH  71  72
ATOM     72  C   UNL A   1      34.441  32.815  29.031  1.00  0.00     0.202 C 
BRANCH  72  73
ATOM     73  C   UNL A   1      34.686  32.047  27.734  1.00  0.00     0.261 C 
BRANCH  73  74
ATOM     74  O   UNL A   1      34.299  30.683  27.952  1.00  0.00    -0.463 OA
BRANCH  74  75
ATOM     75  C   UNL A   1      33.193  30.240  27.291  1.00  0.00     0.309 C 
ATOM     76  O   UNL A   1      32.364  30.950  26.730  1.00  0.00    -0.252 OA
BRANCH  75  77
ATOM     77  C   UNL A   1      33.122  28.719  27.339  1.00  0.00     0.099 C 
ATOM     78  C   UNL A   1      31.670  28.228  27.223  1.00  0.00     0.021 C 
ATOM     79  C   UNL A   1      34.085  28.184  26.282  1.00  0.00     0.021 C 
ATOM     80  C   UNL A   1      31.420  26.869  26.588  1.00  0.00     0.066 C 
ATOM     81  C   UNL A   1      33.780  26.765  25.851  1.00  0.00     0.066 C 
ATOM     82  C   UNL A   1      32.327  26.553  25.391  1.00  0.00     0.184 C 
BRANCH  82  83
ATOM     83  N   UNL A   1      31.903  27.106  24.095  1.00  0.00    -0.333 N 
ATOM     84  C   UNL A   1      32.586  26.554  22.926  1.00  0.00     0.262 C 
ATOM     85  C   UNL A   1      31.755  28.533  23.842  1.00  0.00     0.262 C 
ATOM     86  H   UNL A   1      30.948  26.776  24.232  1.00  0.00     0.348 HD
ATOM     87  C   UNL A   1      33.538  27.648  22.480  1.00  0.00     0.067 C 
ATOM     88  C   UNL A   1      32.798  28.930  22.804  1.00  0.00     0.067 C 
ENDBRANCH  82  83
ENDBRANCH  75  77
ENDBRANCH  74  75
ENDBRANCH  73  74
ENDBRANCH  72  73
ENDBRANCH  71  72
ENDBRANCH   1  71
TORSDOF 15
ENDMDL
