MODEL 1
REMARK VINA RESULT:     -10.0      0.000      0.000
REMARK SMILES CC[C@@H](Oc1ccc(/C=C2/SC(=S)N(N3CCOCC3)C2=O)cc1OC)C(=O)OCCOCCOC(=O)c1ccc(-c2c3nc(c(-c4c(F)c(F)c(F)c(F)c4F)c4ccc([nH]4)c(-c4c(F)c(F)c(F)c(F)c4F)c4nc(c(-c5c(F)c(F)c(F)c(F)c5F)c5ccc2[nH]5)C=C4)C=C3)cc1
REMARK SMILES IDX 31 1 30 2 29 3 27 4 28 5 3 6 2 7 1 8 4 9 5 10 6 11 24 12
REMARK SMILES IDX 7 13 23 14 8 15 25 16 26 17 9 18 10 19 11 20 21 21 12 22
REMARK SMILES IDX 14 23 22 24 13 25 15 26 16 27 20 28 17 29 19 30 18 31 32 32
REMARK SMILES IDX 33 33 34 34 35 35 36 36 37 37 38 38 39 39 100 40 40 41 99 42
REMARK SMILES IDX 41 43 42 44 43 45 93 46 44 47 98 48 92 49 94 50 45 51 97 52
REMARK SMILES IDX 91 53 90 54 46 56 78 57 58 58 77 59 59 60 62 61 76 62 95 63
REMARK SMILES IDX 60 64 61 65 75 67 96 68 63 69 47 70 48 71 56 72 49 73 50 74
REMARK SMILES IDX 54 75 57 76 51 77 52 78 55 79 53 80 79 81 80 82 88 83 81 84
REMARK SMILES IDX 82 85 86 86 89 87 83 88 84 89 87 90 85 91 64 92 65 93 73 94
REMARK SMILES IDX 66 95 67 96 71 97 74 98 68 99 69 100 72 101 70 102
REMARK H PARENT 94 55 62 66
REMARK Flexibility Score: inf
ROOT
ATOM      1  C   UNL A   1      33.958  20.998  24.771  1.00  0.00     0.202 C 
ENDROOT
BRANCH   1   2
ATOM      2  C   UNL A   1      33.040  21.033  26.000  1.00  0.00     0.261 C 
BRANCH   2   3
ATOM      3  O   UNL A   1      32.974  22.364  26.544  1.00  0.00    -0.461 OA
BRANCH   3   4
ATOM      4  C   UNL A   1      32.134  23.252  25.936  1.00  0.00     0.347 C 
ATOM      5  O   UNL A   1      31.066  22.964  25.409  1.00  0.00    -0.248 OA
BRANCH   4   6
ATOM      6  C   UNL A   1      32.654  24.689  26.054  1.00  0.00     0.282 C 
BRANCH   6   7
ATOM      7  C   UNL A   1      34.130  24.719  25.617  1.00  0.00     0.054 C 
ATOM      8  C   UNL A   1      34.384  24.599  24.120  1.00  0.00     0.008 C 
ENDBRANCH   6   7
BRANCH   6   9
ATOM      9  O   UNL A   1      31.823  25.485  25.199  1.00  0.00    -0.475 OA
BRANCH   9  10
ATOM     10  C   UNL A   1      31.859  26.811  25.518  1.00  0.00     0.162 A 
ATOM     11  C   UNL A   1      31.572  27.219  26.823  1.00  0.00     0.051 A 
ATOM     12  C   UNL A   1      32.147  27.750  24.527  1.00  0.00     0.161 A 
ATOM     13  C   UNL A   1      31.604  28.576  27.150  1.00  0.00     0.012 A 
ATOM     14  C   UNL A   1      32.259  29.089  24.877  1.00  0.00     0.058 A 
ATOM     15  C   UNL A   1      31.928  29.518  26.171  1.00  0.00    -0.020 A 
BRANCH  12  16
ATOM     16  O   UNL A   1      32.413  27.455  23.217  1.00  0.00    -0.493 OA
ATOM     17  C   UNL A   1      33.618  28.050  22.738  1.00  0.00     0.278 C 
ENDBRANCH  12  16
BRANCH  15  18
ATOM     18  C   UNL A   1      31.915  30.949  26.478  1.00  0.00     0.029 C 
ATOM     19  C   UNL A   1      32.897  31.578  27.141  1.00  0.00     0.082 C 
ATOM     20  S   UNL A   1      32.749  33.204  27.698  1.00  0.00    -0.053 SA
ATOM     21  C   UNL A   1      34.202  31.001  27.596  1.00  0.00     0.280 C 
ATOM     22  C   UNL A   1      34.142  33.062  28.768  1.00  0.00     0.163 C 
ATOM     23  N   UNL A   1      34.741  31.827  28.574  1.00  0.00    -0.220 N 
ATOM     24  O   UNL A   1      34.723  29.999  27.123  1.00  0.00    -0.267 OA
ATOM     25  S   UNL A   1      34.577  34.292  29.811  1.00  0.00    -0.050 S 
BRANCH  23  26
ATOM     26  N   UNL A   1      35.909  31.447  29.223  1.00  0.00    -0.208 NA
ATOM     27  C   UNL A   1      37.217  31.600  28.615  1.00  0.00     0.137 C 
ATOM     28  C   UNL A   1      35.870  30.899  30.563  1.00  0.00     0.137 C 
ATOM     29  C   UNL A   1      37.995  30.279  28.741  1.00  0.00     0.177 C 
ATOM     30  C   UNL A   1      36.653  29.582  30.566  1.00  0.00     0.177 C 
ATOM     31  O   UNL A   1      37.995  29.780  30.089  1.00  0.00    -0.379 OA
ENDBRANCH  23  26
ENDBRANCH  15  18
ENDBRANCH   9  10
ENDBRANCH   6   9
ENDBRANCH   4   6
ENDBRANCH   3   4
ENDBRANCH   2   3
ENDBRANCH   1   2
BRANCH   1  32
ATOM     32  O   UNL A   1      35.268  20.474  25.015  1.00  0.00    -0.374 OA
BRANCH  32  33
ATOM     33  C   UNL A   1      36.226  21.417  25.490  1.00  0.00     0.202 C 
BRANCH  33  34
ATOM     34  C   UNL A   1      37.681  21.096  25.144  1.00  0.00     0.261 C 
BRANCH  34  35
ATOM     35  O   UNL A   1      38.552  22.170  25.544  1.00  0.00    -0.460 OA
BRANCH  35  36
ATOM     36  C   UNL A   1      39.622  21.772  26.271  1.00  0.00     0.338 C 
ATOM     37  O   UNL A   1      40.163  20.682  26.257  1.00  0.00    -0.246 OA
BRANCH  36  38
ATOM     38  C   UNL A   1      40.182  22.914  27.019  1.00  0.00     0.060 A 
ATOM     39  C   UNL A   1      39.717  24.187  26.668  1.00  0.00     0.016 A 
ATOM     40  C   UNL A   1      41.192  22.766  27.973  1.00  0.00     0.016 A 
ATOM     41  C   UNL A   1      40.310  25.321  27.214  1.00  0.00     0.010 A 
ATOM     42  C   UNL A   1      41.789  23.907  28.521  1.00  0.00     0.010 A 
ATOM     43  C   UNL A   1      41.380  25.188  28.110  1.00  0.00    -0.014 A 
BRANCH  43  44
ATOM     44  C   UNL A   1      42.164  26.394  28.473  1.00  0.00     0.031 A 
ATOM     45  C   UNL A   1      43.471  26.652  27.776  1.00  0.00     0.074 A 
ATOM     46  C   UNL A   1      41.687  27.282  29.363  1.00  0.00     0.049 A 
ATOM     47  N   UNL A   1      44.309  27.647  27.920  1.00  0.00    -0.248 NA
ATOM     48  C   UNL A   1      43.889  25.654  26.778  1.00  0.00     0.031 C 
ATOM     49  C   UNL A   1      40.414  27.165  30.071  1.00  0.00     0.029 A 
ATOM     50  N   UNL A   1      42.220  28.462  29.818  1.00  0.00    -0.354 N 
ATOM     51  C   UNL A   1      45.351  27.395  27.035  1.00  0.00     0.074 A 
ATOM     52  C   UNL A   1      45.058  26.138  26.382  1.00  0.00     0.031 C 
ATOM     53  C   UNL A   1      40.266  28.230  30.877  1.00  0.00     0.029 A 
ATOM     54  C   UNL A   1      41.444  29.088  30.760  1.00  0.00     0.049 A 
ATOM     55  H   UNL A   1      43.078  28.824  29.498  1.00  0.00     0.167 HD
ATOM     56  C   UNL A   1      46.447  28.150  26.782  1.00  0.00     0.037 A 
ATOM     57  C   UNL A   1      41.669  30.218  31.459  1.00  0.00     0.037 A 
ATOM     58  C   UNL A   1      46.734  29.402  27.429  1.00  0.00     0.049 A 
ATOM     59  C   UNL A   1      42.929  31.005  31.207  1.00  0.00     0.074 A 
ATOM     60  C   UNL A   1      47.811  30.250  27.228  1.00  0.00     0.029 A 
ATOM     61  N   UNL A   1      45.944  29.984  28.408  1.00  0.00    -0.354 N 
ATOM     62  N   UNL A   1      43.895  30.772  30.352  1.00  0.00    -0.248 NA
ATOM     63  C   UNL A   1      43.127  32.216  32.017  1.00  0.00     0.031 C 
ATOM     64  C   UNL A   1      47.695  31.321  28.120  1.00  0.00     0.029 A 
ATOM     65  C   UNL A   1      46.522  31.167  28.841  1.00  0.00     0.049 A 
ATOM     66  H   UNL A   1      45.098  29.612  28.746  1.00  0.00     0.167 HD
ATOM     67  C   UNL A   1      44.799  31.816  30.501  1.00  0.00     0.074 A 
ATOM     68  C   UNL A   1      44.259  32.692  31.520  1.00  0.00     0.031 C 
ATOM     69  C   UNL A   1      45.969  32.031  29.852  1.00  0.00     0.037 A 
BRANCH  56  70
ATOM     70  C   UNL A   1      47.428  27.628  25.775  1.00  0.00     0.064 A 
ATOM     71  C   UNL A   1      48.494  26.796  26.146  1.00  0.00     0.173 A 
ATOM     72  C   UNL A   1      47.278  27.936  24.414  1.00  0.00     0.173 A 
ATOM     73  F   UNL A   1      48.689  26.483  27.436  1.00  0.00    -0.203 F 
ATOM     74  C   UNL A   1      49.388  26.311  25.195  1.00  0.00     0.198 A 
ATOM     75  C   UNL A   1      48.158  27.428  23.463  1.00  0.00     0.198 A 
ATOM     76  F   UNL A   1      46.272  28.726  24.006  1.00  0.00    -0.203 F 
ATOM     77  F   UNL A   1      50.426  25.552  25.577  1.00  0.00    -0.200 F 
ATOM     78  C   UNL A   1      49.215  26.622  23.854  1.00  0.00     0.200 A 
ATOM     79  F   UNL A   1      47.983  27.720  22.166  1.00  0.00    -0.200 F 
ATOM     80  F   UNL A   1      50.073  26.149  22.939  1.00  0.00    -0.200 F 
ENDBRANCH  56  70
BRANCH  57  81
ATOM     81  C   UNL A   1      40.682  30.669  32.474  1.00  0.00     0.064 A 
ATOM     82  C   UNL A   1      40.683  30.141  33.772  1.00  0.00     0.173 A 
ATOM     83  C   UNL A   1      39.707  31.627  32.159  1.00  0.00     0.173 A 
ATOM     84  F   UNL A   1      41.579  29.203  34.113  1.00  0.00    -0.203 F 
ATOM     85  C   UNL A   1      39.736  30.542  34.712  1.00  0.00     0.198 A 
ATOM     86  C   UNL A   1      38.778  32.048  33.108  1.00  0.00     0.198 A 
ATOM     87  F   UNL A   1      39.662  32.160  30.930  1.00  0.00    -0.203 F 
ATOM     88  F   UNL A   1      39.730  29.990  35.933  1.00  0.00    -0.200 F 
ATOM     89  C   UNL A   1      38.788  31.500  34.381  1.00  0.00     0.200 A 
ATOM     90  F   UNL A   1      37.870  32.979  32.787  1.00  0.00    -0.200 F 
ATOM     91  F   UNL A   1      37.879  31.887  35.286  1.00  0.00    -0.200 F 
ENDBRANCH  57  81
BRANCH  69  92
ATOM     92  C   UNL A   1      46.732  33.277  30.199  1.00  0.00     0.064 A 
ATOM     93  C   UNL A   1      46.510  34.487  29.528  1.00  0.00     0.173 A 
ATOM     94  C   UNL A   1      47.666  33.268  31.247  1.00  0.00     0.173 A 
ATOM     95  F   UNL A   1      45.638  34.544  28.510  1.00  0.00    -0.203 F 
ATOM     96  C   UNL A   1      47.212  35.638  29.876  1.00  0.00     0.198 A 
ATOM     97  C   UNL A   1      48.346  34.427  31.612  1.00  0.00     0.198 A 
ATOM     98  F   UNL A   1      47.909  32.137  31.926  1.00  0.00    -0.203 F 
ATOM     99  F   UNL A   1      47.017  36.774  29.191  1.00  0.00    -0.200 F 
ATOM    100  C   UNL A   1      48.123  35.609  30.922  1.00  0.00     0.200 A 
ATOM    101  F   UNL A   1      49.216  34.399  32.630  1.00  0.00    -0.200 F 
ATOM    102  F   UNL A   1      48.793  36.720  31.260  1.00  0.00    -0.200 F 
ENDBRANCH  69  92
ENDBRANCH  43  44
ENDBRANCH  36  38
ENDBRANCH  35  36
ENDBRANCH  34  35
ENDBRANCH  33  34
ENDBRANCH  32  33
ENDBRANCH   1  32
TORSDOF 20
ENDMDL
MODEL 2
REMARK VINA RESULT:      -9.9      4.543      8.637
REMARK SMILES CC[C@@H](Oc1ccc(/C=C2/SC(=S)N(N3CCOCC3)C2=O)cc1OC)C(=O)OCCOCCOC(=O)c1ccc(-c2c3nc(c(-c4c(F)c(F)c(F)c(F)c4F)c4ccc([nH]4)c(-c4c(F)c(F)c(F)c(F)c4F)c4nc(c(-c5c(F)c(F)c(F)c(F)c5F)c5ccc2[nH]5)C=C4)C=C3)cc1
REMARK SMILES IDX 31 1 30 2 29 3 27 4 28 5 3 6 2 7 1 8 4 9 5 10 6 11 24 12
REMARK SMILES IDX 7 13 23 14 8 15 25 16 26 17 9 18 10 19 11 20 21 21 12 22
REMARK SMILES IDX 14 23 22 24 13 25 15 26 16 27 20 28 17 29 19 30 18 31 32 32
REMARK SMILES IDX 33 33 34 34 35 35 36 36 37 37 38 38 39 39 100 40 40 41 99 42
REMARK SMILES IDX 41 43 42 44 43 45 93 46 44 47 98 48 92 49 94 50 45 51 97 52
REMARK SMILES IDX 91 53 90 54 46 56 78 57 58 58 77 59 59 60 62 61 76 62 95 63
REMARK SMILES IDX 60 64 61 65 75 67 96 68 63 69 47 70 48 71 56 72 49 73 50 74
REMARK SMILES IDX 54 75 57 76 51 77 52 78 55 79 53 80 79 81 80 82 88 83 81 84
REMARK SMILES IDX 82 85 86 86 89 87 83 88 84 89 87 90 85 91 64 92 65 93 73 94
REMARK SMILES IDX 66 95 67 96 71 97 74 98 68 99 69 100 72 101 70 102
REMARK H PARENT 94 55 62 66
REMARK Flexibility Score: inf
ROOT
ATOM      1  C   UNL A   1      42.477  21.337  27.046  1.00  0.00     0.202 C 
ENDROOT
BRANCH   1   2
ATOM      2  C   UNL A   1      41.101  20.814  27.477  1.00  0.00     0.261 C 
BRANCH   2   3
ATOM      3  O   UNL A   1      40.053  21.643  26.941  1.00  0.00    -0.461 OA
BRANCH   3   4
ATOM      4  C   UNL A   1      39.172  21.063  26.074  1.00  0.00     0.347 C 
ATOM      5  O   UNL A   1      39.411  20.083  25.379  1.00  0.00    -0.248 OA
BRANCH   4   6
ATOM      6  C   UNL A   1      37.802  21.747  26.125  1.00  0.00     0.282 C 
BRANCH   6   7
ATOM      7  C   UNL A   1      37.925  23.153  25.512  1.00  0.00     0.054 C 
ATOM      8  C   UNL A   1      37.844  24.317  26.491  1.00  0.00     0.008 C 
ENDBRANCH   6   7
BRANCH   6   9
ATOM      9  O   UNL A   1      36.911  20.908  25.375  1.00  0.00    -0.475 OA
BRANCH   9  10
ATOM     10  C   UNL A   1      36.031  21.623  24.617  1.00  0.00     0.162 A 
ATOM     11  C   UNL A   1      36.499  22.379  23.539  1.00  0.00     0.051 A 
ATOM     12  C   UNL A   1      34.676  21.622  24.949  1.00  0.00     0.161 A 
ATOM     13  C   UNL A   1      35.600  23.116  22.765  1.00  0.00     0.012 A 
ATOM     14  C   UNL A   1      33.778  22.289  24.127  1.00  0.00     0.058 A 
ATOM     15  C   UNL A   1      34.237  23.089  23.070  1.00  0.00    -0.020 A 
BRANCH  12  16
ATOM     16  O   UNL A   1      34.124  20.941  26.000  1.00  0.00    -0.493 OA
ATOM     17  C   UNL A   1      34.050  21.714  27.197  1.00  0.00     0.278 C 
ENDBRANCH  12  16
BRANCH  15  18
ATOM     18  C   UNL A   1      33.284  23.896  22.306  1.00  0.00     0.029 C 
ATOM     19  C   UNL A   1      32.863  25.111  22.688  1.00  0.00     0.082 C 
ATOM     20  S   UNL A   1      31.567  25.935  21.901  1.00  0.00    -0.053 SA
ATOM     21  C   UNL A   1      33.331  25.908  23.866  1.00  0.00     0.280 C 
ATOM     22  C   UNL A   1      31.383  27.094  23.216  1.00  0.00     0.163 C 
ATOM     23  N   UNL A   1      32.390  26.891  24.146  1.00  0.00    -0.220 N 
ATOM     24  O   UNL A   1      34.404  25.746  24.435  1.00  0.00    -0.267 OA
ATOM     25  S   UNL A   1      30.149  28.219  23.228  1.00  0.00    -0.050 S 
BRANCH  23  26
ATOM     26  N   UNL A   1      32.556  27.698  25.265  1.00  0.00    -0.208 NA
ATOM     27  C   UNL A   1      32.291  27.222  26.609  1.00  0.00     0.137 C 
ATOM     28  C   UNL A   1      33.034  29.058  25.134  1.00  0.00     0.137 C 
ATOM     29  C   UNL A   1      31.400  28.239  27.343  1.00  0.00     0.177 C 
ATOM     30  C   UNL A   1      32.065  29.982  25.879  1.00  0.00     0.177 C 
ATOM     31  O   UNL A   1      31.921  29.576  27.252  1.00  0.00    -0.379 OA
ENDBRANCH  23  26
ENDBRANCH  15  18
ENDBRANCH   9  10
ENDBRANCH   6   9
ENDBRANCH   4   6
ENDBRANCH   3   4
ENDBRANCH   2   3
ENDBRANCH   1   2
BRANCH   1  32
ATOM     32  O   UNL A   1      42.781  21.155  25.659  1.00  0.00    -0.374 OA
BRANCH  32  33
ATOM     33  C   UNL A   1      44.165  21.225  25.322  1.00  0.00     0.202 C 
BRANCH  33  34
ATOM     34  C   UNL A   1      44.617  22.550  24.704  1.00  0.00     0.261 C 
BRANCH  34  35
ATOM     35  O   UNL A   1      44.730  23.572  25.710  1.00  0.00    -0.460 OA
BRANCH  35  36
ATOM     36  C   UNL A   1      43.837  24.580  25.578  1.00  0.00     0.338 C 
ATOM     37  O   UNL A   1      43.109  24.805  24.628  1.00  0.00    -0.246 OA
BRANCH  36  38
ATOM     38  C   UNL A   1      43.733  25.338  26.840  1.00  0.00     0.060 A 
ATOM     39  C   UNL A   1      42.921  24.790  27.840  1.00  0.00     0.016 A 
ATOM     40  C   UNL A   1      44.336  26.586  27.020  1.00  0.00     0.016 A 
ATOM     41  C   UNL A   1      42.647  25.519  28.993  1.00  0.00     0.010 A 
ATOM     42  C   UNL A   1      44.058  27.319  28.179  1.00  0.00     0.010 A 
ATOM     43  C   UNL A   1      43.177  26.807  29.148  1.00  0.00    -0.014 A 
BRANCH  43  44
ATOM     44  C   UNL A   1      42.667  27.664  30.247  1.00  0.00     0.031 A 
ATOM     45  C   UNL A   1      41.381  28.418  30.046  1.00  0.00     0.074 A 
ATOM     46  C   UNL A   1      43.304  27.718  31.430  1.00  0.00     0.049 A 
ATOM     47  N   UNL A   1      40.742  29.208  30.871  1.00  0.00    -0.248 NA
ATOM     48  C   UNL A   1      40.725  28.258  28.739  1.00  0.00     0.031 C 
ATOM     49  C   UNL A   1      44.533  26.999  31.759  1.00  0.00     0.029 A 
ATOM     50  N   UNL A   1      42.998  28.408  32.575  1.00  0.00    -0.354 N 
ATOM     51  C   UNL A   1      39.614  29.638  30.185  1.00  0.00     0.074 A 
ATOM     52  C   UNL A   1      39.670  29.050  28.864  1.00  0.00     0.031 C 
ATOM     53  C   UNL A   1      44.880  27.290  33.024  1.00  0.00     0.029 A 
ATOM     54  C   UNL A   1      43.914  28.234  33.582  1.00  0.00     0.049 A 
ATOM     55  H   UNL A   1      42.198  28.974  32.666  1.00  0.00     0.167 HD
ATOM     56  C   UNL A   1      38.614  30.441  30.621  1.00  0.00     0.037 A 
ATOM     57  C   UNL A   1      43.971  28.788  34.809  1.00  0.00     0.037 A 
ATOM     58  C   UNL A   1      38.556  31.022  31.936  1.00  0.00     0.049 A 
ATOM     59  C   UNL A   1      42.881  29.733  35.246  1.00  0.00     0.074 A 
ATOM     60  C   UNL A   1      37.576  31.836  32.478  1.00  0.00     0.029 A 
ATOM     61  N   UNL A   1      39.524  30.855  32.915  1.00  0.00    -0.354 N 
ATOM     62  N   UNL A   1      41.806  30.113  34.600  1.00  0.00    -0.248 NA
ATOM     63  C   UNL A   1      43.013  30.321  36.587  1.00  0.00     0.031 C 
ATOM     64  C   UNL A   1      37.975  32.199  33.769  1.00  0.00     0.029 A 
ATOM     65  C   UNL A   1      39.177  31.572  34.049  1.00  0.00     0.049 A 
ATOM     66  H   UNL A   1      40.337  30.308  32.818  1.00  0.00     0.167 HD
ATOM     67  C   UNL A   1      41.122  30.961  35.461  1.00  0.00     0.074 A 
ATOM     68  C   UNL A   1      41.897  31.029  36.682  1.00  0.00     0.031 C 
ATOM     69  C   UNL A   1      39.957  31.623  35.260  1.00  0.00     0.037 A 
BRANCH  56  70
ATOM     70  C   UNL A   1      37.510  30.757  29.655  1.00  0.00     0.064 A 
ATOM     71  C   UNL A   1      36.525  29.814  29.328  1.00  0.00     0.173 A 
ATOM     72  C   UNL A   1      37.417  32.033  29.078  1.00  0.00     0.173 A 
ATOM     73  F   UNL A   1      36.577  28.576  29.843  1.00  0.00    -0.203 F 
ATOM     74  C   UNL A   1      35.500  30.130  28.440  1.00  0.00     0.198 A 
ATOM     75  C   UNL A   1      36.377  32.353  28.211  1.00  0.00     0.198 A 
ATOM     76  F   UNL A   1      38.333  32.972  29.361  1.00  0.00    -0.203 F 
ATOM     77  F   UNL A   1      34.593  29.199  28.106  1.00  0.00    -0.200 F 
ATOM     78  C   UNL A   1      35.423  31.400  27.887  1.00  0.00     0.200 A 
ATOM     79  F   UNL A   1      36.297  33.584  27.686  1.00  0.00    -0.200 F 
ATOM     80  F   UNL A   1      34.433  31.703  27.036  1.00  0.00    -0.200 F 
ENDBRANCH  56  70
BRANCH  57  81
ATOM     81  C   UNL A   1      45.109  28.472  35.712  1.00  0.00     0.064 A 
ATOM     82  C   UNL A   1      46.325  29.160  35.614  1.00  0.00     0.173 A 
ATOM     83  C   UNL A   1      45.005  27.461  36.678  1.00  0.00     0.173 A 
ATOM     84  F   UNL A   1      46.481  30.117  34.687  1.00  0.00    -0.203 F 
ATOM     85  C   UNL A   1      47.401  28.839  36.440  1.00  0.00     0.198 A 
ATOM     86  C   UNL A   1      46.072  27.160  37.522  1.00  0.00     0.198 A 
ATOM     87  F   UNL A   1      43.864  26.771  36.809  1.00  0.00    -0.203 F 
ATOM     88  F   UNL A   1      48.568  29.483  36.297  1.00  0.00    -0.200 F 
ATOM     89  C   UNL A   1      47.271  27.844  37.397  1.00  0.00     0.200 A 
ATOM     90  F   UNL A   1      45.940  26.204  38.452  1.00  0.00    -0.200 F 
ATOM     91  F   UNL A   1      48.305  27.538  38.193  1.00  0.00    -0.200 F 
ENDBRANCH  57  81
BRANCH  69  92
ATOM     92  C   UNL A   1      39.429  32.454  36.394  1.00  0.00     0.064 A 
ATOM     93  C   UNL A   1      38.437  31.974  37.259  1.00  0.00     0.173 A 
ATOM     94  C   UNL A   1      39.958  33.731  36.644  1.00  0.00     0.173 A 
ATOM     95  F   UNL A   1      37.890  30.765  37.054  1.00  0.00    -0.203 F 
ATOM     96  C   UNL A   1      37.973  32.750  38.318  1.00  0.00     0.198 A 
ATOM     97  C   UNL A   1      39.513  34.493  37.720  1.00  0.00     0.198 A 
ATOM     98  F   UNL A   1      40.915  34.233  35.851  1.00  0.00    -0.203 F 
ATOM     99  F   UNL A   1      36.992  32.289  39.106  1.00  0.00    -0.200 F 
ATOM    100  C   UNL A   1      38.517  34.004  38.552  1.00  0.00     0.200 A 
ATOM    101  F   UNL A   1      40.048  35.699  37.953  1.00  0.00    -0.200 F 
ATOM    102  F   UNL A   1      38.074  34.747  39.577  1.00  0.00    -0.200 F 
ENDBRANCH  69  92
ENDBRANCH  43  44
ENDBRANCH  36  38
ENDBRANCH  35  36
ENDBRANCH  34  35
ENDBRANCH  33  34
ENDBRANCH  32  33
ENDBRANCH   1  32
TORSDOF 20
ENDMDL
MODEL 3
REMARK VINA RESULT:      -9.3      4.746     10.639
REMARK SMILES CC[C@@H](Oc1ccc(/C=C2/SC(=S)N(N3CCOCC3)C2=O)cc1OC)C(=O)OCCOCCOC(=O)c1ccc(-c2c3nc(c(-c4c(F)c(F)c(F)c(F)c4F)c4ccc([nH]4)c(-c4c(F)c(F)c(F)c(F)c4F)c4nc(c(-c5c(F)c(F)c(F)c(F)c5F)c5ccc2[nH]5)C=C4)C=C3)cc1
REMARK SMILES IDX 31 1 30 2 29 3 27 4 28 5 3 6 2 7 1 8 4 9 5 10 6 11 24 12
REMARK SMILES IDX 7 13 23 14 8 15 25 16 26 17 9 18 10 19 11 20 21 21 12 22
REMARK SMILES IDX 14 23 22 24 13 25 15 26 16 27 20 28 17 29 19 30 18 31 32 32
REMARK SMILES IDX 33 33 34 34 35 35 36 36 37 37 38 38 39 39 100 40 40 41 99 42
REMARK SMILES IDX 41 43 42 44 43 45 93 46 44 47 98 48 92 49 94 50 45 51 97 52
REMARK SMILES IDX 91 53 90 54 46 56 78 57 58 58 77 59 59 60 62 61 76 62 95 63
REMARK SMILES IDX 60 64 61 65 75 67 96 68 63 69 47 70 48 71 56 72 49 73 50 74
REMARK SMILES IDX 54 75 57 76 51 77 52 78 55 79 53 80 79 81 80 82 88 83 81 84
REMARK SMILES IDX 82 85 86 86 89 87 83 88 84 89 87 90 85 91 64 92 65 93 73 94
REMARK SMILES IDX 66 95 67 96 71 97 74 98 68 99 69 100 72 101 70 102
REMARK H PARENT 94 55 62 66
REMARK Flexibility Score: inf
ROOT
ATOM      1  C   UNL A   1      34.850  34.502  33.188  1.00  0.00     0.202 C 
ENDROOT
BRANCH   1   2
ATOM      2  C   UNL A   1      35.982  33.758  33.907  1.00  0.00     0.261 C 
BRANCH   2   3
ATOM      3  O   UNL A   1      35.688  33.621  35.309  1.00  0.00    -0.461 OA
BRANCH   3   4
ATOM      4  C   UNL A   1      36.741  33.449  36.161  1.00  0.00     0.347 C 
ATOM      5  O   UNL A   1      36.661  33.415  37.382  1.00  0.00    -0.248 OA
BRANCH   4   6
ATOM      6  C   UNL A   1      38.050  33.224  35.395  1.00  0.00     0.282 C 
BRANCH   6   7
ATOM      7  C   UNL A   1      38.920  34.489  35.518  1.00  0.00     0.054 C 
ATOM      8  C   UNL A   1      39.711  34.876  34.275  1.00  0.00     0.008 C 
ENDBRANCH   6   7
BRANCH   6   9
ATOM      9  O   UNL A   1      38.673  32.082  36.000  1.00  0.00    -0.475 OA
BRANCH   9  10
ATOM     10  C   UNL A   1      39.421  31.363  35.114  1.00  0.00     0.162 A 
ATOM     11  C   UNL A   1      38.787  30.544  34.175  1.00  0.00     0.051 A 
ATOM     12  C   UNL A   1      40.812  31.423  35.179  1.00  0.00     0.161 A 
ATOM     13  C   UNL A   1      39.552  29.804  33.271  1.00  0.00     0.012 A 
ATOM     14  C   UNL A   1      41.564  30.750  34.226  1.00  0.00     0.058 A 
ATOM     15  C   UNL A   1      40.945  29.889  33.307  1.00  0.00    -0.020 A 
BRANCH  12  16
ATOM     16  O   UNL A   1      41.527  32.169  36.078  1.00  0.00    -0.493 OA
ATOM     17  C   UNL A   1      42.515  32.997  35.467  1.00  0.00     0.278 C 
ENDBRANCH  12  16
BRANCH  15  18
ATOM     18  C   UNL A   1      41.767  29.080  32.405  1.00  0.00     0.029 C 
ATOM     19  C   UNL A   1      42.413  27.967  32.784  1.00  0.00     0.082 C 
ATOM     20  S   UNL A   1      43.560  27.169  31.772  1.00  0.00    -0.053 SA
ATOM     21  C   UNL A   1      42.352  27.288  34.117  1.00  0.00     0.280 C 
ATOM     22  C   UNL A   1      44.204  26.209  33.102  1.00  0.00     0.163 C 
ATOM     23  N   UNL A   1      43.445  26.438  34.238  1.00  0.00    -0.220 N 
ATOM     24  O   UNL A   1      41.444  27.423  34.927  1.00  0.00    -0.267 OA
ATOM     25  S   UNL A   1      45.528  25.210  32.904  1.00  0.00    -0.050 S 
BRANCH  23  26
ATOM     26  N   UNL A   1      43.660  25.768  35.436  1.00  0.00    -0.208 NA
ATOM     27  C   UNL A   1      44.391  26.368  36.537  1.00  0.00     0.137 C 
ATOM     28  C   UNL A   1      43.134  24.436  35.647  1.00  0.00     0.137 C 
ATOM     29  C   UNL A   1      45.457  25.380  37.039  1.00  0.00     0.177 C 
ATOM     30  C   UNL A   1      44.281  23.537  36.122  1.00  0.00     0.177 C 
ATOM     31  O   UNL A   1      44.906  24.077  37.299  1.00  0.00    -0.379 OA
ENDBRANCH  23  26
ENDBRANCH  15  18
ENDBRANCH   9  10
ENDBRANCH   6   9
ENDBRANCH   4   6
ENDBRANCH   3   4
ENDBRANCH   2   3
ENDBRANCH   1   2
BRANCH   1  32
ATOM     32  O   UNL A   1      34.582  34.046  31.857  1.00  0.00    -0.374 OA
BRANCH  32  33
ATOM     33  C   UNL A   1      34.851  32.667  31.617  1.00  0.00     0.202 C 
BRANCH  33  34
ATOM     34  C   UNL A   1      35.180  32.311  30.166  1.00  0.00     0.261 C 
BRANCH  34  35
ATOM     35  O   UNL A   1      35.487  30.911  30.039  1.00  0.00    -0.460 OA
BRANCH  35  36
ATOM     36  C   UNL A   1      35.609  30.485  28.760  1.00  0.00     0.338 C 
ATOM     37  O   UNL A   1      34.847  30.696  27.834  1.00  0.00    -0.246 OA
BRANCH  36  38
ATOM     38  C   UNL A   1      36.911  29.820  28.566  1.00  0.00     0.060 A 
ATOM     39  C   UNL A   1      37.483  29.214  29.691  1.00  0.00     0.016 A 
ATOM     40  C   UNL A   1      37.601  29.855  27.351  1.00  0.00     0.016 A 
ATOM     41  C   UNL A   1      38.777  28.706  29.627  1.00  0.00     0.010 A 
ATOM     42  C   UNL A   1      38.903  29.346  27.288  1.00  0.00     0.010 A 
ATOM     43  C   UNL A   1      39.511  28.811  28.438  1.00  0.00    -0.014 A 
BRANCH  43  44
ATOM     44  C   UNL A   1      40.963  28.507  28.463  1.00  0.00     0.031 A 
ATOM     45  C   UNL A   1      41.917  29.551  28.977  1.00  0.00     0.074 A 
ATOM     46  C   UNL A   1      41.420  27.297  28.098  1.00  0.00     0.049 A 
ATOM     47  N   UNL A   1      43.218  29.498  29.106  1.00  0.00    -0.248 NA
ATOM     48  C   UNL A   1      41.323  30.828  29.405  1.00  0.00     0.031 C 
ATOM     49  C   UNL A   1      40.590  26.191  27.626  1.00  0.00     0.029 A 
ATOM     50  N   UNL A   1      42.698  26.798  28.073  1.00  0.00    -0.354 N 
ATOM     51  C   UNL A   1      43.597  30.729  29.627  1.00  0.00     0.074 A 
ATOM     52  C   UNL A   1      42.394  31.521  29.760  1.00  0.00     0.031 C 
ATOM     53  C   UNL A   1      41.384  25.140  27.352  1.00  0.00     0.029 A 
ATOM     54  C   UNL A   1      42.775  25.510  27.605  1.00  0.00     0.049 A 
ATOM     55  H   UNL A   1      43.484  27.314  28.363  1.00  0.00     0.167 HD
ATOM     56  C   UNL A   1      44.835  31.155  29.975  1.00  0.00     0.037 A 
ATOM     57  C   UNL A   1      43.850  24.726  27.391  1.00  0.00     0.037 A 
ATOM     58  C   UNL A   1      46.030  30.364  29.848  1.00  0.00     0.049 A 
ATOM     59  C   UNL A   1      45.224  25.249  27.724  1.00  0.00     0.074 A 
ATOM     60  C   UNL A   1      47.328  30.701  30.190  1.00  0.00     0.029 A 
ATOM     61  N   UNL A   1      46.072  29.078  29.331  1.00  0.00    -0.354 N 
ATOM     62  N   UNL A   1      45.569  26.403  28.240  1.00  0.00    -0.248 NA
ATOM     63  C   UNL A   1      46.358  24.354  27.448  1.00  0.00     0.031 C 
ATOM     64  C   UNL A   1      48.163  29.636  29.835  1.00  0.00     0.029 A 
ATOM     65  C   UNL A   1      47.379  28.617  29.320  1.00  0.00     0.049 A 
ATOM     66  H   UNL A   1      45.290  28.568  29.019  1.00  0.00     0.167 HD
ATOM     67  C   UNL A   1      46.951  26.365  28.373  1.00  0.00     0.074 A 
ATOM     68  C   UNL A   1      47.380  25.067  27.897  1.00  0.00     0.031 C 
ATOM     69  C   UNL A   1      47.789  27.318  28.849  1.00  0.00     0.037 A 
BRANCH  56  70
ATOM     70  C   UNL A   1      44.960  32.551  30.509  1.00  0.00     0.064 A 
ATOM     71  C   UNL A   1      44.855  32.829  31.880  1.00  0.00     0.173 A 
ATOM     72  C   UNL A   1      45.225  33.621  29.640  1.00  0.00     0.173 A 
ATOM     73  F   UNL A   1      44.589  31.844  32.751  1.00  0.00    -0.203 F 
ATOM     74  C   UNL A   1      44.987  34.130  32.358  1.00  0.00     0.198 A 
ATOM     75  C   UNL A   1      45.383  34.916  30.125  1.00  0.00     0.198 A 
ATOM     76  F   UNL A   1      45.338  33.408  28.320  1.00  0.00    -0.203 F 
ATOM     77  F   UNL A   1      44.840  34.380  33.668  1.00  0.00    -0.200 F 
ATOM     78  C   UNL A   1      45.257  35.171  31.482  1.00  0.00     0.200 A 
ATOM     79  F   UNL A   1      45.654  35.919  29.278  1.00  0.00    -0.200 F 
ATOM     80  F   UNL A   1      45.390  36.422  31.945  1.00  0.00    -0.200 F 
ENDBRANCH  56  70
BRANCH  57  81
ATOM     81  C   UNL A   1      43.672  23.365  26.824  1.00  0.00     0.064 A 
ATOM     82  C   UNL A   1      44.113  23.055  25.530  1.00  0.00     0.173 A 
ATOM     83  C   UNL A   1      43.042  22.351  27.559  1.00  0.00     0.173 A 
ATOM     84  F   UNL A   1      44.698  23.999  24.777  1.00  0.00    -0.203 F 
ATOM     85  C   UNL A   1      43.916  21.787  24.988  1.00  0.00     0.198 A 
ATOM     86  C   UNL A   1      42.871  21.074  27.027  1.00  0.00     0.198 A 
ATOM     87  F   UNL A   1      42.600  22.597  28.800  1.00  0.00    -0.203 F 
ATOM     88  F   UNL A   1      44.307  21.529  23.732  1.00  0.00    -0.200 F 
ATOM     89  C   UNL A   1      43.301  20.796  25.739  1.00  0.00     0.200 A 
ATOM     90  F   UNL A   1      42.285  20.118  27.759  1.00  0.00    -0.200 F 
ATOM     91  F   UNL A   1      43.114  19.576  25.218  1.00  0.00    -0.200 F 
ENDBRANCH  57  81
BRANCH  69  92
ATOM     92  C   UNL A   1      49.252  26.984  28.909  1.00  0.00     0.064 A 
ATOM     93  C   UNL A   1      49.826  26.394  30.043  1.00  0.00     0.173 A 
ATOM     94  C   UNL A   1      50.079  27.218  27.799  1.00  0.00     0.173 A 
ATOM     95  F   UNL A   1      49.080  26.163  31.134  1.00  0.00    -0.203 F 
ATOM     96  C   UNL A   1      51.180  26.072  30.074  1.00  0.00     0.198 A 
ATOM     97  C   UNL A   1      51.426  26.869  27.823  1.00  0.00     0.198 A 
ATOM     98  F   UNL A   1      49.577  27.773  26.686  1.00  0.00    -0.203 F 
ATOM     99  F   UNL A   1      51.718  25.549  31.185  1.00  0.00    -0.200 F 
ATOM    100  C   UNL A   1      51.977  26.303  28.963  1.00  0.00     0.200 A 
ATOM    101  F   UNL A   1      52.191  27.081  26.743  1.00  0.00    -0.200 F 
ATOM    102  F   UNL A   1      53.279  25.985  28.992  1.00  0.00    -0.200 F 
ENDBRANCH  69  92
ENDBRANCH  43  44
ENDBRANCH  36  38
ENDBRANCH  35  36
ENDBRANCH  34  35
ENDBRANCH  33  34
ENDBRANCH  32  33
ENDBRANCH   1  32
TORSDOF 20
ENDMDL
