MODEL 1
REMARK VINA RESULT:     -12.5      0.000      0.000
REMARK SMILES Cc1ccc([C@@H](C)Nc2ccccc2C(=O)OCCOCCOC(=O)c2ccc(-c3c4nc(c(-c5c(F)c(F)c(F)c(F)c5F)c5ccc([nH]5)c(-c5c(F)c(F)c(F)c(F)c5F)c5nc(c(-c6c(F)c(F)c(F)c(F)c6F)c6ccc3[nH]6)C=C5)C=C4)cc2)cc1F
REMARK SMILES IDX 19 1 18 2 17 3 15 4 16 5 14 6 9 7 10 8 11 9 13 10 12 11 8 12
REMARK SMILES IDX 6 14 7 15 5 16 1 17 2 18 3 19 90 20 4 21 89 22 91 23 20 24
REMARK SMILES IDX 21 25 22 26 23 27 24 28 25 29 26 30 27 31 88 32 28 33 87 34
REMARK SMILES IDX 29 35 30 36 31 37 81 38 32 39 86 40 80 41 82 42 33 43 85 44
REMARK SMILES IDX 79 45 78 46 34 48 66 49 46 50 65 51 47 52 50 53 64 54 83 55
REMARK SMILES IDX 48 56 49 57 63 59 84 60 51 61 35 62 36 63 44 64 37 65 38 66
REMARK SMILES IDX 42 67 45 68 39 69 40 70 43 71 41 72 67 73 68 74 76 75 69 76
REMARK SMILES IDX 70 77 74 78 77 79 71 80 72 81 75 82 73 83 52 84 53 85 61 86
REMARK SMILES IDX 54 87 55 88 59 89 62 90 56 91 57 92 60 93 58 94
REMARK H PARENT 8 13 82 47 50 58
REMARK Flexibility Score: inf
ROOT
ATOM      1  C   UNL A   1      34.153  30.510  27.127  1.00  0.00     0.202 C 
ENDROOT
BRANCH   1   2
ATOM      2  C   UNL A   1      34.172  29.031  27.508  1.00  0.00     0.261 C 
BRANCH   2   3
ATOM      3  O   UNL A   1      34.382  28.247  26.320  1.00  0.00    -0.460 OA
BRANCH   3   4
ATOM      4  C   UNL A   1      33.402  27.364  26.027  1.00  0.00     0.340 C 
ATOM      5  O   UNL A   1      32.495  27.015  26.764  1.00  0.00    -0.246 OA
BRANCH   4   6
ATOM      6  C   UNL A   1      33.457  27.053  24.586  1.00  0.00     0.083 A 
ATOM      7  C   UNL A   1      33.472  25.764  24.019  1.00  0.00     0.049 A 
ATOM      8  C   UNL A   1      33.525  25.717  22.605  1.00  0.00     0.026 A 
ATOM      9  C   UNL A   1      33.570  26.864  21.803  1.00  0.00     0.002 A 
ATOM     10  C   UNL A   1      33.502  28.210  23.776  1.00  0.00     0.018 A 
ATOM     11  C   UNL A   1      33.563  28.117  22.390  1.00  0.00     0.001 A 
BRANCH   7  12
ATOM     12  N   UNL A   1      33.394  24.534  24.648  1.00  0.00    -0.378 N 
ATOM     13  H   UNL A   1      33.123  24.569  25.594  1.00  0.00     0.161 HD
BRANCH  12  14
ATOM     14  C   UNL A   1      33.649  23.202  24.131  1.00  0.00     0.106 C 
ATOM     15  C   UNL A   1      32.535  22.251  24.568  1.00  0.00     0.036 C 
BRANCH  14  16
ATOM     16  C   UNL A   1      34.998  22.718  24.638  1.00  0.00    -0.023 A 
ATOM     17  C   UNL A   1      38.951  21.455  25.842  1.00  0.00     0.047 C 
ATOM     18  C   UNL A   1      37.575  21.904  25.459  1.00  0.00    -0.015 A 
ATOM     19  C   UNL A   1      37.220  23.256  25.482  1.00  0.00     0.007 A 
ATOM     20  C   UNL A   1      36.622  20.969  25.055  1.00  0.00     0.126 A 
ATOM     21  C   UNL A   1      35.944  23.657  25.081  1.00  0.00     0.006 A 
ATOM     22  C   UNL A   1      35.348  21.359  24.654  1.00  0.00     0.045 A 
ATOM     23  F   UNL A   1      36.932  19.664  25.032  1.00  0.00    -0.207 F 
ENDBRANCH  14  16
ENDBRANCH  12  14
ENDBRANCH   7  12
ENDBRANCH   4   6
ENDBRANCH   3   4
ENDBRANCH   2   3
ENDBRANCH   1   2
BRANCH   1  24
ATOM     24  O   UNL A   1      33.666  31.416  28.123  1.00  0.00    -0.374 OA
BRANCH  24  25
ATOM     25  C   UNL A   1      34.285  32.692  28.263  1.00  0.00     0.202 C 
BRANCH  25  26
ATOM     26  C   UNL A   1      35.086  32.946  29.542  1.00  0.00     0.261 C 
BRANCH  26  27
ATOM     27  O   UNL A   1      35.736  31.778  30.039  1.00  0.00    -0.460 OA
BRANCH  27  28
ATOM     28  C   UNL A   1      36.993  31.645  29.569  1.00  0.00     0.338 C 
ATOM     29  O   UNL A   1      37.848  32.506  29.447  1.00  0.00    -0.246 OA
BRANCH  28  30
ATOM     30  C   UNL A   1      37.239  30.269  29.137  1.00  0.00     0.060 A 
ATOM     31  C   UNL A   1      37.199  29.276  30.127  1.00  0.00     0.016 A 
ATOM     32  C   UNL A   1      37.861  30.074  27.905  1.00  0.00     0.016 A 
ATOM     33  C   UNL A   1      38.033  28.182  30.002  1.00  0.00     0.010 A 
ATOM     34  C   UNL A   1      38.673  28.973  27.771  1.00  0.00     0.010 A 
ATOM     35  C   UNL A   1      38.861  28.135  28.882  1.00  0.00    -0.014 A 
BRANCH  35  36
ATOM     36  C   UNL A   1      40.199  27.569  28.971  1.00  0.00     0.031 A 
ATOM     37  C   UNL A   1      40.489  26.190  28.577  1.00  0.00     0.074 A 
ATOM     38  C   UNL A   1      41.186  28.438  29.289  1.00  0.00     0.049 A 
ATOM     39  N   UNL A   1      41.571  25.566  28.894  1.00  0.00    -0.248 NA
ATOM     40  C   UNL A   1      39.546  25.387  27.816  1.00  0.00     0.031 C 
ATOM     41  C   UNL A   1      42.618  28.293  29.067  1.00  0.00     0.029 A 
ATOM     42  N   UNL A   1      41.062  29.618  30.042  1.00  0.00    -0.354 N 
ATOM     43  C   UNL A   1      41.599  24.401  28.169  1.00  0.00     0.074 A 
ATOM     44  C   UNL A   1      40.284  24.299  27.572  1.00  0.00     0.031 C 
ATOM     45  C   UNL A   1      43.264  29.174  29.849  1.00  0.00     0.029 A 
ATOM     46  C   UNL A   1      42.276  29.761  30.742  1.00  0.00     0.049 A 
ATOM     47  H   UNL A   1      40.285  30.222  30.074  1.00  0.00     0.167 HD
ATOM     48  C   UNL A   1      42.780  23.730  28.041  1.00  0.00     0.037 A 
ATOM     49  C   UNL A   1      42.299  29.643  32.104  1.00  0.00     0.037 A 
ATOM     50  C   UNL A   1      43.848  24.369  28.809  1.00  0.00     0.049 A 
ATOM     51  C   UNL A   1      43.131  28.489  32.625  1.00  0.00     0.074 A 
ATOM     52  C   UNL A   1      44.843  25.281  28.492  1.00  0.00     0.029 A 
ATOM     53  N   UNL A   1      43.786  24.342  30.191  1.00  0.00    -0.354 N 
ATOM     54  N   UNL A   1      43.631  27.544  31.881  1.00  0.00    -0.248 NA
ATOM     55  C   UNL A   1      43.352  28.256  34.053  1.00  0.00     0.031 C 
ATOM     56  C   UNL A   1      45.356  25.822  29.704  1.00  0.00     0.029 A 
ATOM     57  C   UNL A   1      44.680  25.233  30.757  1.00  0.00     0.049 A 
ATOM     58  H   UNL A   1      43.181  23.762  30.707  1.00  0.00     0.167 HD
ATOM     59  C   UNL A   1      44.163  26.576  32.684  1.00  0.00     0.074 A 
ATOM     60  C   UNL A   1      43.968  27.062  34.037  1.00  0.00     0.031 C 
ATOM     61  C   UNL A   1      44.686  25.417  32.197  1.00  0.00     0.037 A 
BRANCH  48  62
ATOM     62  C   UNL A   1      43.021  22.669  26.996  1.00  0.00     0.064 A 
ATOM     63  C   UNL A   1      42.421  21.397  27.112  1.00  0.00     0.173 A 
ATOM     64  C   UNL A   1      43.877  22.821  25.891  1.00  0.00     0.173 A 
ATOM     65  F   UNL A   1      41.495  21.140  28.045  1.00  0.00    -0.203 F 
ATOM     66  C   UNL A   1      42.755  20.332  26.271  1.00  0.00     0.198 A 
ATOM     67  C   UNL A   1      44.259  21.743  25.087  1.00  0.00     0.198 A 
ATOM     68  F   UNL A   1      44.330  24.027  25.525  1.00  0.00    -0.203 F 
ATOM     69  F   UNL A   1      42.158  19.144  26.436  1.00  0.00    -0.200 F 
ATOM     70  C   UNL A   1      43.707  20.493  25.286  1.00  0.00     0.200 A 
ATOM     71  F   UNL A   1      45.167  21.923  24.118  1.00  0.00    -0.200 F 
ATOM     72  F   UNL A   1      44.070  19.458  24.518  1.00  0.00    -0.200 F 
ENDBRANCH  48  62
BRANCH  49  73
ATOM     73  C   UNL A   1      41.047  30.097  32.769  1.00  0.00     0.064 A 
ATOM     74  C   UNL A   1      40.807  31.472  32.947  1.00  0.00     0.173 A 
ATOM     75  C   UNL A   1      39.972  29.222  32.964  1.00  0.00     0.173 A 
ATOM     76  F   UNL A   1      41.803  32.355  32.769  1.00  0.00    -0.203 F 
ATOM     77  C   UNL A   1      39.532  31.953  33.242  1.00  0.00     0.198 A 
ATOM     78  C   UNL A   1      38.697  29.706  33.253  1.00  0.00     0.198 A 
ATOM     79  F   UNL A   1      40.129  27.901  32.797  1.00  0.00    -0.203 F 
ATOM     80  F   UNL A   1      39.327  33.272  33.364  1.00  0.00    -0.200 F 
ATOM     81  C   UNL A   1      38.474  31.070  33.372  1.00  0.00     0.200 A 
ATOM     82  F   UNL A   1      37.670  28.850  33.358  1.00  0.00    -0.200 F 
ATOM     83  F   UNL A   1      37.231  31.524  33.587  1.00  0.00    -0.200 F 
ENDBRANCH  49  73
BRANCH  61  84
ATOM     84  C   UNL A   1      45.253  24.361  33.087  1.00  0.00     0.064 A 
ATOM     85  C   UNL A   1      44.488  23.267  33.518  1.00  0.00     0.173 A 
ATOM     86  C   UNL A   1      46.553  24.473  33.615  1.00  0.00     0.173 A 
ATOM     87  F   UNL A   1      43.226  23.106  33.092  1.00  0.00    -0.203 F 
ATOM     88  C   UNL A   1      45.007  22.319  34.399  1.00  0.00     0.198 A 
ATOM     89  C   UNL A   1      47.051  23.554  34.535  1.00  0.00     0.198 A 
ATOM     90  F   UNL A   1      47.376  25.460  33.231  1.00  0.00    -0.203 F 
ATOM     91  F   UNL A   1      44.267  21.258  34.745  1.00  0.00    -0.200 F 
ATOM     92  C   UNL A   1      46.282  22.470  34.917  1.00  0.00     0.200 A 
ATOM     93  F   UNL A   1      48.281  23.721  35.042  1.00  0.00    -0.200 F 
ATOM     94  F   UNL A   1      46.772  21.570  35.780  1.00  0.00    -0.200 F 
ENDBRANCH  61  84
ENDBRANCH  35  36
ENDBRANCH  28  30
ENDBRANCH  27  28
ENDBRANCH  26  27
ENDBRANCH  25  26
ENDBRANCH  24  25
ENDBRANCH   1  24
TORSDOF 17
ENDMDL
MODEL 2
REMARK VINA RESULT:     -12.3      4.153     10.028
REMARK SMILES Cc1ccc([C@@H](C)Nc2ccccc2C(=O)OCCOCCOC(=O)c2ccc(-c3c4nc(c(-c5c(F)c(F)c(F)c(F)c5F)c5ccc([nH]5)c(-c5c(F)c(F)c(F)c(F)c5F)c5nc(c(-c6c(F)c(F)c(F)c(F)c6F)c6ccc3[nH]6)C=C5)C=C4)cc2)cc1F
REMARK SMILES IDX 19 1 18 2 17 3 15 4 16 5 14 6 9 7 10 8 11 9 13 10 12 11 8 12
REMARK SMILES IDX 6 14 7 15 5 16 1 17 2 18 3 19 90 20 4 21 89 22 91 23 20 24
REMARK SMILES IDX 21 25 22 26 23 27 24 28 25 29 26 30 27 31 88 32 28 33 87 34
REMARK SMILES IDX 29 35 30 36 31 37 81 38 32 39 86 40 80 41 82 42 33 43 85 44
REMARK SMILES IDX 79 45 78 46 34 48 66 49 46 50 65 51 47 52 50 53 64 54 83 55
REMARK SMILES IDX 48 56 49 57 63 59 84 60 51 61 35 62 36 63 44 64 37 65 38 66
REMARK SMILES IDX 42 67 45 68 39 69 40 70 43 71 41 72 67 73 68 74 76 75 69 76
REMARK SMILES IDX 70 77 74 78 77 79 71 80 72 81 75 82 73 83 52 84 53 85 61 86
REMARK SMILES IDX 54 87 55 88 59 89 62 90 56 91 57 92 60 93 58 94
REMARK H PARENT 8 13 82 47 50 58
REMARK Flexibility Score: inf
ROOT
ATOM      1  C   UNL A   1      38.912  21.511  25.762  1.00  0.00     0.202 C 
ENDROOT
BRANCH   1   2
ATOM      2  C   UNL A   1      37.915  22.667  25.698  1.00  0.00     0.261 C 
BRANCH   2   3
ATOM      3  O   UNL A   1      36.720  22.215  25.037  1.00  0.00    -0.460 OA
BRANCH   3   4
ATOM      4  C   UNL A   1      36.124  23.122  24.231  1.00  0.00     0.340 C 
ATOM      5  O   UNL A   1      36.423  23.374  23.076  1.00  0.00    -0.246 OA
BRANCH   4   6
ATOM      6  C   UNL A   1      34.894  23.604  24.887  1.00  0.00     0.083 A 
ATOM      7  C   UNL A   1      33.773  22.819  25.220  1.00  0.00     0.049 A 
ATOM      8  C   UNL A   1      32.708  23.508  25.850  1.00  0.00     0.026 A 
ATOM      9  C   UNL A   1      32.741  24.880  26.124  1.00  0.00     0.002 A 
ATOM     10  C   UNL A   1      34.927  24.990  25.164  1.00  0.00     0.018 A 
ATOM     11  C   UNL A   1      33.853  25.628  25.776  1.00  0.00     0.001 A 
BRANCH   7  12
ATOM     12  N   UNL A   1      33.585  21.458  25.063  1.00  0.00    -0.378 N 
ATOM     13  H   UNL A   1      33.612  20.936  25.897  1.00  0.00     0.161 HD
BRANCH  12  14
ATOM     14  C   UNL A   1      33.354  20.680  23.859  1.00  0.00     0.106 C 
ATOM     15  C   UNL A   1      32.095  21.179  23.150  1.00  0.00     0.036 C 
BRANCH  14  16
ATOM     16  C   UNL A   1      33.215  19.213  24.231  1.00  0.00    -0.023 A 
ATOM     17  C   UNL A   1      33.019  15.084  25.492  1.00  0.00     0.047 C 
ATOM     18  C   UNL A   1      33.050  16.516  25.053  1.00  0.00    -0.015 A 
ATOM     19  C   UNL A   1      32.531  17.533  25.859  1.00  0.00     0.007 A 
ATOM     20  C   UNL A   1      33.619  16.858  23.826  1.00  0.00     0.126 A 
ATOM     21  C   UNL A   1      32.607  18.866  25.449  1.00  0.00     0.006 A 
ATOM     22  C   UNL A   1      33.700  18.183  23.409  1.00  0.00     0.045 A 
ATOM     23  F   UNL A   1      34.117  15.901  23.029  1.00  0.00    -0.207 F 
ENDBRANCH  14  16
ENDBRANCH  12  14
ENDBRANCH   7  12
ENDBRANCH   4   6
ENDBRANCH   3   4
ENDBRANCH   2   3
ENDBRANCH   1   2
BRANCH   1  24
ATOM     24  O   UNL A   1      39.662  21.387  26.975  1.00  0.00    -0.374 OA
BRANCH  24  25
ATOM     25  C   UNL A   1      41.032  20.998  26.908  1.00  0.00     0.202 C 
BRANCH  25  26
ATOM     26  C   UNL A   1      42.032  21.811  27.733  1.00  0.00     0.261 C 
BRANCH  26  27
ATOM     27  O   UNL A   1      41.551  23.107  28.082  1.00  0.00    -0.460 OA
BRANCH  27  28
ATOM     28  C   UNL A   1      41.691  23.999  27.080  1.00  0.00     0.338 C 
ATOM     29  O   UNL A   1      42.564  24.047  26.230  1.00  0.00    -0.246 OA
BRANCH  28  30
ATOM     30  C   UNL A   1      40.641  25.016  27.144  1.00  0.00     0.060 A 
ATOM     31  C   UNL A   1      40.770  26.117  26.285  1.00  0.00     0.016 A 
ATOM     32  C   UNL A   1      39.823  25.037  28.273  1.00  0.00     0.016 A 
ATOM     33  C   UNL A   1      40.306  27.347  26.710  1.00  0.00     0.010 A 
ATOM     34  C   UNL A   1      39.341  26.258  28.684  1.00  0.00     0.010 A 
ATOM     35  C   UNL A   1      39.727  27.408  27.976  1.00  0.00    -0.014 A 
BRANCH  35  36
ATOM     36  C   UNL A   1      39.898  28.584  28.816  1.00  0.00     0.031 A 
ATOM     37  C   UNL A   1      38.868  29.616  28.930  1.00  0.00     0.074 A 
ATOM     38  C   UNL A   1      40.996  28.589  29.605  1.00  0.00     0.049 A 
ATOM     39  N   UNL A   1      39.077  30.788  29.423  1.00  0.00    -0.248 NA
ATOM     40  C   UNL A   1      37.510  29.412  28.451  1.00  0.00     0.031 C 
ATOM     41  C   UNL A   1      41.240  29.380  30.803  1.00  0.00     0.029 A 
ATOM     42  N   UNL A   1      42.215  27.935  29.359  1.00  0.00    -0.354 N 
ATOM     43  C   UNL A   1      37.854  31.390  29.584  1.00  0.00     0.074 A 
ATOM     44  C   UNL A   1      36.918  30.526  28.894  1.00  0.00     0.031 C 
ATOM     45  C   UNL A   1      42.559  29.374  31.061  1.00  0.00     0.029 A 
ATOM     46  C   UNL A   1      43.216  28.754  29.920  1.00  0.00     0.049 A 
ATOM     47  H   UNL A   1      42.345  27.079  28.890  1.00  0.00     0.167 HD
ATOM     48  C   UNL A   1      37.753  32.475  30.404  1.00  0.00     0.037 A 
ATOM     49  C   UNL A   1      44.116  29.387  29.109  1.00  0.00     0.037 A 
ATOM     50  C   UNL A   1      39.057  32.872  30.934  1.00  0.00     0.049 A 
ATOM     51  C   UNL A   1      44.058  30.900  29.160  1.00  0.00     0.074 A 
ATOM     52  C   UNL A   1      39.735  32.601  32.113  1.00  0.00     0.029 A 
ATOM     53  N   UNL A   1      39.999  33.400  30.068  1.00  0.00    -0.354 N 
ATOM     54  N   UNL A   1      43.119  31.584  29.748  1.00  0.00    -0.248 NA
ATOM     55  C   UNL A   1      45.002  31.752  28.434  1.00  0.00     0.031 C 
ATOM     56  C   UNL A   1      41.104  32.946  31.930  1.00  0.00     0.029 A 
ATOM     57  C   UNL A   1      41.255  33.434  30.646  1.00  0.00     0.049 A 
ATOM     58  H   UNL A   1      39.800  33.710  29.156  1.00  0.00     0.167 HD
ATOM     59  C   UNL A   1      43.273  32.908  29.448  1.00  0.00     0.074 A 
ATOM     60  C   UNL A   1      44.465  32.968  28.624  1.00  0.00     0.031 C 
ATOM     61  C   UNL A   1      42.392  33.864  29.851  1.00  0.00     0.037 A 
BRANCH  48  62
ATOM     62  C   UNL A   1      36.440  32.990  30.940  1.00  0.00     0.064 A 
ATOM     63  C   UNL A   1      35.642  33.862  30.171  1.00  0.00     0.173 A 
ATOM     64  C   UNL A   1      35.942  32.708  32.225  1.00  0.00     0.173 A 
ATOM     65  F   UNL A   1      35.928  34.131  28.891  1.00  0.00    -0.203 F 
ATOM     66  C   UNL A   1      34.514  34.501  30.693  1.00  0.00     0.198 A 
ATOM     67  C   UNL A   1      34.850  33.392  32.769  1.00  0.00     0.198 A 
ATOM     68  F   UNL A   1      36.463  31.726  32.972  1.00  0.00    -0.203 F 
ATOM     69  F   UNL A   1      33.801  35.328  29.917  1.00  0.00    -0.200 F 
ATOM     70  C   UNL A   1      34.144  34.300  32.006  1.00  0.00     0.200 A 
ATOM     71  F   UNL A   1      34.489  33.165  34.040  1.00  0.00    -0.200 F 
ATOM     72  F   UNL A   1      33.098  34.957  32.524  1.00  0.00    -0.200 F 
ENDBRANCH  48  62
BRANCH  49  73
ATOM     73  C   UNL A   1      44.440  28.635  27.866  1.00  0.00     0.064 A 
ATOM     74  C   UNL A   1      45.369  27.580  27.907  1.00  0.00     0.173 A 
ATOM     75  C   UNL A   1      43.642  28.751  26.721  1.00  0.00     0.173 A 
ATOM     76  F   UNL A   1      46.156  27.421  28.983  1.00  0.00    -0.203 F 
ATOM     77  C   UNL A   1      45.449  26.644  26.876  1.00  0.00     0.198 A 
ATOM     78  C   UNL A   1      43.721  27.812  25.694  1.00  0.00     0.198 A 
ATOM     79  F   UNL A   1      42.728  29.728  26.623  1.00  0.00    -0.203 F 
ATOM     80  F   UNL A   1      46.316  25.625  26.964  1.00  0.00    -0.200 F 
ATOM     81  C   UNL A   1      44.608  26.749  25.781  1.00  0.00     0.200 A 
ATOM     82  F   UNL A   1      42.891  27.904  24.645  1.00  0.00    -0.200 F 
ATOM     83  F   UNL A   1      44.627  25.818  24.816  1.00  0.00    -0.200 F 
ENDBRANCH  49  73
BRANCH  61  84
ATOM     84  C   UNL A   1      42.566  35.306  29.505  1.00  0.00     0.064 A 
ATOM     85  C   UNL A   1      41.978  35.869  28.363  1.00  0.00     0.173 A 
ATOM     86  C   UNL A   1      43.412  36.140  30.260  1.00  0.00     0.173 A 
ATOM     87  F   UNL A   1      41.189  35.131  27.567  1.00  0.00    -0.203 F 
ATOM     88  C   UNL A   1      42.198  37.201  28.014  1.00  0.00     0.198 A 
ATOM     89  C   UNL A   1      43.671  37.454  29.881  1.00  0.00     0.198 A 
ATOM     90  F   UNL A   1      43.985  35.707  31.392  1.00  0.00    -0.203 F 
ATOM     91  F   UNL A   1      41.576  37.720  26.946  1.00  0.00    -0.200 F 
ATOM     92  C   UNL A   1      43.054  37.988  28.765  1.00  0.00     0.200 A 
ATOM     93  F   UNL A   1      44.515  38.202  30.607  1.00  0.00    -0.200 F 
ATOM     94  F   UNL A   1      43.279  39.262  28.418  1.00  0.00    -0.200 F 
ENDBRANCH  61  84
ENDBRANCH  35  36
ENDBRANCH  28  30
ENDBRANCH  27  28
ENDBRANCH  26  27
ENDBRANCH  25  26
ENDBRANCH  24  25
ENDBRANCH   1  24
TORSDOF 17
ENDMDL
MODEL 3
REMARK VINA RESULT:     -12.1      4.093     10.354
REMARK SMILES Cc1ccc([C@@H](C)Nc2ccccc2C(=O)OCCOCCOC(=O)c2ccc(-c3c4nc(c(-c5c(F)c(F)c(F)c(F)c5F)c5ccc([nH]5)c(-c5c(F)c(F)c(F)c(F)c5F)c5nc(c(-c6c(F)c(F)c(F)c(F)c6F)c6ccc3[nH]6)C=C5)C=C4)cc2)cc1F
REMARK SMILES IDX 19 1 18 2 17 3 15 4 16 5 14 6 9 7 10 8 11 9 13 10 12 11 8 12
REMARK SMILES IDX 6 14 7 15 5 16 1 17 2 18 3 19 90 20 4 21 89 22 91 23 20 24
REMARK SMILES IDX 21 25 22 26 23 27 24 28 25 29 26 30 27 31 88 32 28 33 87 34
REMARK SMILES IDX 29 35 30 36 31 37 81 38 32 39 86 40 80 41 82 42 33 43 85 44
REMARK SMILES IDX 79 45 78 46 34 48 66 49 46 50 65 51 47 52 50 53 64 54 83 55
REMARK SMILES IDX 48 56 49 57 63 59 84 60 51 61 35 62 36 63 44 64 37 65 38 66
REMARK SMILES IDX 42 67 45 68 39 69 40 70 43 71 41 72 67 73 68 74 76 75 69 76
REMARK SMILES IDX 70 77 74 78 77 79 71 80 72 81 75 82 73 83 52 84 53 85 61 86
REMARK SMILES IDX 54 87 55 88 59 89 62 90 56 91 57 92 60 93 58 94
REMARK H PARENT 8 13 82 47 50 58
REMARK Flexibility Score: inf
ROOT
ATOM      1  C   UNL A   1      38.197  21.285  25.524  1.00  0.00     0.202 C 
ENDROOT
BRANCH   1   2
ATOM      2  C   UNL A   1      37.349  21.764  24.347  1.00  0.00     0.261 C 
BRANCH   2   3
ATOM      3  O   UNL A   1      36.088  22.244  24.847  1.00  0.00    -0.460 OA
BRANCH   3   4
ATOM      4  C   UNL A   1      35.333  22.928  23.958  1.00  0.00     0.340 C 
ATOM      5  O   UNL A   1      35.691  23.340  22.868  1.00  0.00    -0.246 OA
BRANCH   4   6
ATOM      6  C   UNL A   1      33.928  22.899  24.406  1.00  0.00     0.083 A 
ATOM      7  C   UNL A   1      33.022  23.977  24.354  1.00  0.00     0.049 A 
ATOM      8  C   UNL A   1      31.721  23.706  24.842  1.00  0.00     0.026 A 
ATOM      9  C   UNL A   1      31.340  22.462  25.356  1.00  0.00     0.002 A 
ATOM     10  C   UNL A   1      33.543  21.642  24.924  1.00  0.00     0.018 A 
ATOM     11  C   UNL A   1      32.255  21.424  25.402  1.00  0.00     0.001 A 
BRANCH   7  12
ATOM     12  N   UNL A   1      33.212  25.250  23.849  1.00  0.00    -0.378 N 
ATOM     13  H   UNL A   1      34.145  25.476  23.630  1.00  0.00     0.161 HD
BRANCH  12  14
ATOM     14  C   UNL A   1      32.248  26.305  23.589  1.00  0.00     0.106 C 
ATOM     15  C   UNL A   1      32.318  26.724  22.121  1.00  0.00     0.036 C 
BRANCH  14  16
ATOM     16  C   UNL A   1      32.543  27.486  24.500  1.00  0.00    -0.023 A 
ATOM     17  C   UNL A   1      33.306  30.678  27.310  1.00  0.00     0.047 C 
ATOM     18  C   UNL A   1      33.073  29.580  26.319  1.00  0.00    -0.015 A 
ATOM     19  C   UNL A   1      33.923  28.473  26.249  1.00  0.00     0.007 A 
ATOM     20  C   UNL A   1      31.982  29.642  25.452  1.00  0.00     0.126 A 
ATOM     21  C   UNL A   1      33.664  27.441  25.345  1.00  0.00     0.006 A 
ATOM     22  C   UNL A   1      31.716  28.619  24.548  1.00  0.00     0.045 A 
ATOM     23  F   UNL A   1      31.155  30.697  25.491  1.00  0.00    -0.207 F 
ENDBRANCH  14  16
ENDBRANCH  12  14
ENDBRANCH   7  12
ENDBRANCH   4   6
ENDBRANCH   3   4
ENDBRANCH   2   3
ENDBRANCH   1   2
BRANCH   1  24
ATOM     24  O   UNL A   1      39.218  22.181  25.976  1.00  0.00    -0.374 OA
BRANCH  24  25
ATOM     25  C   UNL A   1      40.192  21.712  26.905  1.00  0.00     0.202 C 
BRANCH  25  26
ATOM     26  C   UNL A   1      41.630  22.201  26.720  1.00  0.00     0.261 C 
BRANCH  26  27
ATOM     27  O   UNL A   1      41.713  23.578  26.361  1.00  0.00    -0.460 OA
BRANCH  27  28
ATOM     28  C   UNL A   1      41.776  24.391  27.435  1.00  0.00     0.338 C 
ATOM     29  O   UNL A   1      42.590  24.380  28.343  1.00  0.00    -0.246 OA
BRANCH  28  30
ATOM     30  C   UNL A   1      40.656  25.332  27.435  1.00  0.00     0.060 A 
ATOM     31  C   UNL A   1      40.699  26.370  26.493  1.00  0.00     0.016 A 
ATOM     32  C   UNL A   1      39.847  25.383  28.569  1.00  0.00     0.016 A 
ATOM     33  C   UNL A   1      40.150  27.593  26.829  1.00  0.00     0.010 A 
ATOM     34  C   UNL A   1      39.282  26.594  28.893  1.00  0.00     0.010 A 
ATOM     35  C   UNL A   1      39.578  27.710  28.094  1.00  0.00    -0.014 A 
BRANCH  35  36
ATOM     36  C   UNL A   1      39.671  28.957  28.839  1.00  0.00     0.031 A 
ATOM     37  C   UNL A   1      38.658  30.007  28.730  1.00  0.00     0.074 A 
ATOM     38  C   UNL A   1      40.664  29.023  29.755  1.00  0.00     0.049 A 
ATOM     39  N   UNL A   1      38.831  31.217  29.138  1.00  0.00    -0.248 NA
ATOM     40  C   UNL A   1      37.365  29.774  28.105  1.00  0.00     0.031 C 
ATOM     41  C   UNL A   1      40.775  29.918  30.898  1.00  0.00     0.029 A 
ATOM     42  N   UNL A   1      41.889  28.335  29.723  1.00  0.00    -0.354 N 
ATOM     43  C   UNL A   1      37.612  31.844  29.090  1.00  0.00     0.074 A 
ATOM     44  C   UNL A   1      36.749  30.931  28.369  1.00  0.00     0.031 C 
ATOM     45  C   UNL A   1      42.052  29.921  31.317  1.00  0.00     0.029 A 
ATOM     46  C   UNL A   1      42.831  29.191  30.328  1.00  0.00     0.049 A 
ATOM     47  H   UNL A   1      42.056  27.438  29.353  1.00  0.00     0.167 HD
ATOM     48  C   UNL A   1      37.435  33.002  29.789  1.00  0.00     0.037 A 
ATOM     49  C   UNL A   1      43.838  29.736  29.582  1.00  0.00     0.037 A 
ATOM     50  C   UNL A   1      38.673  33.431  30.440  1.00  0.00     0.049 A 
ATOM     51  C   UNL A   1      43.808  31.248  29.489  1.00  0.00     0.074 A 
ATOM     52  C   UNL A   1      39.193  33.262  31.713  1.00  0.00     0.029 A 
ATOM     53  N   UNL A   1      39.726  33.866  29.655  1.00  0.00    -0.354 N 
ATOM     54  N   UNL A   1      42.819  31.994  29.891  1.00  0.00    -0.248 NA
ATOM     55  C   UNL A   1      44.854  32.019  28.813  1.00  0.00     0.031 C 
ATOM     56  C   UNL A   1      40.582  33.574  31.673  1.00  0.00     0.029 A 
ATOM     57  C   UNL A   1      40.901  33.940  30.379  1.00  0.00     0.049 A 
ATOM     58  H   UNL A   1      39.648  34.093  28.700  1.00  0.00     0.167 HD
ATOM     59  C   UNL A   1      43.039  33.283  29.495  1.00  0.00     0.074 A 
ATOM     60  C   UNL A   1      44.325  33.254  28.823  1.00  0.00     0.031 C 
ATOM     61  C   UNL A   1      42.137  34.282  29.696  1.00  0.00     0.037 A 
BRANCH  48  62
ATOM     62  C   UNL A   1      36.078  33.578  30.109  1.00  0.00     0.064 A 
ATOM     63  C   UNL A   1      35.269  34.120  29.089  1.00  0.00     0.173 A 
ATOM     64  C   UNL A   1      35.543  33.679  31.406  1.00  0.00     0.173 A 
ATOM     65  F   UNL A   1      35.592  33.995  27.795  1.00  0.00    -0.203 F 
ATOM     66  C   UNL A   1      34.091  34.822  29.360  1.00  0.00     0.198 A 
ATOM     67  C   UNL A   1      34.398  34.432  31.685  1.00  0.00     0.198 A 
ATOM     68  F   UNL A   1      36.082  33.010  32.433  1.00  0.00    -0.203 F 
ATOM     69  F   UNL A   1      33.369  35.323  28.349  1.00  0.00    -0.200 F 
ATOM     70  C   UNL A   1      33.679  35.015  30.662  1.00  0.00     0.200 A 
ATOM     71  F   UNL A   1      33.999  34.589  32.955  1.00  0.00    -0.200 F 
ATOM     72  F   UNL A   1      32.582  35.737  30.926  1.00  0.00    -0.200 F 
ENDBRANCH  48  62
BRANCH  49  73
ATOM     73  C   UNL A   1      44.295  28.870  28.462  1.00  0.00     0.064 A 
ATOM     74  C   UNL A   1      45.153  27.785  28.720  1.00  0.00     0.173 A 
ATOM     75  C   UNL A   1      43.676  28.921  27.207  1.00  0.00     0.173 A 
ATOM     76  F   UNL A   1      45.769  27.685  29.910  1.00  0.00    -0.203 F 
ATOM     77  C   UNL A   1      45.330  26.763  27.788  1.00  0.00     0.198 A 
ATOM     78  C   UNL A   1      43.851  27.896  26.279  1.00  0.00     0.198 A 
ATOM     79  F   UNL A   1      42.838  29.922  26.901  1.00  0.00    -0.203 F 
ATOM     80  F   UNL A   1      46.120  25.720  28.081  1.00  0.00    -0.200 F 
ATOM     81  C   UNL A   1      44.659  26.809  26.577  1.00  0.00     0.200 A 
ATOM     82  F   UNL A   1      43.185  27.932  25.116  1.00  0.00    -0.200 F 
ATOM     83  F   UNL A   1      44.766  25.799  25.702  1.00  0.00    -0.200 F 
ENDBRANCH  49  73
BRANCH  61  84
ATOM     84  C   UNL A   1      42.384  35.684  29.247  1.00  0.00     0.064 A 
ATOM     85  C   UNL A   1      41.854  36.180  28.046  1.00  0.00     0.173 A 
ATOM     86  C   UNL A   1      43.246  36.538  29.960  1.00  0.00     0.173 A 
ATOM     87  F   UNL A   1      41.054  35.417  27.286  1.00  0.00    -0.203 F 
ATOM     88  C   UNL A   1      42.142  37.470  27.604  1.00  0.00     0.198 A 
ATOM     89  C   UNL A   1      43.573  37.806  29.490  1.00  0.00     0.198 A 
ATOM     90  F   UNL A   1      43.768  36.170  31.140  1.00  0.00    -0.203 F 
ATOM     91  F   UNL A   1      41.574  37.930  26.480  1.00  0.00    -0.200 F 
ATOM     92  C   UNL A   1      43.011  38.277  28.317  1.00  0.00     0.200 A 
ATOM     93  F   UNL A   1      44.430  38.571  30.182  1.00  0.00    -0.200 F 
ATOM     94  F   UNL A   1      43.303  39.509  27.880  1.00  0.00    -0.200 F 
ENDBRANCH  61  84
ENDBRANCH  35  36
ENDBRANCH  28  30
ENDBRANCH  27  28
ENDBRANCH  26  27
ENDBRANCH  25  26
ENDBRANCH  24  25
ENDBRANCH   1  24
TORSDOF 17
ENDMDL
