MODEL 1
REMARK VINA RESULT:     -10.5      0.000      0.000
REMARK SMILES CC1(C)C(=O)N([C@H]2COC[C@@H]2C(=O)OCCOCCOC(=O)c2ccc(-c3c4nc(c(-c5c(F)c(F)c(F)c(F)c5F)c5ccc([nH]5)c(-c5c(F)c(F)c(F)c(F)c5F)c5nc(c(-c6c(F)c(F)c(F)c(F)c6F)c6ccc3[nH]6)C=C5)C=C4)cc2)S1(=O)=O
REMARK SMILES IDX 18 1 17 2 16 3 15 4 14 5 12 6 13 7 11 8 7 9 8 10 9 11 10 12
REMARK SMILES IDX 6 13 1 14 2 15 3 16 4 17 86 18 5 19 87 20 88 21 19 22 20 23
REMARK SMILES IDX 21 24 22 25 23 26 24 27 85 28 25 29 84 30 26 31 27 32 28 33
REMARK SMILES IDX 78 34 29 35 83 36 77 37 79 38 30 39 82 40 76 41 75 42 31 44
REMARK SMILES IDX 63 45 43 46 62 47 44 48 47 49 61 50 80 51 45 52 46 53 60 55
REMARK SMILES IDX 81 56 48 57 32 58 33 59 41 60 34 61 35 62 39 63 42 64 36 65
REMARK SMILES IDX 37 66 40 67 38 68 64 69 65 70 73 71 66 72 67 73 71 74 74 75
REMARK SMILES IDX 68 76 69 77 72 78 70 79 49 80 50 81 58 82 51 83 52 84 56 85
REMARK SMILES IDX 59 86 53 87 54 88 57 89 55 90
REMARK H PARENT 79 43 47 54
REMARK Flexibility Score: inf
ROOT
ATOM      1  C   UNL A   1      33.272  34.210  28.364  1.00  0.00     0.202 C 
ENDROOT
BRANCH   1   2
ATOM      2  O   UNL A   1      32.866  34.475  29.706  1.00  0.00    -0.374 OA
BRANCH   2   3
ATOM      3  C   UNL A   1      32.856  35.827  30.156  1.00  0.00     0.202 C 
BRANCH   3   4
ATOM      4  C   UNL A   1      32.654  36.068  31.654  1.00  0.00     0.261 C 
BRANCH   4   5
ATOM      5  O   UNL A   1      33.213  35.000  32.435  1.00  0.00    -0.463 OA
BRANCH   5   6
ATOM      6  C   UNL A   1      34.286  35.334  33.198  1.00  0.00     0.313 C 
ATOM      7  O   UNL A   1      34.490  36.456  33.649  1.00  0.00    -0.252 OA
BRANCH   6   8
ATOM      8  C   UNL A   1      35.135  34.132  33.568  1.00  0.00     0.151 C 
ATOM      9  C   UNL A   1      36.587  34.495  33.336  1.00  0.00     0.145 C 
ATOM     10  C   UNL A   1      36.736  34.160  31.851  1.00  0.00     0.187 C 
ATOM     11  O   UNL A   1      35.835  33.077  31.562  1.00  0.00    -0.378 OA
ATOM     12  C   UNL A   1      34.935  32.932  32.668  1.00  0.00     0.177 C 
BRANCH   9  13
ATOM     13  N   UNL A   1      37.593  33.737  34.108  1.00  0.00    -0.231 N 
ATOM     14  C   UNL A   1      40.183  32.598  35.866  1.00  0.00     0.041 C 
ATOM     15  C   UNL A   1      39.047  33.612  35.796  1.00  0.00     0.165 C 
ATOM     16  C   UNL A   1      39.175  34.657  36.909  1.00  0.00     0.041 C 
ATOM     17  C   UNL A   1      38.868  34.244  34.410  1.00  0.00     0.259 C 
ATOM     18  S   UNL A   1      37.420  32.978  35.564  1.00  0.00     0.252 S 
ATOM     19  O   UNL A   1      39.509  35.022  33.726  1.00  0.00    -0.272 OA
ATOM     20  O   UNL A   1      37.394  31.552  35.337  1.00  0.00    -0.205 OA
ATOM     21  O   UNL A   1      36.448  33.661  36.381  1.00  0.00    -0.205 OA
ENDBRANCH   9  13
ENDBRANCH   6   8
ENDBRANCH   5   6
ENDBRANCH   4   5
ENDBRANCH   3   4
ENDBRANCH   2   3
ENDBRANCH   1   2
BRANCH   1  22
ATOM     22  C   UNL A   1      34.424  33.221  28.140  1.00  0.00     0.261 C 
BRANCH  22  23
ATOM     23  O   UNL A   1      34.282  32.009  28.900  1.00  0.00    -0.460 OA
BRANCH  23  24
ATOM     24  C   UNL A   1      34.331  30.872  28.161  1.00  0.00     0.338 C 
ATOM     25  O   UNL A   1      33.496  30.461  27.372  1.00  0.00    -0.246 OA
BRANCH  24  26
ATOM     26  C   UNL A   1      35.655  30.242  28.296  1.00  0.00     0.060 A 
ATOM     27  C   UNL A   1      36.016  29.748  29.557  1.00  0.00     0.016 A 
ATOM     28  C   UNL A   1      36.562  30.224  27.238  1.00  0.00     0.016 A 
ATOM     29  C   UNL A   1      37.305  29.271  29.777  1.00  0.00     0.010 A 
ATOM     30  C   UNL A   1      37.861  29.757  27.463  1.00  0.00     0.010 A 
ATOM     31  C   UNL A   1      38.246  29.311  28.741  1.00  0.00    -0.014 A 
BRANCH  31  32
ATOM     32  C   UNL A   1      39.673  29.034  29.033  1.00  0.00     0.031 A 
ATOM     33  C   UNL A   1      40.483  30.077  29.749  1.00  0.00     0.074 A 
ATOM     34  C   UNL A   1      40.232  27.864  28.681  1.00  0.00     0.049 A 
ATOM     35  N   UNL A   1      41.759  30.086  30.042  1.00  0.00    -0.248 NA
ATOM     36  C   UNL A   1      39.756  31.277  30.192  1.00  0.00     0.031 C 
ATOM     37  C   UNL A   1      39.535  26.760  28.025  1.00  0.00     0.029 A 
ATOM     38  N   UNL A   1      41.523  27.418  28.815  1.00  0.00    -0.354 N 
ATOM     39  C   UNL A   1      41.988  31.290  30.693  1.00  0.00     0.074 A 
ATOM     40  C   UNL A   1      40.727  32.001  30.726  1.00  0.00     0.031 C 
ATOM     41  C   UNL A   1      40.413  25.768  27.795  1.00  0.00     0.029 A 
ATOM     42  C   UNL A   1      41.737  26.185  28.253  1.00  0.00     0.049 A 
ATOM     43  H   UNL A   1      42.228  27.934  29.270  1.00  0.00     0.167 HD
ATOM     44  C   UNL A   1      43.144  31.756  31.223  1.00  0.00     0.037 A 
ATOM     45  C   UNL A   1      42.879  25.487  28.100  1.00  0.00     0.037 A 
ATOM     46  C   UNL A   1      44.394  31.044  31.183  1.00  0.00     0.049 A 
ATOM     47  C   UNL A   1      44.170  26.060  28.627  1.00  0.00     0.074 A 
ATOM     48  C   UNL A   1      45.621  31.424  31.698  1.00  0.00     0.029 A 
ATOM     49  N   UNL A   1      44.578  29.806  30.585  1.00  0.00    -0.354 N 
ATOM     50  N   UNL A   1      44.378  27.192  29.258  1.00  0.00    -0.248 NA
ATOM     51  C   UNL A   1      45.384  25.258  28.424  1.00  0.00     0.031 C 
ATOM     52  C   UNL A   1      46.558  30.440  31.366  1.00  0.00     0.029 A 
ATOM     53  C   UNL A   1      45.903  29.419  30.696  1.00  0.00     0.049 A 
ATOM     54  H   UNL A   1      43.871  29.279  30.146  1.00  0.00     0.167 HD
ATOM     55  C   UNL A   1      45.735  27.223  29.553  1.00  0.00     0.074 A 
ATOM     56  C   UNL A   1      46.300  25.992  29.041  1.00  0.00     0.031 C 
ATOM     57  C   UNL A   1      46.448  28.183  30.193  1.00  0.00     0.037 A 
BRANCH  44  58
ATOM     58  C   UNL A   1      43.115  33.112  31.866  1.00  0.00     0.064 A 
ATOM     59  C   UNL A   1      42.965  33.269  33.253  1.00  0.00     0.173 A 
ATOM     60  C   UNL A   1      43.267  34.270  31.088  1.00  0.00     0.173 A 
ATOM     61  F   UNL A   1      42.802  32.195  34.039  1.00  0.00    -0.203 F 
ATOM     62  C   UNL A   1      42.941  34.535  33.832  1.00  0.00     0.198 A 
ATOM     63  C   UNL A   1      43.274  35.533  31.674  1.00  0.00     0.198 A 
ATOM     64  F   UNL A   1      43.418  34.177  29.758  1.00  0.00    -0.203 F 
ATOM     65  F   UNL A   1      42.748  34.662  35.152  1.00  0.00    -0.200 F 
ATOM     66  C   UNL A   1      43.103  35.665  33.044  1.00  0.00     0.200 A 
ATOM     67  F   UNL A   1      43.444  36.622  30.912  1.00  0.00    -0.200 F 
ATOM     68  F   UNL A   1      43.087  36.882  33.603  1.00  0.00    -0.200 F 
ENDBRANCH  44  58
BRANCH  45  69
ATOM     69  C   UNL A   1      42.859  24.177  27.399  1.00  0.00     0.064 A 
ATOM     70  C   UNL A   1      43.146  24.081  26.030  1.00  0.00     0.173 A 
ATOM     71  C   UNL A   1      42.538  22.993  28.082  1.00  0.00     0.173 A 
ATOM     72  F   UNL A   1      43.433  25.188  25.329  1.00  0.00    -0.203 F 
ATOM     73  C   UNL A   1      43.096  22.856  25.369  1.00  0.00     0.198 A 
ATOM     74  C   UNL A   1      42.518  21.765  27.425  1.00  0.00     0.198 A 
ATOM     75  F   UNL A   1      42.253  23.030  29.392  1.00  0.00    -0.203 F 
ATOM     76  F   UNL A   1      43.329  22.801  24.050  1.00  0.00    -0.200 F 
ATOM     77  C   UNL A   1      42.789  21.699  26.067  1.00  0.00     0.200 A 
ATOM     78  F   UNL A   1      42.233  20.647  28.108  1.00  0.00    -0.200 F 
ATOM     79  F   UNL A   1      42.746  20.521  25.430  1.00  0.00    -0.200 F 
ENDBRANCH  45  69
BRANCH  57  80
ATOM     80  C   UNL A   1      47.910  27.925  30.420  1.00  0.00     0.064 A 
ATOM     81  C   UNL A   1      48.889  28.378  29.525  1.00  0.00     0.173 A 
ATOM     82  C   UNL A   1      48.338  27.262  31.581  1.00  0.00     0.173 A 
ATOM     83  F   UNL A   1      48.532  29.005  28.394  1.00  0.00    -0.203 F 
ATOM     84  C   UNL A   1      50.242  28.159  29.774  1.00  0.00     0.198 A 
ATOM     85  C   UNL A   1      49.692  27.072  31.841  1.00  0.00     0.198 A 
ATOM     86  F   UNL A   1      47.442  26.814  32.474  1.00  0.00    -0.203 F 
ATOM     87  F   UNL A   1      51.159  28.562  28.883  1.00  0.00    -0.200 F 
ATOM     88  C   UNL A   1      50.643  27.514  30.934  1.00  0.00     0.200 A 
ATOM     89  F   UNL A   1      50.076  26.462  32.971  1.00  0.00    -0.200 F 
ATOM     90  F   UNL A   1      51.946  27.315  31.177  1.00  0.00    -0.200 F 
ENDBRANCH  57  80
ENDBRANCH  31  32
ENDBRANCH  24  26
ENDBRANCH  23  24
ENDBRANCH  22  23
ENDBRANCH   1  22
TORSDOF 15
ENDMDL
MODEL 2
REMARK VINA RESULT:     -10.4      4.626      7.811
REMARK SMILES CC1(C)C(=O)N([C@H]2COC[C@@H]2C(=O)OCCOCCOC(=O)c2ccc(-c3c4nc(c(-c5c(F)c(F)c(F)c(F)c5F)c5ccc([nH]5)c(-c5c(F)c(F)c(F)c(F)c5F)c5nc(c(-c6c(F)c(F)c(F)c(F)c6F)c6ccc3[nH]6)C=C5)C=C4)cc2)S1(=O)=O
REMARK SMILES IDX 18 1 17 2 16 3 15 4 14 5 12 6 13 7 11 8 7 9 8 10 9 11 10 12
REMARK SMILES IDX 6 13 1 14 2 15 3 16 4 17 86 18 5 19 87 20 88 21 19 22 20 23
REMARK SMILES IDX 21 24 22 25 23 26 24 27 85 28 25 29 84 30 26 31 27 32 28 33
REMARK SMILES IDX 78 34 29 35 83 36 77 37 79 38 30 39 82 40 76 41 75 42 31 44
REMARK SMILES IDX 63 45 43 46 62 47 44 48 47 49 61 50 80 51 45 52 46 53 60 55
REMARK SMILES IDX 81 56 48 57 32 58 33 59 41 60 34 61 35 62 39 63 42 64 36 65
REMARK SMILES IDX 37 66 40 67 38 68 64 69 65 70 73 71 66 72 67 73 71 74 74 75
REMARK SMILES IDX 68 76 69 77 72 78 70 79 49 80 50 81 58 82 51 83 52 84 56 85
REMARK SMILES IDX 59 86 53 87 54 88 57 89 55 90
REMARK H PARENT 79 43 47 54
REMARK Flexibility Score: inf
ROOT
ATOM      1  C   UNL A   1      31.686  31.114  26.429  1.00  0.00     0.202 C 
ENDROOT
BRANCH   1   2
ATOM      2  O   UNL A   1      32.769  30.355  25.893  1.00  0.00    -0.374 OA
BRANCH   2   3
ATOM      3  C   UNL A   1      32.473  29.135  25.219  1.00  0.00     0.202 C 
BRANCH   3   4
ATOM      4  C   UNL A   1      31.117  29.030  24.519  1.00  0.00     0.261 C 
BRANCH   4   5
ATOM      5  O   UNL A   1      30.808  27.669  24.179  1.00  0.00    -0.463 OA
BRANCH   5   6
ATOM      6  C   UNL A   1      30.840  27.377  22.853  1.00  0.00     0.313 C 
ATOM      7  O   UNL A   1      30.531  28.163  21.964  1.00  0.00    -0.252 OA
BRANCH   6   8
ATOM      8  C   UNL A   1      31.451  26.016  22.572  1.00  0.00     0.151 C 
ATOM      9  C   UNL A   1      32.649  25.842  23.483  1.00  0.00     0.145 C 
ATOM     10  C   UNL A   1      33.743  26.519  22.656  1.00  0.00     0.187 C 
ATOM     11  O   UNL A   1      33.406  26.339  21.269  1.00  0.00    -0.378 OA
ATOM     12  C   UNL A   1      32.050  25.880  21.189  1.00  0.00     0.177 C 
BRANCH   9  13
ATOM     13  N   UNL A   1      33.057  24.456  23.787  1.00  0.00    -0.231 N 
ATOM     14  C   UNL A   1      34.167  21.578  25.047  1.00  0.00     0.041 C 
ATOM     15  C   UNL A   1      33.209  22.752  25.220  1.00  0.00     0.165 C 
ATOM     16  C   UNL A   1      32.540  22.716  26.597  1.00  0.00     0.041 C 
ATOM     17  C   UNL A   1      33.837  24.114  24.903  1.00  0.00     0.259 C 
ATOM     18  S   UNL A   1      32.119  23.100  23.880  1.00  0.00     0.252 S 
ATOM     19  O   UNL A   1      34.681  24.819  25.429  1.00  0.00    -0.272 OA
ATOM     20  O   UNL A   1      32.373  22.286  22.715  1.00  0.00    -0.205 OA
ATOM     21  O   UNL A   1      30.790  23.432  24.332  1.00  0.00    -0.205 OA
ENDBRANCH   9  13
ENDBRANCH   6   8
ENDBRANCH   5   6
ENDBRANCH   4   5
ENDBRANCH   3   4
ENDBRANCH   2   3
ENDBRANCH   1   2
BRANCH   1  22
ATOM     22  C   UNL A   1      31.962  32.560  26.862  1.00  0.00     0.261 C 
BRANCH  22  23
ATOM     23  O   UNL A   1      32.891  32.653  27.956  1.00  0.00    -0.460 OA
BRANCH  23  24
ATOM     24  C   UNL A   1      33.988  33.409  27.699  1.00  0.00     0.338 C 
ATOM     25  O   UNL A   1      34.021  34.573  27.335  1.00  0.00    -0.246 OA
BRANCH  24  26
ATOM     26  C   UNL A   1      35.204  32.679  28.097  1.00  0.00     0.060 A 
ATOM     27  C   UNL A   1      35.086  31.306  28.351  1.00  0.00     0.016 A 
ATOM     28  C   UNL A   1      36.411  33.342  28.312  1.00  0.00     0.016 A 
ATOM     29  C   UNL A   1      36.168  30.596  28.865  1.00  0.00     0.010 A 
ATOM     30  C   UNL A   1      37.493  32.632  28.840  1.00  0.00     0.010 A 
ATOM     31  C   UNL A   1      37.365  31.264  29.150  1.00  0.00    -0.014 A 
BRANCH  31  32
ATOM     32  C   UNL A   1      38.430  30.572  29.914  1.00  0.00     0.031 A 
ATOM     33  C   UNL A   1      38.634  30.929  31.360  1.00  0.00     0.074 A 
ATOM     34  C   UNL A   1      39.191  29.629  29.335  1.00  0.00     0.049 A 
ATOM     35  N   UNL A   1      39.546  30.512  32.200  1.00  0.00    -0.248 NA
ATOM     36  C   UNL A   1      37.680  31.891  31.935  1.00  0.00     0.031 C 
ATOM     37  C   UNL A   1      39.055  29.167  27.956  1.00  0.00     0.029 A 
ATOM     38  N   UNL A   1      40.241  28.900  29.835  1.00  0.00    -0.354 N 
ATOM     39  C   UNL A   1      39.283  31.165  33.397  1.00  0.00     0.074 A 
ATOM     40  C   UNL A   1      38.145  32.030  33.167  1.00  0.00     0.031 C 
ATOM     41  C   UNL A   1      40.002  28.245  27.712  1.00  0.00     0.029 A 
ATOM     42  C   UNL A   1      40.830  28.082  28.905  1.00  0.00     0.049 A 
ATOM     43  H   UNL A   1      40.543  28.961  30.770  1.00  0.00     0.167 HD
ATOM     44  C   UNL A   1      39.927  31.047  34.582  1.00  0.00     0.037 A 
ATOM     45  C   UNL A   1      41.932  27.313  29.000  1.00  0.00     0.037 A 
ATOM     46  C   UNL A   1      41.060  30.187  34.802  1.00  0.00     0.049 A 
ATOM     47  C   UNL A   1      42.682  27.256  30.307  1.00  0.00     0.074 A 
ATOM     48  C   UNL A   1      41.779  29.987  35.967  1.00  0.00     0.029 A 
ATOM     49  N   UNL A   1      41.644  29.388  33.830  1.00  0.00    -0.354 N 
ATOM     50  N   UNL A   1      42.418  27.863  31.441  1.00  0.00    -0.248 NA
ATOM     51  C   UNL A   1      43.880  26.407  30.349  1.00  0.00     0.031 C 
ATOM     52  C   UNL A   1      42.831  29.108  35.686  1.00  0.00     0.029 A 
ATOM     53  C   UNL A   1      42.730  28.713  34.362  1.00  0.00     0.049 A 
ATOM     54  H   UNL A   1      41.333  29.311  32.899  1.00  0.00     0.167 HD
ATOM     55  C   UNL A   1      43.396  27.445  32.335  1.00  0.00     0.074 A 
ATOM     56  C   UNL A   1      44.253  26.526  31.616  1.00  0.00     0.031 C 
ATOM     57  C   UNL A   1      43.566  27.790  33.636  1.00  0.00     0.037 A 
BRANCH  44  58
ATOM     58  C   UNL A   1      39.439  31.890  35.725  1.00  0.00     0.064 A 
ATOM     59  C   UNL A   1      38.466  31.425  36.623  1.00  0.00     0.173 A 
ATOM     60  C   UNL A   1      39.971  33.170  35.940  1.00  0.00     0.173 A 
ATOM     61  F   UNL A   1      37.915  30.213  36.452  1.00  0.00    -0.203 F 
ATOM     62  C   UNL A   1      38.025  32.220  37.677  1.00  0.00     0.198 A 
ATOM     63  C   UNL A   1      39.550  33.950  37.014  1.00  0.00     0.198 A 
ATOM     64  F   UNL A   1      40.907  33.662  35.114  1.00  0.00    -0.203 F 
ATOM     65  F   UNL A   1      37.060  31.774  38.492  1.00  0.00    -0.200 F 
ATOM     66  C   UNL A   1      38.573  33.479  37.876  1.00  0.00     0.200 A 
ATOM     67  F   UNL A   1      40.092  35.160  37.213  1.00  0.00    -0.200 F 
ATOM     68  F   UNL A   1      38.153  34.240  38.895  1.00  0.00    -0.200 F 
ENDBRANCH  44  58
BRANCH  45  69
ATOM     69  C   UNL A   1      42.406  26.547  27.818  1.00  0.00     0.064 A 
ATOM     70  C   UNL A   1      43.330  27.099  26.919  1.00  0.00     0.173 A 
ATOM     71  C   UNL A   1      41.934  25.252  27.555  1.00  0.00     0.173 A 
ATOM     72  F   UNL A   1      43.791  28.344  27.115  1.00  0.00    -0.203 F 
ATOM     73  C   UNL A   1      43.750  26.392  25.795  1.00  0.00     0.198 A 
ATOM     74  C   UNL A   1      42.378  24.536  26.446  1.00  0.00     0.198 A 
ATOM     75  F   UNL A   1      41.048  24.680  28.381  1.00  0.00    -0.203 F 
ATOM     76  F   UNL A   1      44.598  26.962  24.927  1.00  0.00    -0.200 F 
ATOM     77  C   UNL A   1      43.279  25.109  25.562  1.00  0.00     0.200 A 
ATOM     78  F   UNL A   1      41.930  23.290  26.233  1.00  0.00    -0.200 F 
ATOM     79  F   UNL A   1      43.687  24.429  24.482  1.00  0.00    -0.200 F 
ENDBRANCH  45  69
BRANCH  57  80
ATOM     80  C   UNL A   1      44.693  27.138  34.384  1.00  0.00     0.064 A 
ATOM     81  C   UNL A   1      44.538  25.901  35.027  1.00  0.00     0.173 A 
ATOM     82  C   UNL A   1      45.963  27.735  34.409  1.00  0.00     0.173 A 
ATOM     83  F   UNL A   1      43.341  25.295  35.044  1.00  0.00    -0.203 F 
ATOM     84  C   UNL A   1      45.608  25.298  35.684  1.00  0.00     0.198 A 
ATOM     85  C   UNL A   1      47.037  27.115  35.040  1.00  0.00     0.198 A 
ATOM     86  F   UNL A   1      46.168  28.915  33.803  1.00  0.00    -0.203 F 
ATOM     87  F   UNL A   1      45.425  24.137  36.329  1.00  0.00    -0.200 F 
ATOM     88  C   UNL A   1      46.857  25.900  35.683  1.00  0.00     0.200 A 
ATOM     89  F   UNL A   1      48.246  27.691  35.024  1.00  0.00    -0.200 F 
ATOM     90  F   UNL A   1      47.886  25.311  36.307  1.00  0.00    -0.200 F 
ENDBRANCH  57  80
ENDBRANCH  31  32
ENDBRANCH  24  26
ENDBRANCH  23  24
ENDBRANCH  22  23
ENDBRANCH   1  22
TORSDOF 15
ENDMDL
MODEL 3
REMARK VINA RESULT:     -10.3      4.580      7.776
REMARK SMILES CC1(C)C(=O)N([C@H]2COC[C@@H]2C(=O)OCCOCCOC(=O)c2ccc(-c3c4nc(c(-c5c(F)c(F)c(F)c(F)c5F)c5ccc([nH]5)c(-c5c(F)c(F)c(F)c(F)c5F)c5nc(c(-c6c(F)c(F)c(F)c(F)c6F)c6ccc3[nH]6)C=C5)C=C4)cc2)S1(=O)=O
REMARK SMILES IDX 18 1 17 2 16 3 15 4 14 5 12 6 13 7 11 8 7 9 8 10 9 11 10 12
REMARK SMILES IDX 6 13 1 14 2 15 3 16 4 17 86 18 5 19 87 20 88 21 19 22 20 23
REMARK SMILES IDX 21 24 22 25 23 26 24 27 85 28 25 29 84 30 26 31 27 32 28 33
REMARK SMILES IDX 78 34 29 35 83 36 77 37 79 38 30 39 82 40 76 41 75 42 31 44
REMARK SMILES IDX 63 45 43 46 62 47 44 48 47 49 61 50 80 51 45 52 46 53 60 55
REMARK SMILES IDX 81 56 48 57 32 58 33 59 41 60 34 61 35 62 39 63 42 64 36 65
REMARK SMILES IDX 37 66 40 67 38 68 64 69 65 70 73 71 66 72 67 73 71 74 74 75
REMARK SMILES IDX 68 76 69 77 72 78 70 79 49 80 50 81 58 82 51 83 52 84 56 85
REMARK SMILES IDX 59 86 53 87 54 88 57 89 55 90
REMARK H PARENT 79 43 47 54
REMARK Flexibility Score: inf
ROOT
ATOM      1  C   UNL A   1      32.165  29.851  25.358  1.00  0.00     0.202 C 
ENDROOT
BRANCH   1   2
ATOM      2  O   UNL A   1      31.054  29.222  24.721  1.00  0.00    -0.374 OA
BRANCH   2   3
ATOM      3  C   UNL A   1      30.904  29.378  23.312  1.00  0.00     0.202 C 
BRANCH   3   4
ATOM      4  C   UNL A   1      29.985  28.390  22.590  1.00  0.00     0.261 C 
BRANCH   4   5
ATOM      5  O   UNL A   1      30.727  27.286  22.048  1.00  0.00    -0.463 OA
BRANCH   5   6
ATOM      6  C   UNL A   1      30.887  26.225  22.881  1.00  0.00     0.313 C 
ATOM      7  O   UNL A   1      29.985  25.722  23.541  1.00  0.00    -0.252 OA
BRANCH   6   8
ATOM      8  C   UNL A   1      32.277  25.621  22.794  1.00  0.00     0.151 C 
ATOM      9  C   UNL A   1      32.654  25.112  24.171  1.00  0.00     0.145 C 
ATOM     10  C   UNL A   1      33.230  26.381  24.801  1.00  0.00     0.187 C 
ATOM     11  O   UNL A   1      33.811  27.161  23.743  1.00  0.00    -0.378 OA
ATOM     12  C   UNL A   1      33.370  26.623  22.490  1.00  0.00     0.177 C 
BRANCH   9  13
ATOM     13  N   UNL A   1      33.666  24.039  24.228  1.00  0.00    -0.231 N 
ATOM     14  C   UNL A   1      35.572  21.374  24.833  1.00  0.00     0.041 C 
ATOM     15  C   UNL A   1      34.189  21.879  24.436  1.00  0.00     0.165 C 
ATOM     16  C   UNL A   1      33.171  20.735  24.419  1.00  0.00     0.041 C 
ATOM     17  C   UNL A   1      33.712  23.083  25.257  1.00  0.00     0.259 C 
ATOM     18  S   UNL A   1      34.101  22.965  23.051  1.00  0.00     0.252 S 
ATOM     19  O   UNL A   1      33.365  23.259  26.412  1.00  0.00    -0.272 OA
ATOM     20  O   UNL A   1      35.399  23.343  22.543  1.00  0.00    -0.205 OA
ATOM     21  O   UNL A   1      32.979  22.667  22.196  1.00  0.00    -0.205 OA
ENDBRANCH   9  13
ENDBRANCH   6   8
ENDBRANCH   5   6
ENDBRANCH   4   5
ENDBRANCH   3   4
ENDBRANCH   2   3
ENDBRANCH   1   2
BRANCH   1  22
ATOM     22  C   UNL A   1      31.886  31.032  26.297  1.00  0.00     0.261 C 
BRANCH  22  23
ATOM     23  O   UNL A   1      32.674  30.994  27.499  1.00  0.00    -0.460 OA
BRANCH  23  24
ATOM     24  C   UNL A   1      33.559  32.014  27.625  1.00  0.00     0.338 C 
ATOM     25  O   UNL A   1      33.326  33.211  27.587  1.00  0.00    -0.246 OA
BRANCH  24  26
ATOM     26  C   UNL A   1      34.881  31.487  28.005  1.00  0.00     0.060 A 
ATOM     27  C   UNL A   1      34.983  30.115  28.272  1.00  0.00     0.016 A 
ATOM     28  C   UNL A   1      35.974  32.332  28.191  1.00  0.00     0.016 A 
ATOM     29  C   UNL A   1      36.171  29.587  28.770  1.00  0.00     0.010 A 
ATOM     30  C   UNL A   1      37.163  31.804  28.704  1.00  0.00     0.010 A 
ATOM     31  C   UNL A   1      37.254  30.437  29.027  1.00  0.00    -0.014 A 
BRANCH  31  32
ATOM     32  C   UNL A   1      38.427  29.927  29.776  1.00  0.00     0.031 A 
ATOM     33  C   UNL A   1      38.688  30.452  31.160  1.00  0.00     0.074 A 
ATOM     34  C   UNL A   1      39.237  28.999  29.239  1.00  0.00     0.049 A 
ATOM     35  N   UNL A   1      39.688  30.209  31.968  1.00  0.00    -0.248 NA
ATOM     36  C   UNL A   1      37.686  31.380  31.704  1.00  0.00     0.031 C 
ATOM     37  C   UNL A   1      39.058  28.383  27.926  1.00  0.00     0.029 A 
ATOM     38  N   UNL A   1      40.382  28.423  29.730  1.00  0.00    -0.354 N 
ATOM     39  C   UNL A   1      39.441  30.959  33.110  1.00  0.00     0.074 A 
ATOM     40  C   UNL A   1      38.213  31.690  32.879  1.00  0.00     0.031 C 
ATOM     41  C   UNL A   1      40.071  27.527  27.706  1.00  0.00     0.029 A 
ATOM     42  C   UNL A   1      40.986  27.566  28.846  1.00  0.00     0.049 A 
ATOM     43  H   UNL A   1      40.736  28.609  30.630  1.00  0.00     0.167 HD
ATOM     44  C   UNL A   1      40.168  31.025  34.251  1.00  0.00     0.037 A 
ATOM     45  C   UNL A   1      42.160  26.912  28.936  1.00  0.00     0.037 A 
ATOM     46  C   UNL A   1      41.390  30.296  34.471  1.00  0.00     0.049 A 
ATOM     47  C   UNL A   1      42.994  27.062  30.183  1.00  0.00     0.074 A 
ATOM     48  C   UNL A   1      42.198  30.286  35.594  1.00  0.00     0.029 A 
ATOM     49  N   UNL A   1      41.984  29.454  33.543  1.00  0.00    -0.354 N 
ATOM     50  N   UNL A   1      42.747  27.759  31.267  1.00  0.00    -0.248 NA
ATOM     51  C   UNL A   1      44.268  26.331  30.221  1.00  0.00     0.031 C 
ATOM     52  C   UNL A   1      43.309  29.479  35.326  1.00  0.00     0.029 A 
ATOM     53  C   UNL A   1      43.162  28.938  34.058  1.00  0.00     0.049 A 
ATOM     54  H   UNL A   1      41.623  29.252  32.649  1.00  0.00     0.167 HD
ATOM     55  C   UNL A   1      43.815  27.527  32.124  1.00  0.00     0.074 A 
ATOM     56  C   UNL A   1      44.708  26.617  31.439  1.00  0.00     0.031 C 
ATOM     57  C   UNL A   1      44.034  28.021  33.368  1.00  0.00     0.037 A 
BRANCH  44  58
ATOM     58  C   UNL A   1      39.675  31.937  35.336  1.00  0.00     0.064 A 
ATOM     59  C   UNL A   1      40.098  33.271  35.429  1.00  0.00     0.173 A 
ATOM     60  C   UNL A   1      38.745  31.477  36.281  1.00  0.00     0.173 A 
ATOM     61  F   UNL A   1      40.998  33.756  34.559  1.00  0.00    -0.203 F 
ATOM     62  C   UNL A   1      39.630  34.103  36.442  1.00  0.00     0.198 A 
ATOM     63  C   UNL A   1      38.255  32.321  37.274  1.00  0.00     0.198 A 
ATOM     64  F   UNL A   1      38.303  30.211  36.236  1.00  0.00    -0.203 F 
ATOM     65  F   UNL A   1      40.086  35.359  36.540  1.00  0.00    -0.200 F 
ATOM     66  C   UNL A   1      38.703  33.629  37.359  1.00  0.00     0.200 A 
ATOM     67  F   UNL A   1      37.349  31.865  38.151  1.00  0.00    -0.200 F 
ATOM     68  F   UNL A   1      38.248  34.433  38.330  1.00  0.00    -0.200 F 
ENDBRANCH  44  58
BRANCH  45  69
ATOM     69  C   UNL A   1      42.629  26.071  27.804  1.00  0.00     0.064 A 
ATOM     70  C   UNL A   1      43.523  26.573  26.849  1.00  0.00     0.173 A 
ATOM     71  C   UNL A   1      42.181  24.751  27.647  1.00  0.00     0.173 A 
ATOM     72  F   UNL A   1      43.961  27.838  26.942  1.00  0.00    -0.203 F 
ATOM     73  C   UNL A   1      43.938  25.793  25.771  1.00  0.00     0.198 A 
ATOM     74  C   UNL A   1      42.619  23.963  26.585  1.00  0.00     0.198 A 
ATOM     75  F   UNL A   1      41.322  24.223  28.531  1.00  0.00    -0.203 F 
ATOM     76  F   UNL A   1      44.757  26.314  24.847  1.00  0.00    -0.200 F 
ATOM     77  C   UNL A   1      43.491  24.487  25.643  1.00  0.00     0.200 A 
ATOM     78  F   UNL A   1      42.195  22.696  26.474  1.00  0.00    -0.200 F 
ATOM     79  F   UNL A   1      43.894  23.737  24.609  1.00  0.00    -0.200 F 
ENDBRANCH  45  69
BRANCH  57  80
ATOM     80  C   UNL A   1      45.265  27.555  34.092  1.00  0.00     0.064 A 
ATOM     81  C   UNL A   1      46.475  28.260  34.026  1.00  0.00     0.173 A 
ATOM     82  C   UNL A   1      45.213  26.415  34.909  1.00  0.00     0.173 A 
ATOM     83  F   UNL A   1      46.580  29.348  33.248  1.00  0.00    -0.203 F 
ATOM     84  C   UNL A   1      47.594  27.828  34.734  1.00  0.00     0.198 A 
ATOM     85  C   UNL A   1      46.324  26.004  35.640  1.00  0.00     0.198 A 
ATOM     86  F   UNL A   1      44.078  25.707  35.014  1.00  0.00    -0.203 F 
ATOM     87  F   UNL A   1      48.752  28.493  34.622  1.00  0.00    -0.200 F 
ATOM     88  C   UNL A   1      47.515  26.707  35.547  1.00  0.00     0.200 A 
ATOM     89  F   UNL A   1      46.241  24.930  36.436  1.00  0.00    -0.200 F 
ATOM     90  F   UNL A   1      48.591  26.302  36.237  1.00  0.00    -0.200 F 
ENDBRANCH  57  80
ENDBRANCH  31  32
ENDBRANCH  24  26
ENDBRANCH  23  24
ENDBRANCH  22  23
ENDBRANCH   1  22
TORSDOF 15
ENDMDL
