MODEL 1
REMARK VINA RESULT:      -8.5      0.000      0.000
REMARK SMILES CC[C@H](C)[NH2+][C@H](CS)C(=O)OCCOCCOC(=O)c1ccc(-c2c3nc(c(-c4c(F)c(F)c(F)c(F)c4F)c4ccc([nH]4)c(-c4c(F)c(F)c(F)c(F)c4F)c4nc(c(-c5c(F)c(F)c(F)c(F)c5F)c5ccc2[nH]5)C=C4)C=C3)cc1
REMARK SMILES IDX 13 1 12 2 11 3 9 4 10 5 6 6 5 7 3 10 4 11 2 12 1 13 7 14
REMARK SMILES IDX 8 15 14 17 15 18 16 19 17 20 18 21 19 22 20 23 21 24 82 25
REMARK SMILES IDX 22 26 81 27 23 28 24 29 25 30 75 31 26 32 80 33 74 34 76 35
REMARK SMILES IDX 27 36 79 37 73 38 72 39 28 41 60 42 40 43 59 44 41 45 44 46
REMARK SMILES IDX 58 47 77 48 42 49 43 50 57 52 78 53 45 54 29 55 30 56 38 57
REMARK SMILES IDX 31 58 32 59 36 60 39 61 33 62 34 63 37 64 35 65 61 66 62 67
REMARK SMILES IDX 70 68 63 69 64 70 68 71 71 72 65 73 66 74 69 75 67 76 46 77
REMARK SMILES IDX 47 78 55 79 48 80 49 81 53 82 56 83 50 84 51 85 54 86 52 87
REMARK H PARENT 5 8 5 9 8 16 76 40 44 51
REMARK Flexibility Score: inf
ROOT
ATOM      1  C   UNL A   1      33.000  35.795  30.160  1.00  0.00     0.202 C 
ENDROOT
BRANCH   1   2
ATOM      2  C   UNL A   1      33.318  35.370  31.600  1.00  0.00     0.261 C 
BRANCH   2   3
ATOM      3  O   UNL A   1      34.672  34.894  31.759  1.00  0.00    -0.459 OA
BRANCH   3   4
ATOM      4  C   UNL A   1      34.800  33.575  32.092  1.00  0.00     0.365 C 
ATOM      5  O   UNL A   1      33.863  32.843  32.393  1.00  0.00    -0.245 OA
BRANCH   4   6
ATOM      6  C   UNL A   1      36.261  33.077  32.057  1.00  0.00     0.303 C 
BRANCH   6   7
ATOM      7  N   UNL A   1      36.608  32.515  33.381  1.00  0.00    -0.332 N 
ATOM      8  H   UNL A   1      35.737  32.188  33.800  1.00  0.00     0.347 HD
ATOM      9  H   UNL A   1      37.313  31.812  33.163  1.00  0.00     0.347 HD
BRANCH   7  10
ATOM     10  C   UNL A   1      37.268  33.361  34.379  1.00  0.00     0.179 C 
ATOM     11  C   UNL A   1      36.154  33.818  35.327  1.00  0.00     0.075 C 
BRANCH  10  12
ATOM     12  C   UNL A   1      38.417  32.601  35.090  1.00  0.00     0.061 C 
ATOM     13  C   UNL A   1      38.228  31.113  35.343  1.00  0.00     0.010 C 
ENDBRANCH  10  12
ENDBRANCH   7  10
ENDBRANCH   6   7
BRANCH   6  14
ATOM     14  C   UNL A   1      37.220  34.091  31.402  1.00  0.00     0.143 C 
BRANCH  14  15
ATOM     15  S   UNL A   1      37.626  33.690  29.657  1.00  0.00    -0.172 SA
ATOM     16  H   UNL A   1      36.518  33.207  29.034  1.00  0.00     0.102 HD
ENDBRANCH  14  15
ENDBRANCH   6  14
ENDBRANCH   4   6
ENDBRANCH   3   4
ENDBRANCH   2   3
ENDBRANCH   1   2
BRANCH   1  17
ATOM     17  O   UNL A   1      32.565  34.776  29.259  1.00  0.00    -0.374 OA
BRANCH  17  18
ATOM     18  C   UNL A   1      33.537  34.234  28.371  1.00  0.00     0.202 C 
BRANCH  18  19
ATOM     19  C   UNL A   1      34.240  32.944  28.808  1.00  0.00     0.261 C 
BRANCH  19  20
ATOM     20  O   UNL A   1      34.742  32.185  27.694  1.00  0.00    -0.460 OA
BRANCH  20  21
ATOM     21  C   UNL A   1      34.568  30.849  27.810  1.00  0.00     0.338 C 
ATOM     22  O   UNL A   1      33.562  30.204  27.538  1.00  0.00    -0.246 OA
BRANCH  21  23
ATOM     23  C   UNL A   1      35.832  30.190  28.174  1.00  0.00     0.060 A 
ATOM     24  C   UNL A   1      35.918  29.642  29.460  1.00  0.00     0.016 A 
ATOM     25  C   UNL A   1      36.942  30.191  27.326  1.00  0.00     0.016 A 
ATOM     26  C   UNL A   1      37.133  29.150  29.928  1.00  0.00     0.010 A 
ATOM     27  C   UNL A   1      38.164  29.701  27.800  1.00  0.00     0.010 A 
ATOM     28  C   UNL A   1      38.274  29.219  29.117  1.00  0.00    -0.014 A 
BRANCH  28  29
ATOM     29  C   UNL A   1      39.600  28.930  29.715  1.00  0.00     0.031 A 
ATOM     30  C   UNL A   1      40.390  27.756  29.205  1.00  0.00     0.074 A 
ATOM     31  C   UNL A   1      40.117  29.735  30.659  1.00  0.00     0.049 A 
ATOM     32  N   UNL A   1      41.570  27.325  29.570  1.00  0.00    -0.248 NA
ATOM     33  C   UNL A   1      39.764  26.961  28.136  1.00  0.00     0.031 C 
ATOM     34  C   UNL A   1      39.465  30.924  31.202  1.00  0.00     0.029 A 
ATOM     35  N   UNL A   1      41.314  29.671  31.327  1.00  0.00    -0.354 N 
ATOM     36  C   UNL A   1      41.826  26.210  28.783  1.00  0.00     0.074 A 
ATOM     37  C   UNL A   1      40.666  26.011  27.940  1.00  0.00     0.031 C 
ATOM     38  C   UNL A   1      40.271  31.479  32.122  1.00  0.00     0.029 A 
ATOM     39  C   UNL A   1      41.480  30.669  32.253  1.00  0.00     0.049 A 
ATOM     40  H   UNL A   1      41.990  28.975  31.157  1.00  0.00     0.167 HD
ATOM     41  C   UNL A   1      42.933  25.430  28.757  1.00  0.00     0.037 A 
ATOM     42  C   UNL A   1      42.490  30.893  33.117  1.00  0.00     0.037 A 
ATOM     43  C   UNL A   1      44.088  25.636  29.590  1.00  0.00     0.049 A 
ATOM     44  C   UNL A   1      43.682  29.970  33.114  1.00  0.00     0.074 A 
ATOM     45  C   UNL A   1      45.271  24.917  29.620  1.00  0.00     0.029 A 
ATOM     46  N   UNL A   1      44.202  26.633  30.547  1.00  0.00    -0.354 N 
ATOM     47  N   UNL A   1      43.928  28.936  32.346  1.00  0.00    -0.248 NA
ATOM     48  C   UNL A   1      44.736  30.248  34.100  1.00  0.00     0.031 C 
ATOM     49  C   UNL A   1      46.080  25.447  30.630  1.00  0.00     0.029 A 
ATOM     50  C   UNL A   1      45.423  26.530  31.194  1.00  0.00     0.049 A 
ATOM     51  H   UNL A   1      43.517  27.314  30.739  1.00  0.00     0.167 HD
ATOM     52  C   UNL A   1      45.174  28.461  32.732  1.00  0.00     0.074 A 
ATOM     53  C   UNL A   1      45.638  29.325  33.798  1.00  0.00     0.031 C 
ATOM     54  C   UNL A   1      45.872  27.403  32.248  1.00  0.00     0.037 A 
BRANCH  41  55
ATOM     55  C   UNL A   1      42.936  24.262  27.816  1.00  0.00     0.064 A 
ATOM     56  C   UNL A   1      43.307  24.399  26.470  1.00  0.00     0.173 A 
ATOM     57  C   UNL A   1      42.595  22.981  28.275  1.00  0.00     0.173 A 
ATOM     58  F   UNL A   1      43.629  25.604  25.978  1.00  0.00    -0.203 F 
ATOM     59  C   UNL A   1      43.314  23.300  25.613  1.00  0.00     0.198 A 
ATOM     60  C   UNL A   1      42.629  21.880  27.424  1.00  0.00     0.198 A 
ATOM     61  F   UNL A   1      42.235  22.795  29.554  1.00  0.00    -0.203 F 
ATOM     62  F   UNL A   1      43.630  23.461  24.322  1.00  0.00    -0.200 F 
ATOM     63  C   UNL A   1      42.981  22.041  26.093  1.00  0.00     0.200 A 
ATOM     64  F   UNL A   1      42.317  20.663  27.891  1.00  0.00    -0.200 F 
ATOM     65  F   UNL A   1      42.994  20.984  25.269  1.00  0.00    -0.200 F 
ENDBRANCH  41  55
BRANCH  42  66
ATOM     66  C   UNL A   1      42.419  32.037  34.060  1.00  0.00     0.064 A 
ATOM     67  C   UNL A   1      41.957  31.867  35.372  1.00  0.00     0.173 A 
ATOM     68  C   UNL A   1      42.797  33.329  33.664  1.00  0.00     0.173 A 
ATOM     69  F   UNL A   1      41.559  30.657  35.790  1.00  0.00    -0.203 F 
ATOM     70  C   UNL A   1      41.861  32.948  36.248  1.00  0.00     0.198 A 
ATOM     71  C   UNL A   1      42.727  34.403  34.548  1.00  0.00     0.198 A 
ATOM     72  F   UNL A   1      43.243  33.545  32.418  1.00  0.00    -0.203 F 
ATOM     73  F   UNL A   1      41.374  32.765  37.483  1.00  0.00    -0.200 F 
ATOM     74  C   UNL A   1      42.251  34.214  35.836  1.00  0.00     0.200 A 
ATOM     75  F   UNL A   1      43.115  35.622  34.151  1.00  0.00    -0.200 F 
ATOM     76  F   UNL A   1      42.162  35.251  36.680  1.00  0.00    -0.200 F 
ENDBRANCH  42  66
BRANCH  54  77
ATOM     77  C   UNL A   1      47.227  27.142  32.841  1.00  0.00     0.064 A 
ATOM     78  C   UNL A   1      47.401  26.267  33.923  1.00  0.00     0.173 A 
ATOM     79  C   UNL A   1      48.369  27.741  32.290  1.00  0.00     0.173 A 
ATOM     80  F   UNL A   1      46.338  25.680  34.493  1.00  0.00    -0.203 F 
ATOM     81  C   UNL A   1      48.666  26.021  34.448  1.00  0.00     0.198 A 
ATOM     82  C   UNL A   1      49.637  27.470  32.797  1.00  0.00     0.198 A 
ATOM     83  F   UNL A   1      48.258  28.580  31.249  1.00  0.00    -0.203 F 
ATOM     84  F   UNL A   1      48.805  25.217  35.511  1.00  0.00    -0.200 F 
ATOM     85  C   UNL A   1      49.784  26.617  33.880  1.00  0.00     0.200 A 
ATOM     86  F   UNL A   1      50.717  28.036  32.239  1.00  0.00    -0.200 F 
ATOM     87  F   UNL A   1      51.002  26.373  34.381  1.00  0.00    -0.200 F 
ENDBRANCH  54  77
ENDBRANCH  28  29
ENDBRANCH  21  23
ENDBRANCH  20  21
ENDBRANCH  19  20
ENDBRANCH  18  19
ENDBRANCH  17  18
ENDBRANCH   1  17
TORSDOF 19
ENDMDL
MODEL 2
REMARK VINA RESULT:      -8.3      0.933      7.580
REMARK SMILES CC[C@H](C)[NH2+][C@H](CS)C(=O)OCCOCCOC(=O)c1ccc(-c2c3nc(c(-c4c(F)c(F)c(F)c(F)c4F)c4ccc([nH]4)c(-c4c(F)c(F)c(F)c(F)c4F)c4nc(c(-c5c(F)c(F)c(F)c(F)c5F)c5ccc2[nH]5)C=C4)C=C3)cc1
REMARK SMILES IDX 13 1 12 2 11 3 9 4 10 5 6 6 5 7 3 10 4 11 2 12 1 13 7 14
REMARK SMILES IDX 8 15 14 17 15 18 16 19 17 20 18 21 19 22 20 23 21 24 82 25
REMARK SMILES IDX 22 26 81 27 23 28 24 29 25 30 75 31 26 32 80 33 74 34 76 35
REMARK SMILES IDX 27 36 79 37 73 38 72 39 28 41 60 42 40 43 59 44 41 45 44 46
REMARK SMILES IDX 58 47 77 48 42 49 43 50 57 52 78 53 45 54 29 55 30 56 38 57
REMARK SMILES IDX 31 58 32 59 36 60 39 61 33 62 34 63 37 64 35 65 61 66 62 67
REMARK SMILES IDX 70 68 63 69 64 70 68 71 71 72 65 73 66 74 69 75 67 76 46 77
REMARK SMILES IDX 47 78 55 79 48 80 49 81 53 82 56 83 50 84 51 85 54 86 52 87
REMARK H PARENT 5 8 5 9 8 16 76 40 44 51
REMARK Flexibility Score: inf
ROOT
ATOM      1  C   UNL A   1      33.280  35.395  29.364  1.00  0.00     0.202 C 
ENDROOT
BRANCH   1   2
ATOM      2  C   UNL A   1      33.347  35.147  30.876  1.00  0.00     0.261 C 
BRANCH   2   3
ATOM      3  O   UNL A   1      34.680  34.838  31.335  1.00  0.00    -0.459 OA
BRANCH   3   4
ATOM      4  C   UNL A   1      34.870  33.562  31.787  1.00  0.00     0.365 C 
ATOM      5  O   UNL A   1      33.985  32.717  31.862  1.00  0.00    -0.245 OA
BRANCH   4   6
ATOM      6  C   UNL A   1      36.328  33.275  32.206  1.00  0.00     0.303 C 
BRANCH   6   7
ATOM      7  N   UNL A   1      36.448  33.442  33.671  1.00  0.00    -0.332 N 
ATOM      8  H   UNL A   1      36.327  34.436  33.866  1.00  0.00     0.347 HD
ATOM      9  H   UNL A   1      35.742  32.806  34.041  1.00  0.00     0.347 HD
BRANCH   7  10
ATOM     10  C   UNL A   1      37.675  33.022  34.352  1.00  0.00     0.179 C 
ATOM     11  C   UNL A   1      37.502  33.459  35.811  1.00  0.00     0.075 C 
BRANCH  10  12
ATOM     12  C   UNL A   1      37.920  31.500  34.184  1.00  0.00     0.061 C 
ATOM     13  C   UNL A   1      38.596  30.764  35.330  1.00  0.00     0.010 C 
ENDBRANCH  10  12
ENDBRANCH   7  10
ENDBRANCH   6   7
BRANCH   6  14
ATOM     14  C   UNL A   1      37.358  33.965  31.290  1.00  0.00     0.143 C 
BRANCH  14  15
ATOM     15  S   UNL A   1      37.403  33.273  29.591  1.00  0.00    -0.172 SA
ATOM     16  H   UNL A   1      36.259  32.577  29.355  1.00  0.00     0.102 HD
ENDBRANCH  14  15
ENDBRANCH   6  14
ENDBRANCH   4   6
ENDBRANCH   3   4
ENDBRANCH   2   3
ENDBRANCH   1   2
BRANCH   1  17
ATOM     17  O   UNL A   1      32.895  34.295  28.537  1.00  0.00    -0.374 OA
BRANCH  17  18
ATOM     18  C   UNL A   1      33.937  33.489  27.999  1.00  0.00     0.202 C 
BRANCH  18  19
ATOM     19  C   UNL A   1      33.947  32.007  28.392  1.00  0.00     0.261 C 
BRANCH  19  20
ATOM     20  O   UNL A   1      34.290  31.148  27.291  1.00  0.00    -0.460 OA
BRANCH  20  21
ATOM     21  C   UNL A   1      34.601  29.883  27.652  1.00  0.00     0.338 C 
ATOM     22  O   UNL A   1      33.956  28.865  27.428  1.00  0.00    -0.246 OA
BRANCH  21  23
ATOM     23  C   UNL A   1      35.947  29.828  28.245  1.00  0.00     0.060 A 
ATOM     24  C   UNL A   1      37.026  30.129  27.405  1.00  0.00     0.016 A 
ATOM     25  C   UNL A   1      36.165  29.397  29.556  1.00  0.00     0.016 A 
ATOM     26  C   UNL A   1      38.331  29.940  27.851  1.00  0.00     0.010 A 
ATOM     27  C   UNL A   1      37.478  29.202  30.001  1.00  0.00     0.010 A 
ATOM     28  C   UNL A   1      38.563  29.432  29.136  1.00  0.00    -0.014 A 
BRANCH  28  29
ATOM     29  C   UNL A   1      39.934  28.998  29.501  1.00  0.00     0.031 A 
ATOM     30  C   UNL A   1      40.734  29.839  30.458  1.00  0.00     0.074 A 
ATOM     31  C   UNL A   1      40.436  27.844  29.031  1.00  0.00     0.049 A 
ATOM     32  N   UNL A   1      41.941  29.647  30.924  1.00  0.00    -0.248 NA
ATOM     33  C   UNL A   1      40.083  31.060  30.958  1.00  0.00     0.031 C 
ATOM     34  C   UNL A   1      39.740  26.925  28.133  1.00  0.00     0.029 A 
ATOM     35  N   UNL A   1      41.653  27.247  29.249  1.00  0.00    -0.354 N 
ATOM     36  C   UNL A   1      42.196  30.722  31.765  1.00  0.00     0.074 A 
ATOM     37  C   UNL A   1      41.031  31.580  31.724  1.00  0.00     0.031 C 
ATOM     38  C   UNL A   1      40.542  25.879  27.874  1.00  0.00     0.029 A 
ATOM     39  C   UNL A   1      41.817  26.069  28.565  1.00  0.00     0.049 A 
ATOM     40  H   UNL A   1      42.342  27.628  29.840  1.00  0.00     0.167 HD
ATOM     41  C   UNL A   1      43.298  30.967  32.514  1.00  0.00     0.037 A 
ATOM     42  C   UNL A   1      42.882  25.246  28.496  1.00  0.00     0.037 A 
ATOM     43  C   UNL A   1      44.452  30.109  32.560  1.00  0.00     0.049 A 
ATOM     44  C   UNL A   1      44.121  25.576  29.287  1.00  0.00     0.074 A 
ATOM     45  C   UNL A   1      45.608  30.254  33.308  1.00  0.00     0.029 A 
ATOM     46  N   UNL A   1      44.599  28.945  31.820  1.00  0.00    -0.354 N 
ATOM     47  N   UNL A   1      44.342  26.578  30.103  1.00  0.00    -0.248 NA
ATOM     48  C   UNL A   1      45.260  24.656  29.147  1.00  0.00     0.031 C 
ATOM     49  C   UNL A   1      46.475  29.206  32.982  1.00  0.00     0.029 A 
ATOM     50  C   UNL A   1      45.838  28.378  32.071  1.00  0.00     0.049 A 
ATOM     51  H   UNL A   1      43.923  28.575  31.208  1.00  0.00     0.167 HD
ATOM     52  C   UNL A   1      45.627  26.394  30.596  1.00  0.00     0.074 A 
ATOM     53  C   UNL A   1      46.135  25.178  29.995  1.00  0.00     0.031 C 
ATOM     54  C   UNL A   1      46.325  27.163  31.469  1.00  0.00     0.037 A 
BRANCH  41  55
ATOM     55  C   UNL A   1      43.321  32.230  33.324  1.00  0.00     0.064 A 
ATOM     56  C   UNL A   1      43.847  33.425  32.813  1.00  0.00     0.173 A 
ATOM     57  C   UNL A   1      42.777  32.252  34.616  1.00  0.00     0.173 A 
ATOM     58  F   UNL A   1      44.392  33.454  31.587  1.00  0.00    -0.203 F 
ATOM     59  C   UNL A   1      43.849  34.591  33.576  1.00  0.00     0.198 A 
ATOM     60  C   UNL A   1      42.756  33.424  35.366  1.00  0.00     0.198 A 
ATOM     61  F   UNL A   1      42.258  31.136  35.151  1.00  0.00    -0.203 F 
ATOM     62  F   UNL A   1      44.397  35.711  33.085  1.00  0.00    -0.200 F 
ATOM     63  C   UNL A   1      43.299  34.590  34.849  1.00  0.00     0.200 A 
ATOM     64  F   UNL A   1      42.213  33.425  36.592  1.00  0.00    -0.200 F 
ATOM     65  F   UNL A   1      43.296  35.714  35.581  1.00  0.00    -0.200 F 
ENDBRANCH  41  55
BRANCH  42  66
ATOM     66  C   UNL A   1      42.826  24.031  27.644  1.00  0.00     0.064 A 
ATOM     67  C   UNL A   1      42.435  22.793  28.173  1.00  0.00     0.173 A 
ATOM     68  C   UNL A   1      43.176  24.079  26.287  1.00  0.00     0.173 A 
ATOM     69  F   UNL A   1      42.116  22.690  29.471  1.00  0.00    -0.203 F 
ATOM     70  C   UNL A   1      42.413  21.646  27.380  1.00  0.00     0.198 A 
ATOM     71  C   UNL A   1      43.127  22.939  25.489  1.00  0.00     0.198 A 
ATOM     72  F   UNL A   1      43.560  25.239  25.734  1.00  0.00    -0.203 F 
ATOM     73  F   UNL A   1      42.077  20.467  27.921  1.00  0.00    -0.200 F 
ATOM     74  C   UNL A   1      42.753  21.722  26.037  1.00  0.00     0.200 A 
ATOM     75  F   UNL A   1      43.447  23.017  24.190  1.00  0.00    -0.200 F 
ATOM     76  F   UNL A   1      42.728  20.620  25.275  1.00  0.00    -0.200 F 
ENDBRANCH  42  66
BRANCH  54  77
ATOM     77  C   UNL A   1      47.699  26.695  31.854  1.00  0.00     0.064 A 
ATOM     78  C   UNL A   1      47.902  25.798  32.912  1.00  0.00     0.173 A 
ATOM     79  C   UNL A   1      48.821  27.117  31.125  1.00  0.00     0.173 A 
ATOM     80  F   UNL A   1      46.863  25.375  33.647  1.00  0.00    -0.203 F 
ATOM     81  C   UNL A   1      49.181  25.359  33.242  1.00  0.00     0.198 A 
ATOM     82  C   UNL A   1      50.096  26.654  31.438  1.00  0.00     0.198 A 
ATOM     83  F   UNL A   1      48.679  27.970  30.099  1.00  0.00    -0.203 F 
ATOM     84  F   UNL A   1      49.357  24.537  34.285  1.00  0.00    -0.200 F 
ATOM     85  C   UNL A   1      50.276  25.781  32.500  1.00  0.00     0.200 A 
ATOM     86  F   UNL A   1      51.150  27.052  30.713  1.00  0.00    -0.200 F 
ATOM     87  F   UNL A   1      51.505  25.352  32.815  1.00  0.00    -0.200 F 
ENDBRANCH  54  77
ENDBRANCH  28  29
ENDBRANCH  21  23
ENDBRANCH  20  21
ENDBRANCH  19  20
ENDBRANCH  18  19
ENDBRANCH  17  18
ENDBRANCH   1  17
TORSDOF 19
ENDMDL
MODEL 3
REMARK VINA RESULT:      -8.3      5.497      8.880
REMARK SMILES CC[C@H](C)[NH2+][C@H](CS)C(=O)OCCOCCOC(=O)c1ccc(-c2c3nc(c(-c4c(F)c(F)c(F)c(F)c4F)c4ccc([nH]4)c(-c4c(F)c(F)c(F)c(F)c4F)c4nc(c(-c5c(F)c(F)c(F)c(F)c5F)c5ccc2[nH]5)C=C4)C=C3)cc1
REMARK SMILES IDX 13 1 12 2 11 3 9 4 10 5 6 6 5 7 3 10 4 11 2 12 1 13 7 14
REMARK SMILES IDX 8 15 14 17 15 18 16 19 17 20 18 21 19 22 20 23 21 24 82 25
REMARK SMILES IDX 22 26 81 27 23 28 24 29 25 30 75 31 26 32 80 33 74 34 76 35
REMARK SMILES IDX 27 36 79 37 73 38 72 39 28 41 60 42 40 43 59 44 41 45 44 46
REMARK SMILES IDX 58 47 77 48 42 49 43 50 57 52 78 53 45 54 29 55 30 56 38 57
REMARK SMILES IDX 31 58 32 59 36 60 39 61 33 62 34 63 37 64 35 65 61 66 62 67
REMARK SMILES IDX 70 68 63 69 64 70 68 71 71 72 65 73 66 74 69 75 67 76 46 77
REMARK SMILES IDX 47 78 55 79 48 80 49 81 53 82 56 83 50 84 51 85 54 86 52 87
REMARK H PARENT 5 8 5 9 8 16 76 40 44 51
REMARK Flexibility Score: inf
ROOT
ATOM      1  C   UNL A   1      33.634  20.244  25.484  1.00  0.00     0.202 C 
ENDROOT
BRANCH   1   2
ATOM      2  C   UNL A   1      32.276  20.701  24.937  1.00  0.00     0.261 C 
BRANCH   2   3
ATOM      3  O   UNL A   1      32.079  22.127  25.044  1.00  0.00    -0.459 OA
BRANCH   3   4
ATOM      4  C   UNL A   1      32.307  22.844  23.903  1.00  0.00     0.365 C 
ATOM      5  O   UNL A   1      32.684  22.355  22.843  1.00  0.00    -0.245 OA
BRANCH   4   6
ATOM      6  C   UNL A   1      32.047  24.356  24.072  1.00  0.00     0.303 C 
BRANCH   6   7
ATOM      7  N   UNL A   1      32.042  24.684  25.515  1.00  0.00    -0.332 N 
ATOM      8  H   UNL A   1      31.200  25.233  25.689  1.00  0.00     0.347 HD
ATOM      9  H   UNL A   1      32.105  23.772  25.966  1.00  0.00     0.347 HD
BRANCH   7  10
ATOM     10  C   UNL A   1      33.162  25.429  26.094  1.00  0.00     0.179 C 
ATOM     11  C   UNL A   1      34.414  24.903  25.382  1.00  0.00     0.075 C 
BRANCH  10  12
ATOM     12  C   UNL A   1      32.959  26.960  25.943  1.00  0.00     0.061 C 
ATOM     13  C   UNL A   1      31.971  27.635  26.882  1.00  0.00     0.010 C 
ENDBRANCH  10  12
ENDBRANCH   7  10
ENDBRANCH   6   7
BRANCH   6  14
ATOM     14  C   UNL A   1      30.891  24.864  23.187  1.00  0.00     0.143 C 
BRANCH  14  15
ATOM     15  S   UNL A   1      29.900  26.194  23.974  1.00  0.00    -0.172 SA
ATOM     16  H   UNL A   1      28.689  26.278  23.361  1.00  0.00     0.102 HD
ENDBRANCH  14  15
ENDBRANCH   6  14
ENDBRANCH   4   6
ENDBRANCH   3   4
ENDBRANCH   2   3
ENDBRANCH   1   2
BRANCH   1  17
ATOM     17  O   UNL A   1      34.768  20.393  24.629  1.00  0.00    -0.374 OA
BRANCH  17  18
ATOM     18  C   UNL A   1      35.872  21.137  25.134  1.00  0.00     0.202 C 
BRANCH  18  19
ATOM     19  C   UNL A   1      37.257  20.488  25.032  1.00  0.00     0.261 C 
BRANCH  19  20
ATOM     20  O   UNL A   1      38.321  21.454  25.061  1.00  0.00    -0.460 OA
BRANCH  20  21
ATOM     21  C   UNL A   1      39.279  21.195  25.981  1.00  0.00     0.338 C 
ATOM     22  O   UNL A   1      39.858  20.132  26.173  1.00  0.00    -0.246 OA
BRANCH  21  23
ATOM     23  C   UNL A   1      39.687  22.431  26.668  1.00  0.00     0.060 A 
ATOM     24  C   UNL A   1      39.000  23.604  26.332  1.00  0.00     0.016 A 
ATOM     25  C   UNL A   1      40.776  22.470  27.542  1.00  0.00     0.016 A 
ATOM     26  C   UNL A   1      39.438  24.833  26.818  1.00  0.00     0.010 A 
ATOM     27  C   UNL A   1      41.219  23.708  28.025  1.00  0.00     0.010 A 
ATOM     28  C   UNL A   1      40.578  24.895  27.631  1.00  0.00    -0.014 A 
BRANCH  28  29
ATOM     29  C   UNL A   1      41.176  26.220  27.928  1.00  0.00     0.031 A 
ATOM     30  C   UNL A   1      42.583  26.501  27.474  1.00  0.00     0.074 A 
ATOM     31  C   UNL A   1      40.459  27.175  28.543  1.00  0.00     0.049 A 
ATOM     32  N   UNL A   1      43.300  27.587  27.612  1.00  0.00    -0.248 NA
ATOM     33  C   UNL A   1      43.273  25.411  26.766  1.00  0.00     0.031 C 
ATOM     34  C   UNL A   1      39.076  27.033  28.990  1.00  0.00     0.029 A 
ATOM     35  N   UNL A   1      40.799  28.457  28.894  1.00  0.00    -0.354 N 
ATOM     36  C   UNL A   1      44.523  27.311  27.016  1.00  0.00     0.074 A 
ATOM     37  C   UNL A   1      44.464  25.946  26.540  1.00  0.00     0.031 C 
ATOM     38  C   UNL A   1      38.683  28.185  29.560  1.00  0.00     0.029 A 
ATOM     39  C   UNL A   1      39.796  29.133  29.542  1.00  0.00     0.049 A 
ATOM     40  H   UNL A   1      41.679  28.854  28.700  1.00  0.00     0.167 HD
ATOM     41  C   UNL A   1      45.595  28.127  26.869  1.00  0.00     0.037 A 
ATOM     42  C   UNL A   1      39.785  30.373  30.070  1.00  0.00     0.037 A 
ATOM     43  C   UNL A   1      45.647  29.487  27.336  1.00  0.00     0.049 A 
ATOM     44  C   UNL A   1      41.014  31.237  29.951  1.00  0.00     0.074 A 
ATOM     45  C   UNL A   1      46.677  30.404  27.211  1.00  0.00     0.029 A 
ATOM     46  N   UNL A   1      44.626  30.123  28.025  1.00  0.00    -0.354 N 
ATOM     47  N   UNL A   1      42.155  30.978  29.359  1.00  0.00    -0.248 NA
ATOM     48  C   UNL A   1      40.951  32.567  30.574  1.00  0.00     0.031 C 
ATOM     49  C   UNL A   1      46.298  31.579  27.870  1.00  0.00     0.029 A 
ATOM     50  C   UNL A   1      45.013  31.411  28.359  1.00  0.00     0.049 A 
ATOM     51  H   UNL A   1      43.755  29.720  28.245  1.00  0.00     0.167 HD
ATOM     52  C   UNL A   1      42.932  32.120  29.511  1.00  0.00     0.074 A 
ATOM     53  C   UNL A   1      42.128  33.077  30.243  1.00  0.00     0.031 C 
ATOM     54  C   UNL A   1      44.197  32.354  29.082  1.00  0.00     0.037 A 
BRANCH  41  55
ATOM     55  C   UNL A   1      46.811  27.559  26.199  1.00  0.00     0.064 A 
ATOM     56  C   UNL A   1      47.814  26.899  26.924  1.00  0.00     0.173 A 
ATOM     57  C   UNL A   1      46.959  27.648  24.806  1.00  0.00     0.173 A 
ATOM     58  F   UNL A   1      47.727  26.798  28.259  1.00  0.00    -0.203 F 
ATOM     59  C   UNL A   1      48.931  26.369  26.282  1.00  0.00     0.198 A 
ATOM     60  C   UNL A   1      48.063  27.094  24.165  1.00  0.00     0.198 A 
ATOM     61  F   UNL A   1      46.027  28.267  24.066  1.00  0.00    -0.203 F 
ATOM     62  F   UNL A   1      49.897  25.780  26.999  1.00  0.00    -0.200 F 
ATOM     63  C   UNL A   1      49.051  26.462  24.903  1.00  0.00     0.200 A 
ATOM     64  F   UNL A   1      48.172  27.175  22.831  1.00  0.00    -0.200 F 
ATOM     65  F   UNL A   1      50.124  25.946  24.286  1.00  0.00    -0.200 F 
ENDBRANCH  41  55
BRANCH  42  66
ATOM     66  C   UNL A   1      38.571  30.872  30.764  1.00  0.00     0.064 A 
ATOM     67  C   UNL A   1      37.504  31.431  30.046  1.00  0.00     0.173 A 
ATOM     68  C   UNL A   1      38.457  30.815  32.161  1.00  0.00     0.173 A 
ATOM     69  F   UNL A   1      37.576  31.531  28.711  1.00  0.00    -0.203 F 
ATOM     70  C   UNL A   1      36.378  31.927  30.700  1.00  0.00     0.198 A 
ATOM     71  C   UNL A   1      37.319  31.286  32.812  1.00  0.00     0.198 A 
ATOM     72  F   UNL A   1      39.451  30.293  32.894  1.00  0.00    -0.203 F 
ATOM     73  F   UNL A   1      35.392  32.496  29.993  1.00  0.00    -0.200 F 
ATOM     74  C   UNL A   1      36.284  31.849  32.082  1.00  0.00     0.200 A 
ATOM     75  F   UNL A   1      37.228  31.200  34.145  1.00  0.00    -0.200 F 
ATOM     76  F   UNL A   1      35.199  32.324  32.709  1.00  0.00    -0.200 F 
ENDBRANCH  42  66
BRANCH  54  77
ATOM     77  C   UNL A   1      44.779  33.709  29.362  1.00  0.00     0.064 A 
ATOM     78  C   UNL A   1      45.534  33.963  30.515  1.00  0.00     0.173 A 
ATOM     79  C   UNL A   1      44.616  34.755  28.440  1.00  0.00     0.173 A 
ATOM     80  F   UNL A   1      45.708  33.000  31.433  1.00  0.00    -0.203 F 
ATOM     81  C   UNL A   1      46.083  35.220  30.750  1.00  0.00     0.198 A 
ATOM     82  C   UNL A   1      45.191  36.003  28.662  1.00  0.00     0.198 A 
ATOM     83  F   UNL A   1      43.909  34.562  27.317  1.00  0.00    -0.203 F 
ATOM     84  F   UNL A   1      46.763  35.453  31.881  1.00  0.00    -0.200 F 
ATOM     85  C   UNL A   1      45.918  36.237  29.820  1.00  0.00     0.200 A 
ATOM     86  F   UNL A   1      45.041  36.980  27.757  1.00  0.00    -0.200 F 
ATOM     87  F   UNL A   1      46.454  37.445  30.042  1.00  0.00    -0.200 F 
ENDBRANCH  54  77
ENDBRANCH  28  29
ENDBRANCH  21  23
ENDBRANCH  20  21
ENDBRANCH  19  20
ENDBRANCH  18  19
ENDBRANCH  17  18
ENDBRANCH   1  17
TORSDOF 19
ENDMDL
