MODEL 1
REMARK VINA RESULT:     -11.4      0.000      0.000
REMARK SMILES CC1CC[NH+](CC2(CC(=O)OCCOCCOC(=O)c3ccc(-c4c5nc(c(-c6c(F)c(F)c(F)c(F)c6F)c6ccc([nH]6)c(-c6c(F)c(F)c(F)c(F)c6F)c6nc(c(-c7c(F)c(F)c(F)c(F)c7F)c7ccc4[nH]7)C=C6)C=C5)cc3)CCCCC2)CC1
REMARK SMILES IDX 13 1 12 2 11 3 9 4 10 5 8 6 7 7 83 8 87 9 84 10 86 11 85 12
REMARK SMILES IDX 6 13 5 14 1 15 2 16 3 17 89 18 4 19 88 20 14 22 15 23 16 24
REMARK SMILES IDX 17 25 18 26 19 27 20 28 21 29 82 30 22 31 81 32 23 33 24 34
REMARK SMILES IDX 25 35 75 36 26 37 80 38 74 39 76 40 27 41 79 42 73 43 72 44
REMARK SMILES IDX 28 46 60 47 40 48 59 49 41 50 44 51 58 52 77 53 42 54 43 55
REMARK SMILES IDX 57 57 78 58 45 59 29 60 30 61 38 62 31 63 32 64 36 65 39 66
REMARK SMILES IDX 33 67 34 68 37 69 35 70 61 71 62 72 70 73 63 74 64 75 68 76
REMARK SMILES IDX 71 77 65 78 66 79 69 80 67 81 46 82 47 83 55 84 48 85 49 86
REMARK SMILES IDX 53 87 56 88 50 89 51 90 54 91 52 92
REMARK H PARENT 5 21 76 45 44 56
REMARK Flexibility Score: inf
ROOT
ATOM      1  C   UNL A   1      31.162  27.489  26.193  1.00  0.00     0.202 C 
ENDROOT
BRANCH   1   2
ATOM      2  C   UNL A   1      32.231  26.409  26.382  1.00  0.00     0.261 C 
BRANCH   2   3
ATOM      3  O   UNL A   1      31.628  25.164  26.789  1.00  0.00    -0.463 OA
BRANCH   3   4
ATOM      4  C   UNL A   1      32.167  24.019  26.314  1.00  0.00     0.306 C 
ATOM      5  O   UNL A   1      31.962  22.908  26.788  1.00  0.00    -0.252 OA
BRANCH   4   6
ATOM      6  C   UNL A   1      33.142  24.248  25.177  1.00  0.00     0.135 C 
BRANCH   6   7
ATOM      7  C   UNL A   1      32.866  23.771  23.701  1.00  0.00     0.030 C 
ATOM      8  C   UNL A   1      33.600  24.792  22.789  1.00  0.00     0.013 C 
ATOM      9  C   UNL A   1      31.358  23.781  23.348  1.00  0.00     0.013 C 
ATOM     10  C   UNL A   1      32.969  26.183  22.740  1.00  0.00     0.001 C 
ATOM     11  C   UNL A   1      30.736  25.174  23.335  1.00  0.00     0.001 C 
ATOM     12  C   UNL A   1      31.490  26.100  22.385  1.00  0.00     0.000 C 
BRANCH   7  13
ATOM     13  C   UNL A   1      33.483  22.336  23.471  1.00  0.00     0.269 C 
BRANCH  13  14
ATOM     14  N   UNL A   1      33.420  21.285  24.481  1.00  0.00    -0.334 N 
ATOM     15  C   UNL A   1      34.266  17.263  23.635  1.00  0.00     0.008 C 
ATOM     16  C   UNL A   1      33.850  18.390  24.594  1.00  0.00    -0.003 C 
ATOM     17  C   UNL A   1      32.549  19.021  24.079  1.00  0.00     0.065 C 
ATOM     18  C   UNL A   1      35.017  19.381  24.771  1.00  0.00     0.065 C 
ATOM     19  C   UNL A   1      32.274  20.419  24.626  1.00  0.00     0.262 C 
ATOM     20  C   UNL A   1      34.615  20.810  25.150  1.00  0.00     0.262 C 
ATOM     21  H   UNL A   1      33.123  22.109  25.003  1.00  0.00     0.348 HD
ENDBRANCH  13  14
ENDBRANCH   7  13
ENDBRANCH   6   7
ENDBRANCH   4   6
ENDBRANCH   3   4
ENDBRANCH   2   3
ENDBRANCH   1   2
BRANCH   1  22
ATOM     22  O   UNL A   1      31.478  28.463  25.194  1.00  0.00    -0.374 OA
BRANCH  22  23
ATOM     23  C   UNL A   1      32.544  29.357  25.513  1.00  0.00     0.202 C 
BRANCH  23  24
ATOM     24  C   UNL A   1      32.087  30.674  26.144  1.00  0.00     0.261 C 
BRANCH  24  25
ATOM     25  O   UNL A   1      32.656  30.829  27.458  1.00  0.00    -0.460 OA
BRANCH  25  26
ATOM     26  C   UNL A   1      33.420  31.934  27.606  1.00  0.00     0.338 C 
ATOM     27  O   UNL A   1      33.048  33.095  27.621  1.00  0.00    -0.246 OA
BRANCH  26  28
ATOM     28  C   UNL A   1      34.813  31.561  27.918  1.00  0.00     0.060 A 
ATOM     29  C   UNL A   1      35.040  30.217  28.232  1.00  0.00     0.016 A 
ATOM     30  C   UNL A   1      35.850  32.494  28.004  1.00  0.00     0.016 A 
ATOM     31  C   UNL A   1      36.284  29.814  28.707  1.00  0.00     0.010 A 
ATOM     32  C   UNL A   1      37.105  32.085  28.480  1.00  0.00     0.010 A 
ATOM     33  C   UNL A   1      37.312  30.752  28.878  1.00  0.00    -0.014 A 
BRANCH  33  34
ATOM     34  C   UNL A   1      38.536  30.319  29.601  1.00  0.00     0.031 A 
ATOM     35  C   UNL A   1      38.752  30.758  31.025  1.00  0.00     0.074 A 
ATOM     36  C   UNL A   1      39.388  29.444  29.037  1.00  0.00     0.049 A 
ATOM     37  N   UNL A   1      39.666  30.377  31.881  1.00  0.00    -0.248 NA
ATOM     38  C   UNL A   1      37.807  31.752  31.557  1.00  0.00     0.031 C 
ATOM     39  C   UNL A   1      39.280  28.922  27.675  1.00  0.00     0.029 A 
ATOM     40  N   UNL A   1      40.498  28.821  29.551  1.00  0.00    -0.354 N 
ATOM     41  C   UNL A   1      39.400  31.073  33.053  1.00  0.00     0.074 A 
ATOM     42  C   UNL A   1      38.268  31.933  32.787  1.00  0.00     0.031 C 
ATOM     43  C   UNL A   1      40.273  28.043  27.467  1.00  0.00     0.029 A 
ATOM     44  C   UNL A   1      41.095  27.950  28.672  1.00  0.00     0.049 A 
ATOM     45  H   UNL A   1      40.833  28.982  30.461  1.00  0.00     0.167 HD
ATOM     46  C   UNL A   1      40.030  30.989  34.251  1.00  0.00     0.037 A 
ATOM     47  C   UNL A   1      42.180  27.165  28.825  1.00  0.00     0.037 A 
ATOM     48  C   UNL A   1      41.154  30.132  34.524  1.00  0.00     0.049 A 
ATOM     49  C   UNL A   1      42.895  27.131  30.150  1.00  0.00     0.074 A 
ATOM     50  C   UNL A   1      41.836  29.958  35.717  1.00  0.00     0.029 A 
ATOM     51  N   UNL A   1      41.768  29.312  33.590  1.00  0.00    -0.354 N 
ATOM     52  N   UNL A   1      42.604  27.755  31.266  1.00  0.00    -0.248 NA
ATOM     53  C   UNL A   1      44.086  26.275  30.237  1.00  0.00     0.031 C 
ATOM     54  C   UNL A   1      42.895  29.071  35.491  1.00  0.00     0.029 A 
ATOM     55  C   UNL A   1      42.841  28.654  34.171  1.00  0.00     0.049 A 
ATOM     56  H   UNL A   1      41.484  29.211  32.653  1.00  0.00     0.167 HD
ATOM     57  C   UNL A   1      43.558  27.352  32.190  1.00  0.00     0.074 A 
ATOM     58  C   UNL A   1      44.427  26.412  31.511  1.00  0.00     0.031 C 
ATOM     59  C   UNL A   1      43.703  27.726  33.486  1.00  0.00     0.037 A 
BRANCH  46  60
ATOM     60  C   UNL A   1      39.524  31.863  35.361  1.00  0.00     0.064 A 
ATOM     61  C   UNL A   1      38.584  31.397  36.292  1.00  0.00     0.173 A 
ATOM     62  C   UNL A   1      40.020  33.164  35.523  1.00  0.00     0.173 A 
ATOM     63  F   UNL A   1      38.070  30.163  36.174  1.00  0.00    -0.203 F 
ATOM     64  C   UNL A   1      38.142  32.212  37.331  1.00  0.00     0.198 A 
ATOM     65  C   UNL A   1      39.597  33.967  36.578  1.00  0.00     0.198 A 
ATOM     66  F   UNL A   1      40.926  33.655  34.663  1.00  0.00    -0.203 F 
ATOM     67  F   UNL A   1      37.214  31.761  38.186  1.00  0.00    -0.200 F 
ATOM     68  C   UNL A   1      38.654  33.493  37.478  1.00  0.00     0.200 A 
ATOM     69  F   UNL A   1      40.101  35.200  36.726  1.00  0.00    -0.200 F 
ATOM     70  F   UNL A   1      38.234  34.272  38.485  1.00  0.00    -0.200 F 
ENDBRANCH  46  60
BRANCH  47  71
ATOM     71  C   UNL A   1      42.655  26.335  27.689  1.00  0.00     0.064 A 
ATOM     72  C   UNL A   1      43.611  26.819  26.784  1.00  0.00     0.173 A 
ATOM     73  C   UNL A   1      42.147  25.045  27.475  1.00  0.00     0.173 A 
ATOM     74  F   UNL A   1      44.105  28.057  26.933  1.00  0.00    -0.203 F 
ATOM     75  C   UNL A   1      44.029  26.050  25.701  1.00  0.00     0.198 A 
ATOM     76  C   UNL A   1      42.587  24.267  26.407  1.00  0.00     0.198 A 
ATOM     77  F   UNL A   1      41.229  24.538  28.310  1.00  0.00    -0.203 F 
ATOM     78  F   UNL A   1      44.910  26.552  24.826  1.00  0.00    -0.200 F 
ATOM     79  C   UNL A   1      43.521  24.772  25.516  1.00  0.00     0.200 A 
ATOM     80  F   UNL A   1      42.101  23.029  26.239  1.00  0.00    -0.200 F 
ATOM     81  F   UNL A   1      43.927  24.032  24.476  1.00  0.00    -0.200 F 
ENDBRANCH  47  71
BRANCH  59  82
ATOM     82  C   UNL A   1      44.836  27.111  34.258  1.00  0.00     0.064 A 
ATOM     83  C   UNL A   1      44.702  25.866  34.891  1.00  0.00     0.173 A 
ATOM     84  C   UNL A   1      46.076  27.760  34.342  1.00  0.00     0.173 A 
ATOM     85  F   UNL A   1      43.531  25.212  34.851  1.00  0.00    -0.203 F 
ATOM     86  C   UNL A   1      45.760  25.308  35.605  1.00  0.00     0.198 A 
ATOM     87  C   UNL A   1      47.141  27.186  35.032  1.00  0.00     0.198 A 
ATOM     88  F   UNL A   1      46.261  28.949  33.748  1.00  0.00    -0.203 F 
ATOM     89  F   UNL A   1      45.592  24.142  36.244  1.00  0.00    -0.200 F 
ATOM     90  C   UNL A   1      46.979  25.965  35.670  1.00  0.00     0.200 A 
ATOM     91  F   UNL A   1      48.323  27.815  35.083  1.00  0.00    -0.200 F 
ATOM     92  F   UNL A   1      47.996  25.425  36.355  1.00  0.00    -0.200 F 
ENDBRANCH  59  82
ENDBRANCH  33  34
ENDBRANCH  26  28
ENDBRANCH  25  26
ENDBRANCH  24  25
ENDBRANCH  23  24
ENDBRANCH  22  23
ENDBRANCH   1  22
TORSDOF 17
ENDMDL
MODEL 2
REMARK VINA RESULT:     -11.1      4.364     10.070
REMARK SMILES CC1CC[NH+](CC2(CC(=O)OCCOCCOC(=O)c3ccc(-c4c5nc(c(-c6c(F)c(F)c(F)c(F)c6F)c6ccc([nH]6)c(-c6c(F)c(F)c(F)c(F)c6F)c6nc(c(-c7c(F)c(F)c(F)c(F)c7F)c7ccc4[nH]7)C=C6)C=C5)cc3)CCCCC2)CC1
REMARK SMILES IDX 13 1 12 2 11 3 9 4 10 5 8 6 7 7 83 8 87 9 84 10 86 11 85 12
REMARK SMILES IDX 6 13 5 14 1 15 2 16 3 17 89 18 4 19 88 20 14 22 15 23 16 24
REMARK SMILES IDX 17 25 18 26 19 27 20 28 21 29 82 30 22 31 81 32 23 33 24 34
REMARK SMILES IDX 25 35 75 36 26 37 80 38 74 39 76 40 27 41 79 42 73 43 72 44
REMARK SMILES IDX 28 46 60 47 40 48 59 49 41 50 44 51 58 52 77 53 42 54 43 55
REMARK SMILES IDX 57 57 78 58 45 59 29 60 30 61 38 62 31 63 32 64 36 65 39 66
REMARK SMILES IDX 33 67 34 68 37 69 35 70 61 71 62 72 70 73 63 74 64 75 68 76
REMARK SMILES IDX 71 77 65 78 66 79 69 80 67 81 46 82 47 83 55 84 48 85 49 86
REMARK SMILES IDX 53 87 56 88 50 89 51 90 54 91 52 92
REMARK H PARENT 5 21 76 45 44 56
REMARK Flexibility Score: inf
ROOT
ATOM      1  C   UNL A   1      35.139  23.935  24.278  1.00  0.00     0.202 C 
ENDROOT
BRANCH   1   2
ATOM      2  C   UNL A   1      34.374  25.203  24.669  1.00  0.00     0.261 C 
BRANCH   2   3
ATOM      3  O   UNL A   1      33.196  25.358  23.851  1.00  0.00    -0.463 OA
BRANCH   3   4
ATOM      4  C   UNL A   1      33.083  26.488  23.120  1.00  0.00     0.306 C 
ATOM      5  O   UNL A   1      33.041  26.521  21.896  1.00  0.00    -0.252 OA
BRANCH   4   6
ATOM      6  C   UNL A   1      33.107  27.747  23.963  1.00  0.00     0.135 C 
BRANCH   6   7
ATOM      7  C   UNL A   1      31.800  28.453  24.490  1.00  0.00     0.030 C 
ATOM      8  C   UNL A   1      32.283  29.501  25.530  1.00  0.00     0.013 C 
ATOM      9  C   UNL A   1      30.835  27.463  25.189  1.00  0.00     0.013 C 
ATOM     10  C   UNL A   1      32.813  28.915  26.837  1.00  0.00     0.001 C 
ATOM     11  C   UNL A   1      31.393  26.863  26.476  1.00  0.00     0.001 C 
ATOM     12  C   UNL A   1      31.802  27.958  27.457  1.00  0.00     0.000 C 
BRANCH   7  13
ATOM     13  C   UNL A   1      31.072  29.199  23.304  1.00  0.00     0.269 C 
BRANCH  13  14
ATOM     14  N   UNL A   1      29.728  29.752  23.434  1.00  0.00    -0.334 N 
ATOM     15  C   UNL A   1      28.029  32.300  20.566  1.00  0.00     0.008 C 
ATOM     16  C   UNL A   1      27.981  31.528  21.894  1.00  0.00    -0.003 C 
ATOM     17  C   UNL A   1      29.102  32.045  22.807  1.00  0.00     0.065 C 
ATOM     18  C   UNL A   1      28.027  30.012  21.617  1.00  0.00     0.065 C 
ATOM     19  C   UNL A   1      29.484  31.085  23.930  1.00  0.00     0.262 C 
ATOM     20  C   UNL A   1      28.598  29.154  22.750  1.00  0.00     0.262 C 
ATOM     21  H   UNL A   1      29.834  29.226  24.301  1.00  0.00     0.348 HD
ENDBRANCH  13  14
ENDBRANCH   7  13
ENDBRANCH   6   7
ENDBRANCH   4   6
ENDBRANCH   3   4
ENDBRANCH   2   3
ENDBRANCH   1   2
BRANCH   1  22
ATOM     22  O   UNL A   1      34.627  22.734  24.861  1.00  0.00    -0.374 OA
BRANCH  22  23
ATOM     23  C   UNL A   1      35.489  22.078  25.791  1.00  0.00     0.202 C 
BRANCH  23  24
ATOM     24  C   UNL A   1      36.545  21.182  25.138  1.00  0.00     0.261 C 
BRANCH  24  25
ATOM     25  O   UNL A   1      37.778  21.904  24.957  1.00  0.00    -0.460 OA
BRANCH  25  26
ATOM     26  C   UNL A   1      38.789  21.485  25.751  1.00  0.00     0.338 C 
ATOM     27  O   UNL A   1      39.314  20.385  25.762  1.00  0.00    -0.246 OA
BRANCH  26  28
ATOM     28  C   UNL A   1      39.323  22.609  26.543  1.00  0.00     0.060 A 
ATOM     29  C   UNL A   1      38.756  23.864  26.301  1.00  0.00     0.016 A 
ATOM     30  C   UNL A   1      40.406  22.477  27.417  1.00  0.00     0.016 A 
ATOM     31  C   UNL A   1      39.315  25.002  26.873  1.00  0.00     0.010 A 
ATOM     32  C   UNL A   1      40.967  23.626  27.995  1.00  0.00     0.010 A 
ATOM     33  C   UNL A   1      40.452  24.898  27.687  1.00  0.00    -0.014 A 
BRANCH  33  34
ATOM     34  C   UNL A   1      41.145  26.153  28.081  1.00  0.00     0.031 A 
ATOM     35  C   UNL A   1      42.550  26.405  27.604  1.00  0.00     0.074 A 
ATOM     36  C   UNL A   1      40.486  27.113  28.753  1.00  0.00     0.049 A 
ATOM     37  N   UNL A   1      43.278  27.489  27.704  1.00  0.00    -0.248 NA
ATOM     38  C   UNL A   1      43.222  25.291  26.918  1.00  0.00     0.031 C 
ATOM     39  C   UNL A   1      39.115  27.004  29.249  1.00  0.00     0.029 A 
ATOM     40  N   UNL A   1      40.876  28.380  29.112  1.00  0.00    -0.354 N 
ATOM     41  C   UNL A   1      44.485  27.193  27.085  1.00  0.00     0.074 A 
ATOM     42  C   UNL A   1      44.411  25.815  26.651  1.00  0.00     0.031 C 
ATOM     43  C   UNL A   1      38.770  28.164  29.833  1.00  0.00     0.029 A 
ATOM     44  C   UNL A   1      39.899  29.091  29.765  1.00  0.00     0.049 A 
ATOM     45  H   UNL A   1      41.769  28.743  28.919  1.00  0.00     0.167 HD
ATOM     46  C   UNL A   1      45.553  28.002  26.877  1.00  0.00     0.037 A 
ATOM     47  C   UNL A   1      39.913  30.348  30.249  1.00  0.00     0.037 A 
ATOM     48  C   UNL A   1      45.632  29.376  27.301  1.00  0.00     0.049 A 
ATOM     49  C   UNL A   1      41.133  31.209  30.053  1.00  0.00     0.074 A 
ATOM     50  C   UNL A   1      46.661  30.281  27.107  1.00  0.00     0.029 A 
ATOM     51  N   UNL A   1      44.646  30.040  28.015  1.00  0.00    -0.354 N 
ATOM     52  N   UNL A   1      42.249  30.935  29.421  1.00  0.00    -0.248 NA
ATOM     53  C   UNL A   1      41.090  32.560  30.632  1.00  0.00     0.031 C 
ATOM     54  C   UNL A   1      46.319  31.478  27.747  1.00  0.00     0.029 A 
ATOM     55  C   UNL A   1      45.056  31.334  28.296  1.00  0.00     0.049 A 
ATOM     56  H   UNL A   1      43.782  29.650  28.282  1.00  0.00     0.167 HD
ATOM     57  C   UNL A   1      43.029  32.081  29.507  1.00  0.00     0.074 A 
ATOM     58  C   UNL A   1      42.251  33.062  30.234  1.00  0.00     0.031 C 
ATOM     59  C   UNL A   1      44.278  32.301  29.027  1.00  0.00     0.037 A 
BRANCH  46  60
ATOM     60  C   UNL A   1      46.737  27.416  26.167  1.00  0.00     0.064 A 
ATOM     61  C   UNL A   1      46.915  27.568  24.784  1.00  0.00     0.173 A 
ATOM     62  C   UNL A   1      47.730  26.734  26.885  1.00  0.00     0.173 A 
ATOM     63  F   UNL A   1      45.987  28.203  24.050  1.00  0.00    -0.203 F 
ATOM     64  C   UNL A   1      48.031  27.039  24.142  1.00  0.00     0.198 A 
ATOM     65  C   UNL A   1      48.859  26.229  26.245  1.00  0.00     0.198 A 
ATOM     66  F   UNL A   1      47.612  26.567  28.211  1.00  0.00    -0.203 F 
ATOM     67  F   UNL A   1      48.161  27.162  22.814  1.00  0.00    -0.200 F 
ATOM     68  C   UNL A   1      49.006  26.377  24.874  1.00  0.00     0.200 A 
ATOM     69  F   UNL A   1      49.805  25.600  26.955  1.00  0.00    -0.200 F 
ATOM     70  F   UNL A   1      50.085  25.876  24.256  1.00  0.00    -0.200 F 
ENDBRANCH  46  60
BRANCH  47  71
ATOM     71  C   UNL A   1      38.724  30.876  30.965  1.00  0.00     0.064 A 
ATOM     72  C   UNL A   1      38.624  30.804  32.362  1.00  0.00     0.173 A 
ATOM     73  C   UNL A   1      37.652  31.447  30.263  1.00  0.00     0.173 A 
ATOM     74  F   UNL A   1      39.611  30.241  33.075  1.00  0.00    -0.203 F 
ATOM     75  C   UNL A   1      37.491  31.269  33.026  1.00  0.00     0.198 A 
ATOM     76  C   UNL A   1      36.533  31.937  30.930  1.00  0.00     0.198 A 
ATOM     77  F   UNL A   1      37.699  31.537  28.925  1.00  0.00    -0.203 F 
ATOM     78  F   UNL A   1      37.402  31.149  34.357  1.00  0.00    -0.200 F 
ATOM     79  C   UNL A   1      36.450  31.841  32.311  1.00  0.00     0.200 A 
ATOM     80  F   UNL A   1      35.534  32.498  30.235  1.00  0.00    -0.200 F 
ATOM     81  F   UNL A   1      35.363  32.292  32.951  1.00  0.00    -0.200 F 
ENDBRANCH  47  71
BRANCH  59  82
ATOM     82  C   UNL A   1      44.877  33.658  29.262  1.00  0.00     0.064 A 
ATOM     83  C   UNL A   1      44.684  34.713  28.358  1.00  0.00     0.173 A 
ATOM     84  C   UNL A   1      45.629  33.914  30.419  1.00  0.00     0.173 A 
ATOM     85  F   UNL A   1      43.985  34.515  27.230  1.00  0.00    -0.203 F 
ATOM     86  C   UNL A   1      45.247  35.966  28.588  1.00  0.00     0.198 A 
ATOM     87  C   UNL A   1      46.166  35.176  30.660  1.00  0.00     0.198 A 
ATOM     88  F   UNL A   1      45.837  32.943  31.321  1.00  0.00    -0.203 F 
ATOM     89  F   UNL A   1      45.092  36.944  27.685  1.00  0.00    -0.200 F 
ATOM     90  C   UNL A   1      45.982  36.198  29.740  1.00  0.00     0.200 A 
ATOM     91  F   UNL A   1      46.865  35.403  31.781  1.00  0.00    -0.200 F 
ATOM     92  F   UNL A   1      46.521  37.405  29.961  1.00  0.00    -0.200 F 
ENDBRANCH  59  82
ENDBRANCH  33  34
ENDBRANCH  26  28
ENDBRANCH  25  26
ENDBRANCH  24  25
ENDBRANCH  23  24
ENDBRANCH  22  23
ENDBRANCH   1  22
TORSDOF 17
ENDMDL
MODEL 3
REMARK VINA RESULT:     -11.1      4.268      9.877
REMARK SMILES CC1CC[NH+](CC2(CC(=O)OCCOCCOC(=O)c3ccc(-c4c5nc(c(-c6c(F)c(F)c(F)c(F)c6F)c6ccc([nH]6)c(-c6c(F)c(F)c(F)c(F)c6F)c6nc(c(-c7c(F)c(F)c(F)c(F)c7F)c7ccc4[nH]7)C=C6)C=C5)cc3)CCCCC2)CC1
REMARK SMILES IDX 13 1 12 2 11 3 9 4 10 5 8 6 7 7 83 8 87 9 84 10 86 11 85 12
REMARK SMILES IDX 6 13 5 14 1 15 2 16 3 17 89 18 4 19 88 20 14 22 15 23 16 24
REMARK SMILES IDX 17 25 18 26 19 27 20 28 21 29 82 30 22 31 81 32 23 33 24 34
REMARK SMILES IDX 25 35 75 36 26 37 80 38 74 39 76 40 27 41 79 42 73 43 72 44
REMARK SMILES IDX 28 46 60 47 40 48 59 49 41 50 44 51 58 52 77 53 42 54 43 55
REMARK SMILES IDX 57 57 78 58 45 59 29 60 30 61 38 62 31 63 32 64 36 65 39 66
REMARK SMILES IDX 33 67 34 68 37 69 35 70 61 71 62 72 70 73 63 74 64 75 68 76
REMARK SMILES IDX 71 77 65 78 66 79 69 80 67 81 46 82 47 83 55 84 48 85 49 86
REMARK SMILES IDX 53 87 56 88 50 89 51 90 54 91 52 92
REMARK H PARENT 5 21 76 45 44 56
REMARK Flexibility Score: inf
ROOT
ATOM      1  C   UNL A   1      35.307  23.034  26.103  1.00  0.00     0.202 C 
ENDROOT
BRANCH   1   2
ATOM      2  C   UNL A   1      34.191  22.166  26.693  1.00  0.00     0.261 C 
BRANCH   2   3
ATOM      3  O   UNL A   1      32.958  22.368  25.974  1.00  0.00    -0.463 OA
BRANCH   3   4
ATOM      4  C   UNL A   1      32.096  23.293  26.452  1.00  0.00     0.306 C 
ATOM      5  O   UNL A   1      31.757  23.385  27.626  1.00  0.00    -0.252 OA
BRANCH   4   6
ATOM      6  C   UNL A   1      31.503  24.169  25.368  1.00  0.00     0.135 C 
BRANCH   6   7
ATOM      7  C   UNL A   1      31.900  25.682  25.172  1.00  0.00     0.030 C 
ATOM      8  C   UNL A   1      30.630  26.497  25.539  1.00  0.00     0.013 C 
ATOM      9  C   UNL A   1      32.295  26.004  23.709  1.00  0.00     0.013 C 
ATOM     10  C   UNL A   1      29.484  26.392  24.534  1.00  0.00     0.001 C 
ATOM     11  C   UNL A   1      31.147  25.863  22.714  1.00  0.00     0.001 C 
ATOM     12  C   UNL A   1      29.958  26.727  23.126  1.00  0.00     0.000 C 
BRANCH   7  13
ATOM     13  C   UNL A   1      33.066  26.068  26.163  1.00  0.00     0.269 C 
BRANCH  13  14
ATOM     14  N   UNL A   1      33.432  27.454  26.441  1.00  0.00    -0.334 N 
ATOM     15  C   UNL A   1      31.006  30.706  25.374  1.00  0.00     0.008 C 
ATOM     16  C   UNL A   1      32.280  30.108  25.991  1.00  0.00    -0.003 C 
ATOM     17  C   UNL A   1      33.037  29.332  24.905  1.00  0.00     0.065 C 
ATOM     18  C   UNL A   1      31.915  29.278  27.237  1.00  0.00     0.065 C 
ATOM     19  C   UNL A   1      34.033  28.311  25.448  1.00  0.00     0.262 C 
ATOM     20  C   UNL A   1      32.897  28.157  27.591  1.00  0.00     0.262 C 
ATOM     21  H   UNL A   1      34.242  26.939  26.787  1.00  0.00     0.348 HD
ENDBRANCH  13  14
ENDBRANCH   7  13
ENDBRANCH   6   7
ENDBRANCH   4   6
ENDBRANCH   3   4
ENDBRANCH   2   3
ENDBRANCH   1   2
BRANCH   1  22
ATOM     22  O   UNL A   1      36.031  22.418  25.035  1.00  0.00    -0.374 OA
BRANCH  22  23
ATOM     23  C   UNL A   1      36.005  20.991  25.009  1.00  0.00     0.202 C 
BRANCH  23  24
ATOM     24  C   UNL A   1      37.384  20.339  25.133  1.00  0.00     0.261 C 
BRANCH  24  25
ATOM     25  O   UNL A   1      38.413  21.344  25.208  1.00  0.00    -0.460 OA
BRANCH  25  26
ATOM     26  C   UNL A   1      39.432  21.036  26.041  1.00  0.00     0.338 C 
ATOM     27  O   UNL A   1      40.023  19.973  26.126  1.00  0.00    -0.246 OA
BRANCH  26  28
ATOM     28  C   UNL A   1      39.883  22.236  26.771  1.00  0.00     0.060 A 
ATOM     29  C   UNL A   1      39.241  23.436  26.450  1.00  0.00     0.016 A 
ATOM     30  C   UNL A   1      40.958  22.224  27.665  1.00  0.00     0.016 A 
ATOM     31  C   UNL A   1      39.719  24.639  26.960  1.00  0.00     0.010 A 
ATOM     32  C   UNL A   1      41.436  23.438  28.180  1.00  0.00     0.010 A 
ATOM     33  C   UNL A   1      40.847  24.655  27.793  1.00  0.00    -0.014 A 
BRANCH  33  34
ATOM     34  C   UNL A   1      41.453  25.972  28.120  1.00  0.00     0.031 A 
ATOM     35  C   UNL A   1      42.829  26.303  27.607  1.00  0.00     0.074 A 
ATOM     36  C   UNL A   1      40.737  26.911  28.763  1.00  0.00     0.049 A 
ATOM     37  N   UNL A   1      43.479  27.439  27.648  1.00  0.00    -0.248 NA
ATOM     38  C   UNL A   1      43.570  25.211  26.956  1.00  0.00     0.031 C 
ATOM     39  C   UNL A   1      39.386  26.725  29.289  1.00  0.00     0.029 A 
ATOM     40  N   UNL A   1      41.040  28.216  29.060  1.00  0.00    -0.354 N 
ATOM     41  C   UNL A   1      44.694  27.204  27.019  1.00  0.00     0.074 A 
ATOM     42  C   UNL A   1      44.713  25.806  26.645  1.00  0.00     0.031 C 
ATOM     43  C   UNL A   1      38.967  27.882  29.829  1.00  0.00     0.029 A 
ATOM     44  C   UNL A   1      40.025  28.883  29.701  1.00  0.00     0.049 A 
ATOM     45  H   UNL A   1      41.902  28.634  28.836  1.00  0.00     0.167 HD
ATOM     46  C   UNL A   1      45.697  28.078  26.758  1.00  0.00     0.037 A 
ATOM     47  C   UNL A   1      39.955  30.159  30.131  1.00  0.00     0.037 A 
ATOM     48  C   UNL A   1      45.683  29.471  27.122  1.00  0.00     0.049 A 
ATOM     49  C   UNL A   1      41.107  31.095  29.876  1.00  0.00     0.074 A 
ATOM     50  C   UNL A   1      46.641  30.438  26.870  1.00  0.00     0.029 A 
ATOM     51  N   UNL A   1      44.663  30.093  27.824  1.00  0.00    -0.354 N 
ATOM     52  N   UNL A   1      42.229  30.874  29.236  1.00  0.00    -0.248 NA
ATOM     53  C   UNL A   1      40.975  32.463  30.399  1.00  0.00     0.031 C 
ATOM     54  C   UNL A   1      46.223  31.634  27.465  1.00  0.00     0.029 A 
ATOM     55  C   UNL A   1      44.983  31.424  28.043  1.00  0.00     0.049 A 
ATOM     56  H   UNL A   1      43.833  29.655  28.124  1.00  0.00     0.167 HD
ATOM     57  C   UNL A   1      42.926  32.076  29.259  1.00  0.00     0.074 A 
ATOM     58  C   UNL A   1      42.090  33.030  29.959  1.00  0.00     0.031 C 
ATOM     59  C   UNL A   1      44.148  32.364  28.747  1.00  0.00     0.037 A 
BRANCH  46  60
ATOM     60  C   UNL A   1      46.910  27.548  26.051  1.00  0.00     0.064 A 
ATOM     61  C   UNL A   1      47.032  27.608  24.654  1.00  0.00     0.173 A 
ATOM     62  C   UNL A   1      47.982  27.015  26.781  1.00  0.00     0.173 A 
ATOM     63  F   UNL A   1      46.029  28.098  23.909  1.00  0.00    -0.203 F 
ATOM     64  C   UNL A   1      48.174  27.134  24.014  1.00  0.00     0.198 A 
ATOM     65  C   UNL A   1      49.133  26.566  26.141  1.00  0.00     0.198 A 
ATOM     66  F   UNL A   1      47.918  26.941  28.120  1.00  0.00    -0.203 F 
ATOM     67  F   UNL A   1      48.253  27.164  22.677  1.00  0.00    -0.200 F 
ATOM     68  C   UNL A   1      49.227  26.621  24.758  1.00  0.00     0.200 A 
ATOM     69  F   UNL A   1      50.154  26.081  26.861  1.00  0.00    -0.200 F 
ATOM     70  F   UNL A   1      50.329  26.172  24.141  1.00  0.00    -0.200 F 
ENDBRANCH  46  60
BRANCH  47  71
ATOM     71  C   UNL A   1      38.742  30.630  30.847  1.00  0.00     0.064 A 
ATOM     72  C   UNL A   1      37.637  31.137  30.149  1.00  0.00     0.173 A 
ATOM     73  C   UNL A   1      38.672  30.600  32.247  1.00  0.00     0.173 A 
ATOM     74  F   UNL A   1      37.668  31.211  28.810  1.00  0.00    -0.203 F 
ATOM     75  C   UNL A   1      36.515  31.609  30.826  1.00  0.00     0.198 A 
ATOM     76  C   UNL A   1      37.539  31.046  32.922  1.00  0.00     0.198 A 
ATOM     77  F   UNL A   1      39.705  30.126  32.960  1.00  0.00    -0.203 F 
ATOM     78  F   UNL A   1      35.490  32.130  30.138  1.00  0.00    -0.200 F 
ATOM     79  C   UNL A   1      36.464  31.558  32.211  1.00  0.00     0.200 A 
ATOM     80  F   UNL A   1      37.490  30.985  34.259  1.00  0.00    -0.200 F 
ATOM     81  F   UNL A   1      35.382  32.009  32.861  1.00  0.00    -0.200 F 
ENDBRANCH  47  71
BRANCH  59  82
ATOM     82  C   UNL A   1      44.651  33.769  28.914  1.00  0.00     0.064 A 
ATOM     83  C   UNL A   1      44.380  34.764  27.962  1.00  0.00     0.173 A 
ATOM     84  C   UNL A   1      45.388  34.132  30.051  1.00  0.00     0.173 A 
ATOM     85  F   UNL A   1      43.691  34.464  26.850  1.00  0.00    -0.203 F 
ATOM     86  C   UNL A   1      44.855  36.062  28.129  1.00  0.00     0.198 A 
ATOM     87  C   UNL A   1      45.836  35.438  30.229  1.00  0.00     0.198 A 
ATOM     88  F   UNL A   1      45.668  33.221  30.996  1.00  0.00    -0.203 F 
ATOM     89  F   UNL A   1      44.627  36.983  27.182  1.00  0.00    -0.200 F 
ATOM     90  C   UNL A   1      45.576  36.400  29.263  1.00  0.00     0.200 A 
ATOM     91  F   UNL A   1      46.522  35.767  31.332  1.00  0.00    -0.200 F 
ATOM     92  F   UNL A   1      46.029  37.651  29.423  1.00  0.00    -0.200 F 
ENDBRANCH  59  82
ENDBRANCH  33  34
ENDBRANCH  26  28
ENDBRANCH  25  26
ENDBRANCH  24  25
ENDBRANCH  23  24
ENDBRANCH  22  23
ENDBRANCH   1  22
TORSDOF 17
ENDMDL
