MODEL 1
REMARK VINA RESULT:     -12.0      0.000      0.000
REMARK SMILES CC(C)CC(=O)Nc1ccc(NC(=O)[C@@H]2CCCC[C@@H]2C(=O)OCCOCCOC(=O)c2ccc(-c3c4nc(c(-c5c(F)c(F)c(F)c(F)c5F)c5ccc([nH]5)c(-c5c(F)c(F)c(F)c(F)c5F)c5nc(c(-c6c(F)c(F)c(F)c(F)c6F)c6ccc3[nH]6)C=C5)C=C4)cc2)cc1
REMARK SMILES IDX 24 1 23 2 21 3 22 4 20 5 15 6 16 7 17 8 19 9 18 10 13 11
REMARK SMILES IDX 12 12 14 14 11 15 8 16 9 17 96 18 10 19 95 20 7 21 5 22 6 23
REMARK SMILES IDX 4 25 2 26 1 27 3 28 25 29 26 30 27 31 28 32 29 33 30 34
REMARK SMILES IDX 31 35 32 36 33 37 94 38 34 39 93 40 35 41 36 42 37 43 87 44
REMARK SMILES IDX 38 45 92 46 86 47 88 48 39 49 91 50 85 51 84 52 40 54 72 55
REMARK SMILES IDX 52 56 71 57 53 58 56 59 70 60 89 61 54 62 55 63 69 65 90 66
REMARK SMILES IDX 57 67 41 68 42 69 50 70 43 71 44 72 48 73 51 74 45 75 46 76
REMARK SMILES IDX 49 77 47 78 73 79 74 80 82 81 75 82 76 83 80 84 83 85 77 86
REMARK SMILES IDX 78 87 81 88 79 89 58 90 59 91 67 92 60 93 61 94 65 95 68 96
REMARK SMILES IDX 62 97 63 98 66 99 64 100
REMARK H PARENT 12 13 7 24 88 53 56 64
REMARK Flexibility Score: inf
ROOT
ATOM      1  C   UNL A   1      34.104  29.197  26.688  1.00  0.00     0.261 C 
ENDROOT
BRANCH   1   2
ATOM      2  O   UNL A   1      33.966  27.831  26.264  1.00  0.00    -0.463 OA
BRANCH   2   3
ATOM      3  C   UNL A   1      33.688  27.654  24.935  1.00  0.00     0.309 C 
ATOM      4  O   UNL A   1      34.060  28.401  24.045  1.00  0.00    -0.252 OA
BRANCH   3   5
ATOM      5  C   UNL A   1      32.885  26.371  24.747  1.00  0.00     0.111 C 
ATOM      6  C   UNL A   1      32.291  26.157  23.339  1.00  0.00     0.093 C 
ATOM      7  C   UNL A   1      31.308  27.281  22.974  1.00  0.00     0.014 C 
ATOM      8  C   UNL A   1      30.191  27.377  24.014  1.00  0.00     0.001 C 
ATOM      9  C   UNL A   1      31.735  26.326  25.760  1.00  0.00     0.016 C 
ATOM     10  C   UNL A   1      30.687  27.396  25.463  1.00  0.00     0.001 C 
BRANCH   6  11
ATOM     11  C   UNL A   1      33.314  25.881  22.252  1.00  0.00     0.228 C 
ATOM     12  N   UNL A   1      33.769  24.623  21.976  1.00  0.00    -0.326 N 
ATOM     13  H   UNL A   1      34.365  24.604  21.193  1.00  0.00     0.169 HD
ATOM     14  O   UNL A   1      33.773  26.791  21.556  1.00  0.00    -0.274 OA
BRANCH  12  15
ATOM     15  C   UNL A   1      33.591  23.348  22.542  1.00  0.00     0.041 A 
ATOM     16  C   UNL A   1      33.101  21.178  24.261  1.00  0.00     0.041 A 
ATOM     17  C   UNL A   1      32.300  21.371  23.143  1.00  0.00     0.028 A 
ATOM     18  C   UNL A   1      34.273  21.913  24.360  1.00  0.00     0.028 A 
ATOM     19  C   UNL A   1      32.559  22.448  22.279  1.00  0.00     0.028 A 
ATOM     20  C   UNL A   1      34.519  22.997  23.521  1.00  0.00     0.028 A 
BRANCH  16  21
ATOM     21  N   UNL A   1      32.742  20.236  25.233  1.00  0.00    -0.326 N 
ATOM     22  C   UNL A   1      33.025  18.888  25.272  1.00  0.00     0.224 C 
ATOM     23  O   UNL A   1      32.395  18.168  26.051  1.00  0.00    -0.275 OA
ATOM     24  H   UNL A   1      32.217  20.583  25.990  1.00  0.00     0.169 HD
BRANCH  22  25
ATOM     25  C   UNL A   1      34.263  18.357  24.550  1.00  0.00     0.103 C 
BRANCH  25  26
ATOM     26  C   UNL A   1      34.031  17.317  23.441  1.00  0.00    -0.008 C 
ATOM     27  C   UNL A   1      33.771  15.914  23.993  1.00  0.00     0.008 C 
ATOM     28  C   UNL A   1      32.817  17.717  22.594  1.00  0.00     0.008 C 
ENDBRANCH  25  26
ENDBRANCH  22  25
ENDBRANCH  16  21
ENDBRANCH  12  15
ENDBRANCH   6  11
ENDBRANCH   3   5
ENDBRANCH   2   3
ENDBRANCH   1   2
BRANCH   1  29
ATOM     29  C   UNL A   1      32.805  29.790  27.241  1.00  0.00     0.202 C 
BRANCH  29  30
ATOM     30  O   UNL A   1      32.056  30.646  26.388  1.00  0.00    -0.374 OA
BRANCH  30  31
ATOM     31  C   UNL A   1      31.701  31.939  26.868  1.00  0.00     0.202 C 
BRANCH  31  32
ATOM     32  C   UNL A   1      32.829  32.828  27.393  1.00  0.00     0.261 C 
BRANCH  32  33
ATOM     33  O   UNL A   1      32.392  34.145  27.788  1.00  0.00    -0.460 OA
BRANCH  33  34
ATOM     34  C   UNL A   1      33.125  34.703  28.779  1.00  0.00     0.338 C 
ATOM     35  O   UNL A   1      32.815  35.657  29.485  1.00  0.00    -0.246 OA
BRANCH  34  36
ATOM     36  C   UNL A   1      34.342  33.927  29.051  1.00  0.00     0.060 A 
ATOM     37  C   UNL A   1      34.205  32.794  29.864  1.00  0.00     0.016 A 
ATOM     38  C   UNL A   1      35.606  34.371  28.655  1.00  0.00     0.016 A 
ATOM     39  C   UNL A   1      35.335  32.120  30.312  1.00  0.00     0.010 A 
ATOM     40  C   UNL A   1      36.742  33.695  29.116  1.00  0.00     0.010 A 
ATOM     41  C   UNL A   1      36.612  32.585  29.969  1.00  0.00    -0.014 A 
BRANCH  41  42
ATOM     42  C   UNL A   1      37.795  31.948  30.593  1.00  0.00     0.031 A 
ATOM     43  C   UNL A   1      38.206  32.342  31.982  1.00  0.00     0.074 A 
ATOM     44  C   UNL A   1      38.454  30.977  29.937  1.00  0.00     0.049 A 
ATOM     45  N   UNL A   1      39.172  31.868  32.728  1.00  0.00    -0.248 NA
ATOM     46  C   UNL A   1      37.422  33.410  32.621  1.00  0.00     0.031 C 
ATOM     47  C   UNL A   1      38.123  30.494  28.597  1.00  0.00     0.029 A 
ATOM     48  N   UNL A   1      39.533  30.217  30.312  1.00  0.00    -0.354 N 
ATOM     49  C   UNL A   1      39.109  32.573  33.923  1.00  0.00     0.074 A 
ATOM     50  C   UNL A   1      38.030  33.530  33.792  1.00  0.00     0.031 C 
ATOM     51  C   UNL A   1      38.982  29.519  28.260  1.00  0.00     0.029 A 
ATOM     52  C   UNL A   1      39.935  29.324  29.351  1.00  0.00     0.049 A 
ATOM     53  H   UNL A   1      39.976  30.305  31.187  1.00  0.00     0.167 HD
ATOM     54  C   UNL A   1      39.874  32.425  35.031  1.00  0.00     0.037 A 
ATOM     55  C   UNL A   1      40.965  28.455  29.350  1.00  0.00     0.037 A 
ATOM     56  C   UNL A   1      40.949  31.474  35.150  1.00  0.00     0.049 A 
ATOM     57  C   UNL A   1      41.836  28.352  30.573  1.00  0.00     0.074 A 
ATOM     58  C   UNL A   1      41.775  31.235  36.234  1.00  0.00     0.029 A 
ATOM     59  N   UNL A   1      41.353  30.612  34.141  1.00  0.00    -0.354 N 
ATOM     60  N   UNL A   1      41.745  28.995  31.712  1.00  0.00    -0.248 NA
ATOM     61  C   UNL A   1      42.950  27.395  30.513  1.00  0.00     0.031 C 
ATOM     62  C   UNL A   1      42.709  30.259  35.865  1.00  0.00     0.029 A 
ATOM     63  C   UNL A   1      42.433  29.857  34.567  1.00  0.00     0.049 A 
ATOM     64  H   UNL A   1      40.933  30.546  33.253  1.00  0.00     0.167 HD
ATOM     65  C   UNL A   1      42.770  28.508  32.510  1.00  0.00     0.074 A 
ATOM     66  C   UNL A   1      43.463  27.503  31.731  1.00  0.00     0.031 C 
ATOM     67  C   UNL A   1      43.108  28.860  33.775  1.00  0.00     0.037 A 
BRANCH  54  68
ATOM     68  C   UNL A   1      39.590  33.328  36.195  1.00  0.00     0.064 A 
ATOM     69  C   UNL A   1      40.232  34.567  36.339  1.00  0.00     0.173 A 
ATOM     70  C   UNL A   1      38.640  32.966  37.162  1.00  0.00     0.173 A 
ATOM     71  F   UNL A   1      41.157  34.956  35.448  1.00  0.00    -0.203 F 
ATOM     72  C   UNL A   1      39.950  35.400  37.419  1.00  0.00     0.198 A 
ATOM     73  C   UNL A   1      38.342  33.813  38.227  1.00  0.00     0.198 A 
ATOM     74  F   UNL A   1      37.993  31.795  37.068  1.00  0.00    -0.203 F 
ATOM     75  F   UNL A   1      40.605  36.561  37.558  1.00  0.00    -0.200 F 
ATOM     76  C   UNL A   1      39.001  35.024  38.359  1.00  0.00     0.200 A 
ATOM     77  F   UNL A   1      37.416  33.453  39.127  1.00  0.00    -0.200 F 
ATOM     78  F   UNL A   1      38.727  35.829  39.395  1.00  0.00    -0.200 F 
ENDBRANCH  54  68
BRANCH  55  79
ATOM     79  C   UNL A   1      41.221  27.617  28.151  1.00  0.00     0.064 A 
ATOM     80  C   UNL A   1      41.996  28.093  27.085  1.00  0.00     0.173 A 
ATOM     81  C   UNL A   1      40.696  26.321  28.049  1.00  0.00     0.173 A 
ATOM     82  F   UNL A   1      42.502  29.334  27.126  1.00  0.00    -0.203 F 
ATOM     83  C   UNL A   1      42.225  27.308  25.956  1.00  0.00     0.198 A 
ATOM     84  C   UNL A   1      40.947  25.527  26.932  1.00  0.00     0.198 A 
ATOM     85  F   UNL A   1      39.948  25.819  29.043  1.00  0.00    -0.203 F 
ATOM     86  F   UNL A   1      42.936  27.800  24.934  1.00  0.00    -0.200 F 
ATOM     87  C   UNL A   1      41.706  26.024  25.883  1.00  0.00     0.200 A 
ATOM     88  F   UNL A   1      40.455  24.282  26.873  1.00  0.00    -0.200 F 
ATOM     89  F   UNL A   1      41.932  25.267  24.801  1.00  0.00    -0.200 F 
ENDBRANCH  55  79
BRANCH  67  90
ATOM     90  C   UNL A   1      44.263  28.136  34.403  1.00  0.00     0.064 A 
ATOM     91  C   UNL A   1      44.087  26.919  35.077  1.00  0.00     0.173 A 
ATOM     92  C   UNL A   1      45.566  28.647  34.295  1.00  0.00     0.173 A 
ATOM     93  F   UNL A   1      42.858  26.398  35.220  1.00  0.00    -0.203 F 
ATOM     94  C   UNL A   1      45.170  26.251  35.641  1.00  0.00     0.198 A 
ATOM     95  C   UNL A   1      46.650  27.962  34.836  1.00  0.00     0.198 A 
ATOM     96  F   UNL A   1      45.787  29.804  33.654  1.00  0.00    -0.203 F 
ATOM     97  F   UNL A   1      44.973  25.112  36.320  1.00  0.00    -0.200 F 
ATOM     98  C   UNL A   1      46.451  26.769  35.514  1.00  0.00     0.200 A 
ATOM     99  F   UNL A   1      47.887  28.458  34.702  1.00  0.00    -0.200 F 
ATOM    100  F   UNL A   1      47.493  26.121  36.052  1.00  0.00    -0.200 F 
ENDBRANCH  67  90
ENDBRANCH  41  42
ENDBRANCH  34  36
ENDBRANCH  33  34
ENDBRANCH  32  33
ENDBRANCH  31  32
ENDBRANCH  30  31
ENDBRANCH  29  30
ENDBRANCH   1  29
TORSDOF 19
ENDMDL
MODEL 2
REMARK VINA RESULT:     -12.0      0.952      7.119
REMARK SMILES CC(C)CC(=O)Nc1ccc(NC(=O)[C@@H]2CCCC[C@@H]2C(=O)OCCOCCOC(=O)c2ccc(-c3c4nc(c(-c5c(F)c(F)c(F)c(F)c5F)c5ccc([nH]5)c(-c5c(F)c(F)c(F)c(F)c5F)c5nc(c(-c6c(F)c(F)c(F)c(F)c6F)c6ccc3[nH]6)C=C5)C=C4)cc2)cc1
REMARK SMILES IDX 24 1 23 2 21 3 22 4 20 5 15 6 16 7 17 8 19 9 18 10 13 11
REMARK SMILES IDX 12 12 14 14 11 15 8 16 9 17 96 18 10 19 95 20 7 21 5 22 6 23
REMARK SMILES IDX 4 25 2 26 1 27 3 28 25 29 26 30 27 31 28 32 29 33 30 34
REMARK SMILES IDX 31 35 32 36 33 37 94 38 34 39 93 40 35 41 36 42 37 43 87 44
REMARK SMILES IDX 38 45 92 46 86 47 88 48 39 49 91 50 85 51 84 52 40 54 72 55
REMARK SMILES IDX 52 56 71 57 53 58 56 59 70 60 89 61 54 62 55 63 69 65 90 66
REMARK SMILES IDX 57 67 41 68 42 69 50 70 43 71 44 72 48 73 51 74 45 75 46 76
REMARK SMILES IDX 49 77 47 78 73 79 74 80 82 81 75 82 76 83 80 84 83 85 77 86
REMARK SMILES IDX 78 87 81 88 79 89 58 90 59 91 67 92 60 93 61 94 65 95 68 96
REMARK SMILES IDX 62 97 63 98 66 99 64 100
REMARK H PARENT 12 13 7 24 88 53 56 64
REMARK Flexibility Score: inf
ROOT
ATOM      1  C   UNL A   1      34.293  29.225  26.487  1.00  0.00     0.261 C 
ENDROOT
BRANCH   1   2
ATOM      2  O   UNL A   1      33.961  27.875  26.121  1.00  0.00    -0.463 OA
BRANCH   2   3
ATOM      3  C   UNL A   1      33.691  27.676  24.794  1.00  0.00     0.309 C 
ATOM      4  O   UNL A   1      34.082  28.399  23.892  1.00  0.00    -0.252 OA
BRANCH   3   5
ATOM      5  C   UNL A   1      32.867  26.404  24.626  1.00  0.00     0.111 C 
ATOM      6  C   UNL A   1      32.277  26.173  23.219  1.00  0.00     0.093 C 
ATOM      7  C   UNL A   1      31.315  27.306  22.827  1.00  0.00     0.014 C 
ATOM      8  C   UNL A   1      30.194  27.440  23.858  1.00  0.00     0.001 C 
ATOM      9  C   UNL A   1      31.712  26.396  25.632  1.00  0.00     0.016 C 
ATOM     10  C   UNL A   1      30.682  27.478  25.310  1.00  0.00     0.001 C 
BRANCH   6  11
ATOM     11  C   UNL A   1      33.301  25.859  22.143  1.00  0.00     0.228 C 
ATOM     12  N   UNL A   1      33.777  24.596  21.929  1.00  0.00    -0.326 N 
ATOM     13  H   UNL A   1      34.371  24.549  21.145  1.00  0.00     0.169 HD
ATOM     14  O   UNL A   1      33.742  26.740  21.399  1.00  0.00    -0.274 OA
BRANCH  12  15
ATOM     15  C   UNL A   1      33.622  23.350  22.560  1.00  0.00     0.041 A 
ATOM     16  C   UNL A   1      33.235  21.261  24.400  1.00  0.00     0.041 A 
ATOM     17  C   UNL A   1      32.350  21.425  23.344  1.00  0.00     0.028 A 
ATOM     18  C   UNL A   1      34.424  21.973  24.374  1.00  0.00     0.028 A 
ATOM     19  C   UNL A   1      32.556  22.461  22.418  1.00  0.00     0.028 A 
ATOM     20  C   UNL A   1      34.620  23.018  23.475  1.00  0.00     0.028 A 
BRANCH  16  21
ATOM     21  N   UNL A   1      32.939  20.365  25.437  1.00  0.00    -0.326 N 
ATOM     22  C   UNL A   1      32.988  18.989  25.426  1.00  0.00     0.224 C 
ATOM     23  O   UNL A   1      32.428  18.364  26.330  1.00  0.00    -0.275 OA
ATOM     24  H   UNL A   1      32.660  20.775  26.287  1.00  0.00     0.169 HD
BRANCH  22  25
ATOM     25  C   UNL A   1      33.929  18.276  24.455  1.00  0.00     0.103 C 
BRANCH  25  26
ATOM     26  C   UNL A   1      33.289  17.302  23.450  1.00  0.00    -0.008 C 
ATOM     27  C   UNL A   1      32.452  18.017  22.387  1.00  0.00     0.008 C 
ATOM     28  C   UNL A   1      34.381  16.505  22.727  1.00  0.00     0.008 C 
ENDBRANCH  25  26
ENDBRANCH  22  25
ENDBRANCH  16  21
ENDBRANCH  12  15
ENDBRANCH   6  11
ENDBRANCH   3   5
ENDBRANCH   2   3
ENDBRANCH   1   2
BRANCH   1  29
ATOM     29  C   UNL A   1      33.158  29.945  27.220  1.00  0.00     0.202 C 
BRANCH  29  30
ATOM     30  O   UNL A   1      32.216  30.664  26.433  1.00  0.00    -0.374 OA
BRANCH  30  31
ATOM     31  C   UNL A   1      31.811  31.956  26.872  1.00  0.00     0.202 C 
BRANCH  31  32
ATOM     32  C   UNL A   1      32.735  32.689  27.846  1.00  0.00     0.261 C 
BRANCH  32  33
ATOM     33  O   UNL A   1      32.996  34.059  27.476  1.00  0.00    -0.460 OA
BRANCH  33  34
ATOM     34  C   UNL A   1      33.115  34.907  28.523  1.00  0.00     0.338 C 
ATOM     35  O   UNL A   1      32.365  35.833  28.817  1.00  0.00    -0.246 OA
BRANCH  34  36
ATOM     36  C   UNL A   1      34.207  34.507  29.420  1.00  0.00     0.060 A 
ATOM     37  C   UNL A   1      35.491  34.432  28.864  1.00  0.00     0.016 A 
ATOM     38  C   UNL A   1      33.970  34.071  30.725  1.00  0.00     0.016 A 
ATOM     39  C   UNL A   1      36.537  33.887  29.600  1.00  0.00     0.010 A 
ATOM     40  C   UNL A   1      35.022  33.514  31.461  1.00  0.00     0.010 A 
ATOM     41  C   UNL A   1      36.303  33.394  30.891  1.00  0.00    -0.014 A 
BRANCH  41  42
ATOM     42  C   UNL A   1      37.393  32.672  31.588  1.00  0.00     0.031 A 
ATOM     43  C   UNL A   1      38.059  31.505  30.918  1.00  0.00     0.074 A 
ATOM     44  C   UNL A   1      37.821  33.105  32.786  1.00  0.00     0.049 A 
ATOM     45  N   UNL A   1      39.066  30.776  31.328  1.00  0.00    -0.248 NA
ATOM     46  C   UNL A   1      37.524  31.108  29.606  1.00  0.00     0.031 C 
ATOM     47  C   UNL A   1      37.267  34.246  33.514  1.00  0.00     0.029 A 
ATOM     48  N   UNL A   1      38.826  32.642  33.598  1.00  0.00    -0.354 N 
ATOM     49  C   UNL A   1      39.289  29.840  30.327  1.00  0.00     0.074 A 
ATOM     50  C   UNL A   1      38.292  30.071  29.302  1.00  0.00     0.031 C 
ATOM     51  C   UNL A   1      37.939  34.395  34.667  1.00  0.00     0.029 A 
ATOM     52  C   UNL A   1      38.954  33.348  34.767  1.00  0.00     0.049 A 
ATOM     53  H   UNL A   1      39.399  31.877  33.363  1.00  0.00     0.167 HD
ATOM     54  C   UNL A   1      40.246  28.883  30.265  1.00  0.00     0.037 A 
ATOM     55  C   UNL A   1      39.791  33.162  35.806  1.00  0.00     0.037 A 
ATOM     56  C   UNL A   1      41.229  28.655  31.292  1.00  0.00     0.049 A 
ATOM     57  C   UNL A   1      40.808  32.054  35.737  1.00  0.00     0.074 A 
ATOM     58  C   UNL A   1      42.250  27.722  31.319  1.00  0.00     0.029 A 
ATOM     59  N   UNL A   1      41.304  29.366  32.482  1.00  0.00    -0.354 N 
ATOM     60  N   UNL A   1      41.036  31.199  34.770  1.00  0.00    -0.248 NA
ATOM     61  C   UNL A   1      41.688  31.890  36.902  1.00  0.00     0.031 C 
ATOM     62  C   UNL A   1      42.915  27.837  32.546  1.00  0.00     0.029 A 
ATOM     63  C   UNL A   1      42.338  28.875  33.262  1.00  0.00     0.049 A 
ATOM     64  H   UNL A   1      40.711  30.110  32.734  1.00  0.00     0.167 HD
ATOM     65  C   UNL A   1      42.097  30.412  35.196  1.00  0.00     0.074 A 
ATOM     66  C   UNL A   1      42.478  30.901  36.505  1.00  0.00     0.031 C 
ATOM     67  C   UNL A   1      42.702  29.378  34.563  1.00  0.00     0.037 A 
BRANCH  54  68
ATOM     68  C   UNL A   1      40.261  27.995  29.056  1.00  0.00     0.064 A 
ATOM     69  C   UNL A   1      40.994  28.329  27.907  1.00  0.00     0.173 A 
ATOM     70  C   UNL A   1      39.563  26.778  29.057  1.00  0.00     0.173 A 
ATOM     71  F   UNL A   1      41.671  29.486  27.850  1.00  0.00    -0.203 F 
ATOM     72  C   UNL A   1      41.008  27.488  26.796  1.00  0.00     0.198 A 
ATOM     73  C   UNL A   1      39.600  25.928  27.954  1.00  0.00     0.198 A 
ATOM     74  F   UNL A   1      38.852  26.408  30.132  1.00  0.00    -0.203 F 
ATOM     75  F   UNL A   1      41.682  27.847  25.694  1.00  0.00    -0.200 F 
ATOM     76  C   UNL A   1      40.316  26.287  26.823  1.00  0.00     0.200 A 
ATOM     77  F   UNL A   1      38.940  24.762  27.987  1.00  0.00    -0.200 F 
ATOM     78  F   UNL A   1      40.335  25.477  25.755  1.00  0.00    -0.200 F 
ENDBRANCH  54  68
BRANCH  55  79
ATOM     79  C   UNL A   1      39.701  34.048  36.995  1.00  0.00     0.064 A 
ATOM     80  C   UNL A   1      38.903  33.707  38.095  1.00  0.00     0.173 A 
ATOM     81  C   UNL A   1      40.413  35.255  37.054  1.00  0.00     0.173 A 
ATOM     82  F   UNL A   1      38.186  32.574  38.077  1.00  0.00    -0.203 F 
ATOM     83  C   UNL A   1      38.810  34.546  39.204  1.00  0.00     0.198 A 
ATOM     84  C   UNL A   1      40.341  36.080  38.173  1.00  0.00     0.198 A 
ATOM     85  F   UNL A   1      41.191  35.626  36.026  1.00  0.00    -0.203 F 
ATOM     86  F   UNL A   1      38.010  34.216  40.226  1.00  0.00    -0.200 F 
ATOM     87  C   UNL A   1      39.534  35.728  39.245  1.00  0.00     0.200 A 
ATOM     88  F   UNL A   1      41.053  37.214  38.214  1.00  0.00    -0.200 F 
ATOM     89  F   UNL A   1      39.451  36.532  40.314  1.00  0.00    -0.200 F 
ENDBRANCH  55  79
BRANCH  67  90
ATOM     90  C   UNL A   1      43.854  28.723  35.265  1.00  0.00     0.064 A 
ATOM     91  C   UNL A   1      43.666  27.624  36.116  1.00  0.00     0.173 A 
ATOM     92  C   UNL A   1      45.166  29.175  35.055  1.00  0.00     0.173 A 
ATOM     93  F   UNL A   1      42.428  27.165  36.362  1.00  0.00    -0.203 F 
ATOM     94  C   UNL A   1      44.746  27.016  36.749  1.00  0.00     0.198 A 
ATOM     95  C   UNL A   1      46.247  28.547  35.668  1.00  0.00     0.198 A 
ATOM     96  F   UNL A   1      45.399  30.218  34.246  1.00  0.00    -0.203 F 
ATOM     97  F   UNL A   1      44.539  25.996  37.594  1.00  0.00    -0.200 F 
ATOM     98  C   UNL A   1      46.035  27.474  36.520  1.00  0.00     0.200 A 
ATOM     99  F   UNL A   1      47.492  28.983  35.435  1.00  0.00    -0.200 F 
ATOM    100  F   UNL A   1      47.075  26.883  37.125  1.00  0.00    -0.200 F 
ENDBRANCH  67  90
ENDBRANCH  41  42
ENDBRANCH  34  36
ENDBRANCH  33  34
ENDBRANCH  32  33
ENDBRANCH  31  32
ENDBRANCH  30  31
ENDBRANCH  29  30
ENDBRANCH   1  29
TORSDOF 19
ENDMDL
MODEL 3
REMARK VINA RESULT:     -12.0      0.546      7.153
REMARK SMILES CC(C)CC(=O)Nc1ccc(NC(=O)[C@@H]2CCCC[C@@H]2C(=O)OCCOCCOC(=O)c2ccc(-c3c4nc(c(-c5c(F)c(F)c(F)c(F)c5F)c5ccc([nH]5)c(-c5c(F)c(F)c(F)c(F)c5F)c5nc(c(-c6c(F)c(F)c(F)c(F)c6F)c6ccc3[nH]6)C=C5)C=C4)cc2)cc1
REMARK SMILES IDX 24 1 23 2 21 3 22 4 20 5 15 6 16 7 17 8 19 9 18 10 13 11
REMARK SMILES IDX 12 12 14 14 11 15 8 16 9 17 96 18 10 19 95 20 7 21 5 22 6 23
REMARK SMILES IDX 4 25 2 26 1 27 3 28 25 29 26 30 27 31 28 32 29 33 30 34
REMARK SMILES IDX 31 35 32 36 33 37 94 38 34 39 93 40 35 41 36 42 37 43 87 44
REMARK SMILES IDX 38 45 92 46 86 47 88 48 39 49 91 50 85 51 84 52 40 54 72 55
REMARK SMILES IDX 52 56 71 57 53 58 56 59 70 60 89 61 54 62 55 63 69 65 90 66
REMARK SMILES IDX 57 67 41 68 42 69 50 70 43 71 44 72 48 73 51 74 45 75 46 76
REMARK SMILES IDX 49 77 47 78 73 79 74 80 82 81 75 82 76 83 80 84 83 85 77 86
REMARK SMILES IDX 78 87 81 88 79 89 58 90 59 91 67 92 60 93 61 94 65 95 68 96
REMARK SMILES IDX 62 97 63 98 66 99 64 100
REMARK H PARENT 12 13 7 24 88 53 56 64
REMARK Flexibility Score: inf
ROOT
ATOM      1  C   UNL A   1      34.155  29.307  26.716  1.00  0.00     0.261 C 
ENDROOT
BRANCH   1   2
ATOM      2  O   UNL A   1      33.948  27.943  26.312  1.00  0.00    -0.463 OA
BRANCH   2   3
ATOM      3  C   UNL A   1      33.678  27.760  24.982  1.00  0.00     0.309 C 
ATOM      4  O   UNL A   1      34.065  28.496  24.089  1.00  0.00    -0.252 OA
BRANCH   3   5
ATOM      5  C   UNL A   1      32.863  26.485  24.798  1.00  0.00     0.111 C 
ATOM      6  C   UNL A   1      32.295  26.256  23.381  1.00  0.00     0.093 C 
ATOM      7  C   UNL A   1      31.334  27.386  22.979  1.00  0.00     0.014 C 
ATOM      8  C   UNL A   1      30.198  27.513  23.994  1.00  0.00     0.001 C 
ATOM      9  C   UNL A   1      31.692  26.469  25.787  1.00  0.00     0.016 C 
ATOM     10  C   UNL A   1      30.664  27.548  25.452  1.00  0.00     0.001 C 
BRANCH   6  11
ATOM     11  C   UNL A   1      33.336  25.950  22.320  1.00  0.00     0.228 C 
ATOM     12  N   UNL A   1      33.793  24.684  22.084  1.00  0.00    -0.326 N 
ATOM     13  H   UNL A   1      34.402  24.644  21.312  1.00  0.00     0.169 HD
ATOM     14  O   UNL A   1      33.810  26.841  21.609  1.00  0.00    -0.274 OA
BRANCH  12  15
ATOM     15  C   UNL A   1      33.601  23.425  22.680  1.00  0.00     0.041 A 
ATOM     16  C   UNL A   1      33.197  21.293  24.466  1.00  0.00     0.041 A 
ATOM     17  C   UNL A   1      32.264  21.547  23.470  1.00  0.00     0.028 A 
ATOM     18  C   UNL A   1      34.423  21.937  24.395  1.00  0.00     0.028 A 
ATOM     19  C   UNL A   1      32.479  22.604  22.570  1.00  0.00     0.028 A 
ATOM     20  C   UNL A   1      34.628  23.002  23.522  1.00  0.00     0.028 A 
BRANCH  16  21
ATOM     21  N   UNL A   1      32.909  20.377  25.486  1.00  0.00    -0.326 N 
ATOM     22  C   UNL A   1      32.961  19.001  25.449  1.00  0.00     0.224 C 
ATOM     23  O   UNL A   1      32.407  18.357  26.343  1.00  0.00    -0.275 OA
ATOM     24  H   UNL A   1      32.632  20.769  26.346  1.00  0.00     0.169 HD
BRANCH  22  25
ATOM     25  C   UNL A   1      33.900  18.310  24.460  1.00  0.00     0.103 C 
BRANCH  25  26
ATOM     26  C   UNL A   1      33.260  17.343  23.450  1.00  0.00    -0.008 C 
ATOM     27  C   UNL A   1      32.467  18.068  22.360  1.00  0.00     0.008 C 
ATOM     28  C   UNL A   1      34.349  16.512  22.760  1.00  0.00     0.008 C 
ENDBRANCH  25  26
ENDBRANCH  22  25
ENDBRANCH  16  21
ENDBRANCH  12  15
ENDBRANCH   6  11
ENDBRANCH   3   5
ENDBRANCH   2   3
ENDBRANCH   1   2
BRANCH   1  29
ATOM     29  C   UNL A   1      32.884  29.977  27.244  1.00  0.00     0.202 C 
BRANCH  29  30
ATOM     30  O   UNL A   1      32.142  30.787  26.341  1.00  0.00    -0.374 OA
BRANCH  30  31
ATOM     31  C   UNL A   1      31.680  32.057  26.791  1.00  0.00     0.202 C 
BRANCH  31  32
ATOM     32  C   UNL A   1      32.727  33.036  27.325  1.00  0.00     0.261 C 
BRANCH  32  33
ATOM     33  O   UNL A   1      32.169  34.279  27.798  1.00  0.00    -0.460 OA
BRANCH  33  34
ATOM     34  C   UNL A   1      32.961  34.953  28.663  1.00  0.00     0.338 C 
ATOM     35  O   UNL A   1      32.723  36.029  29.203  1.00  0.00    -0.246 OA
BRANCH  34  36
ATOM     36  C   UNL A   1      34.142  34.165  29.040  1.00  0.00     0.060 A 
ATOM     37  C   UNL A   1      33.937  33.090  29.913  1.00  0.00     0.016 A 
ATOM     38  C   UNL A   1      35.434  34.551  28.676  1.00  0.00     0.016 A 
ATOM     39  C   UNL A   1      35.027  32.417  30.455  1.00  0.00     0.010 A 
ATOM     40  C   UNL A   1      36.529  33.877  29.229  1.00  0.00     0.010 A 
ATOM     41  C   UNL A   1      36.330  32.827  30.143  1.00  0.00    -0.014 A 
BRANCH  41  42
ATOM     42  C   UNL A   1      37.466  32.201  30.859  1.00  0.00     0.031 A 
ATOM     43  C   UNL A   1      38.262  31.119  30.187  1.00  0.00     0.074 A 
ATOM     44  C   UNL A   1      37.816  32.649  32.077  1.00  0.00     0.049 A 
ATOM     45  N   UNL A   1      39.324  30.483  30.614  1.00  0.00    -0.248 NA
ATOM     46  C   UNL A   1      37.805  30.698  28.854  1.00  0.00     0.031 C 
ATOM     47  C   UNL A   1      37.133  33.715  32.808  1.00  0.00     0.029 A 
ATOM     48  N   UNL A   1      38.839  32.270  32.909  1.00  0.00    -0.354 N 
ATOM     49  C   UNL A   1      39.666  29.595  29.604  1.00  0.00     0.074 A 
ATOM     50  C   UNL A   1      38.680  29.749  28.554  1.00  0.00     0.031 C 
ATOM     51  C   UNL A   1      37.755  33.905  33.983  1.00  0.00     0.029 A 
ATOM     52  C   UNL A   1      38.865  32.961  34.094  1.00  0.00     0.049 A 
ATOM     53  H   UNL A   1      39.491  31.570  32.678  1.00  0.00     0.167 HD
ATOM     54  C   UNL A   1      40.714  28.738  29.552  1.00  0.00     0.037 A 
ATOM     55  C   UNL A   1      39.688  32.836  35.153  1.00  0.00     0.037 A 
ATOM     56  C   UNL A   1      41.686  28.586  30.604  1.00  0.00     0.049 A 
ATOM     57  C   UNL A   1      40.810  31.835  35.095  1.00  0.00     0.074 A 
ATOM     58  C   UNL A   1      42.793  27.757  30.644  1.00  0.00     0.029 A 
ATOM     59  N   UNL A   1      41.658  29.276  31.807  1.00  0.00    -0.354 N 
ATOM     60  N   UNL A   1      41.148  31.026  34.119  1.00  0.00    -0.248 NA
ATOM     61  C   UNL A   1      41.670  31.734  36.282  1.00  0.00     0.031 C 
ATOM     62  C   UNL A   1      43.410  27.912  31.891  1.00  0.00     0.029 A 
ATOM     63  C   UNL A   1      42.714  28.872  32.609  1.00  0.00     0.049 A 
ATOM     64  H   UNL A   1      40.988  29.953  32.055  1.00  0.00     0.167 HD
ATOM     65  C   UNL A   1      42.270  30.339  34.563  1.00  0.00     0.074 A 
ATOM     66  C   UNL A   1      42.564  30.836  35.891  1.00  0.00     0.031 C 
ATOM     67  C   UNL A   1      42.991  29.382  33.929  1.00  0.00     0.037 A 
BRANCH  54  68
ATOM     68  C   UNL A   1      40.850  27.881  28.329  1.00  0.00     0.064 A 
ATOM     69  C   UNL A   1      40.261  26.609  28.251  1.00  0.00     0.173 A 
ATOM     70  C   UNL A   1      41.548  28.349  27.205  1.00  0.00     0.173 A 
ATOM     71  F   UNL A   1      39.591  26.110  29.302  1.00  0.00    -0.203 F 
ATOM     72  C   UNL A   1      40.386  25.830  27.104  1.00  0.00     0.198 A 
ATOM     73  C   UNL A   1      41.650  27.577  26.050  1.00  0.00     0.198 A 
ATOM     74  F   UNL A   1      42.124  29.560  27.224  1.00  0.00    -0.203 F 
ATOM     75  F   UNL A   1      39.850  24.601  27.067  1.00  0.00    -0.200 F 
ATOM     76  C   UNL A   1      41.075  26.316  26.003  1.00  0.00     0.200 A 
ATOM     77  F   UNL A   1      42.305  28.054  24.984  1.00  0.00    -0.200 F 
ATOM     78  F   UNL A   1      41.190  25.567  24.898  1.00  0.00    -0.200 F 
ENDBRANCH  54  68
BRANCH  55  79
ATOM     79  C   UNL A   1      39.478  33.684  36.355  1.00  0.00     0.064 A 
ATOM     80  C   UNL A   1      40.034  34.967  36.443  1.00  0.00     0.173 A 
ATOM     81  C   UNL A   1      38.715  33.227  37.439  1.00  0.00     0.173 A 
ATOM     82  F   UNL A   1      40.790  35.440  35.442  1.00  0.00    -0.203 F 
ATOM     83  C   UNL A   1      39.846  35.756  37.577  1.00  0.00     0.198 A 
ATOM     84  C   UNL A   1      38.505  34.025  38.560  1.00  0.00     0.198 A 
ATOM     85  F   UNL A   1      38.161  32.006  37.402  1.00  0.00    -0.203 F 
ATOM     86  F   UNL A   1      40.420  36.964  37.653  1.00  0.00    -0.200 F 
ATOM     87  C   UNL A   1      39.076  35.288  38.631  1.00  0.00     0.200 A 
ATOM     88  F   UNL A   1      37.749  33.574  39.570  1.00  0.00    -0.200 F 
ATOM     89  F   UNL A   1      38.889  36.049  39.718  1.00  0.00    -0.200 F 
ENDBRANCH  55  79
BRANCH  67  90
ATOM     90  C   UNL A   1      44.182  28.828  34.653  1.00  0.00     0.064 A 
ATOM     91  C   UNL A   1      45.439  29.445  34.576  1.00  0.00     0.173 A 
ATOM     92  C   UNL A   1      44.056  27.690  35.464  1.00  0.00     0.173 A 
ATOM     93  F   UNL A   1      45.614  30.527  33.800  1.00  0.00    -0.203 F 
ATOM     94  C   UNL A   1      46.532  28.929  35.266  1.00  0.00     0.198 A 
ATOM     95  C   UNL A   1      45.145  27.194  36.175  1.00  0.00     0.198 A 
ATOM     96  F   UNL A   1      42.873  27.069  35.576  1.00  0.00    -0.203 F 
ATOM     97  F   UNL A   1      47.736  29.508  35.142  1.00  0.00    -0.200 F 
ATOM     98  C   UNL A   1      46.383  27.809  36.070  1.00  0.00     0.200 A 
ATOM     99  F   UNL A   1      44.995  26.118  36.961  1.00  0.00    -0.200 F 
ATOM    100  F   UNL A   1      47.435  27.317  36.738  1.00  0.00    -0.200 F 
ENDBRANCH  67  90
ENDBRANCH  41  42
ENDBRANCH  34  36
ENDBRANCH  33  34
ENDBRANCH  32  33
ENDBRANCH  31  32
ENDBRANCH  30  31
ENDBRANCH  29  30
ENDBRANCH   1  29
TORSDOF 19
ENDMDL
