MODEL 1
REMARK VINA RESULT:     -12.6      0.000      0.000
REMARK SMILES Cc1cc(C(=O)N[C@H]2C=C[C@H](C(=O)OCCOCCOC(=O)c3ccc(-c4c5nc(c(-c6c(F)c(F)c(F)c(F)c6F)c6ccc([nH]6)c(-c6c(F)c(F)c(F)c(F)c6F)c6nc(c(-c7c(F)c(F)c(F)c(F)c7F)c7ccc4[nH]7)C=C6)C=C5)cc3)C2)ccc1F
REMARK SMILES IDX 17 1 16 2 15 3 14 4 12 5 13 6 11 7 8 8 9 9 86 10 10 11 7 12
REMARK SMILES IDX 5 13 6 14 4 16 1 17 2 18 3 19 89 20 88 21 90 22 87 23 18 24
REMARK SMILES IDX 19 25 20 26 21 27 22 28 23 29 24 30 85 31 25 32 84 33 26 34
REMARK SMILES IDX 27 35 28 36 78 37 29 38 83 39 77 40 79 41 30 42 82 43 76 44
REMARK SMILES IDX 75 45 31 47 63 48 43 49 62 50 44 51 47 52 61 53 80 54 45 55
REMARK SMILES IDX 46 56 60 58 81 59 48 60 32 61 33 62 41 63 34 64 35 65 39 66
REMARK SMILES IDX 42 67 36 68 37 69 40 70 38 71 64 72 65 73 73 74 66 75 67 76
REMARK SMILES IDX 71 77 74 78 68 79 69 80 72 81 70 82 49 83 50 84 58 85 51 86
REMARK SMILES IDX 52 87 56 88 59 89 53 90 54 91 57 92 55 93
REMARK H PARENT 7 15 79 46 47 57
REMARK Flexibility Score: inf
ROOT
ATOM      1  O   UNL A   1      41.478  19.372  25.380  1.00  0.00    -0.374 OA
ENDROOT
BRANCH   1   2
ATOM      2  C   UNL A   1      40.428  19.856  26.198  1.00  0.00     0.202 C 
BRANCH   2   3
ATOM      3  C   UNL A   1      39.857  21.288  26.111  1.00  0.00     0.261 C 
BRANCH   3   4
ATOM      4  O   UNL A   1      38.434  21.394  26.219  1.00  0.00    -0.463 OA
BRANCH   4   5
ATOM      5  C   UNL A   1      37.816  21.516  25.023  1.00  0.00     0.312 C 
ATOM      6  O   UNL A   1      37.607  20.562  24.283  1.00  0.00    -0.252 OA
BRANCH   5   7
ATOM      7  C   UNL A   1      37.320  22.943  24.754  1.00  0.00     0.124 C 
ATOM      8  C   UNL A   1      34.984  22.484  24.873  1.00  0.00     0.106 C 
ATOM      9  C   UNL A   1      35.343  22.912  23.483  1.00  0.00    -0.006 C 
ATOM     10  C   UNL A   1      36.097  23.186  25.654  1.00  0.00     0.048 C 
ATOM     11  C   UNL A   1      36.673  23.101  23.404  1.00  0.00    -0.014 C 
BRANCH   8  12
ATOM     12  N   UNL A   1      33.661  22.795  25.299  1.00  0.00    -0.346 N 
ATOM     13  C   UNL A   1      32.524  22.012  25.220  1.00  0.00     0.251 C 
ATOM     14  O   UNL A   1      31.459  22.534  25.559  1.00  0.00    -0.269 OA
ATOM     15  H   UNL A   1      33.539  23.685  25.702  1.00  0.00     0.164 HD
BRANCH  13  16
ATOM     16  C   UNL A   1      32.513  20.554  24.831  1.00  0.00     0.040 A 
ATOM     17  C   UNL A   1      32.312  18.146  21.862  1.00  0.00     0.047 C 
ATOM     18  C   UNL A   1      32.392  18.661  23.269  1.00  0.00    -0.015 A 
ATOM     19  C   UNL A   1      32.257  20.034  23.555  1.00  0.00     0.020 A 
ATOM     20  C   UNL A   1      32.689  17.789  24.311  1.00  0.00     0.126 A 
ATOM     21  C   UNL A   1      32.849  18.259  25.607  1.00  0.00     0.040 A 
ATOM     22  F   UNL A   1      32.823  16.477  24.070  1.00  0.00    -0.207 F 
ATOM     23  C   UNL A   1      32.773  19.633  25.861  1.00  0.00     0.017 A 
ENDBRANCH  13  16
ENDBRANCH   8  12
ENDBRANCH   5   7
ENDBRANCH   4   5
ENDBRANCH   3   4
ENDBRANCH   2   3
ENDBRANCH   1   2
BRANCH   1  24
ATOM     24  C   UNL A   1      42.673  18.761  25.829  1.00  0.00     0.202 C 
BRANCH  24  25
ATOM     25  C   UNL A   1      44.051  19.197  25.348  1.00  0.00     0.261 C 
BRANCH  25  26
ATOM     26  O   UNL A   1      44.055  20.438  24.650  1.00  0.00    -0.460 OA
BRANCH  26  27
ATOM     27  C   UNL A   1      44.440  21.494  25.399  1.00  0.00     0.338 C 
ATOM     28  O   UNL A   1      45.561  21.732  25.804  1.00  0.00    -0.246 OA
BRANCH  27  29
ATOM     29  C   UNL A   1      43.286  22.273  25.871  1.00  0.00     0.060 A 
ATOM     30  C   UNL A   1      43.087  23.453  25.141  1.00  0.00     0.016 A 
ATOM     31  C   UNL A   1      42.969  22.168  27.224  1.00  0.00     0.016 A 
ATOM     32  C   UNL A   1      42.984  24.631  25.844  1.00  0.00     0.010 A 
ATOM     33  C   UNL A   1      42.860  23.343  27.922  1.00  0.00     0.010 A 
ATOM     34  C   UNL A   1      42.993  24.554  27.233  1.00  0.00    -0.014 A 
BRANCH  34  35
ATOM     35  C   UNL A   1      43.112  25.733  28.053  1.00  0.00     0.031 A 
ATOM     36  C   UNL A   1      41.892  26.519  28.268  1.00  0.00     0.074 A 
ATOM     37  C   UNL A   1      44.301  26.068  28.600  1.00  0.00     0.049 A 
ATOM     38  N   UNL A   1      41.887  27.779  28.517  1.00  0.00    -0.248 NA
ATOM     39  C   UNL A   1      40.557  25.944  28.123  1.00  0.00     0.031 C 
ATOM     40  C   UNL A   1      44.508  27.011  29.688  1.00  0.00     0.029 A 
ATOM     41  N   UNL A   1      45.597  25.703  28.196  1.00  0.00    -0.354 N 
ATOM     42  C   UNL A   1      40.599  28.119  28.850  1.00  0.00     0.074 A 
ATOM     43  C   UNL A   1      39.792  26.975  28.495  1.00  0.00     0.031 C 
ATOM     44  C   UNL A   1      45.806  27.343  29.741  1.00  0.00     0.029 A 
ATOM     45  C   UNL A   1      46.458  26.757  28.585  1.00  0.00     0.049 A 
ATOM     46  H   UNL A   1      45.856  24.874  27.732  1.00  0.00     0.167 HD
ATOM     47  C   UNL A   1      40.386  29.275  29.537  1.00  0.00     0.037 A 
ATOM     48  C   UNL A   1      47.208  27.470  27.690  1.00  0.00     0.037 A 
ATOM     49  C   UNL A   1      41.643  29.979  29.762  1.00  0.00     0.049 A 
ATOM     50  C   UNL A   1      46.841  28.917  27.605  1.00  0.00     0.074 A 
ATOM     51  C   UNL A   1      42.548  29.924  30.811  1.00  0.00     0.029 A 
ATOM     52  N   UNL A   1      42.314  30.557  28.690  1.00  0.00    -0.354 N 
ATOM     53  N   UNL A   1      45.707  29.387  28.038  1.00  0.00    -0.248 NA
ATOM     54  C   UNL A   1      47.687  29.937  26.998  1.00  0.00     0.031 C 
ATOM     55  C   UNL A   1      43.786  30.433  30.349  1.00  0.00     0.029 A 
ATOM     56  C   UNL A   1      43.627  30.826  29.032  1.00  0.00     0.049 A 
ATOM     57  H   UNL A   1      41.911  30.747  27.812  1.00  0.00     0.167 HD
ATOM     58  C   UNL A   1      45.647  30.724  27.775  1.00  0.00     0.074 A 
ATOM     59  C   UNL A   1      46.918  31.028  27.145  1.00  0.00     0.031 C 
ATOM     60  C   UNL A   1      44.540  31.456  28.090  1.00  0.00     0.037 A 
BRANCH  47  61
ATOM     61  C   UNL A   1      39.110  29.557  30.284  1.00  0.00     0.064 A 
ATOM     62  C   UNL A   1      38.217  30.551  29.830  1.00  0.00     0.173 A 
ATOM     63  C   UNL A   1      38.739  28.919  31.481  1.00  0.00     0.173 A 
ATOM     64  F   UNL A   1      38.409  31.188  28.669  1.00  0.00    -0.203 F 
ATOM     65  C   UNL A   1      37.097  30.942  30.566  1.00  0.00     0.198 A 
ATOM     66  C   UNL A   1      37.645  29.344  32.243  1.00  0.00     0.198 A 
ATOM     67  F   UNL A   1      39.405  27.845  31.928  1.00  0.00    -0.203 F 
ATOM     68  F   UNL A   1      36.290  31.899  30.087  1.00  0.00    -0.200 F 
ATOM     69  C   UNL A   1      36.828  30.361  31.788  1.00  0.00     0.200 A 
ATOM     70  F   UNL A   1      37.391  28.764  33.424  1.00  0.00    -0.200 F 
ATOM     71  F   UNL A   1      35.779  30.767  32.515  1.00  0.00    -0.200 F 
ENDBRANCH  47  61
BRANCH  48  72
ATOM     72  C   UNL A   1      47.711  26.665  26.551  1.00  0.00     0.064 A 
ATOM     73  C   UNL A   1      47.095  26.960  25.325  1.00  0.00     0.173 A 
ATOM     74  C   UNL A   1      49.057  26.276  26.558  1.00  0.00     0.173 A 
ATOM     75  F   UNL A   1      45.784  27.241  25.280  1.00  0.00    -0.203 F 
ATOM     76  C   UNL A   1      47.875  27.201  24.210  1.00  0.00     0.198 A 
ATOM     77  C   UNL A   1      49.833  26.496  25.429  1.00  0.00     0.198 A 
ATOM     78  F   UNL A   1      49.644  25.880  27.696  1.00  0.00    -0.203 F 
ATOM     79  F   UNL A   1      47.327  27.739  23.112  1.00  0.00    -0.200 F 
ATOM     80  C   UNL A   1      49.246  27.029  24.288  1.00  0.00     0.200 A 
ATOM     81  F   UNL A   1      51.159  26.309  25.487  1.00  0.00    -0.200 F 
ATOM     82  F   UNL A   1      49.991  27.441  23.265  1.00  0.00    -0.200 F 
ENDBRANCH  48  72
BRANCH  60  83
ATOM     83  C   UNL A   1      44.273  32.864  27.638  1.00  0.00     0.064 A 
ATOM     84  C   UNL A   1      43.929  33.212  26.322  1.00  0.00     0.173 A 
ATOM     85  C   UNL A   1      44.228  33.917  28.583  1.00  0.00     0.173 A 
ATOM     86  F   UNL A   1      43.796  32.284  25.365  1.00  0.00    -0.203 F 
ATOM     87  C   UNL A   1      43.648  34.529  25.960  1.00  0.00     0.198 A 
ATOM     88  C   UNL A   1      43.876  35.216  28.231  1.00  0.00     0.198 A 
ATOM     89  F   UNL A   1      44.498  33.710  29.881  1.00  0.00    -0.203 F 
ATOM     90  F   UNL A   1      43.387  34.820  24.678  1.00  0.00    -0.200 F 
ATOM     91  C   UNL A   1      43.611  35.527  26.915  1.00  0.00     0.200 A 
ATOM     92  F   UNL A   1      43.780  36.157  29.180  1.00  0.00    -0.200 F 
ATOM     93  F   UNL A   1      43.294  36.783  26.570  1.00  0.00    -0.200 F 
ENDBRANCH  60  83
ENDBRANCH  34  35
ENDBRANCH  27  29
ENDBRANCH  26  27
ENDBRANCH  25  26
ENDBRANCH  24  25
ENDBRANCH   1  24
TORSDOF 16
ENDMDL
MODEL 2
REMARK VINA RESULT:     -12.5      5.493     11.298
REMARK SMILES Cc1cc(C(=O)N[C@H]2C=C[C@H](C(=O)OCCOCCOC(=O)c3ccc(-c4c5nc(c(-c6c(F)c(F)c(F)c(F)c6F)c6ccc([nH]6)c(-c6c(F)c(F)c(F)c(F)c6F)c6nc(c(-c7c(F)c(F)c(F)c(F)c7F)c7ccc4[nH]7)C=C6)C=C5)cc3)C2)ccc1F
REMARK SMILES IDX 17 1 16 2 15 3 14 4 12 5 13 6 11 7 8 8 9 9 86 10 10 11 7 12
REMARK SMILES IDX 5 13 6 14 4 16 1 17 2 18 3 19 89 20 88 21 90 22 87 23 18 24
REMARK SMILES IDX 19 25 20 26 21 27 22 28 23 29 24 30 85 31 25 32 84 33 26 34
REMARK SMILES IDX 27 35 28 36 78 37 29 38 83 39 77 40 79 41 30 42 82 43 76 44
REMARK SMILES IDX 75 45 31 47 63 48 43 49 62 50 44 51 47 52 61 53 80 54 45 55
REMARK SMILES IDX 46 56 60 58 81 59 48 60 32 61 33 62 41 63 34 64 35 65 39 66
REMARK SMILES IDX 42 67 36 68 37 69 40 70 38 71 64 72 65 73 73 74 66 75 67 76
REMARK SMILES IDX 71 77 74 78 68 79 69 80 72 81 70 82 49 83 50 84 58 85 51 86
REMARK SMILES IDX 52 87 56 88 59 89 53 90 54 91 57 92 55 93
REMARK H PARENT 7 15 79 46 47 57
REMARK Flexibility Score: inf
ROOT
ATOM      1  O   UNL A   1      32.527  34.650  29.220  1.00  0.00    -0.374 OA
ENDROOT
BRANCH   1   2
ATOM      2  C   UNL A   1      32.998  34.104  28.001  1.00  0.00     0.202 C 
BRANCH   2   3
ATOM      3  C   UNL A   1      33.716  32.742  27.886  1.00  0.00     0.261 C 
BRANCH   3   4
ATOM      4  O   UNL A   1      32.961  31.694  27.269  1.00  0.00    -0.463 OA
BRANCH   4   5
ATOM      5  C   UNL A   1      33.674  30.559  27.089  1.00  0.00     0.312 C 
ATOM      6  O   UNL A   1      34.508  30.163  27.893  1.00  0.00    -0.252 OA
BRANCH   5   7
ATOM      7  C   UNL A   1      33.246  29.784  25.834  1.00  0.00     0.124 C 
ATOM      8  C   UNL A   1      32.205  27.951  26.947  1.00  0.00     0.106 C 
ATOM      9  C   UNL A   1      33.405  27.466  26.193  1.00  0.00    -0.006 C 
ATOM     10  C   UNL A   1      31.857  29.185  26.112  1.00  0.00     0.048 C 
ATOM     11  C   UNL A   1      34.029  28.516  25.627  1.00  0.00    -0.014 C 
BRANCH   8  12
ATOM     12  N   UNL A   1      31.145  27.011  27.102  1.00  0.00    -0.346 N 
ATOM     13  C   UNL A   1      30.517  26.253  26.131  1.00  0.00     0.251 C 
ATOM     14  O   UNL A   1      29.547  25.580  26.486  1.00  0.00    -0.269 OA
ATOM     15  H   UNL A   1      30.816  26.885  28.021  1.00  0.00     0.164 HD
BRANCH  13  16
ATOM     16  C   UNL A   1      30.986  26.133  24.702  1.00  0.00     0.040 A 
ATOM     17  C   UNL A   1      32.931  23.916  22.260  1.00  0.00     0.047 C 
ATOM     18  C   UNL A   1      32.148  25.070  22.816  1.00  0.00    -0.015 A 
ATOM     19  C   UNL A   1      31.868  25.170  24.193  1.00  0.00     0.020 A 
ATOM     20  C   UNL A   1      31.610  26.021  21.955  1.00  0.00     0.126 A 
ATOM     21  C   UNL A   1      30.814  27.049  22.440  1.00  0.00     0.040 A 
ATOM     22  F   UNL A   1      31.858  25.953  20.639  1.00  0.00    -0.207 F 
ATOM     23  C   UNL A   1      30.495  27.096  23.803  1.00  0.00     0.017 A 
ENDBRANCH  13  16
ENDBRANCH   8  12
ENDBRANCH   5   7
ENDBRANCH   4   5
ENDBRANCH   3   4
ENDBRANCH   2   3
ENDBRANCH   1   2
BRANCH   1  24
ATOM     24  C   UNL A   1      32.894  35.900  29.772  1.00  0.00     0.202 C 
BRANCH  24  25
ATOM     25  C   UNL A   1      33.084  36.115  31.268  1.00  0.00     0.261 C 
BRANCH  25  26
ATOM     26  O   UNL A   1      33.297  34.915  32.004  1.00  0.00    -0.460 OA
BRANCH  26  27
ATOM     27  C   UNL A   1      34.596  34.611  32.204  1.00  0.00     0.338 C 
ATOM     28  O   UNL A   1      35.396  35.232  32.878  1.00  0.00    -0.246 OA
BRANCH  27  29
ATOM     29  C   UNL A   1      35.037  33.510  31.336  1.00  0.00     0.060 A 
ATOM     30  C   UNL A   1      35.139  32.286  32.012  1.00  0.00     0.016 A 
ATOM     31  C   UNL A   1      35.867  33.846  30.268  1.00  0.00     0.016 A 
ATOM     32  C   UNL A   1      36.326  31.596  31.911  1.00  0.00     0.010 A 
ATOM     33  C   UNL A   1      37.047  33.154  30.166  1.00  0.00     0.010 A 
ATOM     34  C   UNL A   1      37.305  32.119  31.072  1.00  0.00    -0.014 A 
BRANCH  34  35
ATOM     35  C   UNL A   1      38.648  31.600  31.066  1.00  0.00     0.031 A 
ATOM     36  C   UNL A   1      38.887  30.382  30.284  1.00  0.00     0.074 A 
ATOM     37  C   UNL A   1      39.629  32.233  31.746  1.00  0.00     0.049 A 
ATOM     38  N   UNL A   1      39.819  29.536  30.542  1.00  0.00    -0.248 NA
ATOM     39  C   UNL A   1      38.015  29.977  29.184  1.00  0.00     0.031 C 
ATOM     40  C   UNL A   1      41.059  32.031  31.574  1.00  0.00     0.029 A 
ATOM     41  N   UNL A   1      39.524  33.121  32.831  1.00  0.00    -0.354 N 
ATOM     42  C   UNL A   1      39.858  28.647  29.496  1.00  0.00     0.074 A 
ATOM     43  C   UNL A   1      38.660  28.898  28.729  1.00  0.00     0.031 C 
ATOM     44  C   UNL A   1      41.707  32.563  32.621  1.00  0.00     0.029 A 
ATOM     45  C   UNL A   1      40.712  32.980  33.590  1.00  0.00     0.049 A 
ATOM     46  H   UNL A   1      38.771  33.725  33.026  1.00  0.00     0.167 HD
ATOM     47  C   UNL A   1      40.984  27.906  29.312  1.00  0.00     0.037 A 
ATOM     48  C   UNL A   1      40.711  32.586  34.900  1.00  0.00     0.037 A 
ATOM     49  C   UNL A   1      41.968  28.198  30.349  1.00  0.00     0.049 A 
ATOM     50  C   UNL A   1      41.391  31.277  35.143  1.00  0.00     0.074 A 
ATOM     51  C   UNL A   1      42.998  29.124  30.399  1.00  0.00     0.029 A 
ATOM     52  N   UNL A   1      41.731  27.797  31.659  1.00  0.00    -0.354 N 
ATOM     53  N   UNL A   1      41.630  30.417  34.196  1.00  0.00    -0.248 NA
ATOM     54  C   UNL A   1      41.817  30.813  36.457  1.00  0.00     0.031 C 
ATOM     55  C   UNL A   1      43.352  29.314  31.757  1.00  0.00     0.029 A 
ATOM     56  C   UNL A   1      42.561  28.482  32.529  1.00  0.00     0.049 A 
ATOM     57  H   UNL A   1      41.067  27.122  31.929  1.00  0.00     0.167 HD
ATOM     58  C   UNL A   1      42.211  29.307  34.736  1.00  0.00     0.074 A 
ATOM     59  C   UNL A   1      42.330  29.610  36.150  1.00  0.00     0.031 C 
ATOM     60  C   UNL A   1      42.527  28.230  33.962  1.00  0.00     0.037 A 
BRANCH  47  61
ATOM     61  C   UNL A   1      41.300  27.208  28.016  1.00  0.00     0.064 A 
ATOM     62  C   UNL A   1      41.246  25.802  27.926  1.00  0.00     0.173 A 
ATOM     63  C   UNL A   1      41.713  27.868  26.845  1.00  0.00     0.173 A 
ATOM     64  F   UNL A   1      40.801  25.051  28.941  1.00  0.00    -0.203 F 
ATOM     65  C   UNL A   1      41.665  25.108  26.789  1.00  0.00     0.198 A 
ATOM     66  C   UNL A   1      42.180  27.173  25.724  1.00  0.00     0.198 A 
ATOM     67  F   UNL A   1      41.644  29.203  26.742  1.00  0.00    -0.203 F 
ATOM     68  F   UNL A   1      41.598  23.770  26.766  1.00  0.00    -0.200 F 
ATOM     69  C   UNL A   1      42.162  25.792  25.700  1.00  0.00     0.200 A 
ATOM     70  F   UNL A   1      42.652  27.852  24.669  1.00  0.00    -0.200 F 
ATOM     71  F   UNL A   1      42.606  25.126  24.626  1.00  0.00    -0.200 F 
ENDBRANCH  47  61
BRANCH  48  72
ATOM     72  C   UNL A   1      39.550  33.085  35.677  1.00  0.00     0.064 A 
ATOM     73  C   UNL A   1      38.581  32.106  35.949  1.00  0.00     0.173 A 
ATOM     74  C   UNL A   1      39.768  34.103  36.614  1.00  0.00     0.173 A 
ATOM     75  F   UNL A   1      38.285  31.177  35.028  1.00  0.00    -0.203 F 
ATOM     76  C   UNL A   1      38.112  31.950  37.239  1.00  0.00     0.198 A 
ATOM     77  C   UNL A   1      39.276  33.956  37.903  1.00  0.00     0.198 A 
ATOM     78  F   UNL A   1      40.604  35.114  36.338  1.00  0.00    -0.203 F 
ATOM     79  F   UNL A   1      37.399  30.864  37.567  1.00  0.00    -0.200 F 
ATOM     80  C   UNL A   1      38.514  32.838  38.222  1.00  0.00     0.200 A 
ATOM     81  F   UNL A   1      39.639  34.825  38.856  1.00  0.00    -0.200 F 
ATOM     82  F   UNL A   1      38.201  32.563  39.486  1.00  0.00    -0.200 F 
ENDBRANCH  48  72
BRANCH  60  83
ATOM     83  C   UNL A   1      42.945  26.882  34.480  1.00  0.00     0.064 A 
ATOM     84  C   UNL A   1      42.046  25.910  34.948  1.00  0.00     0.173 A 
ATOM     85  C   UNL A   1      44.297  26.475  34.391  1.00  0.00     0.173 A 
ATOM     86  F   UNL A   1      40.723  26.122  34.947  1.00  0.00    -0.203 F 
ATOM     87  C   UNL A   1      42.479  24.656  35.380  1.00  0.00     0.198 A 
ATOM     88  C   UNL A   1      44.714  25.198  34.753  1.00  0.00     0.198 A 
ATOM     89  F   UNL A   1      45.251  27.295  33.924  1.00  0.00    -0.203 F 
ATOM     90  F   UNL A   1      41.589  23.786  35.877  1.00  0.00    -0.200 F 
ATOM     91  C   UNL A   1      43.808  24.297  35.271  1.00  0.00     0.200 A 
ATOM     92  F   UNL A   1      45.995  24.844  34.580  1.00  0.00    -0.200 F 
ATOM     93  F   UNL A   1      44.212  23.074  35.643  1.00  0.00    -0.200 F 
ENDBRANCH  60  83
ENDBRANCH  34  35
ENDBRANCH  27  29
ENDBRANCH  26  27
ENDBRANCH  25  26
ENDBRANCH  24  25
ENDBRANCH   1  24
TORSDOF 16
ENDMDL
MODEL 3
REMARK VINA RESULT:     -12.3      4.159      9.773
REMARK SMILES Cc1cc(C(=O)N[C@H]2C=C[C@H](C(=O)OCCOCCOC(=O)c3ccc(-c4c5nc(c(-c6c(F)c(F)c(F)c(F)c6F)c6ccc([nH]6)c(-c6c(F)c(F)c(F)c(F)c6F)c6nc(c(-c7c(F)c(F)c(F)c(F)c7F)c7ccc4[nH]7)C=C6)C=C5)cc3)C2)ccc1F
REMARK SMILES IDX 17 1 16 2 15 3 14 4 12 5 13 6 11 7 8 8 9 9 86 10 10 11 7 12
REMARK SMILES IDX 5 13 6 14 4 16 1 17 2 18 3 19 89 20 88 21 90 22 87 23 18 24
REMARK SMILES IDX 19 25 20 26 21 27 22 28 23 29 24 30 85 31 25 32 84 33 26 34
REMARK SMILES IDX 27 35 28 36 78 37 29 38 83 39 77 40 79 41 30 42 82 43 76 44
REMARK SMILES IDX 75 45 31 47 63 48 43 49 62 50 44 51 47 52 61 53 80 54 45 55
REMARK SMILES IDX 46 56 60 58 81 59 48 60 32 61 33 62 41 63 34 64 35 65 39 66
REMARK SMILES IDX 42 67 36 68 37 69 40 70 38 71 64 72 65 73 73 74 66 75 67 76
REMARK SMILES IDX 71 77 74 78 68 79 69 80 72 81 70 82 49 83 50 84 58 85 51 86
REMARK SMILES IDX 52 87 56 88 59 89 53 90 54 91 57 92 55 93
REMARK H PARENT 7 15 79 46 47 57
REMARK Flexibility Score: inf
ROOT
ATOM      1  O   UNL A   1      33.318  29.733  27.331  1.00  0.00    -0.374 OA
ENDROOT
BRANCH   1   2
ATOM      2  C   UNL A   1      32.826  28.737  26.451  1.00  0.00     0.202 C 
BRANCH   2   3
ATOM      3  C   UNL A   1      32.251  29.033  25.049  1.00  0.00     0.261 C 
BRANCH   3   4
ATOM      4  O   UNL A   1      30.982  28.437  24.761  1.00  0.00    -0.463 OA
BRANCH   4   5
ATOM      5  C   UNL A   1      31.070  27.363  23.946  1.00  0.00     0.312 C 
ATOM      6  O   UNL A   1      31.964  27.226  23.121  1.00  0.00    -0.252 OA
BRANCH   5   7
ATOM      7  C   UNL A   1      29.998  26.305  24.243  1.00  0.00     0.124 C 
ATOM      8  C   UNL A   1      31.309  24.942  25.696  1.00  0.00     0.106 C 
ATOM      9  C   UNL A   1      30.970  24.174  24.455  1.00  0.00    -0.006 C 
ATOM     10  C   UNL A   1      30.130  25.917  25.726  1.00  0.00     0.048 C 
ATOM     11  C   UNL A   1      30.292  24.971  23.609  1.00  0.00    -0.014 C 
BRANCH   8  12
ATOM     12  N   UNL A   1      31.481  24.169  26.881  1.00  0.00    -0.346 N 
ATOM     13  C   UNL A   1      32.430  23.199  27.145  1.00  0.00     0.251 C 
ATOM     14  O   UNL A   1      32.321  22.584  28.208  1.00  0.00    -0.269 OA
ATOM     15  H   UNL A   1      30.840  24.348  27.605  1.00  0.00     0.164 HD
BRANCH  13  16
ATOM     16  C   UNL A   1      33.624  22.907  26.269  1.00  0.00     0.040 A 
ATOM     17  C   UNL A   1      37.270  23.858  25.590  1.00  0.00     0.047 C 
ATOM     18  C   UNL A   1      35.928  23.197  25.466  1.00  0.00    -0.015 A 
ATOM     19  C   UNL A   1      34.827  23.626  26.233  1.00  0.00     0.020 A 
ATOM     20  C   UNL A   1      35.777  22.085  24.645  1.00  0.00     0.126 A 
ATOM     21  C   UNL A   1      34.566  21.410  24.580  1.00  0.00     0.040 A 
ATOM     22  F   UNL A   1      36.806  21.653  23.902  1.00  0.00    -0.207 F 
ATOM     23  C   UNL A   1      33.502  21.812  25.396  1.00  0.00     0.017 A 
ENDBRANCH  13  16
ENDBRANCH   8  12
ENDBRANCH   5   7
ENDBRANCH   4   5
ENDBRANCH   3   4
ENDBRANCH   2   3
ENDBRANCH   1   2
BRANCH   1  24
ATOM     24  C   UNL A   1      33.041  31.119  27.262  1.00  0.00     0.202 C 
BRANCH  24  25
ATOM     25  C   UNL A   1      33.909  32.167  27.947  1.00  0.00     0.261 C 
BRANCH  25  26
ATOM     26  O   UNL A   1      34.532  31.711  29.143  1.00  0.00    -0.460 OA
BRANCH  26  27
ATOM     27  C   UNL A   1      35.879  31.649  29.078  1.00  0.00     0.338 C 
ATOM     28  O   UNL A   1      36.652  32.587  29.036  1.00  0.00    -0.246 OA
BRANCH  27  29
ATOM     29  C   UNL A   1      36.349  30.275  28.854  1.00  0.00     0.060 A 
ATOM     30  C   UNL A   1      36.691  29.612  30.041  1.00  0.00     0.016 A 
ATOM     31  C   UNL A   1      36.992  30.020  27.644  1.00  0.00     0.016 A 
ATOM     32  C   UNL A   1      37.936  29.030  30.114  1.00  0.00     0.010 A 
ATOM     33  C   UNL A   1      38.230  29.435  27.717  1.00  0.00     0.010 A 
ATOM     34  C   UNL A   1      38.729  29.063  28.972  1.00  0.00    -0.014 A 
BRANCH  34  35
ATOM     35  C   UNL A   1      40.118  28.682  29.006  1.00  0.00     0.031 A 
ATOM     36  C   UNL A   1      40.444  27.314  28.586  1.00  0.00     0.074 A 
ATOM     37  C   UNL A   1      41.060  29.567  29.398  1.00  0.00     0.049 A 
ATOM     38  N   UNL A   1      41.471  26.663  28.999  1.00  0.00    -0.248 NA
ATOM     39  C   UNL A   1      39.564  26.535  27.719  1.00  0.00     0.031 C 
ATOM     40  C   UNL A   1      42.493  29.449  29.178  1.00  0.00     0.029 A 
ATOM     41  N   UNL A   1      40.918  30.720  30.192  1.00  0.00    -0.354 N 
ATOM     42  C   UNL A   1      41.550  25.516  28.249  1.00  0.00     0.074 A 
ATOM     43  C   UNL A   1      40.295  25.430  27.539  1.00  0.00     0.031 C 
ATOM     44  C   UNL A   1      43.134  30.315  29.976  1.00  0.00     0.029 A 
ATOM     45  C   UNL A   1      42.151  30.908  30.863  1.00  0.00     0.049 A 
ATOM     46  H   UNL A   1      40.116  31.287  30.266  1.00  0.00     0.167 HD
ATOM     47  C   UNL A   1      42.738  24.854  28.193  1.00  0.00     0.037 A 
ATOM     48  C   UNL A   1      42.258  30.913  32.226  1.00  0.00     0.037 A 
ATOM     49  C   UNL A   1      43.737  25.517  29.023  1.00  0.00     0.049 A 
ATOM     50  C   UNL A   1      43.084  29.794  32.776  1.00  0.00     0.074 A 
ATOM     51  C   UNL A   1      44.665  26.504  28.727  1.00  0.00     0.029 A 
ATOM     52  N   UNL A   1      43.611  25.496  30.408  1.00  0.00    -0.354 N 
ATOM     53  N   UNL A   1      43.364  28.720  32.096  1.00  0.00    -0.248 NA
ATOM     54  C   UNL A   1      43.623  29.770  34.130  1.00  0.00     0.031 C 
ATOM     55  C   UNL A   1      45.065  27.110  29.942  1.00  0.00     0.029 A 
ATOM     56  C   UNL A   1      44.407  26.473  30.979  1.00  0.00     0.049 A 
ATOM     57  H   UNL A   1      43.036  24.874  30.911  1.00  0.00     0.167 HD
ATOM     58  C   UNL A   1      44.085  27.869  32.881  1.00  0.00     0.074 A 
ATOM     59  C   UNL A   1      44.243  28.579  34.137  1.00  0.00     0.031 C 
ATOM     60  C   UNL A   1      44.474  26.645  32.423  1.00  0.00     0.037 A 
BRANCH  47  61
ATOM     61  C   UNL A   1      43.059  23.840  27.128  1.00  0.00     0.064 A 
ATOM     62  C   UNL A   1      42.709  22.484  27.299  1.00  0.00     0.173 A 
ATOM     63  C   UNL A   1      43.755  24.135  25.942  1.00  0.00     0.173 A 
ATOM     64  F   UNL A   1      41.983  22.073  28.346  1.00  0.00    -0.203 F 
ATOM     65  C   UNL A   1      43.110  21.490  26.404  1.00  0.00     0.198 A 
ATOM     66  C   UNL A   1      44.199  23.134  25.072  1.00  0.00     0.198 A 
ATOM     67  F   UNL A   1      43.993  25.402  25.577  1.00  0.00    -0.203 F 
ATOM     68  F   UNL A   1      42.755  20.217  26.625  1.00  0.00    -0.200 F 
ATOM     69  C   UNL A   1      43.883  21.810  25.308  1.00  0.00     0.200 A 
ATOM     70  F   UNL A   1      44.942  23.461  24.005  1.00  0.00    -0.200 F 
ATOM     71  F   UNL A   1      44.306  20.852  24.474  1.00  0.00    -0.200 F 
ENDBRANCH  47  61
BRANCH  48  72
ATOM     72  C   UNL A   1      41.092  31.513  32.919  1.00  0.00     0.064 A 
ATOM     73  C   UNL A   1      40.805  32.827  32.520  1.00  0.00     0.173 A 
ATOM     74  C   UNL A   1      40.037  30.670  33.293  1.00  0.00     0.173 A 
ATOM     75  F   UNL A   1      41.802  33.683  32.251  1.00  0.00    -0.203 F 
ATOM     76  C   UNL A   1      39.512  33.167  32.171  1.00  0.00     0.198 A 
ATOM     77  C   UNL A   1      38.736  31.024  32.962  1.00  0.00     0.198 A 
ATOM     78  F   UNL A   1      40.284  29.448  33.784  1.00  0.00    -0.203 F 
ATOM     79  F   UNL A   1      39.269  34.325  31.541  1.00  0.00    -0.200 F 
ATOM     80  C   UNL A   1      38.497  32.241  32.334  1.00  0.00     0.200 A 
ATOM     81  F   UNL A   1      37.743  30.143  33.138  1.00  0.00    -0.200 F 
ATOM     82  F   UNL A   1      37.300  32.521  31.822  1.00  0.00    -0.200 F 
ENDBRANCH  48  72
BRANCH  60  83
ATOM     83  C   UNL A   1      45.056  25.547  33.267  1.00  0.00     0.064 A 
ATOM     84  C   UNL A   1      46.418  25.204  33.276  1.00  0.00     0.173 A 
ATOM     85  C   UNL A   1      44.250  24.879  34.219  1.00  0.00     0.173 A 
ATOM     86  F   UNL A   1      47.310  25.863  32.524  1.00  0.00    -0.203 F 
ATOM     87  C   UNL A   1      46.919  24.205  34.110  1.00  0.00     0.198 A 
ATOM     88  C   UNL A   1      44.767  23.935  35.099  1.00  0.00     0.198 A 
ATOM     89  F   UNL A   1      42.939  25.141  34.340  1.00  0.00    -0.203 F 
ATOM     90  F   UNL A   1      48.214  23.871  34.035  1.00  0.00    -0.200 F 
ATOM     91  C   UNL A   1      46.098  23.579  35.028  1.00  0.00     0.200 A 
ATOM     92  F   UNL A   1      43.971  23.386  36.027  1.00  0.00    -0.200 F 
ATOM     93  F   UNL A   1      46.593  22.653  35.860  1.00  0.00    -0.200 F 
ENDBRANCH  60  83
ENDBRANCH  34  35
ENDBRANCH  27  29
ENDBRANCH  26  27
ENDBRANCH  25  26
ENDBRANCH  24  25
ENDBRANCH   1  24
TORSDOF 16
ENDMDL
