MODEL 1
REMARK VINA RESULT:     -11.2      0.000      0.000
REMARK SMILES Cc1cc(OCCc2nc(CC(=O)OCCOCCOC(=O)c3ccc(-c4c5nc(c(-c6c(F)c(F)c(F)c(F)c6F)c6ccc([nH]6)c(-c6c(F)c(F)c(F)c(F)c6F)c6nc(c(-c7c(F)c(F)c(F)c(F)c7F)c7ccc4[nH]7)C=C6)C=C5)cc3)cs2)ccc1Cl
REMARK SMILES IDX 15 1 14 2 12 3 13 4 11 5 10 6 8 7 9 8 87 9 86 10 7 11 6 12
REMARK SMILES IDX 5 13 4 14 1 15 2 16 3 17 90 18 89 19 91 20 88 21 16 22 17 23
REMARK SMILES IDX 18 24 19 25 20 26 21 27 22 28 23 29 24 30 85 31 25 32 84 33
REMARK SMILES IDX 26 34 27 35 28 36 78 37 29 38 83 39 77 40 79 41 30 42 82 43
REMARK SMILES IDX 76 44 75 45 31 47 63 48 43 49 62 50 44 51 47 52 61 53 80 54
REMARK SMILES IDX 45 55 46 56 60 58 81 59 48 60 32 61 33 62 41 63 34 64 35 65
REMARK SMILES IDX 39 66 42 67 36 68 37 69 40 70 38 71 64 72 65 73 73 74 66 75
REMARK SMILES IDX 67 76 71 77 74 78 68 79 69 80 72 81 70 82 49 83 50 84 58 85
REMARK SMILES IDX 51 86 52 87 56 88 59 89 53 90 54 91 57 92 55 93
REMARK H PARENT 79 46 47 57
REMARK Flexibility Score: inf
ROOT
ATOM      1  C   UNL A   1      40.464  19.785  26.327  1.00  0.00     0.261 C 
ENDROOT
BRANCH   1   2
ATOM      2  O   UNL A   1      39.869  21.105  26.376  1.00  0.00    -0.463 OA
BRANCH   2   3
ATOM      3  C   UNL A   1      38.698  21.304  25.714  1.00  0.00     0.311 C 
ATOM      4  O   UNL A   1      38.119  20.441  25.064  1.00  0.00    -0.252 OA
BRANCH   3   5
ATOM      5  C   UNL A   1      38.204  22.732  25.805  1.00  0.00     0.179 C 
BRANCH   5   6
ATOM      6  C   UNL A   1      36.902  23.047  25.130  1.00  0.00     0.063 A 
ATOM      7  C   UNL A   1      34.957  24.170  25.046  1.00  0.00     0.096 A 
ATOM      8  N   UNL A   1      36.027  23.923  25.775  1.00  0.00    -0.246 NA
ATOM      9  S   UNL A   1      34.929  23.341  23.535  1.00  0.00    -0.127 S 
ATOM     10  C   UNL A   1      36.493  22.709  23.855  1.00  0.00     0.091 A 
BRANCH   7  11
ATOM     11  C   UNL A   1      33.896  25.193  25.379  1.00  0.00     0.109 C 
BRANCH  11  12
ATOM     12  C   UNL A   1      33.804  26.413  24.454  1.00  0.00     0.237 C 
BRANCH  12  13
ATOM     13  O   UNL A   1      32.697  26.372  23.539  1.00  0.00    -0.493 OA
BRANCH  13  14
ATOM     14  C   UNL A   1      31.777  27.372  23.669  1.00  0.00     0.119 A 
ATOM     15  C   UNL A   1      31.388  30.648  25.445  1.00  0.00     0.046 C 
ATOM     16  C   UNL A   1      31.013  29.495  24.570  1.00  0.00    -0.029 A 
ATOM     17  C   UNL A   1      31.867  28.386  24.616  1.00  0.00     0.051 A 
ATOM     18  C   UNL A   1      29.986  29.515  23.620  1.00  0.00     0.044 A 
ATOM     19  C   UNL A   1      29.831  28.450  22.730  1.00  0.00     0.024 A 
ATOM     20  Cl  UNL A   1      28.877  30.828  23.496  1.00  0.00    -0.084 Cl
ATOM     21  C   UNL A   1      30.729  27.381  22.752  1.00  0.00     0.048 A 
ENDBRANCH  13  14
ENDBRANCH  12  13
ENDBRANCH  11  12
ENDBRANCH   7  11
ENDBRANCH   5   6
ENDBRANCH   3   5
ENDBRANCH   2   3
ENDBRANCH   1   2
BRANCH   1  22
ATOM     22  C   UNL A   1      41.993  19.840  26.453  1.00  0.00     0.202 C 
BRANCH  22  23
ATOM     23  O   UNL A   1      42.694  19.635  25.226  1.00  0.00    -0.374 OA
BRANCH  23  24
ATOM     24  C   UNL A   1      43.847  20.446  25.034  1.00  0.00     0.202 C 
BRANCH  24  25
ATOM     25  C   UNL A   1      43.804  21.801  25.746  1.00  0.00     0.261 C 
BRANCH  25  26
ATOM     26  O   UNL A   1      43.107  22.804  24.982  1.00  0.00    -0.460 OA
BRANCH  26  27
ATOM     27  C   UNL A   1      43.686  24.025  24.999  1.00  0.00     0.338 C 
ATOM     28  O   UNL A   1      44.662  24.389  24.349  1.00  0.00    -0.246 OA
BRANCH  27  29
ATOM     29  C   UNL A   1      42.940  24.960  25.860  1.00  0.00     0.060 A 
ATOM     30  C   UNL A   1      43.499  26.225  26.074  1.00  0.00     0.016 A 
ATOM     31  C   UNL A   1      41.768  24.586  26.527  1.00  0.00     0.016 A 
ATOM     32  C   UNL A   1      42.930  27.094  27.005  1.00  0.00     0.010 A 
ATOM     33  C   UNL A   1      41.187  25.470  27.447  1.00  0.00     0.010 A 
ATOM     34  C   UNL A   1      41.793  26.709  27.730  1.00  0.00    -0.014 A 
BRANCH  34  35
ATOM     35  C   UNL A   1      41.352  27.531  28.889  1.00  0.00     0.031 A 
ATOM     36  C   UNL A   1      42.133  27.462  30.176  1.00  0.00     0.074 A 
ATOM     37  C   UNL A   1      40.311  28.378  28.788  1.00  0.00     0.049 A 
ATOM     38  N   UNL A   1      41.933  28.091  31.308  1.00  0.00    -0.248 NA
ATOM     39  C   UNL A   1      43.296  26.561  30.190  1.00  0.00     0.031 C 
ATOM     40  C   UNL A   1      39.494  28.573  27.593  1.00  0.00     0.029 A 
ATOM     41  N   UNL A   1      39.766  29.236  29.712  1.00  0.00    -0.354 N 
ATOM     42  C   UNL A   1      42.939  27.659  32.164  1.00  0.00     0.074 A 
ATOM     43  C   UNL A   1      43.722  26.684  31.438  1.00  0.00     0.031 C 
ATOM     44  C   UNL A   1      38.551  29.493  27.856  1.00  0.00     0.029 A 
ATOM     45  C   UNL A   1      38.675  29.927  29.246  1.00  0.00     0.049 A 
ATOM     46  H   UNL A   1      40.124  29.346  30.623  1.00  0.00     0.167 HD
ATOM     47  C   UNL A   1      43.200  28.051  33.434  1.00  0.00     0.037 A 
ATOM     48  C   UNL A   1      37.858  30.797  29.875  1.00  0.00     0.037 A 
ATOM     49  C   UNL A   1      42.429  29.028  34.160  1.00  0.00     0.049 A 
ATOM     50  C   UNL A   1      38.124  31.160  31.315  1.00  0.00     0.074 A 
ATOM     51  C   UNL A   1      42.629  29.503  35.444  1.00  0.00     0.029 A 
ATOM     52  N   UNL A   1      41.307  29.675  33.665  1.00  0.00    -0.354 N 
ATOM     53  N   UNL A   1      39.093  30.768  32.106  1.00  0.00    -0.248 NA
ATOM     54  C   UNL A   1      37.179  32.093  31.948  1.00  0.00     0.031 C 
ATOM     55  C   UNL A   1      41.594  30.393  35.749  1.00  0.00     0.029 A 
ATOM     56  C   UNL A   1      40.786  30.522  34.631  1.00  0.00     0.049 A 
ATOM     57  H   UNL A   1      40.935  29.552  32.762  1.00  0.00     0.167 HD
ATOM     58  C   UNL A   1      38.895  31.428  33.313  1.00  0.00     0.074 A 
ATOM     59  C   UNL A   1      37.720  32.257  33.148  1.00  0.00     0.031 C 
ATOM     60  C   UNL A   1      39.622  31.353  34.456  1.00  0.00     0.037 A 
BRANCH  47  61
ATOM     61  C   UNL A   1      44.360  27.406  34.137  1.00  0.00     0.064 A 
ATOM     62  C   UNL A   1      44.228  26.183  34.812  1.00  0.00     0.173 A 
ATOM     63  C   UNL A   1      45.631  28.001  34.103  1.00  0.00     0.173 A 
ATOM     64  F   UNL A   1      43.032  25.578  34.886  1.00  0.00    -0.203 F 
ATOM     65  C   UNL A   1      45.318  25.593  35.447  1.00  0.00     0.198 A 
ATOM     66  C   UNL A   1      46.725  27.392  34.710  1.00  0.00     0.198 A 
ATOM     67  F   UNL A   1      45.814  29.168  33.466  1.00  0.00    -0.203 F 
ATOM     68  F   UNL A   1      45.158  24.449  36.127  1.00  0.00    -0.200 F 
ATOM     69  C   UNL A   1      46.567  26.193  35.389  1.00  0.00     0.200 A 
ATOM     70  F   UNL A   1      47.934  27.967  34.640  1.00  0.00    -0.200 F 
ATOM     71  F   UNL A   1      47.617  25.621  35.993  1.00  0.00    -0.200 F 
ENDBRANCH  47  61
BRANCH  48  72
ATOM     72  C   UNL A   1      36.694  31.378  29.154  1.00  0.00     0.064 A 
ATOM     73  C   UNL A   1      36.667  32.730  28.785  1.00  0.00     0.173 A 
ATOM     74  C   UNL A   1      35.569  30.597  28.848  1.00  0.00     0.173 A 
ATOM     75  F   UNL A   1      37.705  33.525  29.080  1.00  0.00    -0.203 F 
ATOM     76  C   UNL A   1      35.552  33.282  28.157  1.00  0.00     0.198 A 
ATOM     77  C   UNL A   1      34.468  31.142  28.192  1.00  0.00     0.198 A 
ATOM     78  F   UNL A   1      35.540  29.299  29.186  1.00  0.00    -0.203 F 
ATOM     79  F   UNL A   1      35.530  34.590  27.865  1.00  0.00    -0.200 F 
ATOM     80  C   UNL A   1      34.456  32.487  27.856  1.00  0.00     0.200 A 
ATOM     81  F   UNL A   1      33.416  30.368  27.894  1.00  0.00    -0.200 F 
ATOM     82  F   UNL A   1      33.385  33.019  27.252  1.00  0.00    -0.200 F 
ENDBRANCH  48  72
BRANCH  60  83
ATOM     83  C   UNL A   1      39.200  32.219  35.608  1.00  0.00     0.064 A 
ATOM     84  C   UNL A   1      38.387  31.732  36.643  1.00  0.00     0.173 A 
ATOM     85  C   UNL A   1      39.654  33.544  35.704  1.00  0.00     0.173 A 
ATOM     86  F   UNL A   1      37.914  30.477  36.595  1.00  0.00    -0.203 F 
ATOM     87  C   UNL A   1      38.023  32.545  37.713  1.00  0.00     0.198 A 
ATOM     88  C   UNL A   1      39.317  34.343  36.793  1.00  0.00     0.198 A 
ATOM     89  F   UNL A   1      40.442  34.060  34.748  1.00  0.00    -0.203 F 
ATOM     90  F   UNL A   1      37.206  32.071  38.665  1.00  0.00    -0.200 F 
ATOM     91  C   UNL A   1      38.495  33.847  37.793  1.00  0.00     0.200 A 
ATOM     92  F   UNL A   1      39.788  35.595  36.875  1.00  0.00    -0.200 F 
ATOM     93  F   UNL A   1      38.153  34.624  38.829  1.00  0.00    -0.200 F 
ENDBRANCH  60  83
ENDBRANCH  34  35
ENDBRANCH  27  29
ENDBRANCH  26  27
ENDBRANCH  25  26
ENDBRANCH  24  25
ENDBRANCH  23  24
ENDBRANCH  22  23
ENDBRANCH   1  22
TORSDOF 19
ENDMDL
MODEL 2
REMARK VINA RESULT:     -10.5      5.650     11.048
REMARK SMILES Cc1cc(OCCc2nc(CC(=O)OCCOCCOC(=O)c3ccc(-c4c5nc(c(-c6c(F)c(F)c(F)c(F)c6F)c6ccc([nH]6)c(-c6c(F)c(F)c(F)c(F)c6F)c6nc(c(-c7c(F)c(F)c(F)c(F)c7F)c7ccc4[nH]7)C=C6)C=C5)cc3)cs2)ccc1Cl
REMARK SMILES IDX 15 1 14 2 12 3 13 4 11 5 10 6 8 7 9 8 87 9 86 10 7 11 6 12
REMARK SMILES IDX 5 13 4 14 1 15 2 16 3 17 90 18 89 19 91 20 88 21 16 22 17 23
REMARK SMILES IDX 18 24 19 25 20 26 21 27 22 28 23 29 24 30 85 31 25 32 84 33
REMARK SMILES IDX 26 34 27 35 28 36 78 37 29 38 83 39 77 40 79 41 30 42 82 43
REMARK SMILES IDX 76 44 75 45 31 47 63 48 43 49 62 50 44 51 47 52 61 53 80 54
REMARK SMILES IDX 45 55 46 56 60 58 81 59 48 60 32 61 33 62 41 63 34 64 35 65
REMARK SMILES IDX 39 66 42 67 36 68 37 69 40 70 38 71 64 72 65 73 73 74 66 75
REMARK SMILES IDX 67 76 71 77 74 78 68 79 69 80 72 81 70 82 49 83 50 84 58 85
REMARK SMILES IDX 51 86 52 87 56 88 59 89 53 90 54 91 57 92 55 93
REMARK H PARENT 79 46 47 57
REMARK Flexibility Score: inf
ROOT
ATOM      1  C   UNL A   1      34.806  33.416  28.233  1.00  0.00     0.261 C 
ENDROOT
BRANCH   1   2
ATOM      2  O   UNL A   1      33.719  32.484  28.014  1.00  0.00    -0.463 OA
BRANCH   2   3
ATOM      3  C   UNL A   1      34.028  31.215  27.637  1.00  0.00     0.311 C 
ATOM      4  O   UNL A   1      35.150  30.728  27.716  1.00  0.00    -0.252 OA
BRANCH   3   5
ATOM      5  C   UNL A   1      32.851  30.472  27.042  1.00  0.00     0.179 C 
BRANCH   5   6
ATOM      6  C   UNL A   1      33.162  29.327  26.124  1.00  0.00     0.063 A 
ATOM      7  C   UNL A   1      33.466  27.130  25.761  1.00  0.00     0.096 A 
ATOM      8  N   UNL A   1      33.262  28.051  26.682  1.00  0.00    -0.246 NA
ATOM      9  S   UNL A   1      33.569  27.750  24.157  1.00  0.00    -0.127 S 
ATOM     10  C   UNL A   1      33.214  29.324  24.743  1.00  0.00     0.091 A 
BRANCH   7  11
ATOM     11  C   UNL A   1      33.463  25.639  26.009  1.00  0.00     0.109 C 
BRANCH  11  12
ATOM     12  C   UNL A   1      33.068  24.747  24.825  1.00  0.00     0.237 C 
BRANCH  12  13
ATOM     13  O   UNL A   1      34.179  24.113  24.173  1.00  0.00    -0.493 OA
BRANCH  13  14
ATOM     14  C   UNL A   1      34.343  22.783  24.429  1.00  0.00     0.119 A 
ATOM     15  C   UNL A   1      32.401  19.589  24.167  1.00  0.00     0.046 C 
ATOM     16  C   UNL A   1      33.557  20.484  24.482  1.00  0.00    -0.029 A 
ATOM     17  C   UNL A   1      33.303  21.860  24.418  1.00  0.00     0.051 A 
ATOM     18  C   UNL A   1      34.873  20.050  24.674  1.00  0.00     0.044 A 
ATOM     19  C   UNL A   1      35.909  20.980  24.785  1.00  0.00     0.024 A 
ATOM     20  Cl  UNL A   1      35.282  18.380  24.781  1.00  0.00    -0.084 Cl
ATOM     21  C   UNL A   1      35.645  22.345  24.658  1.00  0.00     0.048 A 
ENDBRANCH  13  14
ENDBRANCH  12  13
ENDBRANCH  11  12
ENDBRANCH   7  11
ENDBRANCH   5   6
ENDBRANCH   3   5
ENDBRANCH   2   3
ENDBRANCH   1   2
BRANCH   1  22
ATOM     22  C   UNL A   1      34.341  34.678  28.971  1.00  0.00     0.202 C 
BRANCH  22  23
ATOM     23  O   UNL A   1      33.622  34.425  30.179  1.00  0.00    -0.374 OA
BRANCH  23  24
ATOM     24  C   UNL A   1      34.310  33.648  31.152  1.00  0.00     0.202 C 
BRANCH  24  25
ATOM     25  C   UNL A   1      34.996  34.460  32.253  1.00  0.00     0.261 C 
BRANCH  25  26
ATOM     26  O   UNL A   1      36.372  34.077  32.445  1.00  0.00    -0.460 OA
BRANCH  26  27
ATOM     27  C   UNL A   1      36.541  32.855  32.996  1.00  0.00     0.338 C 
ATOM     28  O   UNL A   1      35.994  32.416  34.004  1.00  0.00    -0.246 OA
BRANCH  27  29
ATOM     29  C   UNL A   1      37.435  32.017  32.176  1.00  0.00     0.060 A 
ATOM     30  C   UNL A   1      38.493  31.372  32.829  1.00  0.00     0.016 A 
ATOM     31  C   UNL A   1      37.311  31.933  30.785  1.00  0.00     0.016 A 
ATOM     32  C   UNL A   1      39.466  30.701  32.090  1.00  0.00     0.010 A 
ATOM     33  C   UNL A   1      38.281  31.241  30.047  1.00  0.00     0.010 A 
ATOM     34  C   UNL A   1      39.392  30.664  30.690  1.00  0.00    -0.014 A 
BRANCH  34  35
ATOM     35  C   UNL A   1      40.559  30.171  29.910  1.00  0.00     0.031 A 
ATOM     36  C   UNL A   1      41.709  31.107  29.640  1.00  0.00     0.074 A 
ATOM     37  C   UNL A   1      40.632  28.893  29.497  1.00  0.00     0.049 A 
ATOM     38  N   UNL A   1      42.825  30.892  28.988  1.00  0.00    -0.248 NA
ATOM     39  C   UNL A   1      41.585  32.471  30.178  1.00  0.00     0.031 C 
ATOM     40  C   UNL A   1      39.611  27.872  29.722  1.00  0.00     0.029 A 
ATOM     41  N   UNL A   1      41.617  28.235  28.800  1.00  0.00    -0.354 N 
ATOM     42  C   UNL A   1      43.528  32.090  29.035  1.00  0.00     0.074 A 
ATOM     43  C   UNL A   1      42.698  33.040  29.741  1.00  0.00     0.031 C 
ATOM     44  C   UNL A   1      40.023  26.716  29.174  1.00  0.00     0.029 A 
ATOM     45  C   UNL A   1      41.319  26.922  28.529  1.00  0.00     0.049 A 
ATOM     46  H   UNL A   1      42.459  28.664  28.521  1.00  0.00     0.167 HD
ATOM     47  C   UNL A   1      44.762  32.370  28.550  1.00  0.00     0.037 A 
ATOM     48  C   UNL A   1      42.004  25.997  27.827  1.00  0.00     0.037 A 
ATOM     49  C   UNL A   1      45.597  31.426  27.853  1.00  0.00     0.049 A 
ATOM     50  C   UNL A   1      43.342  26.356  27.230  1.00  0.00     0.074 A 
ATOM     51  C   UNL A   1      46.870  31.613  27.343  1.00  0.00     0.029 A 
ATOM     52  N   UNL A   1      45.240  30.117  27.565  1.00  0.00    -0.354 N 
ATOM     53  N   UNL A   1      44.010  27.482  27.304  1.00  0.00    -0.248 NA
ATOM     54  C   UNL A   1      44.024  25.309  26.454  1.00  0.00     0.031 C 
ATOM     55  C   UNL A   1      47.259  30.437  26.694  1.00  0.00     0.029 A 
ATOM     56  C   UNL A   1      46.257  29.496  26.857  1.00  0.00     0.049 A 
ATOM     57  H   UNL A   1      44.392  29.692  27.826  1.00  0.00     0.167 HD
ATOM     58  C   UNL A   1      45.199  27.269  26.616  1.00  0.00     0.074 A 
ATOM     59  C   UNL A   1      45.168  25.902  26.142  1.00  0.00     0.031 C 
ATOM     60  C   UNL A   1      46.224  28.131  26.397  1.00  0.00     0.037 A 
BRANCH  47  61
ATOM     61  C   UNL A   1      45.282  33.767  28.735  1.00  0.00     0.064 A 
ATOM     62  C   UNL A   1      46.099  34.113  29.822  1.00  0.00     0.173 A 
ATOM     63  C   UNL A   1      44.989  34.764  27.792  1.00  0.00     0.173 A 
ATOM     64  F   UNL A   1      46.399  33.202  30.759  1.00  0.00    -0.203 F 
ATOM     65  C   UNL A   1      46.582  35.411  29.970  1.00  0.00     0.198 A 
ATOM     66  C   UNL A   1      45.500  36.052  27.926  1.00  0.00     0.198 A 
ATOM     67  F   UNL A   1      44.216  34.485  26.731  1.00  0.00    -0.203 F 
ATOM     68  F   UNL A   1      47.321  35.732  31.042  1.00  0.00    -0.200 F 
ATOM     69  C   UNL A   1      46.289  36.377  29.019  1.00  0.00     0.200 A 
ATOM     70  F   UNL A   1      45.228  36.979  26.997  1.00  0.00    -0.200 F 
ATOM     71  F   UNL A   1      46.761  37.624  29.158  1.00  0.00    -0.200 F 
ENDBRANCH  47  61
BRANCH  48  72
ATOM     72  C   UNL A   1      41.431  24.639  27.630  1.00  0.00     0.064 A 
ATOM     73  C   UNL A   1      41.985  23.516  28.260  1.00  0.00     0.173 A 
ATOM     74  C   UNL A   1      40.335  24.432  26.779  1.00  0.00     0.173 A 
ATOM     75  F   UNL A   1      43.053  23.656  29.060  1.00  0.00    -0.203 F 
ATOM     76  C   UNL A   1      41.479  22.238  28.031  1.00  0.00     0.198 A 
ATOM     77  C   UNL A   1      39.809  23.158  26.575  1.00  0.00     0.198 A 
ATOM     78  F   UNL A   1      39.771  25.471  26.146  1.00  0.00    -0.203 F 
ATOM     79  F   UNL A   1      42.063  21.176  28.602  1.00  0.00    -0.200 F 
ATOM     80  C   UNL A   1      40.388  22.061  27.194  1.00  0.00     0.200 A 
ATOM     81  F   UNL A   1      38.748  22.993  25.774  1.00  0.00    -0.200 F 
ATOM     82  F   UNL A   1      39.902  20.832  26.974  1.00  0.00    -0.200 F 
ENDBRANCH  48  72
BRANCH  60  83
ATOM     83  C   UNL A   1      47.419  27.615  25.647  1.00  0.00     0.064 A 
ATOM     84  C   UNL A   1      47.512  27.702  24.250  1.00  0.00     0.173 A 
ATOM     85  C   UNL A   1      48.510  27.068  26.341  1.00  0.00     0.173 A 
ATOM     86  F   UNL A   1      46.493  28.204  23.536  1.00  0.00    -0.203 F 
ATOM     87  C   UNL A   1      48.638  27.236  23.576  1.00  0.00     0.198 A 
ATOM     88  C   UNL A   1      49.648  26.635  25.667  1.00  0.00     0.198 A 
ATOM     89  F   UNL A   1      48.480  26.969  27.680  1.00  0.00    -0.203 F 
ATOM     90  F   UNL A   1      48.683  27.286  22.237  1.00  0.00    -0.200 F 
ATOM     91  C   UNL A   1      49.709  26.711  24.284  1.00  0.00     0.200 A 
ATOM     92  F   UNL A   1      50.688  26.143  26.355  1.00  0.00    -0.200 F 
ATOM     93  F   UNL A   1      50.795  26.274  23.633  1.00  0.00    -0.200 F 
ENDBRANCH  60  83
ENDBRANCH  34  35
ENDBRANCH  27  29
ENDBRANCH  26  27
ENDBRANCH  25  26
ENDBRANCH  24  25
ENDBRANCH  23  24
ENDBRANCH  22  23
ENDBRANCH   1  22
TORSDOF 19
ENDMDL
MODEL 3
REMARK VINA RESULT:     -10.5      3.773      9.747
REMARK SMILES Cc1cc(OCCc2nc(CC(=O)OCCOCCOC(=O)c3ccc(-c4c5nc(c(-c6c(F)c(F)c(F)c(F)c6F)c6ccc([nH]6)c(-c6c(F)c(F)c(F)c(F)c6F)c6nc(c(-c7c(F)c(F)c(F)c(F)c7F)c7ccc4[nH]7)C=C6)C=C5)cc3)cs2)ccc1Cl
REMARK SMILES IDX 15 1 14 2 12 3 13 4 11 5 10 6 8 7 9 8 87 9 86 10 7 11 6 12
REMARK SMILES IDX 5 13 4 14 1 15 2 16 3 17 90 18 89 19 91 20 88 21 16 22 17 23
REMARK SMILES IDX 18 24 19 25 20 26 21 27 22 28 23 29 24 30 85 31 25 32 84 33
REMARK SMILES IDX 26 34 27 35 28 36 78 37 29 38 83 39 77 40 79 41 30 42 82 43
REMARK SMILES IDX 76 44 75 45 31 47 63 48 43 49 62 50 44 51 47 52 61 53 80 54
REMARK SMILES IDX 45 55 46 56 60 58 81 59 48 60 32 61 33 62 41 63 34 64 35 65
REMARK SMILES IDX 39 66 42 67 36 68 37 69 40 70 38 71 64 72 65 73 73 74 66 75
REMARK SMILES IDX 67 76 71 77 74 78 68 79 69 80 72 81 70 82 49 83 50 84 58 85
REMARK SMILES IDX 51 86 52 87 56 88 59 89 53 90 54 91 57 92 55 93
REMARK H PARENT 79 46 47 57
REMARK Flexibility Score: inf
ROOT
ATOM      1  C   UNL A   1      34.543  31.409  28.361  1.00  0.00     0.261 C 
ENDROOT
BRANCH   1   2
ATOM      2  O   UNL A   1      34.516  30.618  27.148  1.00  0.00    -0.463 OA
BRANCH   2   3
ATOM      3  C   UNL A   1      33.346  30.019  26.799  1.00  0.00     0.311 C 
ATOM      4  O   UNL A   1      32.409  29.841  27.569  1.00  0.00    -0.252 OA
BRANCH   3   5
ATOM      5  C   UNL A   1      33.337  29.530  25.367  1.00  0.00     0.179 C 
BRANCH   5   6
ATOM      6  C   UNL A   1      32.801  28.150  25.121  1.00  0.00     0.063 A 
ATOM      7  C   UNL A   1      33.004  25.916  25.243  1.00  0.00     0.096 A 
ATOM      8  N   UNL A   1      33.619  27.065  25.440  1.00  0.00    -0.246 NA
ATOM      9  S   UNL A   1      31.397  26.072  24.639  1.00  0.00    -0.127 S 
ATOM     10  C   UNL A   1      31.521  27.780  24.756  1.00  0.00     0.091 A 
BRANCH   7  11
ATOM     11  C   UNL A   1      33.546  24.562  25.638  1.00  0.00     0.109 C 
BRANCH  11  12
ATOM     12  C   UNL A   1      34.852  24.122  24.966  1.00  0.00     0.237 C 
BRANCH  12  13
ATOM     13  O   UNL A   1      36.038  24.522  25.672  1.00  0.00    -0.493 OA
BRANCH  13  14
ATOM     14  C   UNL A   1      37.060  23.617  25.683  1.00  0.00     0.119 A 
ATOM     15  C   UNL A   1      40.351  23.084  27.391  1.00  0.00     0.046 C 
ATOM     16  C   UNL A   1      39.214  22.806  26.462  1.00  0.00    -0.029 A 
ATOM     17  C   UNL A   1      38.284  23.841  26.303  1.00  0.00     0.051 A 
ATOM     18  C   UNL A   1      38.941  21.561  25.883  1.00  0.00     0.044 A 
ATOM     19  C   UNL A   1      37.755  21.362  25.174  1.00  0.00     0.024 A 
ATOM     20  Cl  UNL A   1      40.031  20.233  26.012  1.00  0.00    -0.084 Cl
ATOM     21  C   UNL A   1      36.813  22.388  25.078  1.00  0.00     0.048 A 
ENDBRANCH  13  14
ENDBRANCH  12  13
ENDBRANCH  11  12
ENDBRANCH   7  11
ENDBRANCH   5   6
ENDBRANCH   3   5
ENDBRANCH   2   3
ENDBRANCH   1   2
BRANCH   1  22
ATOM     22  C   UNL A   1      34.762  32.900  28.069  1.00  0.00     0.202 C 
BRANCH  22  23
ATOM     23  O   UNL A   1      34.200  33.781  29.043  1.00  0.00    -0.374 OA
BRANCH  23  24
ATOM     24  C   UNL A   1      33.737  35.031  28.545  1.00  0.00     0.202 C 
BRANCH  24  25
ATOM     25  C   UNL A   1      32.985  35.889  29.566  1.00  0.00     0.261 C 
BRANCH  25  26
ATOM     26  O   UNL A   1      32.452  35.111  30.655  1.00  0.00    -0.460 OA
BRANCH  26  27
ATOM     27  C   UNL A   1      32.668  35.639  31.880  1.00  0.00     0.338 C 
ATOM     28  O   UNL A   1      31.987  36.486  32.451  1.00  0.00    -0.246 OA
BRANCH  27  29
ATOM     29  C   UNL A   1      33.822  35.003  32.541  1.00  0.00     0.060 A 
ATOM     30  C   UNL A   1      35.054  35.665  32.468  1.00  0.00     0.016 A 
ATOM     31  C   UNL A   1      33.737  33.741  33.140  1.00  0.00     0.016 A 
ATOM     32  C   UNL A   1      36.213  35.041  32.927  1.00  0.00     0.010 A 
ATOM     33  C   UNL A   1      34.901  33.125  33.620  1.00  0.00     0.010 A 
ATOM     34  C   UNL A   1      36.154  33.749  33.470  1.00  0.00    -0.014 A 
BRANCH  34  35
ATOM     35  C   UNL A   1      37.416  33.003  33.718  1.00  0.00     0.031 A 
ATOM     36  C   UNL A   1      38.186  33.265  34.987  1.00  0.00     0.074 A 
ATOM     37  C   UNL A   1      37.847  32.057  32.863  1.00  0.00     0.049 A 
ATOM     38  N   UNL A   1      39.305  32.730  35.410  1.00  0.00    -0.248 NA
ATOM     39  C   UNL A   1      37.619  34.267  35.903  1.00  0.00     0.031 C 
ATOM     40  C   UNL A   1      37.181  31.675  31.620  1.00  0.00     0.029 A 
ATOM     41  N   UNL A   1      38.953  31.243  32.916  1.00  0.00    -0.354 N 
ATOM     42  C   UNL A   1      39.574  33.332  36.633  1.00  0.00     0.074 A 
ATOM     43  C   UNL A   1      38.528  34.302  36.866  1.00  0.00     0.031 C 
ATOM     44  C   UNL A   1      37.891  30.700  31.028  1.00  0.00     0.029 A 
ATOM     45  C   UNL A   1      39.079  30.413  31.829  1.00  0.00     0.049 A 
ATOM     46  H   UNL A   1      39.595  31.253  33.663  1.00  0.00     0.167 HD
ATOM     47  C   UNL A   1      40.591  33.087  37.495  1.00  0.00     0.037 A 
ATOM     48  C   UNL A   1      40.050  29.534  31.510  1.00  0.00     0.037 A 
ATOM     49  C   UNL A   1      41.631  32.116  37.274  1.00  0.00     0.049 A 
ATOM     50  C   UNL A   1      41.213  29.335  32.450  1.00  0.00     0.074 A 
ATOM     51  C   UNL A   1      42.691  31.785  38.098  1.00  0.00     0.029 A 
ATOM     52  N   UNL A   1      41.744  31.324  36.140  1.00  0.00    -0.354 N 
ATOM     53  N   UNL A   1      41.444  29.888  33.616  1.00  0.00    -0.248 NA
ATOM     54  C   UNL A   1      42.251  28.382  32.027  1.00  0.00     0.031 C 
ATOM     55  C   UNL A   1      43.479  30.835  37.440  1.00  0.00     0.029 A 
ATOM     56  C   UNL A   1      42.874  30.527  36.233  1.00  0.00     0.049 A 
ATOM     57  H   UNL A   1      41.115  31.326  35.383  1.00  0.00     0.167 HD
ATOM     58  C   UNL A   1      42.629  29.329  34.079  1.00  0.00     0.074 A 
ATOM     59  C   UNL A   1      43.065  28.383  33.074  1.00  0.00     0.031 C 
ATOM     60  C   UNL A   1      43.296  29.579  35.233  1.00  0.00     0.037 A 
BRANCH  47  61
ATOM     61  C   UNL A   1      40.644  33.901  38.757  1.00  0.00     0.064 A 
ATOM     62  C   UNL A   1      39.935  33.525  39.909  1.00  0.00     0.173 A 
ATOM     63  C   UNL A   1      41.445  35.051  38.826  1.00  0.00     0.173 A 
ATOM     64  F   UNL A   1      39.145  32.441  39.892  1.00  0.00    -0.203 F 
ATOM     65  C   UNL A   1      40.008  34.285  41.073  1.00  0.00     0.198 A 
ATOM     66  C   UNL A   1      41.541  35.789  40.002  1.00  0.00     0.198 A 
ATOM     67  F   UNL A   1      42.148  35.451  37.755  1.00  0.00    -0.203 F 
ATOM     68  F   UNL A   1      39.284  33.935  42.147  1.00  0.00    -0.200 F 
ATOM     69  C   UNL A   1      40.816  35.411  41.122  1.00  0.00     0.200 A 
ATOM     70  F   UNL A   1      42.334  36.868  40.051  1.00  0.00    -0.200 F 
ATOM     71  F   UNL A   1      40.890  36.137  42.246  1.00  0.00    -0.200 F 
ENDBRANCH  47  61
BRANCH  48  72
ATOM     72  C   UNL A   1      39.981  28.783  30.228  1.00  0.00     0.064 A 
ATOM     73  C   UNL A   1      39.421  27.499  30.166  1.00  0.00     0.173 A 
ATOM     74  C   UNL A   1      40.503  29.323  29.042  1.00  0.00     0.173 A 
ATOM     75  F   UNL A   1      38.935  26.927  31.277  1.00  0.00    -0.203 F 
ATOM     76  C   UNL A   1      39.406  26.777  28.975  1.00  0.00     0.198 A 
ATOM     77  C   UNL A   1      40.458  28.613  27.844  1.00  0.00     0.198 A 
ATOM     78  F   UNL A   1      41.056  30.545  29.048  1.00  0.00    -0.203 F 
ATOM     79  F   UNL A   1      38.915  25.530  28.956  1.00  0.00    -0.200 F 
ATOM     80  C   UNL A   1      39.918  27.336  27.814  1.00  0.00     0.200 A 
ATOM     81  F   UNL A   1      40.945  29.161  26.724  1.00  0.00    -0.200 F 
ATOM     82  F   UNL A   1      39.903  26.641  26.669  1.00  0.00    -0.200 F 
ENDBRANCH  48  72
BRANCH  60  83
ATOM     83  C   UNL A   1      44.546  28.790  35.500  1.00  0.00     0.064 A 
ATOM     84  C   UNL A   1      45.813  29.256  35.117  1.00  0.00     0.173 A 
ATOM     85  C   UNL A   1      44.482  27.570  36.191  1.00  0.00     0.173 A 
ATOM     86  F   UNL A   1      45.931  30.410  34.442  1.00  0.00    -0.203 F 
ATOM     87  C   UNL A   1      46.962  28.519  35.392  1.00  0.00     0.198 A 
ATOM     88  C   UNL A   1      45.635  26.852  36.494  1.00  0.00     0.198 A 
ATOM     89  F   UNL A   1      43.297  27.080  36.590  1.00  0.00    -0.203 F 
ATOM     90  F   UNL A   1      48.156  28.962  34.974  1.00  0.00    -0.200 F 
ATOM     91  C   UNL A   1      46.874  27.322  36.088  1.00  0.00     0.200 A 
ATOM     92  F   UNL A   1      45.549  25.705  37.182  1.00  0.00    -0.200 F 
ATOM     93  F   UNL A   1      47.982  26.621  36.360  1.00  0.00    -0.200 F 
ENDBRANCH  60  83
ENDBRANCH  34  35
ENDBRANCH  27  29
ENDBRANCH  26  27
ENDBRANCH  25  26
ENDBRANCH  24  25
ENDBRANCH  23  24
ENDBRANCH  22  23
ENDBRANCH   1  22
TORSDOF 19
ENDMDL
