MODEL 1
REMARK VINA RESULT:     -13.3      0.000      0.000
REMARK SMILES O=C(OCCOCCOC(=O)c1sccc1S(=O)(=O)Nc1ccccc1N1CCCCC1)c1ccc(-c2c3nc(c(-c4c(F)c(F)c(F)c(F)c4F)c4ccc([nH]4)c(-c4c(F)c(F)c(F)c(F)c4F)c4nc(c(-c5c(F)c(F)c(F)c(F)c5F)c5ccc2[nH]5)C=C4)C=C3)cc1
REMARK SMILES IDX 7 1 6 2 5 3 4 4 3 5 2 6 1 7 33 8 34 9 95 10 35 11 94 12
REMARK SMILES IDX 36 13 37 14 38 15 88 16 39 17 93 18 87 19 89 20 40 21 92 22
REMARK SMILES IDX 86 23 85 24 41 26 73 27 53 28 72 29 54 30 57 31 71 32 90 33
REMARK SMILES IDX 55 34 56 35 70 37 91 38 58 39 42 40 43 41 51 42 44 43 45 44
REMARK SMILES IDX 49 45 52 46 46 47 47 48 50 49 48 50 74 51 75 52 83 53 76 54
REMARK SMILES IDX 77 55 81 56 84 57 78 58 79 59 82 60 80 61 59 62 60 63 68 64
REMARK SMILES IDX 61 65 62 66 66 67 69 68 63 69 64 70 67 71 65 72 8 73 9 74
REMARK SMILES IDX 10 75 11 76 12 77 13 78 16 79 14 80 15 81 17 82 18 83 19 84
REMARK SMILES IDX 20 85 21 87 22 88 26 89 23 90 25 91 24 92 27 93 28 94 32 95
REMARK SMILES IDX 29 96 31 97 30 98
REMARK H PARENT 89 25 57 36 20 86
REMARK Flexibility Score: inf
ROOT
ATOM      1  C   UNL A   1      33.100  32.378  27.578  1.00  0.00     0.202 C 
ENDROOT
BRANCH   1   2
ATOM      2  O   UNL A   1      32.632  33.690  27.955  1.00  0.00    -0.374 OA
BRANCH   2   3
ATOM      3  C   UNL A   1      33.355  34.577  28.834  1.00  0.00     0.202 C 
BRANCH   3   4
ATOM      4  C   UNL A   1      32.907  35.989  29.299  1.00  0.00     0.261 C 
BRANCH   4   5
ATOM      5  O   UNL A   1      32.169  36.140  30.523  1.00  0.00    -0.460 OA
BRANCH   5   6
ATOM      6  C   UNL A   1      32.863  36.663  31.590  1.00  0.00     0.338 C 
ATOM      7  O   UNL A   1      32.900  37.848  31.869  1.00  0.00    -0.246 OA
BRANCH   6   8
ATOM      8  C   UNL A   1      33.651  35.628  32.301  1.00  0.00     0.060 A 
ATOM      9  C   UNL A   1      34.960  35.961  32.556  1.00  0.00     0.016 A 
ATOM     10  C   UNL A   1      33.201  34.368  32.671  1.00  0.00     0.016 A 
ATOM     11  C   UNL A   1      35.910  35.001  32.772  1.00  0.00     0.010 A 
ATOM     12  C   UNL A   1      34.130  33.455  33.205  1.00  0.00     0.010 A 
ATOM     13  C   UNL A   1      35.507  33.763  33.219  1.00  0.00    -0.014 A 
BRANCH  13  14
ATOM     14  C   UNL A   1      36.563  32.846  33.695  1.00  0.00     0.031 A 
ATOM     15  C   UNL A   1      37.044  32.991  35.096  1.00  0.00     0.074 A 
ATOM     16  C   UNL A   1      37.014  31.836  32.917  1.00  0.00     0.049 A 
ATOM     17  N   UNL A   1      38.180  32.629  35.616  1.00  0.00    -0.248 NA
ATOM     18  C   UNL A   1      36.117  33.636  36.042  1.00  0.00     0.031 C 
ATOM     19  C   UNL A   1      36.456  31.421  31.621  1.00  0.00     0.029 A 
ATOM     20  N   UNL A   1      38.050  30.957  33.108  1.00  0.00    -0.354 N 
ATOM     21  C   UNL A   1      38.158  33.110  36.915  1.00  0.00     0.074 A 
ATOM     22  C   UNL A   1      36.862  33.711  37.135  1.00  0.00     0.031 C 
ATOM     23  C   UNL A   1      37.130  30.362  31.157  1.00  0.00     0.029 A 
ATOM     24  C   UNL A   1      38.276  30.146  32.018  1.00  0.00     0.049 A 
ATOM     25  H   UNL A   1      38.577  30.909  33.938  1.00  0.00     0.167 HD
ATOM     26  C   UNL A   1      39.183  33.098  37.795  1.00  0.00     0.037 A 
ATOM     27  C   UNL A   1      39.358  29.416  31.691  1.00  0.00     0.037 A 
ATOM     28  C   UNL A   1      40.433  32.448  37.508  1.00  0.00     0.049 A 
ATOM     29  C   UNL A   1      40.533  29.501  32.627  1.00  0.00     0.074 A 
ATOM     30  C   UNL A   1      41.597  32.422  38.248  1.00  0.00     0.029 A 
ATOM     31  N   UNL A   1      40.660  31.688  36.365  1.00  0.00    -0.354 N 
ATOM     32  N   UNL A   1      40.620  30.106  33.789  1.00  0.00    -0.248 NA
ATOM     33  C   UNL A   1      41.776  28.860  32.186  1.00  0.00     0.031 C 
ATOM     34  C   UNL A   1      42.545  31.685  37.527  1.00  0.00     0.029 A 
ATOM     35  C   UNL A   1      41.955  31.210  36.364  1.00  0.00     0.049 A 
ATOM     36  H   UNL A   1      39.995  31.515  35.661  1.00  0.00     0.167 HD
ATOM     37  C   UNL A   1      41.925  29.924  34.217  1.00  0.00     0.074 A 
ATOM     38  C   UNL A   1      42.583  29.119  33.206  1.00  0.00     0.031 C 
ATOM     39  C   UNL A   1      42.541  30.395  35.329  1.00  0.00     0.037 A 
BRANCH  26  40
ATOM     40  C   UNL A   1      39.034  33.932  39.028  1.00  0.00     0.064 A 
ATOM     41  C   UNL A   1      39.330  35.300  39.062  1.00  0.00     0.173 A 
ATOM     42  C   UNL A   1      38.635  33.316  40.226  1.00  0.00     0.173 A 
ATOM     43  F   UNL A   1      39.752  35.928  37.955  1.00  0.00    -0.203 F 
ATOM     44  C   UNL A   1      39.254  36.017  40.257  1.00  0.00     0.198 A 
ATOM     45  C   UNL A   1      38.539  34.038  41.411  1.00  0.00     0.198 A 
ATOM     46  F   UNL A   1      38.359  32.003  40.250  1.00  0.00    -0.203 F 
ATOM     47  F   UNL A   1      39.598  37.313  40.282  1.00  0.00    -0.200 F 
ATOM     48  C   UNL A   1      38.857  35.387  41.427  1.00  0.00     0.200 A 
ATOM     49  F   UNL A   1      38.160  33.423  42.540  1.00  0.00    -0.200 F 
ATOM     50  F   UNL A   1      38.800  36.074  42.576  1.00  0.00    -0.200 F 
ENDBRANCH  26  40
BRANCH  27  51
ATOM     51  C   UNL A   1      39.453  28.709  30.379  1.00  0.00     0.064 A 
ATOM     52  C   UNL A   1      39.058  27.371  30.249  1.00  0.00     0.173 A 
ATOM     53  C   UNL A   1      39.991  29.332  29.238  1.00  0.00     0.173 A 
ATOM     54  F   UNL A   1      38.559  26.716  31.308  1.00  0.00    -0.203 F 
ATOM     55  C   UNL A   1      39.226  26.678  29.048  1.00  0.00     0.198 A 
ATOM     56  C   UNL A   1      40.118  28.653  28.028  1.00  0.00     0.198 A 
ATOM     57  F   UNL A   1      40.398  30.609  29.293  1.00  0.00    -0.203 F 
ATOM     58  F   UNL A   1      38.904  25.380  28.978  1.00  0.00    -0.200 F 
ATOM     59  C   UNL A   1      39.751  27.321  27.938  1.00  0.00     0.200 A 
ATOM     60  F   UNL A   1      40.609  29.287  26.953  1.00  0.00    -0.200 F 
ATOM     61  F   UNL A   1      39.919  26.653  26.789  1.00  0.00    -0.200 F 
ENDBRANCH  27  51
BRANCH  39  62
ATOM     62  C   UNL A   1      43.979  30.025  35.504  1.00  0.00     0.064 A 
ATOM     63  C   UNL A   1      45.004  30.829  34.989  1.00  0.00     0.173 A 
ATOM     64  C   UNL A   1      44.328  28.902  36.265  1.00  0.00     0.173 A 
ATOM     65  F   UNL A   1      44.709  31.900  34.236  1.00  0.00    -0.203 F 
ATOM     66  C   UNL A   1      46.337  30.517  35.229  1.00  0.00     0.198 A 
ATOM     67  C   UNL A   1      45.661  28.610  36.527  1.00  0.00     0.198 A 
ATOM     68  F   UNL A   1      43.375  28.109  36.777  1.00  0.00    -0.203 F 
ATOM     69  F   UNL A   1      47.306  31.280  34.705  1.00  0.00    -0.200 F 
ATOM     70  C   UNL A   1      46.663  29.416  36.008  1.00  0.00     0.200 A 
ATOM     71  F   UNL A   1      45.975  27.555  37.292  1.00  0.00    -0.200 F 
ATOM     72  F   UNL A   1      47.948  29.131  36.258  1.00  0.00    -0.200 F 
ENDBRANCH  39  62
ENDBRANCH  13  14
ENDBRANCH   6   8
ENDBRANCH   5   6
ENDBRANCH   4   5
ENDBRANCH   3   4
ENDBRANCH   2   3
ENDBRANCH   1   2
BRANCH   1  73
ATOM     73  C   UNL A   1      32.106  31.311  26.663  1.00  0.00     0.261 C 
BRANCH  73  74
ATOM     74  O   UNL A   1      32.719  29.778  25.496  1.00  0.00    -0.459 OA
BRANCH  74  75
ATOM     75  C   UNL A   1      33.021  28.422  25.147  1.00  0.00     0.349 C 
ATOM     76  O   UNL A   1      33.889  27.753  25.717  1.00  0.00    -0.245 OA
BRANCH  75  77
ATOM     77  C   UNL A   1      32.233  27.841  24.065  1.00  0.00     0.133 A 
ATOM     78  S   UNL A   1      30.940  28.942  23.595  1.00  0.00    -0.136 S 
ATOM     79  C   UNL A   1      32.202  26.714  23.251  1.00  0.00     0.113 A 
ATOM     80  C   UNL A   1      30.321  27.892  22.439  1.00  0.00     0.067 A 
ATOM     81  C   UNL A   1      31.058  26.742  22.363  1.00  0.00     0.035 A 
BRANCH  79  82
ATOM     82  S   UNL A   1      33.368  25.450  22.989  1.00  0.00     0.263 S 
ATOM     83  O   UNL A   1      32.560  24.302  22.625  1.00  0.00    -0.201 OA
ATOM     84  O   UNL A   1      34.252  26.040  22.004  1.00  0.00    -0.201 OA
BRANCH  82  85
ATOM     85  N   UNL A   1      34.351  24.929  24.243  1.00  0.00    -0.277 N 
ATOM     86  H   UNL A   1      34.625  25.505  24.994  1.00  0.00     0.180 HD
BRANCH  85  87
ATOM     87  C   UNL A   1      34.746  23.582  24.114  1.00  0.00     0.072 A 
ATOM     88  C   UNL A   1      36.487  23.228  23.776  1.00  0.00     0.029 A 
ATOM     89  C   UNL A   1      33.683  22.358  24.899  1.00  0.00     0.061 A 
ATOM     90  C   UNL A   1      37.164  21.630  24.266  1.00  0.00     0.002 A 
ATOM     91  C   UNL A   1      34.331  20.740  25.305  1.00  0.00     0.028 A 
ATOM     92  C   UNL A   1      36.044  20.362  24.994  1.00  0.00     0.002 A 
BRANCH  89  93
ATOM     93  N   UNL A   1      32.655  22.802  25.746  1.00  0.00    -0.370 N 
ATOM     94  C   UNL A   1      31.284  22.507  25.342  1.00  0.00     0.116 C 
ATOM     95  C   UNL A   1      32.836  23.667  26.897  1.00  0.00     0.116 C 
ATOM     96  C   UNL A   1      30.575  23.800  24.987  1.00  0.00     0.021 C 
ATOM     97  C   UNL A   1      32.058  24.976  26.656  1.00  0.00     0.021 C 
ATOM     98  C   UNL A   1      30.614  24.742  26.182  1.00  0.00     0.004 C 
ENDBRANCH  89  93
ENDBRANCH  85  87
ENDBRANCH  82  85
ENDBRANCH  79  82
ENDBRANCH  75  77
ENDBRANCH  74  75
ENDBRANCH  73  74
ENDBRANCH   1  73
TORSDOF 18
ENDMDL
MODEL 2
REMARK VINA RESULT:     -12.9      1.227      2.077
REMARK SMILES O=C(OCCOCCOC(=O)c1sccc1S(=O)(=O)Nc1ccccc1N1CCCCC1)c1ccc(-c2c3nc(c(-c4c(F)c(F)c(F)c(F)c4F)c4ccc([nH]4)c(-c4c(F)c(F)c(F)c(F)c4F)c4nc(c(-c5c(F)c(F)c(F)c(F)c5F)c5ccc2[nH]5)C=C4)C=C3)cc1
REMARK SMILES IDX 7 1 6 2 5 3 4 4 3 5 2 6 1 7 33 8 34 9 95 10 35 11 94 12
REMARK SMILES IDX 36 13 37 14 38 15 88 16 39 17 93 18 87 19 89 20 40 21 92 22
REMARK SMILES IDX 86 23 85 24 41 26 73 27 53 28 72 29 54 30 57 31 71 32 90 33
REMARK SMILES IDX 55 34 56 35 70 37 91 38 58 39 42 40 43 41 51 42 44 43 45 44
REMARK SMILES IDX 49 45 52 46 46 47 47 48 50 49 48 50 74 51 75 52 83 53 76 54
REMARK SMILES IDX 77 55 81 56 84 57 78 58 79 59 82 60 80 61 59 62 60 63 68 64
REMARK SMILES IDX 61 65 62 66 66 67 69 68 63 69 64 70 67 71 65 72 8 73 9 74
REMARK SMILES IDX 10 75 11 76 12 77 13 78 16 79 14 80 15 81 17 82 18 83 19 84
REMARK SMILES IDX 20 85 21 87 22 88 26 89 23 90 25 91 24 92 27 93 28 94 32 95
REMARK SMILES IDX 29 96 31 97 30 98
REMARK H PARENT 89 25 57 36 20 86
REMARK Flexibility Score: inf
ROOT
ATOM      1  C   UNL A   1      34.494  32.456  27.801  1.00  0.00     0.202 C 
ENDROOT
BRANCH   1   2
ATOM      2  O   UNL A   1      33.542  33.346  28.420  1.00  0.00    -0.374 OA
BRANCH   2   3
ATOM      3  C   UNL A   1      33.910  34.554  29.117  1.00  0.00     0.202 C 
BRANCH   3   4
ATOM      4  C   UNL A   1      33.009  35.796  29.357  1.00  0.00     0.261 C 
BRANCH   4   5
ATOM      5  O   UNL A   1      32.236  35.900  30.564  1.00  0.00    -0.460 OA
BRANCH   5   6
ATOM      6  C   UNL A   1      32.882  36.437  31.654  1.00  0.00     0.338 C 
ATOM      7  O   UNL A   1      32.844  37.615  31.961  1.00  0.00    -0.246 OA
BRANCH   6   8
ATOM      8  C   UNL A   1      33.719  35.433  32.353  1.00  0.00     0.060 A 
ATOM      9  C   UNL A   1      35.041  35.778  32.505  1.00  0.00     0.016 A 
ATOM     10  C   UNL A   1      33.299  34.190  32.806  1.00  0.00     0.016 A 
ATOM     11  C   UNL A   1      36.006  34.828  32.697  1.00  0.00     0.010 A 
ATOM     12  C   UNL A   1      34.266  33.301  33.314  1.00  0.00     0.010 A 
ATOM     13  C   UNL A   1      35.639  33.610  33.223  1.00  0.00    -0.014 A 
BRANCH  13  14
ATOM     14  C   UNL A   1      36.728  32.714  33.665  1.00  0.00     0.031 A 
ATOM     15  C   UNL A   1      37.255  32.875  35.047  1.00  0.00     0.074 A 
ATOM     16  C   UNL A   1      37.169  31.709  32.876  1.00  0.00     0.049 A 
ATOM     17  N   UNL A   1      38.415  32.536  35.528  1.00  0.00    -0.248 NA
ATOM     18  C   UNL A   1      36.350  33.508  36.022  1.00  0.00     0.031 C 
ATOM     19  C   UNL A   1      36.574  31.279  31.602  1.00  0.00     0.029 A 
ATOM     20  N   UNL A   1      38.227  30.850  33.033  1.00  0.00    -0.354 N 
ATOM     21  C   UNL A   1      38.429  33.022  36.825  1.00  0.00     0.074 A 
ATOM     22  C   UNL A   1      37.131  33.600  37.089  1.00  0.00     0.031 C 
ATOM     23  C   UNL A   1      37.250  30.229  31.118  1.00  0.00     0.029 A 
ATOM     24  C   UNL A   1      38.430  30.039  31.939  1.00  0.00     0.049 A 
ATOM     25  H   UNL A   1      38.784  30.816  33.845  1.00  0.00     0.167 HD
ATOM     26  C   UNL A   1      39.485  33.033  37.669  1.00  0.00     0.037 A 
ATOM     27  C   UNL A   1      39.513  29.327  31.577  1.00  0.00     0.037 A 
ATOM     28  C   UNL A   1      40.735  32.405  37.341  1.00  0.00     0.049 A 
ATOM     29  C   UNL A   1      40.718  29.437  32.471  1.00  0.00     0.074 A 
ATOM     30  C   UNL A   1      41.925  32.403  38.039  1.00  0.00     0.029 A 
ATOM     31  N   UNL A   1      40.937  31.643  36.194  1.00  0.00    -0.354 N 
ATOM     32  N   UNL A   1      40.835  30.049  33.627  1.00  0.00    -0.248 NA
ATOM     33  C   UNL A   1      41.957  28.817  31.990  1.00  0.00     0.031 C 
ATOM     34  C   UNL A   1      42.860  31.681  37.289  1.00  0.00     0.029 A 
ATOM     35  C   UNL A   1      42.239  31.190  36.149  1.00  0.00     0.049 A 
ATOM     36  H   UNL A   1      40.250  31.455  35.514  1.00  0.00     0.167 HD
ATOM     37  C   UNL A   1      42.157  29.893  34.010  1.00  0.00     0.074 A 
ATOM     38  C   UNL A   1      42.794  29.095  32.979  1.00  0.00     0.031 C 
ATOM     39  C   UNL A   1      42.803  30.380  35.098  1.00  0.00     0.037 A 
BRANCH  26  40
ATOM     40  C   UNL A   1      39.364  33.870  38.903  1.00  0.00     0.064 A 
ATOM     41  C   UNL A   1      38.905  33.364  40.125  1.00  0.00     0.173 A 
ATOM     42  C   UNL A   1      39.666  35.241  38.832  1.00  0.00     0.173 A 
ATOM     43  F   UNL A   1      38.566  32.071  40.236  1.00  0.00    -0.203 F 
ATOM     44  C   UNL A   1      38.731  34.204  41.225  1.00  0.00     0.198 A 
ATOM     45  C   UNL A   1      39.512  36.071  39.936  1.00  0.00     0.198 A 
ATOM     46  F   UNL A   1      40.090  35.779  37.678  1.00  0.00    -0.203 F 
ATOM     47  F   UNL A   1      38.235  33.712  42.370  1.00  0.00    -0.200 F 
ATOM     48  C   UNL A   1      39.036  35.554  41.131  1.00  0.00     0.200 A 
ATOM     49  F   UNL A   1      39.803  37.376  39.838  1.00  0.00    -0.200 F 
ATOM     50  F   UNL A   1      38.854  36.361  42.185  1.00  0.00    -0.200 F 
ENDBRANCH  26  40
BRANCH  27  51
ATOM     51  C   UNL A   1      39.575  28.616  30.266  1.00  0.00     0.064 A 
ATOM     52  C   UNL A   1      39.142  27.288  30.142  1.00  0.00     0.173 A 
ATOM     53  C   UNL A   1      40.117  29.222  29.118  1.00  0.00     0.173 A 
ATOM     54  F   UNL A   1      38.637  26.649  31.207  1.00  0.00    -0.203 F 
ATOM     55  C   UNL A   1      39.279  26.590  28.941  1.00  0.00     0.198 A 
ATOM     56  C   UNL A   1      40.213  28.538  27.908  1.00  0.00     0.198 A 
ATOM     57  F   UNL A   1      40.559  30.488  29.166  1.00  0.00    -0.203 F 
ATOM     58  F   UNL A   1      38.922  25.300  28.877  1.00  0.00    -0.200 F 
ATOM     59  C   UNL A   1      39.809  27.216  27.825  1.00  0.00     0.200 A 
ATOM     60  F   UNL A   1      40.709  29.157  26.827  1.00  0.00    -0.200 F 
ATOM     61  F   UNL A   1      39.947  26.542  26.674  1.00  0.00    -0.200 F 
ENDBRANCH  27  51
BRANCH  39  62
ATOM     62  C   UNL A   1      44.253  30.037  35.223  1.00  0.00     0.064 A 
ATOM     63  C   UNL A   1      45.247  30.885  34.717  1.00  0.00     0.173 A 
ATOM     64  C   UNL A   1      44.645  28.893  35.929  1.00  0.00     0.173 A 
ATOM     65  F   UNL A   1      44.910  31.979  34.017  1.00  0.00    -0.203 F 
ATOM     66  C   UNL A   1      46.592  30.595  34.913  1.00  0.00     0.198 A 
ATOM     67  C   UNL A   1      45.990  28.622  36.148  1.00  0.00     0.198 A 
ATOM     68  F   UNL A   1      43.723  28.058  36.431  1.00  0.00    -0.203 F 
ATOM     69  F   UNL A   1      47.531  31.401  34.398  1.00  0.00    -0.200 F 
ATOM     70  C   UNL A   1      46.962  29.472  35.639  1.00  0.00     0.200 A 
ATOM     71  F   UNL A   1      46.347  27.545  36.862  1.00  0.00    -0.200 F 
ATOM     72  F   UNL A   1      48.258  29.206  35.846  1.00  0.00    -0.200 F 
ENDBRANCH  39  62
ENDBRANCH  13  14
ENDBRANCH   6   8
ENDBRANCH   5   6
ENDBRANCH   4   5
ENDBRANCH   3   4
ENDBRANCH   2   3
ENDBRANCH   1   2
BRANCH   1  73
ATOM     73  C   UNL A   1      34.330  30.747  27.936  1.00  0.00     0.261 C 
BRANCH  73  74
ATOM     74  O   UNL A   1      32.914  29.590  27.074  1.00  0.00    -0.459 OA
BRANCH  74  75
ATOM     75  C   UNL A   1      32.108  28.424  26.864  1.00  0.00     0.349 C 
ATOM     76  O   UNL A   1      31.508  27.843  27.774  1.00  0.00    -0.245 OA
BRANCH  75  77
ATOM     77  C   UNL A   1      32.012  27.941  25.490  1.00  0.00     0.133 A 
ATOM     78  S   UNL A   1      32.819  29.061  24.395  1.00  0.00    -0.136 S 
ATOM     79  C   UNL A   1      31.527  26.856  24.770  1.00  0.00     0.113 A 
ATOM     80  C   UNL A   1      32.427  28.171  23.025  1.00  0.00     0.067 A 
ATOM     81  C   UNL A   1      31.728  27.040  23.348  1.00  0.00     0.035 A 
BRANCH  79  82
ATOM     82  S   UNL A   1      30.946  25.300  25.285  1.00  0.00     0.263 S 
ATOM     83  O   UNL A   1      30.049  25.609  26.382  1.00  0.00    -0.201 OA
ATOM     84  O   UNL A   1      30.407  24.746  24.059  1.00  0.00    -0.201 OA
BRANCH  82  85
ATOM     85  N   UNL A   1      32.010  24.152  25.885  1.00  0.00    -0.277 N 
ATOM     86  H   UNL A   1      31.784  23.530  26.615  1.00  0.00     0.180 HD
BRANCH  85  87
ATOM     87  C   UNL A   1      33.263  24.167  25.237  1.00  0.00     0.072 A 
ATOM     88  C   UNL A   1      34.649  24.975  26.071  1.00  0.00     0.029 A 
ATOM     89  C   UNL A   1      33.539  22.885  24.001  1.00  0.00     0.061 A 
ATOM     90  C   UNL A   1      36.330  24.459  25.669  1.00  0.00     0.002 A 
ATOM     91  C   UNL A   1      35.207  22.435  23.538  1.00  0.00     0.028 A 
ATOM     92  C   UNL A   1      36.596  23.205  24.346  1.00  0.00     0.002 A 
BRANCH  89  93
ATOM     93  N   UNL A   1      32.603  21.845  23.888  1.00  0.00    -0.370 N 
ATOM     94  C   UNL A   1      32.613  20.822  24.929  1.00  0.00     0.116 C 
ATOM     95  C   UNL A   1      31.744  21.615  22.741  1.00  0.00     0.116 C 
ATOM     96  C   UNL A   1      33.078  19.505  24.336  1.00  0.00     0.021 C 
ATOM     97  C   UNL A   1      32.089  20.241  22.134  1.00  0.00     0.021 C 
ATOM     98  C   UNL A   1      32.163  19.119  23.183  1.00  0.00     0.004 C 
ENDBRANCH  89  93
ENDBRANCH  85  87
ENDBRANCH  82  85
ENDBRANCH  79  82
ENDBRANCH  75  77
ENDBRANCH  74  75
ENDBRANCH  73  74
ENDBRANCH   1  73
TORSDOF 18
ENDMDL
MODEL 3
REMARK VINA RESULT:     -12.4      1.788      7.571
REMARK SMILES O=C(OCCOCCOC(=O)c1sccc1S(=O)(=O)Nc1ccccc1N1CCCCC1)c1ccc(-c2c3nc(c(-c4c(F)c(F)c(F)c(F)c4F)c4ccc([nH]4)c(-c4c(F)c(F)c(F)c(F)c4F)c4nc(c(-c5c(F)c(F)c(F)c(F)c5F)c5ccc2[nH]5)C=C4)C=C3)cc1
REMARK SMILES IDX 7 1 6 2 5 3 4 4 3 5 2 6 1 7 33 8 34 9 95 10 35 11 94 12
REMARK SMILES IDX 36 13 37 14 38 15 88 16 39 17 93 18 87 19 89 20 40 21 92 22
REMARK SMILES IDX 86 23 85 24 41 26 73 27 53 28 72 29 54 30 57 31 71 32 90 33
REMARK SMILES IDX 55 34 56 35 70 37 91 38 58 39 42 40 43 41 51 42 44 43 45 44
REMARK SMILES IDX 49 45 52 46 46 47 47 48 50 49 48 50 74 51 75 52 83 53 76 54
REMARK SMILES IDX 77 55 81 56 84 57 78 58 79 59 82 60 80 61 59 62 60 63 68 64
REMARK SMILES IDX 61 65 62 66 66 67 69 68 63 69 64 70 67 71 65 72 8 73 9 74
REMARK SMILES IDX 10 75 11 76 12 77 13 78 16 79 14 80 15 81 17 82 18 83 19 84
REMARK SMILES IDX 20 85 21 87 22 88 26 89 23 90 25 91 24 92 27 93 28 94 32 95
REMARK SMILES IDX 29 96 31 97 30 98
REMARK H PARENT 89 25 57 36 20 86
REMARK Flexibility Score: inf
ROOT
ATOM      1  C   UNL A   1      34.308  31.409  27.989  1.00  0.00     0.202 C 
ENDROOT
BRANCH   1   2
ATOM      2  O   UNL A   1      33.260  32.351  27.678  1.00  0.00    -0.374 OA
BRANCH   2   3
ATOM      3  C   UNL A   1      33.456  33.780  27.628  1.00  0.00     0.202 C 
BRANCH   3   4
ATOM      4  C   UNL A   1      33.565  34.743  28.841  1.00  0.00     0.261 C 
BRANCH   4   5
ATOM      5  O   UNL A   1      32.683  34.584  29.965  1.00  0.00    -0.460 OA
BRANCH   5   6
ATOM      6  C   UNL A   1      33.103  35.144  31.150  1.00  0.00     0.338 C 
ATOM      7  O   UNL A   1      32.638  36.163  31.629  1.00  0.00    -0.246 OA
BRANCH   6   8
ATOM      8  C   UNL A   1      34.263  34.423  31.725  1.00  0.00     0.060 A 
ATOM      9  C   UNL A   1      35.328  35.216  32.080  1.00  0.00     0.016 A 
ATOM     10  C   UNL A   1      34.377  33.047  31.880  1.00  0.00     0.016 A 
ATOM     11  C   UNL A   1      36.593  34.705  32.184  1.00  0.00     0.010 A 
ATOM     12  C   UNL A   1      35.612  32.521  32.304  1.00  0.00     0.010 A 
ATOM     13  C   UNL A   1      36.743  33.357  32.421  1.00  0.00    -0.014 A 
BRANCH  13  14
ATOM     14  C   UNL A   1      38.093  32.887  32.793  1.00  0.00     0.031 A 
ATOM     15  C   UNL A   1      38.799  31.963  31.864  1.00  0.00     0.074 A 
ATOM     16  C   UNL A   1      38.717  33.357  33.896  1.00  0.00     0.049 A 
ATOM     17  N   UNL A   1      39.751  31.114  32.116  1.00  0.00    -0.248 NA
ATOM     18  C   UNL A   1      38.369  31.999  30.455  1.00  0.00     0.031 C 
ATOM     19  C   UNL A   1      38.249  34.451  34.760  1.00  0.00     0.029 A 
ATOM     20  N   UNL A   1      39.898  32.979  34.483  1.00  0.00    -0.354 N 
ATOM     21  C   UNL A   1      39.952  30.427  30.930  1.00  0.00     0.074 A 
ATOM     22  C   UNL A   1      39.089  31.017  29.932  1.00  0.00     0.031 C 
ATOM     23  C   UNL A   1      39.140  34.671  35.734  1.00  0.00     0.029 A 
ATOM     24  C   UNL A   1      40.135  33.618  35.679  1.00  0.00     0.049 A 
ATOM     25  H   UNL A   1      40.514  32.319  34.089  1.00  0.00     0.167 HD
ATOM     26  C   UNL A   1      40.747  29.349  30.749  1.00  0.00     0.037 A 
ATOM     27  C   UNL A   1      40.974  33.299  36.681  1.00  0.00     0.037 A 
ATOM     28  C   UNL A   1      41.602  28.844  31.788  1.00  0.00     0.049 A 
ATOM     29  C   UNL A   1      41.772  32.035  36.511  1.00  0.00     0.074 A 
ATOM     30  C   UNL A   1      42.395  27.715  31.799  1.00  0.00     0.029 A 
ATOM     31  N   UNL A   1      41.775  29.473  33.017  1.00  0.00    -0.354 N 
ATOM     32  N   UNL A   1      41.851  31.242  35.467  1.00  0.00    -0.248 NA
ATOM     33  C   UNL A   1      42.547  31.582  37.671  1.00  0.00     0.031 C 
ATOM     34  C   UNL A   1      43.010  27.636  33.055  1.00  0.00     0.029 A 
ATOM     35  C   UNL A   1      42.639  28.743  33.806  1.00  0.00     0.049 A 
ATOM     36  H   UNL A   1      41.343  30.317  33.284  1.00  0.00     0.167 HD
ATOM     37  C   UNL A   1      42.678  30.197  35.842  1.00  0.00     0.074 A 
ATOM     38  C   UNL A   1      43.106  30.477  37.200  1.00  0.00     0.031 C 
ATOM     39  C   UNL A   1      43.039  29.090  35.147  1.00  0.00     0.037 A 
BRANCH  26  40
ATOM     40  C   UNL A   1      40.586  28.589  29.471  1.00  0.00     0.064 A 
ATOM     41  C   UNL A   1      39.737  27.483  29.344  1.00  0.00     0.173 A 
ATOM     42  C   UNL A   1      41.358  28.955  28.355  1.00  0.00     0.173 A 
ATOM     43  F   UNL A   1      39.007  27.068  30.390  1.00  0.00    -0.203 F 
ATOM     44  C   UNL A   1      39.684  26.757  28.154  1.00  0.00     0.198 A 
ATOM     45  C   UNL A   1      41.287  28.243  27.164  1.00  0.00     0.198 A 
ATOM     46  F   UNL A   1      42.202  29.996  28.432  1.00  0.00    -0.203 F 
ATOM     47  F   UNL A   1      38.909  25.666  28.071  1.00  0.00    -0.200 F 
ATOM     48  C   UNL A   1      40.455  27.138  27.066  1.00  0.00     0.200 A 
ATOM     49  F   UNL A   1      42.038  28.612  26.117  1.00  0.00    -0.200 F 
ATOM     50  F   UNL A   1      40.413  26.430  25.929  1.00  0.00    -0.200 F 
ENDBRANCH  26  40
BRANCH  27  51
ATOM     51  C   UNL A   1      40.976  34.058  37.967  1.00  0.00     0.064 A 
ATOM     52  C   UNL A   1      40.052  33.767  38.979  1.00  0.00     0.173 A 
ATOM     53  C   UNL A   1      41.862  35.127  38.196  1.00  0.00     0.173 A 
ATOM     54  F   UNL A   1      39.167  32.774  38.810  1.00  0.00    -0.203 F 
ATOM     55  C   UNL A   1      39.992  34.530  40.147  1.00  0.00     0.198 A 
ATOM     56  C   UNL A   1      41.829  35.860  39.380  1.00  0.00     0.198 A 
ATOM     57  F   UNL A   1      42.768  35.466  37.266  1.00  0.00    -0.203 F 
ATOM     58  F   UNL A   1      39.049  34.271  41.063  1.00  0.00    -0.200 F 
ATOM     59  C   UNL A   1      40.883  35.572  40.349  1.00  0.00     0.200 A 
ATOM     60  F   UNL A   1      42.708  36.854  39.576  1.00  0.00    -0.200 F 
ATOM     61  F   UNL A   1      40.819  36.308  41.467  1.00  0.00    -0.200 F 
ENDBRANCH  27  51
BRANCH  39  62
ATOM     62  C   UNL A   1      43.950  28.131  35.843  1.00  0.00     0.064 A 
ATOM     63  C   UNL A   1      43.444  27.086  36.627  1.00  0.00     0.173 A 
ATOM     64  C   UNL A   1      45.335  28.214  35.651  1.00  0.00     0.173 A 
ATOM     65  F   UNL A   1      42.125  26.987  36.851  1.00  0.00    -0.203 F 
ATOM     66  C   UNL A   1      44.300  26.154  37.201  1.00  0.00     0.198 A 
ATOM     67  C   UNL A   1      46.185  27.263  36.203  1.00  0.00     0.198 A 
ATOM     68  F   UNL A   1      45.857  29.199  34.905  1.00  0.00    -0.203 F 
ATOM     69  F   UNL A   1      43.803  25.177  37.972  1.00  0.00    -0.200 F 
ATOM     70  C   UNL A   1      45.667  26.236  36.978  1.00  0.00     0.200 A 
ATOM     71  F   UNL A   1      47.503  27.334  35.974  1.00  0.00    -0.200 F 
ATOM     72  F   UNL A   1      46.488  25.322  37.512  1.00  0.00    -0.200 F 
ENDBRANCH  39  62
ENDBRANCH  13  14
ENDBRANCH   6   8
ENDBRANCH   5   6
ENDBRANCH   4   5
ENDBRANCH   3   4
ENDBRANCH   2   3
ENDBRANCH   1   2
BRANCH   1  73
ATOM     73  C   UNL A   1      34.353  29.855  27.248  1.00  0.00     0.261 C 
BRANCH  73  74
ATOM     74  O   UNL A   1      32.780  28.796  26.548  1.00  0.00    -0.459 OA
BRANCH  74  75
ATOM     75  C   UNL A   1      32.043  27.637  26.140  1.00  0.00     0.349 C 
ATOM     76  O   UNL A   1      31.842  26.668  26.880  1.00  0.00    -0.245 OA
BRANCH  75  77
ATOM     77  C   UNL A   1      31.516  27.650  24.779  1.00  0.00     0.133 A 
ATOM     78  S   UNL A   1      31.230  29.307  24.253  1.00  0.00    -0.136 S 
ATOM     79  C   UNL A   1      31.208  26.774  23.744  1.00  0.00     0.113 A 
ATOM     80  C   UNL A   1      30.622  28.841  22.759  1.00  0.00     0.067 A 
ATOM     81  C   UNL A   1      30.642  27.481  22.614  1.00  0.00     0.035 A 
BRANCH  79  82
ATOM     82  S   UNL A   1      31.572  25.090  23.514  1.00  0.00     0.263 S 
ATOM     83  O   UNL A   1      30.288  24.496  23.197  1.00  0.00    -0.201 OA
ATOM     84  O   UNL A   1      32.609  25.129  22.501  1.00  0.00    -0.201 OA
BRANCH  82  85
ATOM     85  N   UNL A   1      32.192  24.175  24.776  1.00  0.00    -0.277 N 
ATOM     86  H   UNL A   1      31.660  23.897  25.557  1.00  0.00     0.180 HD
BRANCH  85  87
ATOM     87  C   UNL A   1      33.552  23.845  24.605  1.00  0.00     0.072 A 
ATOM     88  C   UNL A   1      34.791  24.850  25.459  1.00  0.00     0.029 A 
ATOM     89  C   UNL A   1      33.907  22.150  24.111  1.00  0.00     0.061 A 
ATOM     90  C   UNL A   1      36.395  24.119  25.840  1.00  0.00     0.002 A 
ATOM     91  C   UNL A   1      35.528  21.453  24.410  1.00  0.00     0.028 A 
ATOM     92  C   UNL A   1      36.769  22.412  25.256  1.00  0.00     0.002 A 
BRANCH  89  93
ATOM     93  N   UNL A   1      32.862  21.213  24.114  1.00  0.00    -0.370 N 
ATOM     94  C   UNL A   1      32.569  20.545  25.378  1.00  0.00     0.116 C 
ATOM     95  C   UNL A   1      32.163  20.737  22.935  1.00  0.00     0.116 C 
ATOM     96  C   UNL A   1      32.928  19.075  25.265  1.00  0.00     0.021 C 
ATOM     97  C   UNL A   1      32.398  19.220  22.802  1.00  0.00     0.021 C 
ATOM     98  C   UNL A   1      32.153  18.453  24.112  1.00  0.00     0.004 C 
ENDBRANCH  89  93
ENDBRANCH  85  87
ENDBRANCH  82  85
ENDBRANCH  79  82
ENDBRANCH  75  77
ENDBRANCH  74  75
ENDBRANCH  73  74
ENDBRANCH   1  73
TORSDOF 18
ENDMDL
