MODEL 1
REMARK VINA RESULT:     -12.8      0.000      0.000
REMARK SMILES CS(=O)(=O)c1ccc(/C=C(/C(=O)OCCOCCOC(=O)c2ccc(-c3c4nc(c(-c5c(F)c(F)c(F)c(F)c5F)c5ccc([nH]5)c(-c5c(F)c(F)c(F)c(F)c5F)c5nc(c(-c6c(F)c(F)c(F)c(F)c6F)c6ccc3[nH]6)C=C5)C=C4)cc2)c2ccc(-c3ccc(S(C)(=O)=O)cc3)cc2)cc1
REMARK SMILES IDX 15 1 14 2 13 3 11 4 12 5 10 6 9 7 8 8 5 9 6 10 102 11 7 12
REMARK SMILES IDX 101 13 2 14 1 15 3 16 4 17 85 18 86 19 100 20 87 21 99 22
REMARK SMILES IDX 88 23 89 24 90 25 98 26 91 27 97 28 92 29 93 30 94 31 95 32
REMARK SMILES IDX 96 33 16 34 17 35 18 36 19 37 20 38 21 39 22 40 23 41 84 42
REMARK SMILES IDX 24 43 83 44 25 45 26 46 27 47 77 48 28 49 82 50 76 51 78 52
REMARK SMILES IDX 29 53 81 54 75 55 74 56 30 58 62 59 42 60 61 61 43 62 46 63
REMARK SMILES IDX 60 64 79 65 44 66 45 67 59 69 80 70 47 71 31 72 32 73 40 74
REMARK SMILES IDX 33 75 34 76 38 77 41 78 35 79 36 80 39 81 37 82 63 83 64 84
REMARK SMILES IDX 72 85 65 86 66 87 70 88 73 89 67 90 68 91 71 92 69 93 48 94
REMARK SMILES IDX 49 95 57 96 50 97 51 98 55 99 58 100 52 101 53 102 56 103
REMARK SMILES IDX 54 104
REMARK H PARENT 78 57 46 68
REMARK Flexibility Score: inf
ROOT
ATOM      1  C   UNL A   1      33.017  29.318  23.607  1.00  0.00     0.202 C 
ENDROOT
BRANCH   1   2
ATOM      2  C   UNL A   1      33.839  28.027  23.664  1.00  0.00     0.261 C 
BRANCH   2   3
ATOM      3  O   UNL A   1      32.996  26.861  23.667  1.00  0.00    -0.460 OA
BRANCH   3   4
ATOM      4  C   UNL A   1      33.372  25.902  22.782  1.00  0.00     0.338 C 
ATOM      5  O   UNL A   1      33.832  26.108  21.668  1.00  0.00    -0.246 OA
BRANCH   4   6
ATOM      6  C   UNL A   1      33.276  24.525  23.362  1.00  0.00     0.067 C 
ATOM      7  C   UNL A   1      32.143  23.796  23.225  1.00  0.00     0.024 C 
BRANCH   7   8
ATOM      8  C   UNL A   1      31.992  22.334  23.444  1.00  0.00    -0.025 A 
ATOM      9  C   UNL A   1      32.344  19.558  23.687  1.00  0.00     0.067 A 
ATOM     10  C   UNL A   1      32.197  20.345  24.830  1.00  0.00     0.021 A 
ATOM     11  C   UNL A   1      32.174  20.122  22.424  1.00  0.00     0.021 A 
ATOM     12  C   UNL A   1      31.982  21.720  24.703  1.00  0.00     0.009 A 
ATOM     13  C   UNL A   1      31.997  21.507  22.309  1.00  0.00     0.009 A 
BRANCH   9  14
ATOM     14  S   UNL A   1      32.854  17.871  23.908  1.00  0.00     0.175 S 
ATOM     15  C   UNL A   1      34.546  17.895  24.419  1.00  0.00     0.163 C 
ATOM     16  O   UNL A   1      32.814  17.246  22.599  1.00  0.00    -0.224 OA
ATOM     17  O   UNL A   1      32.067  17.355  25.012  1.00  0.00    -0.224 OA
ENDBRANCH   9  14
ENDBRANCH   7   8
BRANCH   6  18
ATOM     18  C   UNL A   1      34.515  24.010  23.972  1.00  0.00    -0.011 A 
ATOM     19  C   UNL A   1      35.408  23.263  23.191  1.00  0.00     0.009 A 
ATOM     20  C   UNL A   1      34.829  24.268  25.306  1.00  0.00     0.009 A 
ATOM     21  C   UNL A   1      36.600  22.786  23.735  1.00  0.00     0.009 A 
ATOM     22  C   UNL A   1      36.034  23.805  25.839  1.00  0.00     0.009 A 
ATOM     23  C   UNL A   1      36.938  23.051  25.069  1.00  0.00    -0.018 A 
BRANCH  23  24
ATOM     24  C   UNL A   1      38.193  22.543  25.649  1.00  0.00    -0.018 A 
ATOM     25  C   UNL A   1      38.989  23.342  26.491  1.00  0.00     0.010 A 
ATOM     26  C   UNL A   1      38.629  21.233  25.374  1.00  0.00     0.010 A 
ATOM     27  C   UNL A   1      40.173  22.850  27.045  1.00  0.00     0.021 A 
ATOM     28  C   UNL A   1      39.809  20.732  25.924  1.00  0.00     0.021 A 
ATOM     29  C   UNL A   1      40.579  21.548  26.750  1.00  0.00     0.067 A 
BRANCH  29  30
ATOM     30  S   UNL A   1      42.074  20.918  27.468  1.00  0.00     0.175 S 
ATOM     31  C   UNL A   1      43.181  20.804  26.086  1.00  0.00     0.163 C 
ATOM     32  O   UNL A   1      42.575  21.935  28.372  1.00  0.00    -0.224 OA
ATOM     33  O   UNL A   1      41.811  19.569  27.932  1.00  0.00    -0.224 OA
ENDBRANCH  29  30
ENDBRANCH  23  24
ENDBRANCH   6  18
ENDBRANCH   4   6
ENDBRANCH   3   4
ENDBRANCH   2   3
ENDBRANCH   1   2
BRANCH   1  34
ATOM     34  O   UNL A   1      31.681  29.269  24.103  1.00  0.00    -0.374 OA
BRANCH  34  35
ATOM     35  C   UNL A   1      31.491  29.340  25.512  1.00  0.00     0.202 C 
BRANCH  35  36
ATOM     36  C   UNL A   1      31.897  30.634  26.227  1.00  0.00     0.261 C 
BRANCH  36  37
ATOM     37  O   UNL A   1      33.050  30.466  27.064  1.00  0.00    -0.460 OA
BRANCH  37  38
ATOM     38  C   UNL A   1      33.617  31.622  27.478  1.00  0.00     0.338 C 
ATOM     39  O   UNL A   1      33.086  32.720  27.581  1.00  0.00    -0.246 OA
BRANCH  38  40
ATOM     40  C   UNL A   1      34.972  31.350  27.980  1.00  0.00     0.060 A 
ATOM     41  C   UNL A   1      35.262  30.048  28.414  1.00  0.00     0.016 A 
ATOM     42  C   UNL A   1      35.924  32.365  28.077  1.00  0.00     0.016 A 
ATOM     43  C   UNL A   1      36.498  29.764  28.988  1.00  0.00     0.010 A 
ATOM     44  C   UNL A   1      37.155  32.083  28.670  1.00  0.00     0.010 A 
ATOM     45  C   UNL A   1      37.432  30.792  29.158  1.00  0.00    -0.014 A 
BRANCH  45  46
ATOM     46  C   UNL A   1      38.623  30.581  30.009  1.00  0.00     0.031 A 
ATOM     47  C   UNL A   1      39.764  29.782  29.448  1.00  0.00     0.074 A 
ATOM     48  C   UNL A   1      38.680  31.073  31.257  1.00  0.00     0.049 A 
ATOM     49  N   UNL A   1      40.842  29.338  30.041  1.00  0.00    -0.248 NA
ATOM     50  C   UNL A   1      39.671  29.428  28.022  1.00  0.00     0.031 C 
ATOM     51  C   UNL A   1      37.660  31.912  31.882  1.00  0.00     0.029 A 
ATOM     52  N   UNL A   1      39.635  30.918  32.231  1.00  0.00    -0.354 N 
ATOM     53  C   UNL A   1      41.543  28.639  29.069  1.00  0.00     0.074 A 
ATOM     54  C   UNL A   1      40.762  28.696  27.853  1.00  0.00     0.031 C 
ATOM     55  C   UNL A   1      38.033  32.178  33.146  1.00  0.00     0.029 A 
ATOM     56  C   UNL A   1      39.292  31.491  33.429  1.00  0.00     0.049 A 
ATOM     57  H   UNL A   1      40.483  30.440  32.083  1.00  0.00     0.167 HD
ATOM     58  C   UNL A   1      42.735  28.006  29.184  1.00  0.00     0.037 A 
ATOM     59  C   UNL A   1      39.911  31.433  34.624  1.00  0.00     0.037 A 
ATOM     60  C   UNL A   1      43.504  27.956  30.399  1.00  0.00     0.049 A 
ATOM     61  C   UNL A   1      41.196  30.653  34.749  1.00  0.00     0.074 A 
ATOM     62  C   UNL A   1      44.725  27.347  30.623  1.00  0.00     0.029 A 
ATOM     63  N   UNL A   1      43.117  28.539  31.597  1.00  0.00    -0.354 N 
ATOM     64  N   UNL A   1      41.857  29.993  33.829  1.00  0.00    -0.248 NA
ATOM     65  C   UNL A   1      41.819  30.608  36.079  1.00  0.00     0.031 C 
ATOM     66  C   UNL A   1      45.054  27.518  31.971  1.00  0.00     0.029 A 
ATOM     67  C   UNL A   1      44.067  28.286  32.572  1.00  0.00     0.049 A 
ATOM     68  H   UNL A   1      42.291  29.055  31.734  1.00  0.00     0.167 HD
ATOM     69  C   UNL A   1      42.991  29.491  34.456  1.00  0.00     0.074 A 
ATOM     70  C   UNL A   1      42.928  29.921  35.837  1.00  0.00     0.031 C 
ATOM     71  C   UNL A   1      43.997  28.748  33.935  1.00  0.00     0.037 A 
BRANCH  58  72
ATOM     72  C   UNL A   1      43.259  27.289  27.975  1.00  0.00     0.064 A 
ATOM     73  C   UNL A   1      42.872  25.975  27.670  1.00  0.00     0.173 A 
ATOM     74  C   UNL A   1      44.142  27.933  27.096  1.00  0.00     0.173 A 
ATOM     75  F   UNL A   1      42.043  25.308  28.487  1.00  0.00    -0.203 F 
ATOM     76  C   UNL A   1      43.372  25.325  26.544  1.00  0.00     0.198 A 
ATOM     77  C   UNL A   1      44.615  27.291  25.955  1.00  0.00     0.198 A 
ATOM     78  F   UNL A   1      44.543  29.190  27.341  1.00  0.00    -0.203 F 
ATOM     79  F   UNL A   1      43.028  24.052  26.299  1.00  0.00    -0.200 F 
ATOM     80  C   UNL A   1      44.236  25.985  25.684  1.00  0.00     0.200 A 
ATOM     81  F   UNL A   1      45.441  27.935  25.120  1.00  0.00    -0.200 F 
ATOM     82  F   UNL A   1      44.712  25.360  24.599  1.00  0.00    -0.200 F 
ENDBRANCH  58  72
BRANCH  59  83
ATOM     83  C   UNL A   1      39.318  32.116  35.802  1.00  0.00     0.064 A 
ATOM     84  C   UNL A   1      38.427  31.444  36.651  1.00  0.00     0.173 A 
ATOM     85  C   UNL A   1      39.615  33.454  36.098  1.00  0.00     0.173 A 
ATOM     86  F   UNL A   1      38.092  30.171  36.398  1.00  0.00    -0.203 F 
ATOM     87  C   UNL A   1      37.843  32.091  37.739  1.00  0.00     0.198 A 
ATOM     88  C   UNL A   1      39.052  34.091  37.201  1.00  0.00     0.198 A 
ATOM     89  F   UNL A   1      40.460  34.144  35.316  1.00  0.00    -0.203 F 
ATOM     90  F   UNL A   1      36.959  31.439  38.507  1.00  0.00    -0.200 F 
ATOM     91  C   UNL A   1      38.161  33.411  38.017  1.00  0.00     0.200 A 
ATOM     92  F   UNL A   1      39.373  35.364  37.473  1.00  0.00    -0.200 F 
ATOM     93  F   UNL A   1      37.601  34.032  39.065  1.00  0.00    -0.200 F 
ENDBRANCH  59  83
BRANCH  71  94
ATOM     94  C   UNL A   1      45.149  28.403  34.834  1.00  0.00     0.064 A 
ATOM     95  C   UNL A   1      45.153  27.244  35.621  1.00  0.00     0.173 A 
ATOM     96  C   UNL A   1      46.296  29.213  34.846  1.00  0.00     0.173 A 
ATOM     97  F   UNL A   1      44.076  26.445  35.653  1.00  0.00    -0.203 F 
ATOM     98  C   UNL A   1      46.260  26.912  36.398  1.00  0.00     0.198 A 
ATOM     99  C   UNL A   1      47.412  28.864  35.601  1.00  0.00     0.198 A 
ATOM    100  F   UNL A   1      46.344  30.329  34.104  1.00  0.00    -0.203 F 
ATOM    101  F   UNL A   1      46.232  25.817  37.169  1.00  0.00    -0.200 F 
ATOM    102  C   UNL A   1      47.392  27.716  36.379  1.00  0.00     0.200 A 
ATOM    103  F   UNL A   1      48.508  29.633  35.568  1.00  0.00    -0.200 F 
ATOM    104  F   UNL A   1      48.462  27.386  37.113  1.00  0.00    -0.200 F 
ENDBRANCH  71  94
ENDBRANCH  45  46
ENDBRANCH  38  40
ENDBRANCH  37  38
ENDBRANCH  36  37
ENDBRANCH  35  36
ENDBRANCH  34  35
ENDBRANCH   1  34
TORSDOF 19
ENDMDL
MODEL 2
REMARK VINA RESULT:     -12.2      0.725      6.812
REMARK SMILES CS(=O)(=O)c1ccc(/C=C(/C(=O)OCCOCCOC(=O)c2ccc(-c3c4nc(c(-c5c(F)c(F)c(F)c(F)c5F)c5ccc([nH]5)c(-c5c(F)c(F)c(F)c(F)c5F)c5nc(c(-c6c(F)c(F)c(F)c(F)c6F)c6ccc3[nH]6)C=C5)C=C4)cc2)c2ccc(-c3ccc(S(C)(=O)=O)cc3)cc2)cc1
REMARK SMILES IDX 15 1 14 2 13 3 11 4 12 5 10 6 9 7 8 8 5 9 6 10 102 11 7 12
REMARK SMILES IDX 101 13 2 14 1 15 3 16 4 17 85 18 86 19 100 20 87 21 99 22
REMARK SMILES IDX 88 23 89 24 90 25 98 26 91 27 97 28 92 29 93 30 94 31 95 32
REMARK SMILES IDX 96 33 16 34 17 35 18 36 19 37 20 38 21 39 22 40 23 41 84 42
REMARK SMILES IDX 24 43 83 44 25 45 26 46 27 47 77 48 28 49 82 50 76 51 78 52
REMARK SMILES IDX 29 53 81 54 75 55 74 56 30 58 62 59 42 60 61 61 43 62 46 63
REMARK SMILES IDX 60 64 79 65 44 66 45 67 59 69 80 70 47 71 31 72 32 73 40 74
REMARK SMILES IDX 33 75 34 76 38 77 41 78 35 79 36 80 39 81 37 82 63 83 64 84
REMARK SMILES IDX 72 85 65 86 66 87 70 88 73 89 67 90 68 91 71 92 69 93 48 94
REMARK SMILES IDX 49 95 57 96 50 97 51 98 55 99 58 100 52 101 53 102 56 103
REMARK SMILES IDX 54 104
REMARK H PARENT 78 57 46 68
REMARK Flexibility Score: inf
ROOT
ATOM      1  C   UNL A   1      32.936  28.462  24.556  1.00  0.00     0.202 C 
ENDROOT
BRANCH   1   2
ATOM      2  C   UNL A   1      33.531  27.971  23.233  1.00  0.00     0.261 C 
BRANCH   2   3
ATOM      3  O   UNL A   1      34.098  26.655  23.362  1.00  0.00    -0.460 OA
BRANCH   3   4
ATOM      4  C   UNL A   1      33.573  25.738  22.510  1.00  0.00     0.338 C 
ATOM      5  O   UNL A   1      33.325  25.930  21.328  1.00  0.00    -0.246 OA
BRANCH   4   6
ATOM      6  C   UNL A   1      33.430  24.389  23.145  1.00  0.00     0.067 C 
ATOM      7  C   UNL A   1      32.278  23.688  23.024  1.00  0.00     0.024 C 
BRANCH   7   8
ATOM      8  C   UNL A   1      32.082  22.241  23.302  1.00  0.00    -0.025 A 
ATOM      9  C   UNL A   1      32.346  19.467  23.649  1.00  0.00     0.067 A 
ATOM     10  C   UNL A   1      32.237  20.302  24.762  1.00  0.00     0.021 A 
ATOM     11  C   UNL A   1      32.181  19.987  22.367  1.00  0.00     0.021 A 
ATOM     12  C   UNL A   1      32.066  21.677  24.583  1.00  0.00     0.009 A 
ATOM     13  C   UNL A   1      32.048  21.371  22.200  1.00  0.00     0.009 A 
BRANCH   9  14
ATOM     14  S   UNL A   1      32.804  17.774  23.931  1.00  0.00     0.175 S 
ATOM     15  C   UNL A   1      34.524  17.753  24.334  1.00  0.00     0.163 C 
ATOM     16  O   UNL A   1      32.655  17.083  22.664  1.00  0.00    -0.224 OA
ATOM     17  O   UNL A   1      32.069  17.350  25.108  1.00  0.00    -0.224 OA
ENDBRANCH   9  14
ENDBRANCH   7   8
BRANCH   6  18
ATOM     18  C   UNL A   1      34.648  23.864  23.791  1.00  0.00    -0.011 A 
ATOM     19  C   UNL A   1      35.549  23.096  23.041  1.00  0.00     0.009 A 
ATOM     20  C   UNL A   1      34.933  24.134  25.129  1.00  0.00     0.009 A 
ATOM     21  C   UNL A   1      36.720  22.608  23.619  1.00  0.00     0.009 A 
ATOM     22  C   UNL A   1      36.118  23.661  25.697  1.00  0.00     0.009 A 
ATOM     23  C   UNL A   1      37.030  22.885  24.957  1.00  0.00    -0.018 A 
BRANCH  23  24
ATOM     24  C   UNL A   1      38.263  22.367  25.573  1.00  0.00    -0.018 A 
ATOM     25  C   UNL A   1      38.692  21.044  25.357  1.00  0.00     0.010 A 
ATOM     26  C   UNL A   1      39.051  23.192  26.397  1.00  0.00     0.010 A 
ATOM     27  C   UNL A   1      39.869  20.563  25.937  1.00  0.00     0.021 A 
ATOM     28  C   UNL A   1      40.228  22.723  26.979  1.00  0.00     0.021 A 
ATOM     29  C   UNL A   1      40.625  21.406  26.752  1.00  0.00     0.067 A 
BRANCH  29  30
ATOM     30  S   UNL A   1      42.128  20.800  27.475  1.00  0.00     0.175 S 
ATOM     31  C   UNL A   1      43.235  20.684  26.094  1.00  0.00     0.163 C 
ATOM     32  O   UNL A   1      42.619  21.832  28.368  1.00  0.00    -0.224 OA
ATOM     33  O   UNL A   1      41.880  19.453  27.952  1.00  0.00    -0.224 OA
ENDBRANCH  29  30
ENDBRANCH  23  24
ENDBRANCH   6  18
ENDBRANCH   4   6
ENDBRANCH   3   4
ENDBRANCH   2   3
ENDBRANCH   1   2
BRANCH   1  34
ATOM     34  O   UNL A   1      32.540  29.830  24.631  1.00  0.00    -0.374 OA
BRANCH  34  35
ATOM     35  C   UNL A   1      31.428  30.156  25.459  1.00  0.00     0.202 C 
BRANCH  35  36
ATOM     36  C   UNL A   1      31.697  30.945  26.746  1.00  0.00     0.261 C 
BRANCH  36  37
ATOM     37  O   UNL A   1      32.990  30.669  27.304  1.00  0.00    -0.460 OA
BRANCH  37  38
ATOM     38  C   UNL A   1      33.732  31.767  27.573  1.00  0.00     0.338 C 
ATOM     39  O   UNL A   1      33.350  32.929  27.640  1.00  0.00    -0.246 OA
BRANCH  38  40
ATOM     40  C   UNL A   1      35.087  31.358  27.968  1.00  0.00     0.060 A 
ATOM     41  C   UNL A   1      35.311  29.999  28.237  1.00  0.00     0.016 A 
ATOM     42  C   UNL A   1      36.108  32.295  28.128  1.00  0.00     0.016 A 
ATOM     43  C   UNL A   1      36.550  29.577  28.709  1.00  0.00     0.010 A 
ATOM     44  C   UNL A   1      37.344  31.873  28.618  1.00  0.00     0.010 A 
ATOM     45  C   UNL A   1      37.557  30.519  28.942  1.00  0.00    -0.014 A 
BRANCH  45  46
ATOM     46  C   UNL A   1      38.770  30.140  29.699  1.00  0.00     0.031 A 
ATOM     47  C   UNL A   1      38.926  30.663  31.098  1.00  0.00     0.074 A 
ATOM     48  C   UNL A   1      39.718  29.365  29.148  1.00  0.00     0.049 A 
ATOM     49  N   UNL A   1      39.955  30.596  31.903  1.00  0.00    -0.248 NA
ATOM     50  C   UNL A   1      37.763  31.366  31.664  1.00  0.00     0.031 C 
ATOM     51  C   UNL A   1      39.644  28.753  27.824  1.00  0.00     0.029 A 
ATOM     52  N   UNL A   1      40.942  28.978  29.633  1.00  0.00    -0.354 N 
ATOM     53  C   UNL A   1      39.571  31.263  33.058  1.00  0.00     0.074 A 
ATOM     54  C   UNL A   1      38.224  31.747  32.846  1.00  0.00     0.031 C 
ATOM     55  C   UNL A   1      40.787  28.085  27.590  1.00  0.00     0.029 A 
ATOM     56  C   UNL A   1      41.686  28.262  28.730  1.00  0.00     0.049 A 
ATOM     57  H   UNL A   1      41.255  29.194  30.541  1.00  0.00     0.167 HD
ATOM     58  C   UNL A   1      40.281  31.452  34.195  1.00  0.00     0.037 A 
ATOM     59  C   UNL A   1      42.961  27.834  28.806  1.00  0.00     0.037 A 
ATOM     60  C   UNL A   1      41.620  30.965  34.396  1.00  0.00     0.049 A 
ATOM     61  C   UNL A   1      43.761  28.127  30.050  1.00  0.00     0.074 A 
ATOM     62  C   UNL A   1      42.429  31.097  35.510  1.00  0.00     0.029 A 
ATOM     63  N   UNL A   1      42.347  30.255  33.451  1.00  0.00    -0.354 N 
ATOM     64  N   UNL A   1      43.397  28.757  31.141  1.00  0.00    -0.248 NA
ATOM     65  C   UNL A   1      45.152  27.653  30.072  1.00  0.00     0.031 C 
ATOM     66  C   UNL A   1      43.664  30.509  35.221  1.00  0.00     0.029 A 
ATOM     67  C   UNL A   1      43.604  29.959  33.950  1.00  0.00     0.049 A 
ATOM     68  H   UNL A   1      42.018  30.000  32.560  1.00  0.00     0.167 HD
ATOM     69  C   UNL A   1      44.493  28.719  31.993  1.00  0.00     0.074 A 
ATOM     70  C   UNL A   1      45.540  28.005  31.291  1.00  0.00     0.031 C 
ATOM     71  C   UNL A   1      44.621  29.222  33.244  1.00  0.00     0.037 A 
BRANCH  58  72
ATOM     72  C   UNL A   1      39.636  32.247  35.292  1.00  0.00     0.064 A 
ATOM     73  C   UNL A   1      38.815  31.645  36.256  1.00  0.00     0.173 A 
ATOM     74  C   UNL A   1      39.863  33.628  35.392  1.00  0.00     0.173 A 
ATOM     75  F   UNL A   1      38.552  30.331  36.195  1.00  0.00    -0.203 F 
ATOM     76  C   UNL A   1      38.223  32.401  37.266  1.00  0.00     0.198 A 
ATOM     77  C   UNL A   1      39.295  34.375  36.420  1.00  0.00     0.198 A 
ATOM     78  F   UNL A   1      40.641  34.253  34.496  1.00  0.00    -0.203 F 
ATOM     79  F   UNL A   1      37.402  31.813  38.147  1.00  0.00    -0.200 F 
ATOM     80  C   UNL A   1      38.469  33.763  37.352  1.00  0.00     0.200 A 
ATOM     81  F   UNL A   1      39.543  35.689  36.508  1.00  0.00    -0.200 F 
ATOM     82  F   UNL A   1      37.904  34.488  38.326  1.00  0.00    -0.200 F 
ENDBRANCH  58  72
BRANCH  59  83
ATOM     83  C   UNL A   1      43.568  27.100  27.666  1.00  0.00     0.064 A 
ATOM     84  C   UNL A   1      43.515  25.700  27.600  1.00  0.00     0.173 A 
ATOM     85  C   UNL A   1      44.226  27.777  26.629  1.00  0.00     0.173 A 
ATOM     86  F   UNL A   1      42.919  25.006  28.579  1.00  0.00    -0.203 F 
ATOM     87  C   UNL A   1      44.112  25.006  26.549  1.00  0.00     0.198 A 
ATOM     88  C   UNL A   1      44.799  27.084  25.565  1.00  0.00     0.198 A 
ATOM     89  F   UNL A   1      44.307  29.116  26.645  1.00  0.00    -0.203 F 
ATOM     90  F   UNL A   1      44.088  23.667  26.534  1.00  0.00    -0.200 F 
ATOM     91  C   UNL A   1      44.748  25.698  25.529  1.00  0.00     0.200 A 
ATOM     92  F   UNL A   1      45.400  27.758  24.575  1.00  0.00    -0.200 F 
ATOM     93  F   UNL A   1      45.320  25.031  24.518  1.00  0.00    -0.200 F 
ENDBRANCH  59  83
BRANCH  71  94
ATOM     94  C   UNL A   1      45.910  28.966  33.971  1.00  0.00     0.064 A 
ATOM     95  C   UNL A   1      46.111  27.811  34.738  1.00  0.00     0.173 A 
ATOM     96  C   UNL A   1      46.983  29.861  33.832  1.00  0.00     0.173 A 
ATOM     97  F   UNL A   1      45.113  26.932  34.911  1.00  0.00    -0.203 F 
ATOM     98  C   UNL A   1      47.338  27.566  35.351  1.00  0.00     0.198 A 
ATOM     99  C   UNL A   1      48.216  29.599  34.421  1.00  0.00     0.198 A 
ATOM    100  F   UNL A   1      46.842  30.978  33.103  1.00  0.00    -0.203 F 
ATOM    101  F   UNL A   1      47.500  26.472  36.107  1.00  0.00    -0.200 F 
ATOM    102  C   UNL A   1      48.391  28.453  35.183  1.00  0.00     0.200 A 
ATOM    103  F   UNL A   1      49.236  30.449  34.245  1.00  0.00    -0.200 F 
ATOM    104  F   UNL A   1      49.575  28.206  35.758  1.00  0.00    -0.200 F 
ENDBRANCH  71  94
ENDBRANCH  45  46
ENDBRANCH  38  40
ENDBRANCH  37  38
ENDBRANCH  36  37
ENDBRANCH  35  36
ENDBRANCH  34  35
ENDBRANCH   1  34
TORSDOF 19
ENDMDL
MODEL 3
REMARK VINA RESULT:     -11.1      1.625      7.172
REMARK SMILES CS(=O)(=O)c1ccc(/C=C(/C(=O)OCCOCCOC(=O)c2ccc(-c3c4nc(c(-c5c(F)c(F)c(F)c(F)c5F)c5ccc([nH]5)c(-c5c(F)c(F)c(F)c(F)c5F)c5nc(c(-c6c(F)c(F)c(F)c(F)c6F)c6ccc3[nH]6)C=C5)C=C4)cc2)c2ccc(-c3ccc(S(C)(=O)=O)cc3)cc2)cc1
REMARK SMILES IDX 15 1 14 2 13 3 11 4 12 5 10 6 9 7 8 8 5 9 6 10 102 11 7 12
REMARK SMILES IDX 101 13 2 14 1 15 3 16 4 17 85 18 86 19 100 20 87 21 99 22
REMARK SMILES IDX 88 23 89 24 90 25 98 26 91 27 97 28 92 29 93 30 94 31 95 32
REMARK SMILES IDX 96 33 16 34 17 35 18 36 19 37 20 38 21 39 22 40 23 41 84 42
REMARK SMILES IDX 24 43 83 44 25 45 26 46 27 47 77 48 28 49 82 50 76 51 78 52
REMARK SMILES IDX 29 53 81 54 75 55 74 56 30 58 62 59 42 60 61 61 43 62 46 63
REMARK SMILES IDX 60 64 79 65 44 66 45 67 59 69 80 70 47 71 31 72 32 73 40 74
REMARK SMILES IDX 33 75 34 76 38 77 41 78 35 79 36 80 39 81 37 82 63 83 64 84
REMARK SMILES IDX 72 85 65 86 66 87 70 88 73 89 67 90 68 91 71 92 69 93 48 94
REMARK SMILES IDX 49 95 57 96 50 97 51 98 55 99 58 100 52 101 53 102 56 103
REMARK SMILES IDX 54 104
REMARK H PARENT 78 57 46 68
REMARK Flexibility Score: inf
ROOT
ATOM      1  C   UNL A   1      33.693  27.361  24.036  1.00  0.00     0.202 C 
ENDROOT
BRANCH   1   2
ATOM      2  C   UNL A   1      33.676  27.130  22.522  1.00  0.00     0.261 C 
BRANCH   2   3
ATOM      3  O   UNL A   1      33.646  25.728  22.199  1.00  0.00    -0.460 OA
BRANCH   3   4
ATOM      4  C   UNL A   1      32.475  25.114  22.508  1.00  0.00     0.338 C 
ATOM      5  O   UNL A   1      31.362  25.508  22.189  1.00  0.00    -0.246 OA
BRANCH   4   6
ATOM      6  C   UNL A   1      32.687  23.801  23.198  1.00  0.00     0.067 C 
ATOM      7  C   UNL A   1      31.741  22.835  23.149  1.00  0.00     0.024 C 
BRANCH   7   8
ATOM      8  C   UNL A   1      31.916  21.399  23.488  1.00  0.00    -0.025 A 
ATOM      9  C   UNL A   1      32.859  18.787  23.906  1.00  0.00     0.067 A 
ATOM     10  C   UNL A   1      32.624  19.626  24.996  1.00  0.00     0.021 A 
ATOM     11  C   UNL A   1      32.492  19.187  22.624  1.00  0.00     0.021 A 
ATOM     12  C   UNL A   1      32.117  20.911  24.785  1.00  0.00     0.009 A 
ATOM     13  C   UNL A   1      32.021  20.491  22.421  1.00  0.00     0.009 A 
BRANCH   9  14
ATOM     14  S   UNL A   1      33.726  17.266  24.210  1.00  0.00     0.175 S 
ATOM     15  C   UNL A   1      33.068  16.572  25.696  1.00  0.00     0.163 C 
ATOM     16  O   UNL A   1      35.108  17.618  24.479  1.00  0.00    -0.224 OA
ATOM     17  O   UNL A   1      33.376  16.379  23.117  1.00  0.00    -0.224 OA
ENDBRANCH   9  14
ENDBRANCH   7   8
BRANCH   6  18
ATOM     18  C   UNL A   1      34.015  23.621  23.816  1.00  0.00    -0.011 A 
ATOM     19  C   UNL A   1      34.205  23.984  25.156  1.00  0.00     0.009 A 
ATOM     20  C   UNL A   1      35.080  23.077  23.100  1.00  0.00     0.009 A 
ATOM     21  C   UNL A   1      35.442  23.802  25.773  1.00  0.00     0.009 A 
ATOM     22  C   UNL A   1      36.311  22.878  23.729  1.00  0.00     0.009 A 
ATOM     23  C   UNL A   1      36.518  23.241  25.072  1.00  0.00    -0.018 A 
BRANCH  23  24
ATOM     24  C   UNL A   1      37.828  23.051  25.718  1.00  0.00    -0.018 A 
ATOM     25  C   UNL A   1      38.527  21.834  25.617  1.00  0.00     0.010 A 
ATOM     26  C   UNL A   1      38.418  24.094  26.455  1.00  0.00     0.010 A 
ATOM     27  C   UNL A   1      39.774  21.666  26.225  1.00  0.00     0.021 A 
ATOM     28  C   UNL A   1      39.663  23.937  27.065  1.00  0.00     0.021 A 
ATOM     29  C   UNL A   1      40.330  22.719  26.952  1.00  0.00     0.067 A 
BRANCH  29  30
ATOM     30  S   UNL A   1      41.921  22.509  27.709  1.00  0.00     0.175 S 
ATOM     31  C   UNL A   1      43.050  23.086  26.469  1.00  0.00     0.163 C 
ATOM     32  O   UNL A   1      41.979  23.418  28.838  1.00  0.00    -0.224 OA
ATOM     33  O   UNL A   1      42.148  21.087  27.882  1.00  0.00    -0.224 OA
ENDBRANCH  29  30
ENDBRANCH  23  24
ENDBRANCH   6  18
ENDBRANCH   4   6
ENDBRANCH   3   4
ENDBRANCH   2   3
ENDBRANCH   1   2
BRANCH   1  34
ATOM     34  O   UNL A   1      34.085  28.651  24.500  1.00  0.00    -0.374 OA
BRANCH  34  35
ATOM     35  C   UNL A   1      33.236  29.306  25.437  1.00  0.00     0.202 C 
BRANCH  35  36
ATOM     36  C   UNL A   1      33.592  29.201  26.925  1.00  0.00     0.261 C 
BRANCH  36  37
ATOM     37  O   UNL A   1      34.972  29.491  27.186  1.00  0.00    -0.460 OA
BRANCH  37  38
ATOM     38  C   UNL A   1      35.210  30.750  27.618  1.00  0.00     0.338 C 
ATOM     39  O   UNL A   1      34.596  31.769  27.328  1.00  0.00    -0.246 OA
BRANCH  38  40
ATOM     40  C   UNL A   1      36.239  30.720  28.668  1.00  0.00     0.060 A 
ATOM     41  C   UNL A   1      37.233  31.709  28.643  1.00  0.00     0.016 A 
ATOM     42  C   UNL A   1      36.262  29.709  29.629  1.00  0.00     0.016 A 
ATOM     43  C   UNL A   1      38.283  31.666  29.555  1.00  0.00     0.010 A 
ATOM     44  C   UNL A   1      37.325  29.656  30.531  1.00  0.00     0.010 A 
ATOM     45  C   UNL A   1      38.355  30.614  30.474  1.00  0.00    -0.014 A 
BRANCH  45  46
ATOM     46  C   UNL A   1      39.591  30.392  31.256  1.00  0.00     0.031 A 
ATOM     47  C   UNL A   1      39.764  31.149  32.541  1.00  0.00     0.074 A 
ATOM     48  C   UNL A   1      40.545  29.552  30.823  1.00  0.00     0.049 A 
ATOM     49  N   UNL A   1      40.810  31.240  33.321  1.00  0.00    -0.248 NA
ATOM     50  C   UNL A   1      38.596  31.918  33.006  1.00  0.00     0.031 C 
ATOM     51  C   UNL A   1      40.458  28.721  29.624  1.00  0.00     0.029 A 
ATOM     52  N   UNL A   1      41.786  29.276  31.338  1.00  0.00    -0.354 N 
ATOM     53  C   UNL A   1      40.434  32.088  34.354  1.00  0.00     0.074 A 
ATOM     54  C   UNL A   1      39.073  32.503  34.094  1.00  0.00     0.031 C 
ATOM     55  C   UNL A   1      41.610  28.045  29.481  1.00  0.00     0.029 A 
ATOM     56  C   UNL A   1      42.528  28.431  30.552  1.00  0.00     0.049 A 
ATOM     57  H   UNL A   1      42.113  29.650  32.188  1.00  0.00     0.167 HD
ATOM     58  C   UNL A   1      41.162  32.481  35.425  1.00  0.00     0.037 A 
ATOM     59  C   UNL A   1      43.813  28.045  30.671  1.00  0.00     0.037 A 
ATOM     60  C   UNL A   1      42.516  32.061  35.674  1.00  0.00     0.049 A 
ATOM     61  C   UNL A   1      44.632  28.562  31.827  1.00  0.00     0.074 A 
ATOM     62  C   UNL A   1      43.344  32.396  36.730  1.00  0.00     0.029 A 
ATOM     63  N   UNL A   1      43.239  31.213  34.848  1.00  0.00    -0.354 N 
ATOM     64  N   UNL A   1      44.275  29.362  32.802  1.00  0.00    -0.248 NA
ATOM     65  C   UNL A   1      46.033  28.124  31.897  1.00  0.00     0.031 C 
ATOM     66  C   UNL A   1      44.586  31.791  36.517  1.00  0.00     0.029 A 
ATOM     67  C   UNL A   1      44.512  31.030  35.360  1.00  0.00     0.049 A 
ATOM     68  H   UNL A   1      42.898  30.803  34.021  1.00  0.00     0.167 HD
ATOM     69  C   UNL A   1      45.390  29.490  33.623  1.00  0.00     0.074 A 
ATOM     70  C   UNL A   1      46.438  28.686  33.028  1.00  0.00     0.031 C 
ATOM     71  C   UNL A   1      45.531  30.202  34.766  1.00  0.00     0.037 A 
BRANCH  58  72
ATOM     72  C   UNL A   1      40.522  33.440  36.385  1.00  0.00     0.064 A 
ATOM     73  C   UNL A   1      40.843  34.806  36.388  1.00  0.00     0.173 A 
ATOM     74  C   UNL A   1      39.558  32.990  37.299  1.00  0.00     0.173 A 
ATOM     75  F   UNL A   1      41.771  35.285  35.547  1.00  0.00    -0.203 F 
ATOM     76  C   UNL A   1      40.239  35.681  37.289  1.00  0.00     0.198 A 
ATOM     77  C   UNL A   1      38.935  33.872  38.177  1.00  0.00     0.198 A 
ATOM     78  F   UNL A   1      39.216  31.694  37.336  1.00  0.00    -0.203 F 
ATOM     79  F   UNL A   1      40.597  36.973  37.309  1.00  0.00    -0.200 F 
ATOM     80  C   UNL A   1      39.281  35.215  38.178  1.00  0.00     0.200 A 
ATOM     81  F   UNL A   1      38.001  33.421  39.026  1.00  0.00    -0.200 F 
ATOM     82  F   UNL A   1      38.698  36.058  39.040  1.00  0.00    -0.200 F 
ENDBRANCH  58  72
BRANCH  59  83
ATOM     83  C   UNL A   1      44.414  27.138  29.659  1.00  0.00     0.064 A 
ATOM     84  C   UNL A   1      44.877  27.633  28.432  1.00  0.00     0.173 A 
ATOM     85  C   UNL A   1      44.524  25.759  29.888  1.00  0.00     0.173 A 
ATOM     86  F   UNL A   1      44.772  28.940  28.155  1.00  0.00    -0.203 F 
ATOM     87  C   UNL A   1      45.411  26.781  27.467  1.00  0.00     0.198 A 
ATOM     88  C   UNL A   1      45.084  24.912  28.934  1.00  0.00     0.198 A 
ATOM     89  F   UNL A   1      44.094  25.233  31.046  1.00  0.00    -0.203 F 
ATOM     90  F   UNL A   1      45.804  27.274  26.284  1.00  0.00    -0.200 F 
ATOM     91  C   UNL A   1      45.520  25.422  27.721  1.00  0.00     0.200 A 
ATOM     92  F   UNL A   1      45.199  23.601  29.190  1.00  0.00    -0.200 F 
ATOM     93  F   UNL A   1      46.036  24.603  26.794  1.00  0.00    -0.200 F 
ENDBRANCH  59  83
BRANCH  71  94
ATOM     94  C   UNL A   1      46.839  30.099  35.496  1.00  0.00     0.064 A 
ATOM     95  C   UNL A   1      47.086  29.088  36.435  1.00  0.00     0.173 A 
ATOM     96  C   UNL A   1      47.885  30.984  35.190  1.00  0.00     0.173 A 
ATOM     97  F   UNL A   1      46.115  28.225  36.770  1.00  0.00    -0.203 F 
ATOM     98  C   UNL A   1      48.330  28.974  37.051  1.00  0.00     0.198 A 
ATOM     99  C   UNL A   1      49.136  30.850  35.786  1.00  0.00     0.198 A 
ATOM    100  F   UNL A   1      47.701  31.964  34.293  1.00  0.00    -0.203 F 
ATOM    101  F   UNL A   1      48.536  28.022  37.970  1.00  0.00    -0.200 F 
ATOM    102  C   UNL A   1      49.356  29.848  36.718  1.00  0.00     0.200 A 
ATOM    103  F   UNL A   1      50.128  31.685  35.451  1.00  0.00    -0.200 F 
ATOM    104  F   UNL A   1      50.557  29.725  37.299  1.00  0.00    -0.200 F 
ENDBRANCH  71  94
ENDBRANCH  45  46
ENDBRANCH  38  40
ENDBRANCH  37  38
ENDBRANCH  36  37
ENDBRANCH  35  36
ENDBRANCH  34  35
ENDBRANCH   1  34
TORSDOF 19
ENDMDL
