MODEL 1
REMARK VINA RESULT:     -11.9      0.000      0.000
REMARK SMILES O=C(C[C@H](C(=O)OCCOCCOC(=O)c1ccc(-c2c3nc(c(-c4c(F)c(F)c(F)c(F)c4F)c4ccc([nH]4)c(-c4c(F)c(F)c(F)c(F)c4F)c4nc(c(-c5c(F)c(F)c(F)c(F)c5F)c5ccc2[nH]5)C=C4)C=C3)cc1)c1ccccc1)Nc1ccc(Cl)cc1Cl
REMARK SMILES IDX 9 1 8 2 7 3 5 4 6 5 4 6 3 7 2 8 1 9 85 10 86 12 87 13 92 14
REMARK SMILES IDX 88 15 91 16 93 17 89 18 90 19 79 20 80 21 84 22 81 23 83 24
REMARK SMILES IDX 82 25 10 26 11 27 12 28 13 29 14 30 15 31 16 32 17 33 78 34
REMARK SMILES IDX 18 35 77 36 19 37 20 38 21 39 71 40 22 41 76 42 70 43 72 44
REMARK SMILES IDX 23 45 75 46 69 47 68 48 24 50 56 51 36 52 55 53 37 54 40 55
REMARK SMILES IDX 54 56 73 57 38 58 39 59 53 61 74 62 41 63 25 64 26 65 34 66
REMARK SMILES IDX 27 67 28 68 32 69 35 70 29 71 30 72 33 73 31 74 57 75 58 76
REMARK SMILES IDX 66 77 59 78 60 79 64 80 67 81 61 82 62 83 65 84 63 85 42 86
REMARK SMILES IDX 43 87 51 88 44 89 45 90 49 91 52 92 46 93 47 94 50 95 48 96
REMARK H PARENT 85 11 72 49 40 60
REMARK Flexibility Score: inf
ROOT
ATOM      1  C   UNL A   1      31.916  29.608  27.161  1.00  0.00     0.202 C 
ENDROOT
BRANCH   1   2
ATOM      2  C   UNL A   1      32.560  28.413  26.453  1.00  0.00     0.261 C 
BRANCH   2   3
ATOM      3  O   UNL A   1      31.790  28.052  25.295  1.00  0.00    -0.463 OA
BRANCH   3   4
ATOM      4  C   UNL A   1      32.119  28.701  24.152  1.00  0.00     0.314 C 
ATOM      5  O   UNL A   1      33.167  29.312  23.973  1.00  0.00    -0.252 OA
BRANCH   4   6
ATOM      6  C   UNL A   1      31.081  28.535  23.049  1.00  0.00     0.138 C 
BRANCH   6   7
ATOM      7  C   UNL A   1      30.834  27.044  22.778  1.00  0.00     0.120 C 
BRANCH   7   8
ATOM      8  C   UNL A   1      32.071  26.169  22.687  1.00  0.00     0.225 C 
ATOM      9  O   UNL A   1      32.846  26.293  21.744  1.00  0.00    -0.275 OA
ATOM     10  N   UNL A   1      32.218  25.283  23.734  1.00  0.00    -0.325 N 
ATOM     11  H   UNL A   1      31.446  25.151  24.331  1.00  0.00     0.169 HD
BRANCH  10  12
ATOM     12  C   UNL A   1      33.392  24.550  24.013  1.00  0.00     0.060 A 
ATOM     13  C   UNL A   1      34.265  25.134  24.943  1.00  0.00     0.029 A 
ATOM     14  C   UNL A   1      33.762  23.337  23.401  1.00  0.00     0.066 A 
ATOM     15  C   UNL A   1      35.449  24.493  25.311  1.00  0.00     0.023 A 
ATOM     16  C   UNL A   1      34.951  22.698  23.773  1.00  0.00     0.043 A 
ATOM     17  Cl  UNL A   1      32.928  22.668  22.039  1.00  0.00    -0.082 Cl
ATOM     18  C   UNL A   1      35.781  23.273  24.730  1.00  0.00     0.042 A 
ATOM     19  Cl  UNL A   1      37.247  22.491  25.176  1.00  0.00    -0.084 Cl
ENDBRANCH  10  12
ENDBRANCH   7   8
ENDBRANCH   6   7
BRANCH   6  20
ATOM     20  C   UNL A   1      29.808  29.362  23.225  1.00  0.00    -0.033 A 
ATOM     21  C   UNL A   1      28.546  28.942  22.771  1.00  0.00     0.004 A 
ATOM     22  C   UNL A   1      29.906  30.636  23.812  1.00  0.00     0.004 A 
ATOM     23  C   UNL A   1      27.431  29.777  22.873  1.00  0.00     0.000 A 
ATOM     24  C   UNL A   1      28.790  31.469  23.913  1.00  0.00     0.000 A 
ATOM     25  C   UNL A   1      27.554  31.043  23.436  1.00  0.00     0.000 A 
ENDBRANCH   6  20
ENDBRANCH   4   6
ENDBRANCH   3   4
ENDBRANCH   2   3
ENDBRANCH   1   2
BRANCH   1  26
ATOM     26  O   UNL A   1      32.414  30.895  26.788  1.00  0.00    -0.374 OA
BRANCH  26  27
ATOM     27  C   UNL A   1      31.475  31.966  26.693  1.00  0.00     0.202 C 
BRANCH  27  28
ATOM     28  C   UNL A   1      31.998  33.358  27.063  1.00  0.00     0.261 C 
BRANCH  28  29
ATOM     29  O   UNL A   1      32.595  33.395  28.370  1.00  0.00    -0.460 OA
BRANCH  29  30
ATOM     30  C   UNL A   1      33.708  34.159  28.453  1.00  0.00     0.338 C 
ATOM     31  O   UNL A   1      33.764  35.378  28.544  1.00  0.00    -0.246 OA
BRANCH  30  32
ATOM     32  C   UNL A   1      34.919  33.326  28.563  1.00  0.00     0.060 A 
ATOM     33  C   UNL A   1      34.751  32.030  29.068  1.00  0.00     0.016 A 
ATOM     34  C   UNL A   1      36.198  33.834  28.321  1.00  0.00     0.016 A 
ATOM     35  C   UNL A   1      35.863  31.268  29.417  1.00  0.00     0.010 A 
ATOM     36  C   UNL A   1      37.316  33.069  28.681  1.00  0.00     0.010 A 
ATOM     37  C   UNL A   1      37.149  31.807  29.281  1.00  0.00    -0.014 A 
BRANCH  37  38
ATOM     38  C   UNL A   1      38.276  31.130  29.971  1.00  0.00     0.031 A 
ATOM     39  C   UNL A   1      38.524  31.442  31.424  1.00  0.00     0.074 A 
ATOM     40  C   UNL A   1      39.008  30.188  29.351  1.00  0.00     0.049 A 
ATOM     41  N   UNL A   1      39.422  30.952  32.241  1.00  0.00    -0.248 NA
ATOM     42  C   UNL A   1      37.633  32.438  32.042  1.00  0.00     0.031 C 
ATOM     43  C   UNL A   1      38.835  29.761  27.965  1.00  0.00     0.029 A 
ATOM     44  N   UNL A   1      40.043  29.415  29.817  1.00  0.00    -0.354 N 
ATOM     45  C   UNL A   1      39.198  31.570  33.464  1.00  0.00     0.074 A 
ATOM     46  C   UNL A   1      38.106  32.500  33.278  1.00  0.00     0.031 C 
ATOM     47  C   UNL A   1      39.740  28.804  27.688  1.00  0.00     0.029 A 
ATOM     48  C   UNL A   1      40.564  28.566  28.872  1.00  0.00     0.049 A 
ATOM     49  H   UNL A   1      40.379  29.464  30.740  1.00  0.00     0.167 HD
ATOM     50  C   UNL A   1      39.835  31.372  34.643  1.00  0.00     0.037 A 
ATOM     51  C   UNL A   1      41.597  27.704  28.955  1.00  0.00     0.037 A 
ATOM     52  C   UNL A   1      40.922  30.451  34.834  1.00  0.00     0.049 A 
ATOM     53  C   UNL A   1      42.324  27.541  30.266  1.00  0.00     0.074 A 
ATOM     54  C   UNL A   1      41.657  30.206  35.982  1.00  0.00     0.029 A 
ATOM     55  N   UNL A   1      41.429  29.619  33.849  1.00  0.00    -0.354 N 
ATOM     56  N   UNL A   1      42.104  28.132  31.415  1.00  0.00    -0.248 NA
ATOM     57  C   UNL A   1      43.435  26.579  30.294  1.00  0.00     0.031 C 
ATOM     58  C   UNL A   1      42.626  29.243  35.683  1.00  0.00     0.029 A 
ATOM     59  C   UNL A   1      42.468  28.859  34.362  1.00  0.00     0.049 A 
ATOM     60  H   UNL A   1      41.099  29.573  32.922  1.00  0.00     0.167 HD
ATOM     61  C   UNL A   1      43.020  27.589  32.306  1.00  0.00     0.074 A 
ATOM     62  C   UNL A   1      43.794  26.614  31.569  1.00  0.00     0.031 C 
ATOM     63  C   UNL A   1      43.206  27.873  33.619  1.00  0.00     0.037 A 
BRANCH  50  64
ATOM     64  C   UNL A   1      39.372  32.175  35.822  1.00  0.00     0.064 A 
ATOM     65  C   UNL A   1      38.420  31.671  36.720  1.00  0.00     0.173 A 
ATOM     66  C   UNL A   1      39.920  33.439  36.083  1.00  0.00     0.173 A 
ATOM     67  F   UNL A   1      37.856  30.473  36.504  1.00  0.00    -0.203 F 
ATOM     68  C   UNL A   1      38.021  32.412  37.830  1.00  0.00     0.198 A 
ATOM     69  C   UNL A   1      39.535  34.167  37.206  1.00  0.00     0.198 A 
ATOM     70  F   UNL A   1      40.835  33.963  35.255  1.00  0.00    -0.203 F 
ATOM     71  F   UNL A   1      37.085  31.926  38.657  1.00  0.00    -0.200 F 
ATOM     72  C   UNL A   1      38.585  33.655  38.076  1.00  0.00     0.200 A 
ATOM     73  F   UNL A   1      40.088  35.364  37.447  1.00  0.00    -0.200 F 
ATOM     74  F   UNL A   1      38.207  34.362  39.150  1.00  0.00    -0.200 F 
ENDBRANCH  50  64
BRANCH  51  75
ATOM     75  C   UNL A   1      42.017  26.925  27.761  1.00  0.00     0.064 A 
ATOM     76  C   UNL A   1      41.459  25.671  27.476  1.00  0.00     0.173 A 
ATOM     77  C   UNL A   1      43.024  27.400  26.908  1.00  0.00     0.173 A 
ATOM     78  F   UNL A   1      40.513  25.160  28.278  1.00  0.00    -0.203 F 
ATOM     79  C   UNL A   1      41.912  24.910  26.400  1.00  0.00     0.198 A 
ATOM     80  C   UNL A   1      43.455  26.651  25.815  1.00  0.00     0.198 A 
ATOM     81  F   UNL A   1      43.591  28.593  27.137  1.00  0.00    -0.203 F 
ATOM     82  F   UNL A   1      41.402  23.689  26.183  1.00  0.00    -0.200 F 
ATOM     83  C   UNL A   1      42.906  25.403  25.568  1.00  0.00     0.200 A 
ATOM     84  F   UNL A   1      44.410  27.135  25.010  1.00  0.00    -0.200 F 
ATOM     85  F   UNL A   1      43.346  24.667  24.537  1.00  0.00    -0.200 F 
ENDBRANCH  51  75
BRANCH  63  86
ATOM     86  C   UNL A   1      44.245  27.080  34.357  1.00  0.00     0.064 A 
ATOM     87  C   UNL A   1      45.565  27.533  34.485  1.00  0.00     0.173 A 
ATOM     88  C   UNL A   1      43.901  25.870  34.977  1.00  0.00     0.173 A 
ATOM     89  F   UNL A   1      45.945  28.679  33.899  1.00  0.00    -0.203 F 
ATOM     90  C   UNL A   1      46.511  26.789  35.185  1.00  0.00     0.198 A 
ATOM     91  C   UNL A   1      44.842  25.142  35.699  1.00  0.00     0.198 A 
ATOM     92  F   UNL A   1      42.648  25.398  34.892  1.00  0.00    -0.203 F 
ATOM     93  F   UNL A   1      47.779  27.218  35.257  1.00  0.00    -0.200 F 
ATOM     94  C   UNL A   1      46.148  25.598  35.796  1.00  0.00     0.200 A 
ATOM     95  F   UNL A   1      44.487  23.997  36.299  1.00  0.00    -0.200 F 
ATOM     96  F   UNL A   1      47.059  24.885  36.473  1.00  0.00    -0.200 F 
ENDBRANCH  63  86
ENDBRANCH  37  38
ENDBRANCH  30  32
ENDBRANCH  29  30
ENDBRANCH  28  29
ENDBRANCH  27  28
ENDBRANCH  26  27
ENDBRANCH   1  26
TORSDOF 18
ENDMDL
MODEL 2
REMARK VINA RESULT:     -11.7      0.976      1.592
REMARK SMILES O=C(C[C@H](C(=O)OCCOCCOC(=O)c1ccc(-c2c3nc(c(-c4c(F)c(F)c(F)c(F)c4F)c4ccc([nH]4)c(-c4c(F)c(F)c(F)c(F)c4F)c4nc(c(-c5c(F)c(F)c(F)c(F)c5F)c5ccc2[nH]5)C=C4)C=C3)cc1)c1ccccc1)Nc1ccc(Cl)cc1Cl
REMARK SMILES IDX 9 1 8 2 7 3 5 4 6 5 4 6 3 7 2 8 1 9 85 10 86 12 87 13 92 14
REMARK SMILES IDX 88 15 91 16 93 17 89 18 90 19 79 20 80 21 84 22 81 23 83 24
REMARK SMILES IDX 82 25 10 26 11 27 12 28 13 29 14 30 15 31 16 32 17 33 78 34
REMARK SMILES IDX 18 35 77 36 19 37 20 38 21 39 71 40 22 41 76 42 70 43 72 44
REMARK SMILES IDX 23 45 75 46 69 47 68 48 24 50 56 51 36 52 55 53 37 54 40 55
REMARK SMILES IDX 54 56 73 57 38 58 39 59 53 61 74 62 41 63 25 64 26 65 34 66
REMARK SMILES IDX 27 67 28 68 32 69 35 70 29 71 30 72 33 73 31 74 57 75 58 76
REMARK SMILES IDX 66 77 59 78 60 79 64 80 67 81 61 82 62 83 65 84 63 85 42 86
REMARK SMILES IDX 43 87 51 88 44 89 45 90 49 91 52 92 46 93 47 94 50 95 48 96
REMARK H PARENT 85 11 72 49 40 60
REMARK Flexibility Score: inf
ROOT
ATOM      1  C   UNL A   1      32.959  29.290  27.012  1.00  0.00     0.202 C 
ENDROOT
BRANCH   1   2
ATOM      2  C   UNL A   1      33.026  27.943  26.289  1.00  0.00     0.261 C 
BRANCH   2   3
ATOM      3  O   UNL A   1      31.781  27.677  25.623  1.00  0.00    -0.463 OA
BRANCH   3   4
ATOM      4  C   UNL A   1      31.824  27.714  24.270  1.00  0.00     0.314 C 
ATOM      5  O   UNL A   1      32.831  27.951  23.610  1.00  0.00    -0.252 OA
BRANCH   4   6
ATOM      6  C   UNL A   1      30.498  27.347  23.617  1.00  0.00     0.138 C 
BRANCH   6   7
ATOM      7  C   UNL A   1      29.883  26.129  24.323  1.00  0.00     0.120 C 
BRANCH   7   8
ATOM      8  C   UNL A   1      30.597  24.807  24.114  1.00  0.00     0.225 C 
ATOM      9  O   UNL A   1      30.300  24.089  23.163  1.00  0.00    -0.275 OA
ATOM     10  N   UNL A   1      31.569  24.532  25.052  1.00  0.00    -0.325 N 
ATOM     11  H   UNL A   1      31.592  25.092  25.862  1.00  0.00     0.169 HD
BRANCH  10  12
ATOM     12  C   UNL A   1      32.535  23.508  24.940  1.00  0.00     0.060 A 
ATOM     13  C   UNL A   1      32.435  22.473  25.882  1.00  0.00     0.029 A 
ATOM     14  C   UNL A   1      33.592  23.482  24.010  1.00  0.00     0.066 A 
ATOM     15  C   UNL A   1      33.324  21.398  25.858  1.00  0.00     0.023 A 
ATOM     16  C   UNL A   1      34.482  22.401  23.990  1.00  0.00     0.043 A 
ATOM     17  Cl  UNL A   1      34.000  24.826  22.998  1.00  0.00    -0.082 Cl
ATOM     18  C   UNL A   1      34.338  21.363  24.905  1.00  0.00     0.042 A 
ATOM     19  Cl  UNL A   1      35.441  20.042  24.886  1.00  0.00    -0.084 Cl
ENDBRANCH  10  12
ENDBRANCH   7   8
ENDBRANCH   6   7
BRANCH   6  20
ATOM     20  C   UNL A   1      29.529  28.511  23.414  1.00  0.00    -0.033 A 
ATOM     21  C   UNL A   1      29.907  29.860  23.537  1.00  0.00     0.004 A 
ATOM     22  C   UNL A   1      28.177  28.228  23.153  1.00  0.00     0.004 A 
ATOM     23  C   UNL A   1      28.962  30.884  23.433  1.00  0.00     0.000 A 
ATOM     24  C   UNL A   1      27.234  29.253  23.050  1.00  0.00     0.000 A 
ATOM     25  C   UNL A   1      27.626  30.580  23.198  1.00  0.00     0.000 A 
ENDBRANCH   6  20
ENDBRANCH   4   6
ENDBRANCH   3   4
ENDBRANCH   2   3
ENDBRANCH   1   2
BRANCH   1  26
ATOM     26  O   UNL A   1      32.747  30.433  26.180  1.00  0.00    -0.374 OA
BRANCH  26  27
ATOM     27  C   UNL A   1      31.650  31.291  26.499  1.00  0.00     0.202 C 
BRANCH  27  28
ATOM     28  C   UNL A   1      32.010  32.715  26.931  1.00  0.00     0.261 C 
BRANCH  28  29
ATOM     29  O   UNL A   1      32.837  32.745  28.106  1.00  0.00    -0.460 OA
BRANCH  29  30
ATOM     30  C   UNL A   1      33.865  33.622  28.042  1.00  0.00     0.338 C 
ATOM     31  O   UNL A   1      33.794  34.843  27.976  1.00  0.00    -0.246 OA
BRANCH  30  32
ATOM     32  C   UNL A   1      35.160  32.938  28.202  1.00  0.00     0.060 A 
ATOM     33  C   UNL A   1      35.122  31.553  28.408  1.00  0.00     0.016 A 
ATOM     34  C   UNL A   1      36.366  33.637  28.293  1.00  0.00     0.016 A 
ATOM     35  C   UNL A   1      36.274  30.874  28.794  1.00  0.00     0.010 A 
ATOM     36  C   UNL A   1      37.523  32.953  28.690  1.00  0.00     0.010 A 
ATOM     37  C   UNL A   1      37.467  31.580  28.996  1.00  0.00    -0.014 A 
BRANCH  37  38
ATOM     38  C   UNL A   1      38.571  30.911  29.730  1.00  0.00     0.031 A 
ATOM     39  C   UNL A   1      38.771  31.240  31.186  1.00  0.00     0.074 A 
ATOM     40  C   UNL A   1      39.322  29.961  29.145  1.00  0.00     0.049 A 
ATOM     41  N   UNL A   1      39.643  30.760  32.037  1.00  0.00    -0.248 NA
ATOM     42  C   UNL A   1      37.862  32.245  31.763  1.00  0.00     0.031 C 
ATOM     43  C   UNL A   1      39.194  29.518  27.759  1.00  0.00     0.029 A 
ATOM     44  N   UNL A   1      40.341  29.193  29.653  1.00  0.00    -0.354 N 
ATOM     45  C   UNL A   1      39.380  31.393  33.245  1.00  0.00     0.074 A 
ATOM     46  C   UNL A   1      38.295  32.322  33.012  1.00  0.00     0.031 C 
ATOM     47  C   UNL A   1      40.106  28.557  27.523  1.00  0.00     0.029 A 
ATOM     48  C   UNL A   1      40.891  28.333  28.736  1.00  0.00     0.049 A 
ATOM     49  H   UNL A   1      40.647  29.254  30.586  1.00  0.00     0.167 HD
ATOM     50  C   UNL A   1      39.977  31.209  34.446  1.00  0.00     0.037 A 
ATOM     51  C   UNL A   1      41.920  27.472  28.863  1.00  0.00     0.037 A 
ATOM     52  C   UNL A   1      41.058  30.290  34.683  1.00  0.00     0.049 A 
ATOM     53  C   UNL A   1      42.604  27.324  30.199  1.00  0.00     0.074 A 
ATOM     54  C   UNL A   1      41.754  30.058  35.857  1.00  0.00     0.029 A 
ATOM     55  N   UNL A   1      41.595  29.446  33.726  1.00  0.00    -0.354 N 
ATOM     56  N   UNL A   1      42.347  27.929  31.333  1.00  0.00    -0.248 NA
ATOM     57  C   UNL A   1      43.713  26.362  30.274  1.00  0.00     0.031 C 
ATOM     58  C   UNL A   1      42.732  29.091  35.602  1.00  0.00     0.029 A 
ATOM     59  C   UNL A   1      42.616  28.692  34.281  1.00  0.00     0.049 A 
ATOM     60  H   UNL A   1      41.296  29.389  32.789  1.00  0.00     0.167 HD
ATOM     61  C   UNL A   1      43.234  27.396  32.260  1.00  0.00     0.074 A 
ATOM     62  C   UNL A   1      44.030  26.412  31.560  1.00  0.00     0.031 C 
ATOM     63  C   UNL A   1      43.377  27.696  33.574  1.00  0.00     0.037 A 
BRANCH  50  64
ATOM     64  C   UNL A   1      39.478  32.026  35.600  1.00  0.00     0.064 A 
ATOM     65  C   UNL A   1      38.513  31.525  36.486  1.00  0.00     0.173 A 
ATOM     66  C   UNL A   1      40.001  33.303  35.849  1.00  0.00     0.173 A 
ATOM     67  F   UNL A   1      37.971  30.315  36.280  1.00  0.00    -0.203 F 
ATOM     68  C   UNL A   1      38.080  32.280  37.573  1.00  0.00     0.198 A 
ATOM     69  C   UNL A   1      39.582  34.046  36.950  1.00  0.00     0.198 A 
ATOM     70  F   UNL A   1      40.927  33.825  35.032  1.00  0.00    -0.203 F 
ATOM     71  F   UNL A   1      37.133  31.796  38.388  1.00  0.00    -0.200 F 
ATOM     72  C   UNL A   1      38.620  33.536  37.808  1.00  0.00     0.200 A 
ATOM     73  F   UNL A   1      40.112  35.255  37.181  1.00  0.00    -0.200 F 
ATOM     74  F   UNL A   1      38.209  34.257  38.861  1.00  0.00    -0.200 F 
ENDBRANCH  50  64
BRANCH  51  75
ATOM     75  C   UNL A   1      42.378  26.678  27.693  1.00  0.00     0.064 A 
ATOM     76  C   UNL A   1      41.882  25.390  27.447  1.00  0.00     0.173 A 
ATOM     77  C   UNL A   1      43.360  27.176  26.825  1.00  0.00     0.173 A 
ATOM     78  F   UNL A   1      40.961  24.859  28.265  1.00  0.00    -0.203 F 
ATOM     79  C   UNL A   1      42.371  24.620  26.393  1.00  0.00     0.198 A 
ATOM     80  C   UNL A   1      43.828  26.415  25.754  1.00  0.00     0.198 A 
ATOM     81  F   UNL A   1      43.869  28.401  27.017  1.00  0.00    -0.203 F 
ATOM     82  F   UNL A   1      41.921  23.370  26.215  1.00  0.00    -0.200 F 
ATOM     83  C   UNL A   1      43.340  25.135  25.546  1.00  0.00     0.200 A 
ATOM     84  F   UNL A   1      44.759  26.920  24.934  1.00  0.00    -0.200 F 
ATOM     85  F   UNL A   1      43.816  24.390  24.538  1.00  0.00    -0.200 F 
ENDBRANCH  51  75
BRANCH  63  86
ATOM     86  C   UNL A   1      44.391  26.912  34.355  1.00  0.00     0.064 A 
ATOM     87  C   UNL A   1      44.069  25.696  34.971  1.00  0.00     0.173 A 
ATOM     88  C   UNL A   1      45.715  27.369  34.452  1.00  0.00     0.173 A 
ATOM     89  F   UNL A   1      42.814  25.223  34.916  1.00  0.00    -0.203 F 
ATOM     90  C   UNL A   1      45.028  24.976  35.679  1.00  0.00     0.198 A 
ATOM     91  C   UNL A   1      46.677  26.635  35.138  1.00  0.00     0.198 A 
ATOM     92  F   UNL A   1      46.076  28.524  33.872  1.00  0.00    -0.203 F 
ATOM     93  F   UNL A   1      44.687  23.838  36.299  1.00  0.00    -0.200 F 
ATOM     94  C   UNL A   1      46.332  25.444  35.758  1.00  0.00     0.200 A 
ATOM     95  F   UNL A   1      47.939  27.082  35.203  1.00  0.00    -0.200 F 
ATOM     96  F   UNL A   1      47.255  24.749  36.437  1.00  0.00    -0.200 F 
ENDBRANCH  63  86
ENDBRANCH  37  38
ENDBRANCH  30  32
ENDBRANCH  29  30
ENDBRANCH  28  29
ENDBRANCH  27  28
ENDBRANCH  26  27
ENDBRANCH   1  26
TORSDOF 18
ENDMDL
MODEL 3
REMARK VINA RESULT:     -11.4      5.369     11.000
REMARK SMILES O=C(C[C@H](C(=O)OCCOCCOC(=O)c1ccc(-c2c3nc(c(-c4c(F)c(F)c(F)c(F)c4F)c4ccc([nH]4)c(-c4c(F)c(F)c(F)c(F)c4F)c4nc(c(-c5c(F)c(F)c(F)c(F)c5F)c5ccc2[nH]5)C=C4)C=C3)cc1)c1ccccc1)Nc1ccc(Cl)cc1Cl
REMARK SMILES IDX 9 1 8 2 7 3 5 4 6 5 4 6 3 7 2 8 1 9 85 10 86 12 87 13 92 14
REMARK SMILES IDX 88 15 91 16 93 17 89 18 90 19 79 20 80 21 84 22 81 23 83 24
REMARK SMILES IDX 82 25 10 26 11 27 12 28 13 29 14 30 15 31 16 32 17 33 78 34
REMARK SMILES IDX 18 35 77 36 19 37 20 38 21 39 71 40 22 41 76 42 70 43 72 44
REMARK SMILES IDX 23 45 75 46 69 47 68 48 24 50 56 51 36 52 55 53 37 54 40 55
REMARK SMILES IDX 54 56 73 57 38 58 39 59 53 61 74 62 41 63 25 64 26 65 34 66
REMARK SMILES IDX 27 67 28 68 32 69 35 70 29 71 30 72 33 73 31 74 57 75 58 76
REMARK SMILES IDX 66 77 59 78 60 79 64 80 67 81 61 82 62 83 65 84 63 85 42 86
REMARK SMILES IDX 43 87 51 88 44 89 45 90 49 91 52 92 46 93 47 94 50 95 48 96
REMARK H PARENT 85 11 72 49 40 60
REMARK Flexibility Score: inf
ROOT
ATOM      1  C   UNL A   1      37.325  21.757  24.733  1.00  0.00     0.202 C 
ENDROOT
BRANCH   1   2
ATOM      2  C   UNL A   1      36.223  21.135  25.594  1.00  0.00     0.261 C 
BRANCH   2   3
ATOM      3  O   UNL A   1      34.998  21.055  24.846  1.00  0.00    -0.463 OA
BRANCH   3   4
ATOM      4  C   UNL A   1      33.871  20.927  25.587  1.00  0.00     0.314 C 
ATOM      5  O   UNL A   1      33.718  21.393  26.711  1.00  0.00    -0.252 OA
BRANCH   4   6
ATOM      6  C   UNL A   1      32.749  20.205  24.852  1.00  0.00     0.138 C 
BRANCH   6   7
ATOM      7  C   UNL A   1      32.465  20.899  23.512  1.00  0.00     0.120 C 
BRANCH   7   8
ATOM      8  C   UNL A   1      32.213  22.394  23.577  1.00  0.00     0.225 C 
ATOM      9  O   UNL A   1      31.238  22.830  24.181  1.00  0.00    -0.275 OA
ATOM     10  N   UNL A   1      33.160  23.158  22.928  1.00  0.00    -0.325 N 
ATOM     11  H   UNL A   1      33.791  22.693  22.332  1.00  0.00     0.169 HD
BRANCH  10  12
ATOM     12  C   UNL A   1      33.294  24.559  23.054  1.00  0.00     0.060 A 
ATOM     13  C   UNL A   1      32.902  25.308  21.935  1.00  0.00     0.029 A 
ATOM     14  C   UNL A   1      33.829  25.230  24.170  1.00  0.00     0.066 A 
ATOM     15  C   UNL A   1      32.974  26.702  21.950  1.00  0.00     0.023 A 
ATOM     16  C   UNL A   1      33.899  26.628  24.181  1.00  0.00     0.043 A 
ATOM     17  Cl  UNL A   1      34.614  24.416  25.482  1.00  0.00    -0.082 Cl
ATOM     18  C   UNL A   1      33.463  27.355  23.077  1.00  0.00     0.042 A 
ATOM     19  Cl  UNL A   1      33.562  29.073  23.089  1.00  0.00    -0.084 Cl
ENDBRANCH  10  12
ENDBRANCH   7   8
ENDBRANCH   6   7
BRANCH   6  20
ATOM     20  C   UNL A   1      32.910  18.688  24.752  1.00  0.00    -0.033 A 
ATOM     21  C   UNL A   1      32.590  17.808  25.801  1.00  0.00     0.004 A 
ATOM     22  C   UNL A   1      33.464  18.142  23.581  1.00  0.00     0.004 A 
ATOM     23  C   UNL A   1      32.843  16.438  25.692  1.00  0.00     0.000 A 
ATOM     24  C   UNL A   1      33.716  16.773  23.474  1.00  0.00     0.000 A 
ATOM     25  C   UNL A   1      33.413  15.922  24.534  1.00  0.00     0.000 A 
ENDBRANCH   6  20
ENDBRANCH   4   6
ENDBRANCH   3   4
ENDBRANCH   2   3
ENDBRANCH   1   2
BRANCH   1  26
ATOM     26  O   UNL A   1      38.316  22.508  25.437  1.00  0.00    -0.374 OA
BRANCH  26  27
ATOM     27  C   UNL A   1      39.298  21.779  26.175  1.00  0.00     0.202 C 
BRANCH  27  28
ATOM     28  C   UNL A   1      39.686  20.408  25.614  1.00  0.00     0.261 C 
BRANCH  28  29
ATOM     29  O   UNL A   1      40.436  19.619  26.552  1.00  0.00    -0.460 OA
BRANCH  29  30
ATOM     30  C   UNL A   1      41.728  19.420  26.204  1.00  0.00     0.338 C 
ATOM     31  O   UNL A   1      42.197  18.454  25.617  1.00  0.00    -0.246 OA
BRANCH  30  32
ATOM     32  C   UNL A   1      42.549  20.608  26.500  1.00  0.00     0.060 A 
ATOM     33  C   UNL A   1      42.575  21.043  27.831  1.00  0.00     0.016 A 
ATOM     34  C   UNL A   1      43.157  21.363  25.495  1.00  0.00     0.016 A 
ATOM     35  C   UNL A   1      43.132  22.278  28.151  1.00  0.00     0.010 A 
ATOM     36  C   UNL A   1      43.710  22.610  25.817  1.00  0.00     0.010 A 
ATOM     37  C   UNL A   1      43.649  23.094  27.137  1.00  0.00    -0.014 A 
BRANCH  37  38
ATOM     38  C   UNL A   1      43.913  24.523  27.444  1.00  0.00     0.031 A 
ATOM     39  C   UNL A   1      45.299  25.066  27.213  1.00  0.00     0.074 A 
ATOM     40  C   UNL A   1      42.923  25.347  27.832  1.00  0.00     0.049 A 
ATOM     41  N   UNL A   1      45.756  26.281  27.376  1.00  0.00    -0.248 NA
ATOM     42  C   UNL A   1      46.306  24.108  26.726  1.00  0.00     0.031 C 
ATOM     43  C   UNL A   1      41.532  24.955  28.043  1.00  0.00     0.029 A 
ATOM     44  N   UNL A   1      42.942  26.692  28.111  1.00  0.00    -0.354 N 
ATOM     45  C   UNL A   1      47.093  26.236  27.003  1.00  0.00     0.074 A 
ATOM     46  C   UNL A   1      47.389  24.866  26.643  1.00  0.00     0.031 C 
ATOM     47  C   UNL A   1      40.829  26.037  28.425  1.00  0.00     0.029 A 
ATOM     48  C   UNL A   1      41.725  27.189  28.502  1.00  0.00     0.049 A 
ATOM     49  H   UNL A   1      43.752  27.245  28.036  1.00  0.00     0.167 HD
ATOM     50  C   UNL A   1      47.994  27.246  26.951  1.00  0.00     0.037 A 
ATOM     51  C   UNL A   1      41.379  28.433  28.888  1.00  0.00     0.037 A 
ATOM     52  C   UNL A   1      47.708  28.608  27.311  1.00  0.00     0.049 A 
ATOM     53  C   UNL A   1      42.415  29.529  28.872  1.00  0.00     0.074 A 
ATOM     54  C   UNL A   1      48.563  29.697  27.327  1.00  0.00     0.029 A 
ATOM     55  N   UNL A   1      46.465  29.069  27.715  1.00  0.00    -0.354 N 
ATOM     56  N   UNL A   1      43.676  29.474  28.519  1.00  0.00    -0.248 NA
ATOM     57  C   UNL A   1      41.973  30.867  29.296  1.00  0.00     0.031 C 
ATOM     58  C   UNL A   1      47.843  30.812  27.767  1.00  0.00     0.029 A 
ATOM     59  C   UNL A   1      46.530  30.427  27.984  1.00  0.00     0.049 A 
ATOM     60  H   UNL A   1      45.655  28.515  27.798  1.00  0.00     0.167 HD
ATOM     61  C   UNL A   1      44.165  30.768  28.642  1.00  0.00     0.074 A 
ATOM     62  C   UNL A   1      43.065  31.591  29.094  1.00  0.00     0.031 C 
ATOM     63  C   UNL A   1      45.416  31.234  28.404  1.00  0.00     0.037 A 
BRANCH  50  64
ATOM     64  C   UNL A   1      49.382  26.912  26.493  1.00  0.00     0.064 A 
ATOM     65  C   UNL A   1      50.349  26.428  27.386  1.00  0.00     0.173 A 
ATOM     66  C   UNL A   1      49.735  27.033  25.141  1.00  0.00     0.173 A 
ATOM     67  F   UNL A   1      50.063  26.310  28.692  1.00  0.00    -0.203 F 
ATOM     68  C   UNL A   1      51.626  26.091  26.944  1.00  0.00     0.198 A 
ATOM     69  C   UNL A   1      51.005  26.673  24.699  1.00  0.00     0.198 A 
ATOM     70  F   UNL A   1      48.845  27.489  24.248  1.00  0.00    -0.203 F 
ATOM     71  F   UNL A   1      52.545  25.662  27.820  1.00  0.00    -0.200 F 
ATOM     72  C   UNL A   1      51.950  26.206  25.601  1.00  0.00     0.200 A 
ATOM     73  F   UNL A   1      51.314  26.776  23.399  1.00  0.00    -0.200 F 
ATOM     74  F   UNL A   1      53.176  25.871  25.175  1.00  0.00    -0.200 F 
ENDBRANCH  50  64
BRANCH  51  75
ATOM     75  C   UNL A   1      39.989  28.720  29.330  1.00  0.00     0.064 A 
ATOM     76  C   UNL A   1      39.588  28.503  30.656  1.00  0.00     0.173 A 
ATOM     77  C   UNL A   1      39.022  29.170  28.420  1.00  0.00     0.173 A 
ATOM     78  F   UNL A   1      40.469  28.046  31.557  1.00  0.00    -0.203 F 
ATOM     79  C   UNL A   1      38.265  28.699  31.048  1.00  0.00     0.198 A 
ATOM     80  C   UNL A   1      37.706  29.394  28.820  1.00  0.00     0.198 A 
ATOM     81  F   UNL A   1      39.354  29.391  27.141  1.00  0.00    -0.203 F 
ATOM     82  F   UNL A   1      37.894  28.429  32.307  1.00  0.00    -0.200 F 
ATOM     83  C   UNL A   1      37.326  29.148  30.130  1.00  0.00     0.200 A 
ATOM     84  F   UNL A   1      36.805  29.835  27.933  1.00  0.00    -0.200 F 
ATOM     85  F   UNL A   1      36.052  29.330  30.506  1.00  0.00    -0.200 F 
ENDBRANCH  51  75
BRANCH  63  86
ATOM     86  C   UNL A   1      45.647  32.707  28.569  1.00  0.00     0.064 A 
ATOM     87  C   UNL A   1      46.046  33.258  29.794  1.00  0.00     0.173 A 
ATOM     88  C   UNL A   1      45.505  33.572  27.473  1.00  0.00     0.173 A 
ATOM     89  F   UNL A   1      46.185  32.474  30.874  1.00  0.00    -0.203 F 
ATOM     90  C   UNL A   1      46.269  34.627  29.923  1.00  0.00     0.198 A 
ATOM     91  C   UNL A   1      45.754  34.935  27.599  1.00  0.00     0.198 A 
ATOM     92  F   UNL A   1      45.133  33.091  26.276  1.00  0.00    -0.203 F 
ATOM     93  F   UNL A   1      46.606  35.140  31.115  1.00  0.00    -0.200 F 
ATOM     94  C   UNL A   1      46.128  35.463  28.825  1.00  0.00     0.200 A 
ATOM     95  F   UNL A   1      45.628  35.739  26.534  1.00  0.00    -0.200 F 
ATOM     96  F   UNL A   1      46.346  36.779  28.951  1.00  0.00    -0.200 F 
ENDBRANCH  63  86
ENDBRANCH  37  38
ENDBRANCH  30  32
ENDBRANCH  29  30
ENDBRANCH  28  29
ENDBRANCH  27  28
ENDBRANCH  26  27
ENDBRANCH   1  26
TORSDOF 18
ENDMDL
