MODEL 1
REMARK VINA RESULT:     -11.2      0.000      0.000
REMARK SMILES CCOc1cc(C(=O)OCCOCCOC(=O)c2ccc(-c3c4nc(c(-c5c(F)c(F)c(F)c(F)c5F)c5ccc([nH]5)c(-c5c(F)c(F)c(F)c(F)c5F)c5nc(c(-c6c(F)c(F)c(F)c(F)c6F)c6ccc3[nH]6)C=C5)C=C4)cc2)ccc1OCc1ccc(Cl)c(Cl)c1
REMARK SMILES IDX 11 1 10 2 9 3 7 4 8 5 6 6 4 7 5 8 83 9 82 10 81 11 3 12 2 13
REMARK SMILES IDX 1 14 84 15 85 16 86 17 87 18 93 19 88 20 91 21 89 22 92 23
REMARK SMILES IDX 90 24 12 25 13 26 14 27 15 28 16 29 17 30 18 31 19 32 80 33
REMARK SMILES IDX 20 34 79 35 21 36 22 37 23 38 73 39 24 40 78 41 72 42 74 43
REMARK SMILES IDX 25 44 77 45 71 46 70 47 26 49 58 50 38 51 57 52 39 53 42 54
REMARK SMILES IDX 56 55 75 56 40 57 41 58 55 60 76 61 43 62 27 63 28 64 36 65
REMARK SMILES IDX 29 66 30 67 34 68 37 69 31 70 32 71 35 72 33 73 59 74 60 75
REMARK SMILES IDX 68 76 61 77 62 78 66 79 69 80 63 81 64 82 67 83 65 84 44 85
REMARK SMILES IDX 45 86 53 87 46 88 47 89 51 90 54 91 48 92 49 93 52 94 50 95
REMARK H PARENT 74 48 42 59
REMARK Flexibility Score: inf
ROOT
ATOM      1  C   UNL A   1      32.150  29.378  25.811  1.00  0.00     0.202 C 
ENDROOT
BRANCH   1   2
ATOM      2  C   UNL A   1      31.184  29.506  24.629  1.00  0.00     0.261 C 
BRANCH   2   3
ATOM      3  O   UNL A   1      31.726  28.864  23.465  1.00  0.00    -0.460 OA
BRANCH   3   4
ATOM      4  C   UNL A   1      30.887  28.066  22.760  1.00  0.00     0.338 C 
ATOM      5  O   UNL A   1      29.967  28.409  22.039  1.00  0.00    -0.246 OA
BRANCH   4   6
ATOM      6  C   UNL A   1      31.367  26.668  22.876  1.00  0.00     0.064 A 
ATOM      7  C   UNL A   1      31.306  24.509  23.979  1.00  0.00     0.162 A 
ATOM      8  C   UNL A   1      30.742  25.771  23.772  1.00  0.00     0.066 A 
ATOM      9  C   UNL A   1      32.526  24.215  23.349  1.00  0.00     0.161 A 
ATOM     10  C   UNL A   1      33.028  25.026  22.331  1.00  0.00     0.051 A 
ATOM     11  C   UNL A   1      32.454  26.260  22.095  1.00  0.00     0.020 A 
BRANCH   7  12
ATOM     12  O   UNL A   1      30.743  23.511  24.716  1.00  0.00    -0.490 OA
BRANCH  12  13
ATOM     13  C   UNL A   1      31.129  23.354  26.082  1.00  0.00     0.226 C 
ATOM     14  C   UNL A   1      29.842  23.135  26.874  1.00  0.00     0.049 C 
ENDBRANCH  12  13
ENDBRANCH   7  12
BRANCH   9  15
ATOM     15  O   UNL A   1      33.416  23.255  23.733  1.00  0.00    -0.485 OA
BRANCH  15  16
ATOM     16  C   UNL A   1      34.815  23.497  23.535  1.00  0.00     0.265 C 
BRANCH  16  17
ATOM     17  C   UNL A   1      35.934  22.902  24.409  1.00  0.00    -0.009 A 
ATOM     18  C   UNL A   1      36.397  21.581  24.384  1.00  0.00     0.009 A 
ATOM     19  C   UNL A   1      36.656  23.804  25.216  1.00  0.00     0.029 A 
ATOM     20  C   UNL A   1      37.588  21.198  25.016  1.00  0.00     0.022 A 
ATOM     21  C   UNL A   1      37.818  23.417  25.903  1.00  0.00     0.060 A 
ATOM     22  C   UNL A   1      38.308  22.118  25.770  1.00  0.00     0.059 A 
ATOM     23  Cl  UNL A   1      38.606  24.604  26.878  1.00  0.00    -0.083 Cl
ATOM     24  Cl  UNL A   1      39.783  21.592  26.497  1.00  0.00    -0.083 Cl
ENDBRANCH  16  17
ENDBRANCH  15  16
ENDBRANCH   9  15
ENDBRANCH   4   6
ENDBRANCH   3   4
ENDBRANCH   2   3
ENDBRANCH   1   2
BRANCH   1  25
ATOM     25  O   UNL A   1      32.179  30.452  26.752  1.00  0.00    -0.374 OA
BRANCH  25  26
ATOM     26  C   UNL A   1      31.410  31.617  26.470  1.00  0.00     0.202 C 
BRANCH  26  27
ATOM     27  C   UNL A   1      31.988  32.983  26.856  1.00  0.00     0.261 C 
BRANCH  27  28
ATOM     28  O   UNL A   1      32.876  32.932  27.981  1.00  0.00    -0.460 OA
BRANCH  28  29
ATOM     29  C   UNL A   1      33.979  33.706  27.835  1.00  0.00     0.338 C 
ATOM     30  O   UNL A   1      34.025  34.888  27.542  1.00  0.00    -0.246 OA
BRANCH  29  31
ATOM     31  C   UNL A   1      35.180  32.948  28.220  1.00  0.00     0.060 A 
ATOM     32  C   UNL A   1      35.007  31.610  28.592  1.00  0.00     0.016 A 
ATOM     33  C   UNL A   1      36.429  33.563  28.324  1.00  0.00     0.016 A 
ATOM     34  C   UNL A   1      36.075  30.894  29.124  1.00  0.00     0.010 A 
ATOM     35  C   UNL A   1      37.500  32.843  28.860  1.00  0.00     0.010 A 
ATOM     36  C   UNL A   1      37.317  31.517  29.298  1.00  0.00    -0.014 A 
BRANCH  36  37
ATOM     37  C   UNL A   1      38.385  30.824  30.058  1.00  0.00     0.031 A 
ATOM     38  C   UNL A   1      38.563  31.129  31.520  1.00  0.00     0.074 A 
ATOM     39  C   UNL A   1      39.170  29.914  29.455  1.00  0.00     0.049 A 
ATOM     40  N   UNL A   1      39.456  30.674  32.361  1.00  0.00    -0.248 NA
ATOM     41  C   UNL A   1      37.605  32.075  32.112  1.00  0.00     0.031 C 
ATOM     42  C   UNL A   1      39.067  29.508  28.055  1.00  0.00     0.029 A 
ATOM     43  N   UNL A   1      40.216  29.173  29.946  1.00  0.00    -0.354 N 
ATOM     44  C   UNL A   1      39.176  31.286  33.576  1.00  0.00     0.074 A 
ATOM     45  C   UNL A   1      38.050  32.169  33.356  1.00  0.00     0.031 C 
ATOM     46  C   UNL A   1      40.018  28.595  27.796  1.00  0.00     0.029 A 
ATOM     47  C   UNL A   1      40.819  28.383  29.000  1.00  0.00     0.049 A 
ATOM     48  H   UNL A   1      40.505  29.206  30.887  1.00  0.00     0.167 HD
ATOM     49  C   UNL A   1      39.796  31.117  34.769  1.00  0.00     0.037 A 
ATOM     50  C   UNL A   1      41.909  27.598  29.093  1.00  0.00     0.037 A 
ATOM     51  C   UNL A   1      40.914  30.234  34.982  1.00  0.00     0.049 A 
ATOM     52  C   UNL A   1      42.627  27.485  30.413  1.00  0.00     0.074 A 
ATOM     53  C   UNL A   1      41.598  29.975  36.156  1.00  0.00     0.029 A 
ATOM     54  N   UNL A   1      41.518  29.473  33.992  1.00  0.00    -0.354 N 
ATOM     55  N   UNL A   1      42.340  28.044  31.564  1.00  0.00    -0.248 NA
ATOM     56  C   UNL A   1      43.820  26.627  30.447  1.00  0.00     0.031 C 
ATOM     57  C   UNL A   1      42.653  29.105  35.866  1.00  0.00     0.029 A 
ATOM     58  C   UNL A   1      42.586  28.767  34.524  1.00  0.00     0.049 A 
ATOM     59  H   UNL A   1      41.231  29.438  33.051  1.00  0.00     0.167 HD
ATOM     60  C   UNL A   1      43.293  27.581  32.463  1.00  0.00     0.074 A 
ATOM     61  C   UNL A   1      44.158  26.684  31.727  1.00  0.00     0.031 C 
ATOM     62  C   UNL A   1      43.436  27.871  33.780  1.00  0.00     0.037 A 
BRANCH  49  63
ATOM     63  C   UNL A   1      39.299  31.926  35.933  1.00  0.00     0.064 A 
ATOM     64  C   UNL A   1      38.341  31.427  36.827  1.00  0.00     0.173 A 
ATOM     65  C   UNL A   1      39.819  33.207  36.178  1.00  0.00     0.173 A 
ATOM     66  F   UNL A   1      37.802  30.214  36.633  1.00  0.00    -0.203 F 
ATOM     67  C   UNL A   1      37.901  32.190  37.908  1.00  0.00     0.198 A 
ATOM     68  C   UNL A   1      39.402  33.954  37.277  1.00  0.00     0.198 A 
ATOM     69  F   UNL A   1      40.742  33.731  35.358  1.00  0.00    -0.203 F 
ATOM     70  F   UNL A   1      36.949  31.711  38.720  1.00  0.00    -0.200 F 
ATOM     71  C   UNL A   1      38.438  33.448  38.136  1.00  0.00     0.200 A 
ATOM     72  F   UNL A   1      39.934  35.163  37.505  1.00  0.00    -0.200 F 
ATOM     73  F   UNL A   1      38.023  34.177  39.181  1.00  0.00    -0.200 F 
ENDBRANCH  49  63
BRANCH  50  74
ATOM     74  C   UNL A   1      42.400  26.865  27.896  1.00  0.00     0.064 A 
ATOM     75  C   UNL A   1      42.052  25.526  27.673  1.00  0.00     0.173 A 
ATOM     76  C   UNL A   1      43.243  27.483  26.960  1.00  0.00     0.173 A 
ATOM     77  F   UNL A   1      41.268  24.884  28.551  1.00  0.00    -0.203 F 
ATOM     78  C   UNL A   1      42.547  24.827  26.574  1.00  0.00     0.198 A 
ATOM     79  C   UNL A   1      43.710  26.793  25.843  1.00  0.00     0.198 A 
ATOM     80  F   UNL A   1      43.607  28.764  27.125  1.00  0.00    -0.203 F 
ATOM     81  F   UNL A   1      42.240  23.533  26.413  1.00  0.00    -0.200 F 
ATOM     82  C   UNL A   1      43.370  25.462  25.656  1.00  0.00     0.200 A 
ATOM     83  F   UNL A   1      44.493  27.417  24.953  1.00  0.00    -0.200 F 
ATOM     84  F   UNL A   1      43.841  24.791  24.598  1.00  0.00    -0.200 F 
ENDBRANCH  50  74
BRANCH  62  85
ATOM     85  C   UNL A   1      44.543  27.178  34.525  1.00  0.00     0.064 A 
ATOM     86  C   UNL A   1      45.810  27.760  34.678  1.00  0.00     0.173 A 
ATOM     87  C   UNL A   1      44.317  25.930  35.129  1.00  0.00     0.173 A 
ATOM     88  F   UNL A   1      46.083  28.944  34.110  1.00  0.00    -0.203 F 
ATOM     89  C   UNL A   1      46.819  27.104  35.381  1.00  0.00     0.198 A 
ATOM     90  C   UNL A   1      45.316  25.295  35.860  1.00  0.00     0.198 A 
ATOM     91  F   UNL A   1      43.120  25.333  35.021  1.00  0.00    -0.203 F 
ATOM     92  F   UNL A   1      48.037  27.654  35.469  1.00  0.00    -0.200 F 
ATOM     93  C   UNL A   1      46.569  25.878  35.979  1.00  0.00     0.200 A 
ATOM     94  F   UNL A   1      45.067  24.118  36.451  1.00  0.00    -0.200 F 
ATOM     95  F   UNL A   1      47.538  25.254  36.663  1.00  0.00    -0.200 F 
ENDBRANCH  62  85
ENDBRANCH  36  37
ENDBRANCH  29  31
ENDBRANCH  28  29
ENDBRANCH  27  28
ENDBRANCH  26  27
ENDBRANCH  25  26
ENDBRANCH   1  25
TORSDOF 19
ENDMDL
MODEL 2
REMARK VINA RESULT:     -10.9      3.388      8.656
REMARK SMILES CCOc1cc(C(=O)OCCOCCOC(=O)c2ccc(-c3c4nc(c(-c5c(F)c(F)c(F)c(F)c5F)c5ccc([nH]5)c(-c5c(F)c(F)c(F)c(F)c5F)c5nc(c(-c6c(F)c(F)c(F)c(F)c6F)c6ccc3[nH]6)C=C5)C=C4)cc2)ccc1OCc1ccc(Cl)c(Cl)c1
REMARK SMILES IDX 11 1 10 2 9 3 7 4 8 5 6 6 4 7 5 8 83 9 82 10 81 11 3 12 2 13
REMARK SMILES IDX 1 14 84 15 85 16 86 17 87 18 93 19 88 20 91 21 89 22 92 23
REMARK SMILES IDX 90 24 12 25 13 26 14 27 15 28 16 29 17 30 18 31 19 32 80 33
REMARK SMILES IDX 20 34 79 35 21 36 22 37 23 38 73 39 24 40 78 41 72 42 74 43
REMARK SMILES IDX 25 44 77 45 71 46 70 47 26 49 58 50 38 51 57 52 39 53 42 54
REMARK SMILES IDX 56 55 75 56 40 57 41 58 55 60 76 61 43 62 27 63 28 64 36 65
REMARK SMILES IDX 29 66 30 67 34 68 37 69 31 70 32 71 35 72 33 73 59 74 60 75
REMARK SMILES IDX 68 76 61 77 62 78 66 79 69 80 63 81 64 82 67 83 65 84 44 85
REMARK SMILES IDX 45 86 53 87 46 88 47 89 51 90 54 91 48 92 49 93 52 94 50 95
REMARK H PARENT 74 48 42 59
REMARK Flexibility Score: inf
ROOT
ATOM      1  C   UNL A   1      40.540  21.831  25.976  1.00  0.00     0.202 C 
ENDROOT
BRANCH   1   2
ATOM      2  C   UNL A   1      39.169  21.164  26.126  1.00  0.00     0.261 C 
BRANCH   2   3
ATOM      3  O   UNL A   1      38.191  21.841  25.322  1.00  0.00    -0.460 OA
BRANCH   3   4
ATOM      4  C   UNL A   1      37.754  23.042  25.772  1.00  0.00     0.338 C 
ATOM      5  O   UNL A   1      38.254  23.736  26.640  1.00  0.00    -0.246 OA
BRANCH   4   6
ATOM      6  C   UNL A   1      36.626  23.478  24.916  1.00  0.00     0.064 A 
ATOM      7  C   UNL A   1      34.511  24.636  24.654  1.00  0.00     0.162 A 
ATOM      8  C   UNL A   1      35.646  24.362  25.423  1.00  0.00     0.066 A 
ATOM      9  C   UNL A   1      34.350  23.952  23.439  1.00  0.00     0.161 A 
ATOM     10  C   UNL A   1      35.402  23.236  22.868  1.00  0.00     0.051 A 
ATOM     11  C   UNL A   1      36.543  22.991  23.607  1.00  0.00     0.020 A 
BRANCH   7  12
ATOM     12  O   UNL A   1      33.556  25.557  24.969  1.00  0.00    -0.490 OA
BRANCH  12  13
ATOM     13  C   UNL A   1      32.745  25.348  26.125  1.00  0.00     0.226 C 
ATOM     14  C   UNL A   1      31.594  26.347  26.033  1.00  0.00     0.049 C 
ENDBRANCH  12  13
ENDBRANCH   7  12
BRANCH   9  15
ATOM     15  O   UNL A   1      33.174  23.762  22.775  1.00  0.00    -0.485 OA
BRANCH  15  16
ATOM     16  C   UNL A   1      32.227  22.827  23.309  1.00  0.00     0.265 C 
BRANCH  16  17
ATOM     17  C   UNL A   1      32.595  21.458  23.907  1.00  0.00    -0.009 A 
ATOM     18  C   UNL A   1      32.949  21.198  25.237  1.00  0.00     0.009 A 
ATOM     19  C   UNL A   1      32.430  20.336  23.071  1.00  0.00     0.029 A 
ATOM     20  C   UNL A   1      33.005  19.895  25.750  1.00  0.00     0.022 A 
ATOM     21  C   UNL A   1      32.545  19.024  23.560  1.00  0.00     0.060 A 
ATOM     22  C   UNL A   1      32.795  18.803  24.915  1.00  0.00     0.059 A 
ATOM     23  Cl  UNL A   1      32.343  17.729  22.437  1.00  0.00    -0.083 Cl
ATOM     24  Cl  UNL A   1      32.848  17.226  25.614  1.00  0.00    -0.083 Cl
ENDBRANCH  16  17
ENDBRANCH  15  16
ENDBRANCH   9  15
ENDBRANCH   4   6
ENDBRANCH   3   4
ENDBRANCH   2   3
ENDBRANCH   1   2
BRANCH   1  25
ATOM     25  O   UNL A   1      41.640  21.225  26.657  1.00  0.00    -0.374 OA
BRANCH  25  26
ATOM     26  C   UNL A   1      42.695  20.674  25.877  1.00  0.00     0.202 C 
BRANCH  26  27
ATOM     27  C   UNL A   1      43.812  21.608  25.398  1.00  0.00     0.261 C 
BRANCH  27  28
ATOM     28  O   UNL A   1      44.003  22.753  26.239  1.00  0.00    -0.460 OA
BRANCH  28  29
ATOM     29  C   UNL A   1      43.879  23.932  25.585  1.00  0.00     0.338 C 
ATOM     30  O   UNL A   1      44.185  24.179  24.431  1.00  0.00    -0.246 OA
BRANCH  29  31
ATOM     31  C   UNL A   1      43.170  24.906  26.431  1.00  0.00     0.060 A 
ATOM     32  C   UNL A   1      43.762  26.164  26.600  1.00  0.00     0.016 A 
ATOM     33  C   UNL A   1      42.015  24.560  27.133  1.00  0.00     0.016 A 
ATOM     34  C   UNL A   1      43.229  27.064  27.518  1.00  0.00     0.010 A 
ATOM     35  C   UNL A   1      41.482  25.465  28.055  1.00  0.00     0.010 A 
ATOM     36  C   UNL A   1      42.110  26.705  28.279  1.00  0.00    -0.014 A 
BRANCH  36  37
ATOM     37  C   UNL A   1      41.677  27.574  29.400  1.00  0.00     0.031 A 
ATOM     38  C   UNL A   1      42.416  27.508  30.708  1.00  0.00     0.074 A 
ATOM     39  C   UNL A   1      40.653  28.430  29.242  1.00  0.00     0.049 A 
ATOM     40  N   UNL A   1      42.181  28.142  31.828  1.00  0.00    -0.248 NA
ATOM     41  C   UNL A   1      43.575  26.603  30.760  1.00  0.00     0.031 C 
ATOM     42  C   UNL A   1      39.887  28.611  28.011  1.00  0.00     0.029 A 
ATOM     43  N   UNL A   1      40.076  29.304  30.130  1.00  0.00    -0.354 N 
ATOM     44  C   UNL A   1      43.153  27.706  32.720  1.00  0.00     0.074 A 
ATOM     45  C   UNL A   1      43.960  26.729  32.021  1.00  0.00     0.031 C 
ATOM     46  C   UNL A   1      38.933  29.533  28.223  1.00  0.00     0.029 A 
ATOM     47  C   UNL A   1      38.998  29.977  29.614  1.00  0.00     0.049 A 
ATOM     48  H   UNL A   1      40.405  29.433  31.050  1.00  0.00     0.167 HD
ATOM     49  C   UNL A   1      43.358  28.095  34.001  1.00  0.00     0.037 A 
ATOM     50  C   UNL A   1      38.147  30.837  30.206  1.00  0.00     0.037 A 
ATOM     51  C   UNL A   1      42.553  29.071  34.689  1.00  0.00     0.049 A 
ATOM     52  C   UNL A   1      38.351  31.196  31.656  1.00  0.00     0.074 A 
ATOM     53  C   UNL A   1      42.692  29.550  35.980  1.00  0.00     0.029 A 
ATOM     54  N   UNL A   1      41.448  29.709  34.143  1.00  0.00    -0.354 N 
ATOM     55  N   UNL A   1      39.288  30.802  32.484  1.00  0.00    -0.248 NA
ATOM     56  C   UNL A   1      37.380  32.124  32.251  1.00  0.00     0.031 C 
ATOM     57  C   UNL A   1      41.638  30.432  36.236  1.00  0.00     0.029 A 
ATOM     58  C   UNL A   1      40.879  30.556  35.083  1.00  0.00     0.049 A 
ATOM     59  H   UNL A   1      41.118  29.582  33.225  1.00  0.00     0.167 HD
ATOM     60  C   UNL A   1      39.040  31.457  33.684  1.00  0.00     0.074 A 
ATOM     61  C   UNL A   1      37.872  32.285  33.471  1.00  0.00     0.031 C 
ATOM     62  C   UNL A   1      39.720  31.382  34.855  1.00  0.00     0.037 A 
BRANCH  49  63
ATOM     63  C   UNL A   1      44.480  27.443  34.756  1.00  0.00     0.064 A 
ATOM     64  C   UNL A   1      44.305  26.237  35.451  1.00  0.00     0.173 A 
ATOM     65  C   UNL A   1      45.763  28.014  34.751  1.00  0.00     0.173 A 
ATOM     66  F   UNL A   1      43.097  25.653  35.498  1.00  0.00    -0.203 F 
ATOM     67  C   UNL A   1      45.363  25.642  36.136  1.00  0.00     0.198 A 
ATOM     68  C   UNL A   1      46.826  27.400  35.409  1.00  0.00     0.198 A 
ATOM     69  F   UNL A   1      45.989  29.163  34.098  1.00  0.00    -0.203 F 
ATOM     70  F   UNL A   1      45.159  24.516  36.833  1.00  0.00    -0.200 F 
ATOM     71  C   UNL A   1      46.624  26.219  36.107  1.00  0.00     0.200 A 
ATOM     72  F   UNL A   1      48.046  27.952  35.367  1.00  0.00    -0.200 F 
ATOM     73  F   UNL A   1      47.643  25.642  36.757  1.00  0.00    -0.200 F 
ENDBRANCH  49  63
BRANCH  50  74
ATOM     74  C   UNL A   1      37.012  31.408  29.435  1.00  0.00     0.064 A 
ATOM     75  C   UNL A   1      36.998  32.759  29.061  1.00  0.00     0.173 A 
ATOM     76  C   UNL A   1      35.909  30.621  29.072  1.00  0.00     0.173 A 
ATOM     77  F   UNL A   1      38.018  33.559  29.405  1.00  0.00    -0.203 F 
ATOM     78  C   UNL A   1      35.915  33.305  28.375  1.00  0.00     0.198 A 
ATOM     79  C   UNL A   1      34.842  31.160  28.357  1.00  0.00     0.198 A 
ATOM     80  F   UNL A   1      35.872  29.322  29.405  1.00  0.00    -0.203 F 
ATOM     81  F   UNL A   1      35.904  34.611  28.075  1.00  0.00    -0.200 F 
ATOM     82  C   UNL A   1      34.841  32.504  28.017  1.00  0.00     0.200 A 
ATOM     83  F   UNL A   1      33.814  30.377  28.001  1.00  0.00    -0.200 F 
ATOM     84  F   UNL A   1      33.802  33.028  27.354  1.00  0.00    -0.200 F 
ENDBRANCH  50  74
BRANCH  62  85
ATOM     85  C   UNL A   1      39.247  32.250  35.987  1.00  0.00     0.064 A 
ATOM     86  C   UNL A   1      38.316  31.794  36.931  1.00  0.00     0.173 A 
ATOM     87  C   UNL A   1      39.766  33.545  36.150  1.00  0.00     0.173 A 
ATOM     88  F   UNL A   1      37.778  30.571  36.814  1.00  0.00    -0.203 F 
ATOM     89  C   UNL A   1      37.898  32.613  37.979  1.00  0.00     0.198 A 
ATOM     90  C   UNL A   1      39.373  34.347  37.218  1.00  0.00     0.198 A 
ATOM     91  F   UNL A   1      40.666  34.028  35.281  1.00  0.00    -0.203 F 
ATOM     92  F   UNL A   1      36.968  32.175  38.838  1.00  0.00    -0.200 F 
ATOM     93  C   UNL A   1      38.434  33.883  38.127  1.00  0.00     0.200 A 
ATOM     94  F   UNL A   1      39.905  35.568  37.369  1.00  0.00    -0.200 F 
ATOM     95  F   UNL A   1      38.038  34.665  39.141  1.00  0.00    -0.200 F 
ENDBRANCH  62  85
ENDBRANCH  36  37
ENDBRANCH  29  31
ENDBRANCH  28  29
ENDBRANCH  27  28
ENDBRANCH  26  27
ENDBRANCH  25  26
ENDBRANCH   1  25
TORSDOF 19
ENDMDL
MODEL 3
REMARK VINA RESULT:     -10.8      4.539     10.520
REMARK SMILES CCOc1cc(C(=O)OCCOCCOC(=O)c2ccc(-c3c4nc(c(-c5c(F)c(F)c(F)c(F)c5F)c5ccc([nH]5)c(-c5c(F)c(F)c(F)c(F)c5F)c5nc(c(-c6c(F)c(F)c(F)c(F)c6F)c6ccc3[nH]6)C=C5)C=C4)cc2)ccc1OCc1ccc(Cl)c(Cl)c1
REMARK SMILES IDX 11 1 10 2 9 3 7 4 8 5 6 6 4 7 5 8 83 9 82 10 81 11 3 12 2 13
REMARK SMILES IDX 1 14 84 15 85 16 86 17 87 18 93 19 88 20 91 21 89 22 92 23
REMARK SMILES IDX 90 24 12 25 13 26 14 27 15 28 16 29 17 30 18 31 19 32 80 33
REMARK SMILES IDX 20 34 79 35 21 36 22 37 23 38 73 39 24 40 78 41 72 42 74 43
REMARK SMILES IDX 25 44 77 45 71 46 70 47 26 49 58 50 38 51 57 52 39 53 42 54
REMARK SMILES IDX 56 55 75 56 40 57 41 58 55 60 76 61 43 62 27 63 28 64 36 65
REMARK SMILES IDX 29 66 30 67 34 68 37 69 31 70 32 71 35 72 33 73 59 74 60 75
REMARK SMILES IDX 68 76 61 77 62 78 66 79 69 80 63 81 64 82 67 83 65 84 44 85
REMARK SMILES IDX 45 86 53 87 46 88 47 89 51 90 54 91 48 92 49 93 52 94 50 95
REMARK H PARENT 74 48 42 59
REMARK Flexibility Score: inf
ROOT
ATOM      1  C   UNL A   1      35.999  20.751  25.349  1.00  0.00     0.202 C 
ENDROOT
BRANCH   1   2
ATOM      2  C   UNL A   1      34.607  20.222  24.988  1.00  0.00     0.261 C 
BRANCH   2   3
ATOM      3  O   UNL A   1      33.760  21.295  24.550  1.00  0.00    -0.460 OA
BRANCH   3   4
ATOM      4  C   UNL A   1      32.444  21.201  24.858  1.00  0.00     0.338 C 
ATOM      5  O   UNL A   1      31.784  20.186  24.994  1.00  0.00    -0.246 OA
BRANCH   4   6
ATOM      6  C   UNL A   1      31.941  22.560  25.171  1.00  0.00     0.064 A 
ATOM      7  C   UNL A   1      31.205  24.750  24.434  1.00  0.00     0.162 A 
ATOM      8  C   UNL A   1      31.527  23.424  24.132  1.00  0.00     0.066 A 
ATOM      9  C   UNL A   1      31.388  25.195  25.753  1.00  0.00     0.161 A 
ATOM     10  C   UNL A   1      31.612  24.294  26.795  1.00  0.00     0.051 A 
ATOM     11  C   UNL A   1      31.896  22.973  26.507  1.00  0.00     0.020 A 
BRANCH   7  12
ATOM     12  O   UNL A   1      30.680  25.648  23.554  1.00  0.00    -0.490 OA
BRANCH  12  13
ATOM     13  C   UNL A   1      29.378  26.182  23.800  1.00  0.00     0.226 C 
ATOM     14  C   UNL A   1      29.451  27.672  23.471  1.00  0.00     0.049 C 
ENDBRANCH  12  13
ENDBRANCH   7  12
BRANCH   9  15
ATOM     15  O   UNL A   1      31.534  26.491  26.150  1.00  0.00    -0.485 OA
BRANCH  15  16
ATOM     16  C   UNL A   1      32.845  27.072  26.134  1.00  0.00     0.265 C 
BRANCH  16  17
ATOM     17  C   UNL A   1      33.202  28.434  26.756  1.00  0.00    -0.009 A 
ATOM     18  C   UNL A   1      34.426  28.790  27.337  1.00  0.00     0.009 A 
ATOM     19  C   UNL A   1      32.256  29.467  26.606  1.00  0.00     0.029 A 
ATOM     20  C   UNL A   1      34.750  30.121  27.631  1.00  0.00     0.022 A 
ATOM     21  C   UNL A   1      32.548  30.796  26.955  1.00  0.00     0.060 A 
ATOM     22  C   UNL A   1      33.815  31.130  27.432  1.00  0.00     0.059 A 
ATOM     23  Cl  UNL A   1      31.302  31.972  26.745  1.00  0.00    -0.083 Cl
ATOM     24  Cl  UNL A   1      34.287  32.753  27.785  1.00  0.00    -0.083 Cl
ENDBRANCH  16  17
ENDBRANCH  15  16
ENDBRANCH   9  15
ENDBRANCH   4   6
ENDBRANCH   3   4
ENDBRANCH   2   3
ENDBRANCH   1   2
BRANCH   1  25
ATOM     25  O   UNL A   1      37.123  19.981  24.920  1.00  0.00    -0.374 OA
BRANCH  25  26
ATOM     26  C   UNL A   1      38.427  20.499  25.160  1.00  0.00     0.202 C 
BRANCH  26  27
ATOM     27  C   UNL A   1      39.494  19.555  25.726  1.00  0.00     0.261 C 
BRANCH  27  28
ATOM     28  O   UNL A   1      40.017  19.975  26.993  1.00  0.00    -0.460 OA
BRANCH  28  29
ATOM     29  C   UNL A   1      41.310  20.374  26.940  1.00  0.00     0.338 C 
ATOM     30  O   UNL A   1      42.267  19.743  26.524  1.00  0.00    -0.246 OA
BRANCH  29  31
ATOM     31  C   UNL A   1      41.419  21.786  27.341  1.00  0.00     0.060 A 
ATOM     32  C   UNL A   1      40.869  22.745  26.482  1.00  0.00     0.016 A 
ATOM     33  C   UNL A   1      42.141  22.170  28.472  1.00  0.00     0.016 A 
ATOM     34  C   UNL A   1      41.087  24.098  26.723  1.00  0.00     0.010 A 
ATOM     35  C   UNL A   1      42.360  23.529  28.710  1.00  0.00     0.010 A 
ATOM     36  C   UNL A   1      41.866  24.497  27.816  1.00  0.00    -0.014 A 
BRANCH  36  37
ATOM     37  C   UNL A   1      42.273  25.916  27.946  1.00  0.00     0.031 A 
ATOM     38  C   UNL A   1      43.586  26.361  27.362  1.00  0.00     0.074 A 
ATOM     39  C   UNL A   1      41.468  26.804  28.555  1.00  0.00     0.049 A 
ATOM     40  N   UNL A   1      44.156  27.538  27.399  1.00  0.00    -0.248 NA
ATOM     41  C   UNL A   1      44.361  25.339  26.641  1.00  0.00     0.031 C 
ATOM     42  C   UNL A   1      40.157  26.499  29.125  1.00  0.00     0.029 A 
ATOM     43  N   UNL A   1      41.642  28.142  28.803  1.00  0.00    -0.354 N 
ATOM     44  C   UNL A   1      45.359  27.397  26.718  1.00  0.00     0.074 A 
ATOM     45  C   UNL A   1      45.452  26.012  26.307  1.00  0.00     0.031 C 
ATOM     46  C   UNL A   1      39.647  27.619  29.664  1.00  0.00     0.029 A 
ATOM     47  C   UNL A   1      40.611  28.706  29.512  1.00  0.00     0.049 A 
ATOM     48  H   UNL A   1      42.431  28.649  28.502  1.00  0.00     0.167 HD
ATOM     49  C   UNL A   1      46.294  28.340  26.452  1.00  0.00     0.037 A 
ATOM     50  C   UNL A   1      40.475  29.953  30.003  1.00  0.00     0.037 A 
ATOM     51  C   UNL A   1      46.194  29.717  26.861  1.00  0.00     0.049 A 
ATOM     52  C   UNL A   1      41.565  30.965  29.758  1.00  0.00     0.074 A 
ATOM     53  C   UNL A   1      47.076  30.756  26.621  1.00  0.00     0.029 A 
ATOM     54  N   UNL A   1      45.149  30.245  27.606  1.00  0.00    -0.354 N 
ATOM     55  N   UNL A   1      42.686  30.832  29.090  1.00  0.00    -0.248 NA
ATOM     56  C   UNL A   1      41.368  32.303  30.333  1.00  0.00     0.031 C 
ATOM     57  C   UNL A   1      46.597  31.897  27.271  1.00  0.00     0.029 A 
ATOM     58  C   UNL A   1      45.381  31.588  27.860  1.00  0.00     0.049 A 
ATOM     59  H   UNL A   1      44.359  29.741  27.908  1.00  0.00     0.167 HD
ATOM     60  C   UNL A   1      43.309  32.073  29.135  1.00  0.00     0.074 A 
ATOM     61  C   UNL A   1      42.435  32.950  29.885  1.00  0.00     0.031 C 
ATOM     62  C   UNL A   1      44.497  32.452  28.602  1.00  0.00     0.037 A 
BRANCH  49  63
ATOM     63  C   UNL A   1      47.525  27.910  25.707  1.00  0.00     0.064 A 
ATOM     64  C   UNL A   1      48.706  27.547  26.372  1.00  0.00     0.173 A 
ATOM     65  C   UNL A   1      47.510  27.822  24.306  1.00  0.00     0.173 A 
ATOM     66  F   UNL A   1      48.779  27.623  27.709  1.00  0.00    -0.203 F 
ATOM     67  C   UNL A   1      49.834  27.140  25.661  1.00  0.00     0.198 A 
ATOM     68  C   UNL A   1      48.628  27.383  23.600  1.00  0.00     0.198 A 
ATOM     69  F   UNL A   1      46.406  28.151  23.619  1.00  0.00    -0.203 F 
ATOM     70  F   UNL A   1      50.965  26.845  26.316  1.00  0.00    -0.200 F 
ATOM     71  C   UNL A   1      49.791  27.050  24.278  1.00  0.00     0.200 A 
ATOM     72  F   UNL A   1      48.580  27.283  22.265  1.00  0.00    -0.200 F 
ATOM     73  F   UNL A   1      50.872  26.649  23.597  1.00  0.00    -0.200 F 
ENDBRANCH  49  63
BRANCH  50  74
ATOM     74  C   UNL A   1      39.267  30.314  30.789  1.00  0.00     0.064 A 
ATOM     75  C   UNL A   1      38.145  30.886  30.172  1.00  0.00     0.173 A 
ATOM     76  C   UNL A   1      39.215  30.114  32.176  1.00  0.00     0.173 A 
ATOM     77  F   UNL A   1      38.155  31.119  28.851  1.00  0.00    -0.203 F 
ATOM     78  C   UNL A   1      37.029  31.263  30.915  1.00  0.00     0.198 A 
ATOM     79  C   UNL A   1      38.084  30.461  32.914  1.00  0.00     0.198 A 
ATOM     80  F   UNL A   1      40.261  29.571  32.817  1.00  0.00    -0.203 F 
ATOM     81  F   UNL A   1      35.992  31.855  30.307  1.00  0.00    -0.200 F 
ATOM     82  C   UNL A   1      36.996  31.045  32.284  1.00  0.00     0.200 A 
ATOM     83  F   UNL A   1      38.053  30.234  34.234  1.00  0.00    -0.200 F 
ATOM     84  F   UNL A   1      35.921  31.404  32.997  1.00  0.00    -0.200 F 
ENDBRANCH  50  74
BRANCH  62  85
ATOM     85  C   UNL A   1      44.903  33.890  28.770  1.00  0.00     0.064 A 
ATOM     86  C   UNL A   1      45.713  34.311  29.835  1.00  0.00     0.173 A 
ATOM     87  C   UNL A   1      44.508  34.852  27.826  1.00  0.00     0.173 A 
ATOM     88  F   UNL A   1      46.107  33.435  30.772  1.00  0.00    -0.203 F 
ATOM     89  C   UNL A   1      46.086  35.647  29.966  1.00  0.00     0.198 A 
ATOM     90  C   UNL A   1      44.913  36.179  27.941  1.00  0.00     0.198 A 
ATOM     91  F   UNL A   1      43.740  34.502  26.783  1.00  0.00    -0.203 F 
ATOM     92  F   UNL A   1      46.816  36.036  31.020  1.00  0.00    -0.200 F 
ATOM     93  C   UNL A   1      45.694  36.577  29.015  1.00  0.00     0.200 A 
ATOM     94  F   UNL A   1      44.547  37.072  27.012  1.00  0.00    -0.200 F 
ATOM     95  F   UNL A   1      46.063  37.860  29.138  1.00  0.00    -0.200 F 
ENDBRANCH  62  85
ENDBRANCH  36  37
ENDBRANCH  29  31
ENDBRANCH  28  29
ENDBRANCH  27  28
ENDBRANCH  26  27
ENDBRANCH  25  26
ENDBRANCH   1  25
TORSDOF 19
ENDMDL
