MODEL 1
REMARK VINA RESULT:     -11.4      0.000      0.000
REMARK SMILES C[C@@H](C(=O)OCCOCCOC(=O)c1ccc(-c2c3nc(c(-c4c(F)c(F)c(F)c(F)c4F)c4ccc([nH]4)c(-c4c(F)c(F)c(F)c(F)c4F)c4nc(c(-c5c(F)c(F)c(F)c(F)c5F)c5ccc2[nH]5)C=C4)C=C3)cc1)c1ccc(Cc2ccoc2)cc1F
REMARK SMILES IDX 7 1 6 2 5 3 3 4 4 5 2 6 1 7 77 8 78 9 88 10 79 11 87 12
REMARK SMILES IDX 89 13 80 14 81 15 82 16 83 17 86 18 84 19 85 20 8 21 9 22
REMARK SMILES IDX 10 23 11 24 12 25 13 26 14 27 15 28 76 29 16 30 75 31 17 32
REMARK SMILES IDX 18 33 19 34 69 35 20 36 74 37 68 38 70 39 21 40 73 41 67 42
REMARK SMILES IDX 66 43 22 45 54 46 34 47 53 48 35 49 38 50 52 51 71 52 36 53
REMARK SMILES IDX 37 54 51 56 72 57 39 58 23 59 24 60 32 61 25 62 26 63 30 64
REMARK SMILES IDX 33 65 27 66 28 67 31 68 29 69 55 70 56 71 64 72 57 73 58 74
REMARK SMILES IDX 62 75 65 76 59 77 60 78 63 79 61 80 40 81 41 82 49 83 42 84
REMARK SMILES IDX 43 85 47 86 50 87 44 88 45 89 48 90 46 91
REMARK H PARENT 70 44 38 55
REMARK Flexibility Score: inf
ROOT
ATOM      1  C   UNL A   1      33.365  30.218  26.675  1.00  0.00     0.202 C 
ENDROOT
BRANCH   1   2
ATOM      2  C   UNL A   1      33.304  28.810  27.272  1.00  0.00     0.261 C 
BRANCH   2   3
ATOM      3  O   UNL A   1      33.480  27.800  26.264  1.00  0.00    -0.463 OA
BRANCH   3   4
ATOM      4  C   UNL A   1      32.409  26.978  26.074  1.00  0.00     0.313 C 
ATOM      5  O   UNL A   1      31.670  26.612  26.981  1.00  0.00    -0.252 OA
BRANCH   4   6
ATOM      6  C   UNL A   1      32.211  26.580  24.600  1.00  0.00     0.129 C 
ATOM      7  C   UNL A   1      33.517  26.563  23.788  1.00  0.00     0.025 C 
BRANCH   6   8
ATOM      8  C   UNL A   1      31.080  27.386  23.963  1.00  0.00     0.002 A 
ATOM      9  C   UNL A   1      31.259  28.625  23.332  1.00  0.00     0.008 A 
ATOM     10  C   UNL A   1      29.775  26.875  24.005  1.00  0.00     0.127 A 
ATOM     11  C   UNL A   1      30.169  29.315  22.777  1.00  0.00     0.004 A 
ATOM     12  C   UNL A   1      28.682  27.574  23.492  1.00  0.00     0.043 A 
ATOM     13  F   UNL A   1      29.553  25.656  24.518  1.00  0.00    -0.207 F 
ATOM     14  C   UNL A   1      28.862  28.811  22.863  1.00  0.00    -0.041 A 
BRANCH  14  15
ATOM     15  C   UNL A   1      27.689  29.498  22.202  1.00  0.00     0.074 C 
BRANCH  15  16
ATOM     16  C   UNL A   1      27.923  30.971  22.207  1.00  0.00    -0.005 A 
ATOM     17  C   UNL A   1      28.213  31.815  23.322  1.00  0.00     0.046 A 
ATOM     18  C   UNL A   1      28.015  31.800  21.103  1.00  0.00     0.198 A 
ATOM     19  C   UNL A   1      28.442  33.073  22.820  1.00  0.00     0.195 A 
ATOM     20  O   UNL A   1      28.326  33.069  21.469  1.00  0.00    -0.472 OA
ENDBRANCH  15  16
ENDBRANCH  14  15
ENDBRANCH   6   8
ENDBRANCH   4   6
ENDBRANCH   3   4
ENDBRANCH   2   3
ENDBRANCH   1   2
BRANCH   1  21
ATOM     21  O   UNL A   1      32.170  30.708  26.070  1.00  0.00    -0.374 OA
BRANCH  21  22
ATOM     22  C   UNL A   1      31.441  31.717  26.770  1.00  0.00     0.202 C 
BRANCH  22  23
ATOM     23  C   UNL A   1      32.109  33.094  26.878  1.00  0.00     0.261 C 
BRANCH  23  24
ATOM     24  O   UNL A   1      32.692  33.315  28.176  1.00  0.00    -0.460 OA
BRANCH  24  25
ATOM     25  C   UNL A   1      33.820  34.065  28.173  1.00  0.00     0.338 C 
ATOM     26  O   UNL A   1      33.899  35.285  28.075  1.00  0.00    -0.246 OA
BRANCH  25  27
ATOM     27  C   UNL A   1      34.993  33.234  28.488  1.00  0.00     0.060 A 
ATOM     28  C   UNL A   1      34.758  31.975  29.056  1.00  0.00     0.016 A 
ATOM     29  C   UNL A   1      36.297  33.704  28.323  1.00  0.00     0.016 A 
ATOM     30  C   UNL A   1      35.824  31.201  29.511  1.00  0.00     0.010 A 
ATOM     31  C   UNL A   1      37.367  32.932  28.790  1.00  0.00     0.010 A 
ATOM     32  C   UNL A   1      37.132  31.695  29.420  1.00  0.00    -0.014 A 
BRANCH  32  33
ATOM     33  C   UNL A   1      38.227  30.985  30.128  1.00  0.00     0.031 A 
ATOM     34  C   UNL A   1      38.484  31.302  31.576  1.00  0.00     0.074 A 
ATOM     35  C   UNL A   1      38.953  30.039  29.507  1.00  0.00     0.049 A 
ATOM     36  N   UNL A   1      39.388  30.814  32.387  1.00  0.00    -0.248 NA
ATOM     37  C   UNL A   1      37.599  32.303  32.192  1.00  0.00     0.031 C 
ATOM     38  C   UNL A   1      38.774  29.614  28.120  1.00  0.00     0.029 A 
ATOM     39  N   UNL A   1      39.991  29.269  29.966  1.00  0.00    -0.354 N 
ATOM     40  C   UNL A   1      39.182  31.447  33.606  1.00  0.00     0.074 A 
ATOM     41  C   UNL A   1      38.088  32.377  33.421  1.00  0.00     0.031 C 
ATOM     42  C   UNL A   1      39.682  28.664  27.837  1.00  0.00     0.029 A 
ATOM     43  C   UNL A   1      40.520  28.435  29.013  1.00  0.00     0.049 A 
ATOM     44  H   UNL A   1      40.324  29.310  30.892  1.00  0.00     0.167 HD
ATOM     45  C   UNL A   1      39.837  31.261  34.776  1.00  0.00     0.037 A 
ATOM     46  C   UNL A   1      41.573  27.597  29.080  1.00  0.00     0.037 A 
ATOM     47  C   UNL A   1      40.924  30.338  34.961  1.00  0.00     0.049 A 
ATOM     48  C   UNL A   1      42.330  27.457  30.375  1.00  0.00     0.074 A 
ATOM     49  C   UNL A   1      41.645  30.071  36.112  1.00  0.00     0.029 A 
ATOM     50  N   UNL A   1      41.452  29.533  33.963  1.00  0.00    -0.354 N 
ATOM     51  N   UNL A   1      42.115  28.043  31.527  1.00  0.00    -0.248 NA
ATOM     52  C   UNL A   1      43.475  26.535  30.378  1.00  0.00     0.031 C 
ATOM     53  C   UNL A   1      42.638  29.137  35.800  1.00  0.00     0.029 A 
ATOM     54  C   UNL A   1      42.506  28.786  34.465  1.00  0.00     0.049 A 
ATOM     55  H   UNL A   1      41.128  29.499  33.034  1.00  0.00     0.167 HD
ATOM     56  C   UNL A   1      43.077  27.545  32.396  1.00  0.00     0.074 A 
ATOM     57  C   UNL A   1      43.871  26.598  31.641  1.00  0.00     0.031 C 
ATOM     58  C   UNL A   1      43.284  27.845  33.703  1.00  0.00     0.037 A 
BRANCH  45  59
ATOM     59  C   UNL A   1      39.404  32.093  35.948  1.00  0.00     0.064 A 
ATOM     60  C   UNL A   1      39.985  33.341  36.217  1.00  0.00     0.173 A 
ATOM     61  C   UNL A   1      38.376  31.649  36.793  1.00  0.00     0.173 A 
ATOM     62  F   UNL A   1      40.980  33.803  35.446  1.00  0.00    -0.203 F 
ATOM     63  C   UNL A   1      39.567  34.105  37.304  1.00  0.00     0.198 A 
ATOM     64  C   UNL A   1      37.944  32.427  37.864  1.00  0.00     0.198 A 
ATOM     65  F   UNL A   1      37.787  30.463  36.576  1.00  0.00    -0.203 F 
ATOM     66  F   UNL A   1      40.164  35.275  37.568  1.00  0.00    -0.200 F 
ATOM     67  C   UNL A   1      38.544  33.650  38.122  1.00  0.00     0.200 A 
ATOM     68  F   UNL A   1      36.949  31.990  38.648  1.00  0.00    -0.200 F 
ATOM     69  F   UNL A   1      38.140  34.388  39.165  1.00  0.00    -0.200 F 
ENDBRANCH  45  59
BRANCH  46  70
ATOM     70  C   UNL A   1      41.984  26.829  27.875  1.00  0.00     0.064 A 
ATOM     71  C   UNL A   1      41.447  25.565  27.602  1.00  0.00     0.173 A 
ATOM     72  C   UNL A   1      42.935  27.343  26.982  1.00  0.00     0.173 A 
ATOM     73  F   UNL A   1      40.555  25.021  28.443  1.00  0.00    -0.203 F 
ATOM     74  C   UNL A   1      41.856  24.835  26.488  1.00  0.00     0.198 A 
ATOM     75  C   UNL A   1      43.325  26.624  25.854  1.00  0.00     0.198 A 
ATOM     76  F   UNL A   1      43.482  28.548  27.201  1.00  0.00    -0.203 F 
ATOM     77  F   UNL A   1      41.360  23.609  26.273  1.00  0.00    -0.200 F 
ATOM     78  C   UNL A   1      42.791  25.368  25.612  1.00  0.00     0.200 A 
ATOM     79  F   UNL A   1      44.220  27.147  25.005  1.00  0.00    -0.200 F 
ATOM     80  F   UNL A   1      43.182  24.667  24.539  1.00  0.00    -0.200 F 
ENDBRANCH  46  70
BRANCH  58  81
ATOM     81  C   UNL A   1      44.393  27.121  34.409  1.00  0.00     0.064 A 
ATOM     82  C   UNL A   1      45.685  27.659  34.493  1.00  0.00     0.173 A 
ATOM     83  C   UNL A   1      44.147  25.896  35.048  1.00  0.00     0.173 A 
ATOM     84  F   UNL A   1      45.973  28.820  33.887  1.00  0.00    -0.203 F 
ATOM     85  C   UNL A   1      46.697  26.986  35.172  1.00  0.00     0.198 A 
ATOM     86  C   UNL A   1      45.154  25.240  35.750  1.00  0.00     0.198 A 
ATOM     87  F   UNL A   1      42.926  25.343  35.004  1.00  0.00    -0.203 F 
ATOM     88  F   UNL A   1      47.936  27.498  35.205  1.00  0.00    -0.200 F 
ATOM     89  C   UNL A   1      46.429  25.782  35.806  1.00  0.00     0.200 A 
ATOM     90  F   UNL A   1      44.891  24.082  36.372  1.00  0.00    -0.200 F 
ATOM     91  F   UNL A   1      47.403  25.139  36.466  1.00  0.00    -0.200 F 
ENDBRANCH  58  81
ENDBRANCH  32  33
ENDBRANCH  25  27
ENDBRANCH  24  25
ENDBRANCH  23  24
ENDBRANCH  22  23
ENDBRANCH  21  22
ENDBRANCH   1  21
TORSDOF 17
ENDMDL
MODEL 2
REMARK VINA RESULT:     -11.2      2.145      4.245
REMARK SMILES C[C@@H](C(=O)OCCOCCOC(=O)c1ccc(-c2c3nc(c(-c4c(F)c(F)c(F)c(F)c4F)c4ccc([nH]4)c(-c4c(F)c(F)c(F)c(F)c4F)c4nc(c(-c5c(F)c(F)c(F)c(F)c5F)c5ccc2[nH]5)C=C4)C=C3)cc1)c1ccc(Cc2ccoc2)cc1F
REMARK SMILES IDX 7 1 6 2 5 3 3 4 4 5 2 6 1 7 77 8 78 9 88 10 79 11 87 12
REMARK SMILES IDX 89 13 80 14 81 15 82 16 83 17 86 18 84 19 85 20 8 21 9 22
REMARK SMILES IDX 10 23 11 24 12 25 13 26 14 27 15 28 76 29 16 30 75 31 17 32
REMARK SMILES IDX 18 33 19 34 69 35 20 36 74 37 68 38 70 39 21 40 73 41 67 42
REMARK SMILES IDX 66 43 22 45 54 46 34 47 53 48 35 49 38 50 52 51 71 52 36 53
REMARK SMILES IDX 37 54 51 56 72 57 39 58 23 59 24 60 32 61 25 62 26 63 30 64
REMARK SMILES IDX 33 65 27 66 28 67 31 68 29 69 55 70 56 71 64 72 57 73 58 74
REMARK SMILES IDX 62 75 65 76 59 77 60 78 63 79 61 80 40 81 41 82 49 83 42 84
REMARK SMILES IDX 43 85 47 86 50 87 44 88 45 89 48 90 46 91
REMARK H PARENT 70 44 38 55
REMARK Flexibility Score: inf
ROOT
ATOM      1  C   UNL A   1      33.182  30.364  26.814  1.00  0.00     0.202 C 
ENDROOT
BRANCH   1   2
ATOM      2  C   UNL A   1      33.654  28.993  26.321  1.00  0.00     0.261 C 
BRANCH   2   3
ATOM      3  O   UNL A   1      33.294  27.948  27.240  1.00  0.00    -0.463 OA
BRANCH   3   4
ATOM      4  C   UNL A   1      32.030  27.458  27.096  1.00  0.00     0.313 C 
ATOM      5  O   UNL A   1      31.127  27.676  27.895  1.00  0.00    -0.252 OA
BRANCH   4   6
ATOM      6  C   UNL A   1      31.850  26.626  25.812  1.00  0.00     0.129 C 
ATOM      7  C   UNL A   1      30.451  26.755  25.188  1.00  0.00     0.025 C 
BRANCH   6   8
ATOM      8  C   UNL A   1      32.320  25.187  26.022  1.00  0.00     0.002 A 
ATOM      9  C   UNL A   1      31.496  24.154  26.488  1.00  0.00     0.008 A 
ATOM     10  C   UNL A   1      33.655  24.862  25.743  1.00  0.00     0.127 A 
ATOM     11  C   UNL A   1      32.000  22.855  26.668  1.00  0.00     0.004 A 
ATOM     12  C   UNL A   1      34.173  23.584  25.958  1.00  0.00     0.043 A 
ATOM     13  F   UNL A   1      34.470  25.786  25.214  1.00  0.00    -0.207 F 
ATOM     14  C   UNL A   1      33.349  22.553  26.423  1.00  0.00    -0.041 A 
BRANCH  14  15
ATOM     15  C   UNL A   1      33.891  21.146  26.532  1.00  0.00     0.074 C 
BRANCH  15  16
ATOM     16  C   UNL A   1      33.186  20.276  25.547  1.00  0.00    -0.005 A 
ATOM     17  C   UNL A   1      32.931  20.533  24.166  1.00  0.00     0.046 A 
ATOM     18  C   UNL A   1      32.734  18.986  25.755  1.00  0.00     0.198 A 
ATOM     19  C   UNL A   1      32.341  19.403  23.653  1.00  0.00     0.195 A 
ATOM     20  O   UNL A   1      32.221  18.456  24.615  1.00  0.00    -0.472 OA
ENDBRANCH  15  16
ENDBRANCH  14  15
ENDBRANCH   6   8
ENDBRANCH   4   6
ENDBRANCH   3   4
ENDBRANCH   2   3
ENDBRANCH   1   2
BRANCH   1  21
ATOM     21  O   UNL A   1      31.993  30.882  26.221  1.00  0.00    -0.374 OA
BRANCH  21  22
ATOM     22  C   UNL A   1      31.355  31.981  26.873  1.00  0.00     0.202 C 
BRANCH  22  23
ATOM     23  C   UNL A   1      32.143  33.296  26.923  1.00  0.00     0.261 C 
BRANCH  23  24
ATOM     24  O   UNL A   1      32.541  33.641  28.265  1.00  0.00    -0.460 OA
BRANCH  24  25
ATOM     25  C   UNL A   1      33.677  34.374  28.351  1.00  0.00     0.338 C 
ATOM     26  O   UNL A   1      33.773  35.597  28.337  1.00  0.00    -0.246 OA
BRANCH  25  27
ATOM     27  C   UNL A   1      34.828  33.508  28.651  1.00  0.00     0.060 A 
ATOM     28  C   UNL A   1      34.579  32.324  29.357  1.00  0.00     0.016 A 
ATOM     29  C   UNL A   1      36.136  33.882  28.335  1.00  0.00     0.016 A 
ATOM     30  C   UNL A   1      35.639  31.535  29.799  1.00  0.00     0.010 A 
ATOM     31  C   UNL A   1      37.201  33.094  28.788  1.00  0.00     0.010 A 
ATOM     32  C   UNL A   1      36.958  31.939  29.554  1.00  0.00    -0.014 A 
BRANCH  32  33
ATOM     33  C   UNL A   1      38.071  31.235  30.238  1.00  0.00     0.031 A 
ATOM     34  C   UNL A   1      38.361  31.557  31.679  1.00  0.00     0.074 A 
ATOM     35  C   UNL A   1      38.787  30.291  29.603  1.00  0.00     0.049 A 
ATOM     36  N   UNL A   1      39.286  31.074  32.470  1.00  0.00    -0.248 NA
ATOM     37  C   UNL A   1      37.487  32.556  32.313  1.00  0.00     0.031 C 
ATOM     38  C   UNL A   1      38.577  29.862  28.221  1.00  0.00     0.029 A 
ATOM     39  N   UNL A   1      39.839  29.525  30.040  1.00  0.00    -0.354 N 
ATOM     40  C   UNL A   1      39.105  31.710  33.692  1.00  0.00     0.074 A 
ATOM     41  C   UNL A   1      38.004  32.635  33.531  1.00  0.00     0.031 C 
ATOM     42  C   UNL A   1      39.482  28.914  27.920  1.00  0.00     0.029 A 
ATOM     43  C   UNL A   1      40.349  28.691  29.076  1.00  0.00     0.049 A 
ATOM     44  H   UNL A   1      40.193  29.570  30.957  1.00  0.00     0.167 HD
ATOM     45  C   UNL A   1      39.788  31.529  34.847  1.00  0.00     0.037 A 
ATOM     46  C   UNL A   1      41.406  27.858  29.121  1.00  0.00     0.037 A 
ATOM     47  C   UNL A   1      40.883  30.611  35.009  1.00  0.00     0.049 A 
ATOM     48  C   UNL A   1      42.194  27.724  30.398  1.00  0.00     0.074 A 
ATOM     49  C   UNL A   1      41.631  30.349  36.143  1.00  0.00     0.029 A 
ATOM     50  N   UNL A   1      41.391  29.806  34.000  1.00  0.00    -0.354 N 
ATOM     51  N   UNL A   1      42.003  28.312  31.554  1.00  0.00    -0.248 NA
ATOM     52  C   UNL A   1      43.342  26.807  30.377  1.00  0.00     0.031 C 
ATOM     53  C   UNL A   1      42.621  29.419  35.811  1.00  0.00     0.029 A 
ATOM     54  C   UNL A   1      42.459  29.064  34.480  1.00  0.00     0.049 A 
ATOM     55  H   UNL A   1      41.046  29.768  33.080  1.00  0.00     0.167 HD
ATOM     56  C   UNL A   1      42.987  27.821  32.401  1.00  0.00     0.074 A 
ATOM     57  C   UNL A   1      43.767  26.875  31.631  1.00  0.00     0.031 C 
ATOM     58  C   UNL A   1      43.223  28.124  33.702  1.00  0.00     0.037 A 
BRANCH  45  59
ATOM     59  C   UNL A   1      39.380  32.362  36.026  1.00  0.00     0.064 A 
ATOM     60  C   UNL A   1      38.402  31.925  36.931  1.00  0.00     0.173 A 
ATOM     61  C   UNL A   1      39.997  33.599  36.270  1.00  0.00     0.173 A 
ATOM     62  F   UNL A   1      37.773  30.757  36.735  1.00  0.00    -0.203 F 
ATOM     63  C   UNL A   1      38.039  32.707  38.026  1.00  0.00     0.198 A 
ATOM     64  C   UNL A   1      39.649  34.366  37.379  1.00  0.00     0.198 A 
ATOM     65  F   UNL A   1      40.940  34.060  35.434  1.00  0.00    -0.203 F 
ATOM     66  F   UNL A   1      37.072  32.291  38.855  1.00  0.00    -0.200 F 
ATOM     67  C   UNL A   1      38.667  33.923  38.251  1.00  0.00     0.200 A 
ATOM     68  F   UNL A   1      40.264  35.536  37.600  1.00  0.00    -0.200 F 
ATOM     69  F   UNL A   1      38.320  34.672  39.307  1.00  0.00    -0.200 F 
ENDBRANCH  45  59
BRANCH  46  70
ATOM     70  C   UNL A   1      41.792  27.089  27.909  1.00  0.00     0.064 A 
ATOM     71  C   UNL A   1      41.295  25.800  27.678  1.00  0.00     0.173 A 
ATOM     72  C   UNL A   1      42.680  27.626  26.965  1.00  0.00     0.173 A 
ATOM     73  F   UNL A   1      40.465  25.234  28.566  1.00  0.00    -0.203 F 
ATOM     74  C   UNL A   1      41.682  25.070  26.556  1.00  0.00     0.198 A 
ATOM     75  C   UNL A   1      43.047  26.907  25.830  1.00  0.00     0.198 A 
ATOM     76  F   UNL A   1      43.187  28.856  27.143  1.00  0.00    -0.203 F 
ATOM     77  F   UNL A   1      41.226  23.822  26.380  1.00  0.00    -0.200 F 
ATOM     78  C   UNL A   1      42.553  25.626  25.630  1.00  0.00     0.200 A 
ATOM     79  F   UNL A   1      43.880  27.452  24.934  1.00  0.00    -0.200 F 
ATOM     80  F   UNL A   1      42.923  24.925  24.549  1.00  0.00    -0.200 F 
ENDBRANCH  46  70
BRANCH  58  81
ATOM     81  C   UNL A   1      44.351  27.407  34.384  1.00  0.00     0.064 A 
ATOM     82  C   UNL A   1      44.165  26.160  34.999  1.00  0.00     0.173 A 
ATOM     83  C   UNL A   1      45.643  27.954  34.384  1.00  0.00     0.173 A 
ATOM     84  F   UNL A   1      42.946  25.602  35.038  1.00  0.00    -0.203 F 
ATOM     85  C   UNL A   1      45.228  25.497  35.607  1.00  0.00     0.198 A 
ATOM     86  C   UNL A   1      46.709  27.276  34.969  1.00  0.00     0.198 A 
ATOM     87  F   UNL A   1      45.875  29.140  33.803  1.00  0.00    -0.203 F 
ATOM     88  F   UNL A   1      45.020  24.326  36.225  1.00  0.00    -0.200 F 
ATOM     89  C   UNL A   1      46.499  26.051  35.585  1.00  0.00     0.200 A 
ATOM     90  F   UNL A   1      47.939  27.807  34.937  1.00  0.00    -0.200 F 
ATOM     91  F   UNL A   1      47.523  25.408  36.165  1.00  0.00    -0.200 F 
ENDBRANCH  58  81
ENDBRANCH  32  33
ENDBRANCH  25  27
ENDBRANCH  24  25
ENDBRANCH  23  24
ENDBRANCH  22  23
ENDBRANCH  21  22
ENDBRANCH   1  21
TORSDOF 17
ENDMDL
MODEL 3
REMARK VINA RESULT:     -11.2      4.782      9.406
REMARK SMILES C[C@@H](C(=O)OCCOCCOC(=O)c1ccc(-c2c3nc(c(-c4c(F)c(F)c(F)c(F)c4F)c4ccc([nH]4)c(-c4c(F)c(F)c(F)c(F)c4F)c4nc(c(-c5c(F)c(F)c(F)c(F)c5F)c5ccc2[nH]5)C=C4)C=C3)cc1)c1ccc(Cc2ccoc2)cc1F
REMARK SMILES IDX 7 1 6 2 5 3 3 4 4 5 2 6 1 7 77 8 78 9 88 10 79 11 87 12
REMARK SMILES IDX 89 13 80 14 81 15 82 16 83 17 86 18 84 19 85 20 8 21 9 22
REMARK SMILES IDX 10 23 11 24 12 25 13 26 14 27 15 28 76 29 16 30 75 31 17 32
REMARK SMILES IDX 18 33 19 34 69 35 20 36 74 37 68 38 70 39 21 40 73 41 67 42
REMARK SMILES IDX 66 43 22 45 54 46 34 47 53 48 35 49 38 50 52 51 71 52 36 53
REMARK SMILES IDX 37 54 51 56 72 57 39 58 23 59 24 60 32 61 25 62 26 63 30 64
REMARK SMILES IDX 33 65 27 66 28 67 31 68 29 69 55 70 56 71 64 72 57 73 58 74
REMARK SMILES IDX 62 75 65 76 59 77 60 78 63 79 61 80 40 81 41 82 49 83 42 84
REMARK SMILES IDX 43 85 47 86 50 87 44 88 45 89 48 90 46 91
REMARK H PARENT 70 44 38 55
REMARK Flexibility Score: inf
ROOT
ATOM      1  C   UNL A   1      42.146  20.498  26.619  1.00  0.00     0.202 C 
ENDROOT
BRANCH   1   2
ATOM      2  C   UNL A   1      40.872  21.032  27.277  1.00  0.00     0.261 C 
BRANCH   2   3
ATOM      3  O   UNL A   1      40.310  22.125  26.532  1.00  0.00    -0.463 OA
BRANCH   3   4
ATOM      4  C   UNL A   1      39.097  21.877  25.962  1.00  0.00     0.313 C 
ATOM      5  O   UNL A   1      38.702  20.751  25.681  1.00  0.00    -0.252 OA
BRANCH   4   6
ATOM      6  C   UNL A   1      38.267  23.154  25.734  1.00  0.00     0.129 C 
ATOM      7  C   UNL A   1      38.510  24.241  26.793  1.00  0.00     0.025 C 
BRANCH   6   8
ATOM      8  C   UNL A   1      36.796  22.815  25.499  1.00  0.00     0.002 A 
ATOM      9  C   UNL A   1      35.841  22.719  26.521  1.00  0.00     0.008 A 
ATOM     10  C   UNL A   1      36.354  22.578  24.189  1.00  0.00     0.127 A 
ATOM     11  C   UNL A   1      34.505  22.393  26.231  1.00  0.00     0.004 A 
ATOM     12  C   UNL A   1      35.039  22.213  23.899  1.00  0.00     0.043 A 
ATOM     13  F   UNL A   1      37.200  22.739  23.161  1.00  0.00    -0.207 F 
ATOM     14  C   UNL A   1      34.087  22.118  24.919  1.00  0.00    -0.041 A 
BRANCH  14  15
ATOM     15  C   UNL A   1      32.640  21.845  24.578  1.00  0.00     0.074 C 
BRANCH  15  16
ATOM     16  C   UNL A   1      32.492  20.410  24.200  1.00  0.00    -0.005 A 
ATOM     17  C   UNL A   1      32.158  19.863  22.924  1.00  0.00     0.046 A 
ATOM     18  C   UNL A   1      32.761  19.311  24.995  1.00  0.00     0.198 A 
ATOM     19  C   UNL A   1      32.235  18.497  23.043  1.00  0.00     0.195 A 
ATOM     20  O   UNL A   1      32.605  18.155  24.302  1.00  0.00    -0.472 OA
ENDBRANCH  15  16
ENDBRANCH  14  15
ENDBRANCH   6   8
ENDBRANCH   4   6
ENDBRANCH   3   4
ENDBRANCH   2   3
ENDBRANCH   1   2
BRANCH   1  21
ATOM     21  O   UNL A   1      42.600  21.183  25.454  1.00  0.00    -0.374 OA
BRANCH  21  22
ATOM     22  C   UNL A   1      44.005  21.187  25.194  1.00  0.00     0.202 C 
BRANCH  22  23
ATOM     23  C   UNL A   1      44.575  22.451  24.537  1.00  0.00     0.261 C 
BRANCH  23  24
ATOM     24  O   UNL A   1      43.714  23.592  24.714  1.00  0.00    -0.460 OA
BRANCH  24  25
ATOM     25  C   UNL A   1      44.350  24.736  25.064  1.00  0.00     0.338 C 
ATOM     26  O   UNL A   1      45.394  25.177  24.595  1.00  0.00    -0.246 OA
BRANCH  25  27
ATOM     27  C   UNL A   1      43.523  25.522  25.993  1.00  0.00     0.060 A 
ATOM     28  C   UNL A   1      43.834  26.880  26.143  1.00  0.00     0.016 A 
ATOM     29  C   UNL A   1      42.526  24.934  26.774  1.00  0.00     0.016 A 
ATOM     30  C   UNL A   1      43.187  27.645  27.112  1.00  0.00     0.010 A 
ATOM     31  C   UNL A   1      41.884  25.700  27.754  1.00  0.00     0.010 A 
ATOM     32  C   UNL A   1      42.239  27.047  27.953  1.00  0.00    -0.014 A 
BRANCH  32  33
ATOM     33  C   UNL A   1      41.743  27.795  29.135  1.00  0.00     0.031 A 
ATOM     34  C   UNL A   1      42.482  27.669  30.439  1.00  0.00     0.074 A 
ATOM     35  C   UNL A   1      40.679  28.611  29.040  1.00  0.00     0.049 A 
ATOM     36  N   UNL A   1      42.225  28.221  31.598  1.00  0.00    -0.248 NA
ATOM     37  C   UNL A   1      43.673  26.805  30.434  1.00  0.00     0.031 C 
ATOM     38  C   UNL A   1      39.904  28.849  27.824  1.00  0.00     0.029 A 
ATOM     39  N   UNL A   1      40.065  29.388  29.991  1.00  0.00    -0.354 N 
ATOM     40  C   UNL A   1      43.219  27.772  32.457  1.00  0.00     0.074 A 
ATOM     41  C   UNL A   1      44.066  26.878  31.697  1.00  0.00     0.031 C 
ATOM     42  C   UNL A   1      38.909  29.708  28.105  1.00  0.00     0.029 A 
ATOM     43  C   UNL A   1      38.961  30.057  29.525  1.00  0.00     0.049 A 
ATOM     44  H   UNL A   1      40.387  29.459  30.919  1.00  0.00     0.167 HD
ATOM     45  C   UNL A   1      43.416  28.086  33.760  1.00  0.00     0.037 A 
ATOM     46  C   UNL A   1      38.084  30.846  30.176  1.00  0.00     0.037 A 
ATOM     47  C   UNL A   1      42.575  28.973  34.517  1.00  0.00     0.049 A 
ATOM     48  C   UNL A   1      38.284  31.126  31.642  1.00  0.00     0.074 A 
ATOM     49  C   UNL A   1      42.698  29.362  35.840  1.00  0.00     0.029 A 
ATOM     50  N   UNL A   1      41.447  29.607  34.018  1.00  0.00    -0.354 N 
ATOM     51  N   UNL A   1      39.238  30.715  32.441  1.00  0.00    -0.248 NA
ATOM     52  C   UNL A   1      37.286  31.984  32.296  1.00  0.00     0.031 C 
ATOM     53  C   UNL A   1      41.620  30.196  36.154  1.00  0.00     0.029 A 
ATOM     54  C   UNL A   1      40.851  30.365  35.013  1.00  0.00     0.049 A 
ATOM     55  H   UNL A   1      41.117  29.529  33.094  1.00  0.00     0.167 HD
ATOM     56  C   UNL A   1      38.971  31.281  33.681  1.00  0.00     0.074 A 
ATOM     57  C   UNL A   1      37.772  32.077  33.526  1.00  0.00     0.031 C 
ATOM     58  C   UNL A   1      39.659  31.156  34.843  1.00  0.00     0.037 A 
BRANCH  45  59
ATOM     59  C   UNL A   1      44.580  27.445  34.455  1.00  0.00     0.064 A 
ATOM     60  C   UNL A   1      45.857  28.024  34.438  1.00  0.00     0.173 A 
ATOM     61  C   UNL A   1      44.408  26.251  35.174  1.00  0.00     0.173 A 
ATOM     62  F   UNL A   1      46.075  29.157  33.754  1.00  0.00    -0.203 F 
ATOM     63  C   UNL A   1      46.926  27.420  35.095  1.00  0.00     0.198 A 
ATOM     64  C   UNL A   1      45.474  25.663  35.850  1.00  0.00     0.198 A 
ATOM     65  F   UNL A   1      43.206  25.659  35.223  1.00  0.00    -0.203 F 
ATOM     66  F   UNL A   1      48.148  27.968  35.030  1.00  0.00    -0.200 F 
ATOM     67  C   UNL A   1      46.732  26.245  35.805  1.00  0.00     0.200 A 
ATOM     68  F   UNL A   1      45.284  24.533  36.544  1.00  0.00    -0.200 F 
ATOM     69  F   UNL A   1      47.761  25.667  36.440  1.00  0.00    -0.200 F 
ENDBRANCH  45  59
BRANCH  46  70
ATOM     70  C   UNL A   1      36.924  31.419  29.446  1.00  0.00     0.064 A 
ATOM     71  C   UNL A   1      35.829  30.624  29.084  1.00  0.00     0.173 A 
ATOM     72  C   UNL A   1      36.896  32.774  29.083  1.00  0.00     0.173 A 
ATOM     73  F   UNL A   1      35.823  29.317  29.384  1.00  0.00    -0.203 F 
ATOM     74  C   UNL A   1      34.756  31.158  28.373  1.00  0.00     0.198 A 
ATOM     75  C   UNL A   1      35.811  33.313  28.396  1.00  0.00     0.198 A 
ATOM     76  F   UNL A   1      37.922  33.577  29.404  1.00  0.00    -0.203 F 
ATOM     77  F   UNL A   1      33.741  30.366  28.001  1.00  0.00    -0.200 F 
ATOM     78  C   UNL A   1      34.745  32.503  28.035  1.00  0.00     0.200 A 
ATOM     79  F   UNL A   1      35.801  34.615  28.080  1.00  0.00    -0.200 F 
ATOM     80  F   UNL A   1      33.712  33.017  27.354  1.00  0.00    -0.200 F 
ENDBRANCH  46  70
BRANCH  58  81
ATOM     81  C   UNL A   1      39.150  31.916  36.032  1.00  0.00     0.064 A 
ATOM     82  C   UNL A   1      39.563  33.230  36.297  1.00  0.00     0.173 A 
ATOM     83  C   UNL A   1      38.204  31.338  36.893  1.00  0.00     0.173 A 
ATOM     84  F   UNL A   1      40.475  33.821  35.512  1.00  0.00    -0.203 F 
ATOM     85  C   UNL A   1      39.062  33.930  37.391  1.00  0.00     0.198 A 
ATOM     86  C   UNL A   1      37.686  32.050  37.970  1.00  0.00     0.198 A 
ATOM     87  F   UNL A   1      37.772  30.086  36.679  1.00  0.00    -0.203 F 
ATOM     88  F   UNL A   1      39.501  35.170  37.650  1.00  0.00    -0.200 F 
ATOM     89  C   UNL A   1      38.119  33.343  38.222  1.00  0.00     0.200 A 
ATOM     90  F   UNL A   1      36.766  31.486  38.765  1.00  0.00    -0.200 F 
ATOM     91  F   UNL A   1      37.634  34.021  39.272  1.00  0.00    -0.200 F 
ENDBRANCH  58  81
ENDBRANCH  32  33
ENDBRANCH  25  27
ENDBRANCH  24  25
ENDBRANCH  23  24
ENDBRANCH  22  23
ENDBRANCH  21  22
ENDBRANCH   1  21
TORSDOF 17
ENDMDL
