MODEL 1
REMARK VINA RESULT:     -12.2      0.000      0.000
REMARK SMILES Cc1cc(NC(=O)[C@H]2[C@@H](C(=O)OCCOCCOC(=O)c3ccc(-c4c5nc(c(-c6c(F)c(F)c(F)c(F)c6F)c6ccc([nH]6)c(-c6c(F)c(F)c(F)c(F)c6F)c6nc(c(-c7c(F)c(F)c(F)c(F)c7F)c7ccc4[nH]7)C=C6)C=C5)cc3)C2(C)C)n(-c2ccc(F)cc2)n1
REMARK SMILES IDX 14 1 13 2 12 3 10 4 11 5 9 6 8 7 84 8 85 9 86 10 6 11 5 12
REMARK SMILES IDX 7 14 4 15 1 16 2 17 3 18 95 19 87 20 88 21 89 22 94 23 90 24
REMARK SMILES IDX 93 25 91 26 92 27 15 28 16 29 17 30 18 31 19 32 20 33 21 34
REMARK SMILES IDX 22 35 83 36 23 37 82 38 24 39 25 40 26 41 76 42 27 43 81 44
REMARK SMILES IDX 75 45 77 46 28 47 80 48 74 49 73 50 29 52 61 53 41 54 60 55
REMARK SMILES IDX 42 56 45 57 59 58 78 59 43 60 44 61 58 63 79 64 46 65 30 66
REMARK SMILES IDX 31 67 39 68 32 69 33 70 37 71 40 72 34 73 35 74 38 75 36 76
REMARK SMILES IDX 62 77 63 78 71 79 64 80 65 81 69 82 72 83 66 84 67 85 70 86
REMARK SMILES IDX 68 87 47 88 48 89 56 90 49 91 50 92 54 93 57 94 51 95 52 96
REMARK SMILES IDX 55 97 53 98
REMARK H PARENT 5 13 77 51 45 62
REMARK Flexibility Score: inf
ROOT
ATOM      1  C   UNL A   1      40.234  20.958  26.326  1.00  0.00     0.202 C 
ENDROOT
BRANCH   1   2
ATOM      2  C   UNL A   1      39.588  22.322  26.570  1.00  0.00     0.261 C 
BRANCH   2   3
ATOM      3  O   UNL A   1      38.337  22.387  25.872  1.00  0.00    -0.463 OA
BRANCH   3   4
ATOM      4  C   UNL A   1      37.672  23.548  26.025  1.00  0.00     0.310 C 
ATOM      5  O   UNL A   1      37.973  24.493  26.736  1.00  0.00    -0.252 OA
BRANCH   4   6
ATOM      6  C   UNL A   1      36.685  23.727  24.954  1.00  0.00     0.118 C 
ATOM      7  C   UNL A   1      35.267  23.819  25.386  1.00  0.00     0.100 C 
ATOM      8  C   UNL A   1      35.687  22.799  24.309  1.00  0.00    -0.009 C 
ATOM      9  C   UNL A   1      35.683  21.332  24.670  1.00  0.00     0.013 C 
ATOM     10  C   UNL A   1      35.256  23.058  22.877  1.00  0.00     0.013 C 
BRANCH   7  11
ATOM     11  C   UNL A   1      34.600  23.322  26.586  1.00  0.00     0.230 C 
ATOM     12  N   UNL A   1      33.175  23.421  26.597  1.00  0.00    -0.310 N 
ATOM     13  H   UNL A   1      32.714  23.320  27.460  1.00  0.00     0.171 HD
ATOM     14  O   UNL A   1      35.131  22.719  27.486  1.00  0.00    -0.274 OA
BRANCH  12  15
ATOM     15  C   UNL A   1      32.394  23.653  25.463  1.00  0.00     0.136 A 
ATOM     16  C   UNL A   1      30.417  25.988  23.445  1.00  0.00     0.069 C 
ATOM     17  C   UNL A   1      31.171  24.873  24.071  1.00  0.00     0.062 A 
ATOM     18  C   UNL A   1      31.959  24.940  25.228  1.00  0.00     0.072 A 
ATOM     19  N   UNL A   1      31.159  23.646  23.547  1.00  0.00    -0.171 NA
ATOM     20  N   UNL A   1      31.887  22.874  24.397  1.00  0.00    -0.217 N 
BRANCH  20  21
ATOM     21  C   UNL A   1      32.119  21.520  24.013  1.00  0.00     0.067 A 
ATOM     22  C   UNL A   1      32.198  20.499  24.969  1.00  0.00     0.031 A 
ATOM     23  C   UNL A   1      32.028  21.142  22.673  1.00  0.00     0.031 A 
ATOM     24  C   UNL A   1      32.442  19.171  24.622  1.00  0.00     0.041 A 
ATOM     25  C   UNL A   1      32.189  19.792  22.315  1.00  0.00     0.041 A 
ATOM     26  C   UNL A   1      32.439  18.827  23.287  1.00  0.00     0.123 A 
ATOM     27  F   UNL A   1      32.632  17.549  22.940  1.00  0.00    -0.207 F 
ENDBRANCH  20  21
ENDBRANCH  12  15
ENDBRANCH   7  11
ENDBRANCH   4   6
ENDBRANCH   3   4
ENDBRANCH   2   3
ENDBRANCH   1   2
BRANCH   1  28
ATOM     28  O   UNL A   1      40.854  20.293  27.429  1.00  0.00    -0.374 OA
BRANCH  28  29
ATOM     29  C   UNL A   1      42.038  19.528  27.258  1.00  0.00     0.202 C 
BRANCH  29  30
ATOM     30  C   UNL A   1      42.606  19.368  25.850  1.00  0.00     0.261 C 
BRANCH  30  31
ATOM     31  O   UNL A   1      43.995  19.655  25.774  1.00  0.00    -0.460 OA
BRANCH  31  32
ATOM     32  C   UNL A   1      44.364  20.265  24.624  1.00  0.00     0.338 C 
ATOM     33  O   UNL A   1      44.553  19.749  23.537  1.00  0.00    -0.246 OA
BRANCH  32  34
ATOM     34  C   UNL A   1      44.651  21.674  24.898  1.00  0.00     0.060 A 
ATOM     35  C   UNL A   1      45.612  21.972  25.862  1.00  0.00     0.016 A 
ATOM     36  C   UNL A   1      43.766  22.641  24.415  1.00  0.00     0.016 A 
ATOM     37  C   UNL A   1      45.542  23.198  26.488  1.00  0.00     0.010 A 
ATOM     38  C   UNL A   1      43.711  23.872  25.013  1.00  0.00     0.010 A 
ATOM     39  C   UNL A   1      44.526  24.084  26.114  1.00  0.00    -0.014 A 
BRANCH  39  40
ATOM     40  C   UNL A   1      44.317  25.273  26.905  1.00  0.00     0.031 A 
ATOM     41  C   UNL A   1      45.356  26.295  26.695  1.00  0.00     0.074 A 
ATOM     42  C   UNL A   1      43.209  25.437  27.653  1.00  0.00     0.049 A 
ATOM     43  N   UNL A   1      46.265  26.673  27.528  1.00  0.00    -0.248 NA
ATOM     44  C   UNL A   1      45.521  26.826  25.333  1.00  0.00     0.031 C 
ATOM     45  C   UNL A   1      42.006  24.599  27.691  1.00  0.00     0.029 A 
ATOM     46  N   UNL A   1      42.891  26.463  28.483  1.00  0.00    -0.354 N 
ATOM     47  C   UNL A   1      46.990  27.650  26.858  1.00  0.00     0.074 A 
ATOM     48  C   UNL A   1      46.639  27.540  25.468  1.00  0.00     0.031 C 
ATOM     49  C   UNL A   1      41.017  25.265  28.329  1.00  0.00     0.029 A 
ATOM     50  C   UNL A   1      41.555  26.507  28.857  1.00  0.00     0.049 A 
ATOM     51  H   UNL A   1      43.554  27.121  28.794  1.00  0.00     0.167 HD
ATOM     52  C   UNL A   1      47.585  28.659  27.547  1.00  0.00     0.037 A 
ATOM     53  C   UNL A   1      40.944  27.536  29.494  1.00  0.00     0.037 A 
ATOM     54  C   UNL A   1      47.729  28.316  28.942  1.00  0.00     0.049 A 
ATOM     55  C   UNL A   1      42.010  28.362  30.119  1.00  0.00     0.074 A 
ATOM     56  C   UNL A   1      48.392  27.321  29.633  1.00  0.00     0.029 A 
ATOM     57  N   UNL A   1      46.817  28.842  29.822  1.00  0.00    -0.354 N 
ATOM     58  N   UNL A   1      42.745  27.959  31.119  1.00  0.00    -0.248 NA
ATOM     59  C   UNL A   1      42.572  29.456  29.339  1.00  0.00     0.031 C 
ATOM     60  C   UNL A   1      47.541  26.999  30.734  1.00  0.00     0.029 A 
ATOM     61  C   UNL A   1      46.437  27.850  30.688  1.00  0.00     0.049 A 
ATOM     62  H   UNL A   1      46.491  29.771  29.831  1.00  0.00     0.167 HD
ATOM     63  C   UNL A   1      44.018  28.435  30.840  1.00  0.00     0.074 A 
ATOM     64  C   UNL A   1      43.829  29.430  29.789  1.00  0.00     0.031 C 
ATOM     65  C   UNL A   1      45.121  27.764  31.280  1.00  0.00     0.037 A 
BRANCH  52  66
ATOM     66  C   UNL A   1      47.638  30.085  27.054  1.00  0.00     0.064 A 
ATOM     67  C   UNL A   1      48.861  30.779  27.128  1.00  0.00     0.173 A 
ATOM     68  C   UNL A   1      46.500  30.885  26.804  1.00  0.00     0.173 A 
ATOM     69  F   UNL A   1      50.004  30.122  27.377  1.00  0.00    -0.203 F 
ATOM     70  C   UNL A   1      48.923  32.173  27.048  1.00  0.00     0.198 A 
ATOM     71  C   UNL A   1      46.574  32.269  26.667  1.00  0.00     0.198 A 
ATOM     72  F   UNL A   1      45.256  30.392  26.797  1.00  0.00    -0.203 F 
ATOM     73  F   UNL A   1      50.088  32.797  27.260  1.00  0.00    -0.200 F 
ATOM     74  C   UNL A   1      47.778  32.916  26.824  1.00  0.00     0.200 A 
ATOM     75  F   UNL A   1      45.449  32.969  26.468  1.00  0.00    -0.200 F 
ATOM     76  F   UNL A   1      47.825  34.253  26.812  1.00  0.00    -0.200 F 
ENDBRANCH  52  66
BRANCH  53  77
ATOM     77  C   UNL A   1      39.556  28.027  29.328  1.00  0.00     0.064 A 
ATOM     78  C   UNL A   1      38.695  28.149  30.430  1.00  0.00     0.173 A 
ATOM     79  C   UNL A   1      39.140  28.652  28.136  1.00  0.00     0.173 A 
ATOM     80  F   UNL A   1      39.038  27.624  31.616  1.00  0.00    -0.203 F 
ATOM     81  C   UNL A   1      37.502  28.876  30.353  1.00  0.00     0.198 A 
ATOM     82  C   UNL A   1      37.947  29.371  28.058  1.00  0.00     0.198 A 
ATOM     83  F   UNL A   1      39.929  28.663  27.053  1.00  0.00    -0.203 F 
ATOM     84  F   UNL A   1      36.737  29.028  31.443  1.00  0.00    -0.200 F 
ATOM     85  C   UNL A   1      37.135  29.496  29.169  1.00  0.00     0.200 A 
ATOM     86  F   UNL A   1      37.626  29.999  26.918  1.00  0.00    -0.200 F 
ATOM     87  F   UNL A   1      36.026  30.248  29.110  1.00  0.00    -0.200 F 
ENDBRANCH  53  77
BRANCH  65  88
ATOM     88  C   UNL A   1      44.907  26.690  32.310  1.00  0.00     0.064 A 
ATOM     89  C   UNL A   1      44.617  25.349  32.001  1.00  0.00     0.173 A 
ATOM     90  C   UNL A   1      45.123  27.009  33.656  1.00  0.00     0.173 A 
ATOM     91  F   UNL A   1      44.497  24.944  30.731  1.00  0.00    -0.203 F 
ATOM     92  C   UNL A   1      44.499  24.386  33.002  1.00  0.00     0.198 A 
ATOM     93  C   UNL A   1      45.042  26.039  34.651  1.00  0.00     0.198 A 
ATOM     94  F   UNL A   1      45.459  28.261  34.003  1.00  0.00    -0.203 F 
ATOM     95  F   UNL A   1      44.204  23.117  32.684  1.00  0.00    -0.200 F 
ATOM     96  C   UNL A   1      44.717  24.731  34.326  1.00  0.00     0.200 A 
ATOM     97  F   UNL A   1      45.304  26.367  35.923  1.00  0.00    -0.200 F 
ATOM     98  F   UNL A   1      44.642  23.799  35.286  1.00  0.00    -0.200 F 
ENDBRANCH  65  88
ENDBRANCH  39  40
ENDBRANCH  32  34
ENDBRANCH  31  32
ENDBRANCH  30  31
ENDBRANCH  29  30
ENDBRANCH  28  29
ENDBRANCH   1  28
TORSDOF 17
ENDMDL
MODEL 2
REMARK VINA RESULT:     -12.2      4.904     10.158
REMARK SMILES Cc1cc(NC(=O)[C@H]2[C@@H](C(=O)OCCOCCOC(=O)c3ccc(-c4c5nc(c(-c6c(F)c(F)c(F)c(F)c6F)c6ccc([nH]6)c(-c6c(F)c(F)c(F)c(F)c6F)c6nc(c(-c7c(F)c(F)c(F)c(F)c7F)c7ccc4[nH]7)C=C6)C=C5)cc3)C2(C)C)n(-c2ccc(F)cc2)n1
REMARK SMILES IDX 14 1 13 2 12 3 10 4 11 5 9 6 8 7 84 8 85 9 86 10 6 11 5 12
REMARK SMILES IDX 7 14 4 15 1 16 2 17 3 18 95 19 87 20 88 21 89 22 94 23 90 24
REMARK SMILES IDX 93 25 91 26 92 27 15 28 16 29 17 30 18 31 19 32 20 33 21 34
REMARK SMILES IDX 22 35 83 36 23 37 82 38 24 39 25 40 26 41 76 42 27 43 81 44
REMARK SMILES IDX 75 45 77 46 28 47 80 48 74 49 73 50 29 52 61 53 41 54 60 55
REMARK SMILES IDX 42 56 45 57 59 58 78 59 43 60 44 61 58 63 79 64 46 65 30 66
REMARK SMILES IDX 31 67 39 68 32 69 33 70 37 71 40 72 34 73 35 74 38 75 36 76
REMARK SMILES IDX 62 77 63 78 71 79 64 80 65 81 69 82 72 83 66 84 67 85 70 86
REMARK SMILES IDX 68 87 47 88 48 89 56 90 49 91 50 92 54 93 57 94 51 95 52 96
REMARK SMILES IDX 55 97 53 98
REMARK H PARENT 5 13 77 51 45 62
REMARK Flexibility Score: inf
ROOT
ATOM      1  C   UNL A   1      34.068  32.556  28.745  1.00  0.00     0.202 C 
ENDROOT
BRANCH   1   2
ATOM      2  C   UNL A   1      34.540  31.646  27.611  1.00  0.00     0.261 C 
BRANCH   2   3
ATOM      3  O   UNL A   1      33.764  30.440  27.616  1.00  0.00    -0.463 OA
BRANCH   3   4
ATOM      4  C   UNL A   1      34.422  29.350  27.177  1.00  0.00     0.310 C 
ATOM      5  O   UNL A   1      35.624  29.143  27.203  1.00  0.00    -0.252 OA
BRANCH   4   6
ATOM      6  C   UNL A   1      33.495  28.232  26.964  1.00  0.00     0.118 C 
ATOM      7  C   UNL A   1      33.506  27.629  25.608  1.00  0.00     0.100 C 
ATOM      8  C   UNL A   1      32.182  28.110  26.233  1.00  0.00    -0.009 C 
ATOM      9  C   UNL A   1      31.524  29.343  25.660  1.00  0.00     0.013 C 
ATOM     10  C   UNL A   1      31.183  27.059  26.682  1.00  0.00     0.013 C 
BRANCH   7  11
ATOM     11  C   UNL A   1      33.904  28.185  24.318  1.00  0.00     0.230 C 
ATOM     12  N   UNL A   1      33.819  27.299  23.201  1.00  0.00    -0.310 N 
ATOM     13  H   UNL A   1      34.289  27.554  22.375  1.00  0.00     0.171 HD
ATOM     14  O   UNL A   1      34.155  29.345  24.101  1.00  0.00    -0.274 OA
BRANCH  12  15
ATOM     15  C   UNL A   1      33.111  26.095  23.204  1.00  0.00     0.136 A 
ATOM     16  C   UNL A   1      33.165  22.431  23.256  1.00  0.00     0.069 C 
ATOM     17  C   UNL A   1      32.885  23.888  23.248  1.00  0.00     0.062 A 
ATOM     18  C   UNL A   1      33.828  24.923  23.320  1.00  0.00     0.072 A 
ATOM     19  N   UNL A   1      31.637  24.356  23.169  1.00  0.00    -0.171 NA
ATOM     20  N   UNL A   1      31.753  25.710  23.120  1.00  0.00    -0.217 N 
BRANCH  20  21
ATOM     21  C   UNL A   1      30.545  26.468  23.134  1.00  0.00     0.067 A 
ATOM     22  C   UNL A   1      29.426  26.037  23.859  1.00  0.00     0.031 A 
ATOM     23  C   UNL A   1      30.525  27.770  22.632  1.00  0.00     0.031 A 
ATOM     24  C   UNL A   1      28.228  26.749  23.874  1.00  0.00     0.041 A 
ATOM     25  C   UNL A   1      29.346  28.533  22.716  1.00  0.00     0.041 A 
ATOM     26  C   UNL A   1      28.197  27.999  23.294  1.00  0.00     0.123 A 
ATOM     27  F   UNL A   1      27.065  28.713  23.336  1.00  0.00    -0.207 F 
ENDBRANCH  20  21
ENDBRANCH  12  15
ENDBRANCH   7  11
ENDBRANCH   4   6
ENDBRANCH   3   4
ENDBRANCH   2   3
ENDBRANCH   1   2
BRANCH   1  28
ATOM     28  O   UNL A   1      33.442  33.796  28.405  1.00  0.00    -0.374 OA
BRANCH  28  29
ATOM     29  C   UNL A   1      33.936  35.031  28.900  1.00  0.00     0.202 C 
BRANCH  29  30
ATOM     30  C   UNL A   1      33.074  35.821  29.882  1.00  0.00     0.261 C 
BRANCH  30  31
ATOM     31  O   UNL A   1      33.701  36.017  31.141  1.00  0.00    -0.460 OA
BRANCH  31  32
ATOM     32  C   UNL A   1      33.322  35.124  32.084  1.00  0.00     0.338 C 
ATOM     33  O   UNL A   1      32.213  34.981  32.568  1.00  0.00    -0.246 OA
BRANCH  32  34
ATOM     34  C   UNL A   1      34.501  34.407  32.570  1.00  0.00     0.060 A 
ATOM     35  C   UNL A   1      35.665  35.138  32.801  1.00  0.00     0.016 A 
ATOM     36  C   UNL A   1      34.510  33.011  32.499  1.00  0.00     0.016 A 
ATOM     37  C   UNL A   1      36.869  34.470  32.755  1.00  0.00     0.010 A 
ATOM     38  C   UNL A   1      35.701  32.338  32.483  1.00  0.00     0.010 A 
ATOM     39  C   UNL A   1      36.864  33.094  32.498  1.00  0.00    -0.014 A 
BRANCH  39  40
ATOM     40  C   UNL A   1      38.119  32.431  32.240  1.00  0.00     0.031 A 
ATOM     41  C   UNL A   1      38.950  32.281  33.447  1.00  0.00     0.074 A 
ATOM     42  C   UNL A   1      38.407  31.914  31.031  1.00  0.00     0.049 A 
ATOM     43  N   UNL A   1      40.056  32.886  33.718  1.00  0.00    -0.248 NA
ATOM     44  C   UNL A   1      38.389  31.507  34.565  1.00  0.00     0.031 C 
ATOM     45  C   UNL A   1      37.525  31.772  29.868  1.00  0.00     0.029 A 
ATOM     46  N   UNL A   1      39.552  31.312  30.618  1.00  0.00    -0.354 N 
ATOM     47  C   UNL A   1      40.439  32.403  34.963  1.00  0.00     0.074 A 
ATOM     48  C   UNL A   1      39.287  31.747  35.521  1.00  0.00     0.031 C 
ATOM     49  C   UNL A   1      38.096  30.936  28.971  1.00  0.00     0.029 A 
ATOM     50  C   UNL A   1      39.431  30.599  29.433  1.00  0.00     0.049 A 
ATOM     51  H   UNL A   1      40.398  31.377  31.118  1.00  0.00     0.167 HD
ATOM     52  C   UNL A   1      41.755  32.322  35.293  1.00  0.00     0.037 A 
ATOM     53  C   UNL A   1      40.353  29.743  28.926  1.00  0.00     0.037 A 
ATOM     54  C   UNL A   1      42.555  33.166  34.439  1.00  0.00     0.049 A 
ATOM     55  C   UNL A   1      41.651  30.055  29.581  1.00  0.00     0.074 A 
ATOM     56  C   UNL A   1      42.602  34.522  34.183  1.00  0.00     0.029 A 
ATOM     57  N   UNL A   1      43.230  32.566  33.405  1.00  0.00    -0.354 N 
ATOM     58  N   UNL A   1      42.317  31.157  29.377  1.00  0.00    -0.248 NA
ATOM     59  C   UNL A   1      41.982  29.349  30.811  1.00  0.00     0.031 C 
ATOM     60  C   UNL A   1      42.903  34.632  32.792  1.00  0.00     0.029 A 
ATOM     61  C   UNL A   1      43.079  33.343  32.287  1.00  0.00     0.049 A 
ATOM     62  H   UNL A   1      43.734  31.722  33.457  1.00  0.00     0.167 HD
ATOM     63  C   UNL A   1      42.820  31.505  30.623  1.00  0.00     0.074 A 
ATOM     64  C   UNL A   1      42.667  30.307  31.442  1.00  0.00     0.031 C 
ATOM     65  C   UNL A   1      43.035  32.814  30.943  1.00  0.00     0.037 A 
BRANCH  52  66
ATOM     66  C   UNL A   1      42.345  31.179  36.084  1.00  0.00     0.064 A 
ATOM     67  C   UNL A   1      43.203  31.475  37.160  1.00  0.00     0.173 A 
ATOM     68  C   UNL A   1      42.353  29.832  35.654  1.00  0.00     0.173 A 
ATOM     69  F   UNL A   1      43.289  32.725  37.640  1.00  0.00    -0.203 F 
ATOM     70  C   UNL A   1      44.066  30.517  37.700  1.00  0.00     0.198 A 
ATOM     71  C   UNL A   1      43.172  28.867  36.234  1.00  0.00     0.198 A 
ATOM     72  F   UNL A   1      41.665  29.409  34.587  1.00  0.00    -0.203 F 
ATOM     73  F   UNL A   1      44.960  30.879  38.628  1.00  0.00    -0.200 F 
ATOM     74  C   UNL A   1      44.054  29.216  37.231  1.00  0.00     0.200 A 
ATOM     75  F   UNL A   1      43.156  27.617  35.750  1.00  0.00    -0.200 F 
ATOM     76  F   UNL A   1      44.924  28.314  37.700  1.00  0.00    -0.200 F 
ENDBRANCH  52  66
BRANCH  53  77
ATOM     77  C   UNL A   1      40.127  28.486  28.175  1.00  0.00     0.064 A 
ATOM     78  C   UNL A   1      40.766  28.252  26.946  1.00  0.00     0.173 A 
ATOM     79  C   UNL A   1      39.506  27.375  28.779  1.00  0.00     0.173 A 
ATOM     80  F   UNL A   1      41.421  29.246  26.327  1.00  0.00    -0.203 F 
ATOM     81  C   UNL A   1      40.805  26.978  26.370  1.00  0.00     0.198 A 
ATOM     82  C   UNL A   1      39.539  26.107  28.200  1.00  0.00     0.198 A 
ATOM     83  F   UNL A   1      38.941  27.477  29.990  1.00  0.00    -0.203 F 
ATOM     84  F   UNL A   1      41.480  26.778  25.230  1.00  0.00    -0.200 F 
ATOM     85  C   UNL A   1      40.200  25.904  27.004  1.00  0.00     0.200 A 
ATOM     86  F   UNL A   1      38.985  25.070  28.845  1.00  0.00    -0.200 F 
ATOM     87  F   UNL A   1      40.293  24.670  26.488  1.00  0.00    -0.200 F 
ENDBRANCH  53  77
BRANCH  65  88
ATOM     88  C   UNL A   1      42.998  33.813  29.820  1.00  0.00     0.064 A 
ATOM     89  C   UNL A   1      41.836  34.486  29.402  1.00  0.00     0.173 A 
ATOM     90  C   UNL A   1      44.208  34.186  29.224  1.00  0.00     0.173 A 
ATOM     91  F   UNL A   1      40.656  34.258  29.993  1.00  0.00    -0.203 F 
ATOM     92  C   UNL A   1      41.883  35.453  28.398  1.00  0.00     0.198 A 
ATOM     93  C   UNL A   1      44.259  35.178  28.249  1.00  0.00     0.198 A 
ATOM     94  F   UNL A   1      45.356  33.617  29.624  1.00  0.00    -0.203 F 
ATOM     95  F   UNL A   1      40.758  36.069  28.005  1.00  0.00    -0.200 F 
ATOM     96  C   UNL A   1      43.095  35.802  27.828  1.00  0.00     0.200 A 
ATOM     97  F   UNL A   1      45.440  35.548  27.736  1.00  0.00    -0.200 F 
ATOM     98  F   UNL A   1      43.147  36.759  26.890  1.00  0.00    -0.200 F 
ENDBRANCH  65  88
ENDBRANCH  39  40
ENDBRANCH  32  34
ENDBRANCH  31  32
ENDBRANCH  30  31
ENDBRANCH  29  30
ENDBRANCH  28  29
ENDBRANCH   1  28
TORSDOF 17
ENDMDL
MODEL 3
REMARK VINA RESULT:     -12.2      3.309      5.245
REMARK SMILES Cc1cc(NC(=O)[C@H]2[C@@H](C(=O)OCCOCCOC(=O)c3ccc(-c4c5nc(c(-c6c(F)c(F)c(F)c(F)c6F)c6ccc([nH]6)c(-c6c(F)c(F)c(F)c(F)c6F)c6nc(c(-c7c(F)c(F)c(F)c(F)c7F)c7ccc4[nH]7)C=C6)C=C5)cc3)C2(C)C)n(-c2ccc(F)cc2)n1
REMARK SMILES IDX 14 1 13 2 12 3 10 4 11 5 9 6 8 7 84 8 85 9 86 10 6 11 5 12
REMARK SMILES IDX 7 14 4 15 1 16 2 17 3 18 95 19 87 20 88 21 89 22 94 23 90 24
REMARK SMILES IDX 93 25 91 26 92 27 15 28 16 29 17 30 18 31 19 32 20 33 21 34
REMARK SMILES IDX 22 35 83 36 23 37 82 38 24 39 25 40 26 41 76 42 27 43 81 44
REMARK SMILES IDX 75 45 77 46 28 47 80 48 74 49 73 50 29 52 61 53 41 54 60 55
REMARK SMILES IDX 42 56 45 57 59 58 78 59 43 60 44 61 58 63 79 64 46 65 30 66
REMARK SMILES IDX 31 67 39 68 32 69 33 70 37 71 40 72 34 73 35 74 38 75 36 76
REMARK SMILES IDX 62 77 63 78 71 79 64 80 65 81 69 82 72 83 66 84 67 85 70 86
REMARK SMILES IDX 68 87 47 88 48 89 56 90 49 91 50 92 54 93 57 94 51 95 52 96
REMARK SMILES IDX 55 97 53 98
REMARK H PARENT 5 13 77 51 45 62
REMARK Flexibility Score: inf
ROOT
ATOM      1  C   UNL A   1      34.962  20.285  24.989  1.00  0.00     0.202 C 
ENDROOT
BRANCH   1   2
ATOM      2  C   UNL A   1      33.719  21.013  24.475  1.00  0.00     0.261 C 
BRANCH   2   3
ATOM      3  O   UNL A   1      32.893  21.384  25.586  1.00  0.00    -0.463 OA
BRANCH   3   4
ATOM      4  C   UNL A   1      33.302  22.488  26.242  1.00  0.00     0.310 C 
ATOM      5  O   UNL A   1      33.830  22.551  27.340  1.00  0.00    -0.252 OA
BRANCH   4   6
ATOM      6  C   UNL A   1      33.371  23.638  25.333  1.00  0.00     0.118 C 
ATOM      7  C   UNL A   1      32.573  24.827  25.728  1.00  0.00     0.100 C 
ATOM      8  C   UNL A   1      32.408  24.211  24.325  1.00  0.00    -0.009 C 
ATOM      9  C   UNL A   1      31.125  23.478  24.009  1.00  0.00     0.013 C 
ATOM     10  C   UNL A   1      32.955  24.985  23.139  1.00  0.00     0.013 C 
BRANCH   7  11
ATOM     11  C   UNL A   1      31.389  24.944  26.575  1.00  0.00     0.230 C 
ATOM     12  N   UNL A   1      30.692  26.189  26.508  1.00  0.00    -0.310 N 
ATOM     13  H   UNL A   1      30.044  26.392  27.220  1.00  0.00     0.171 HD
ATOM     14  O   UNL A   1      30.883  24.046  27.202  1.00  0.00    -0.274 OA
BRANCH  12  15
ATOM     15  C   UNL A   1      30.871  27.138  25.498  1.00  0.00     0.136 A 
ATOM     16  C   UNL A   1      29.935  28.403  22.190  1.00  0.00     0.069 C 
ATOM     17  C   UNL A   1      30.469  28.100  23.541  1.00  0.00     0.062 A 
ATOM     18  C   UNL A   1      30.041  27.078  24.400  1.00  0.00     0.072 A 
ATOM     19  N   UNL A   1      31.455  28.821  24.076  1.00  0.00    -0.171 NA
ATOM     20  N   UNL A   1      31.734  28.235  25.271  1.00  0.00    -0.217 N 
BRANCH  20  21
ATOM     21  C   UNL A   1      32.697  28.878  26.104  1.00  0.00     0.067 A 
ATOM     22  C   UNL A   1      33.970  28.326  26.300  1.00  0.00     0.031 A 
ATOM     23  C   UNL A   1      32.487  30.185  26.545  1.00  0.00     0.031 A 
ATOM     24  C   UNL A   1      34.923  28.924  27.123  1.00  0.00     0.041 A 
ATOM     25  C   UNL A   1      33.476  30.833  27.307  1.00  0.00     0.041 A 
ATOM     26  C   UNL A   1      34.663  30.180  27.627  1.00  0.00     0.123 A 
ATOM     27  F   UNL A   1      35.585  30.784  28.387  1.00  0.00    -0.207 F 
ENDBRANCH  20  21
ENDBRANCH  12  15
ENDBRANCH   7  11
ENDBRANCH   4   6
ENDBRANCH   3   4
ENDBRANCH   2   3
ENDBRANCH   1   2
BRANCH   1  28
ATOM     28  O   UNL A   1      36.244  20.857  24.721  1.00  0.00    -0.374 OA
BRANCH  28  29
ATOM     29  C   UNL A   1      36.856  21.756  25.634  1.00  0.00     0.202 C 
BRANCH  29  30
ATOM     30  C   UNL A   1      38.378  21.754  25.751  1.00  0.00     0.261 C 
BRANCH  30  31
ATOM     31  O   UNL A   1      38.905  22.996  26.194  1.00  0.00    -0.460 OA
BRANCH  31  32
ATOM     32  C   UNL A   1      40.012  22.876  26.962  1.00  0.00     0.338 C 
ATOM     33  O   UNL A   1      40.402  21.885  27.553  1.00  0.00    -0.246 OA
BRANCH  32  34
ATOM     34  C   UNL A   1      40.641  24.190  27.109  1.00  0.00     0.060 A 
ATOM     35  C   UNL A   1      41.651  24.331  28.058  1.00  0.00     0.016 A 
ATOM     36  C   UNL A   1      40.019  25.296  26.525  1.00  0.00     0.016 A 
ATOM     37  C   UNL A   1      41.890  25.589  28.567  1.00  0.00     0.010 A 
ATOM     38  C   UNL A   1      40.273  26.553  27.005  1.00  0.00     0.010 A 
ATOM     39  C   UNL A   1      41.123  26.660  28.096  1.00  0.00    -0.014 A 
BRANCH  39  40
ATOM     40  C   UNL A   1      41.218  27.932  28.770  1.00  0.00     0.031 A 
ATOM     41  C   UNL A   1      42.388  28.721  28.348  1.00  0.00     0.074 A 
ATOM     42  C   UNL A   1      40.252  28.364  29.602  1.00  0.00     0.049 A 
ATOM     43  N   UNL A   1      43.441  28.996  29.040  1.00  0.00    -0.248 NA
ATOM     44  C   UNL A   1      42.482  29.090  26.926  1.00  0.00     0.031 C 
ATOM     45  C   UNL A   1      38.934  27.770  29.851  1.00  0.00     0.029 A 
ATOM     46  N   UNL A   1      40.218  29.501  30.344  1.00  0.00    -0.354 N 
ATOM     47  C   UNL A   1      44.241  29.758  28.199  1.00  0.00     0.074 A 
ATOM     48  C   UNL A   1      43.715  29.593  26.871  1.00  0.00     0.031 C 
ATOM     49  C   UNL A   1      38.158  28.662  30.508  1.00  0.00     0.029 A 
ATOM     50  C   UNL A   1      38.963  29.824  30.842  1.00  0.00     0.049 A 
ATOM     51  H   UNL A   1      41.017  30.050  30.514  1.00  0.00     0.167 HD
ATOM     52  C   UNL A   1      45.080  30.697  28.713  1.00  0.00     0.037 A 
ATOM     53  C   UNL A   1      38.621  31.002  31.421  1.00  0.00     0.037 A 
ATOM     54  C   UNL A   1      45.325  30.458  30.115  1.00  0.00     0.049 A 
ATOM     55  C   UNL A   1      39.881  31.668  31.843  1.00  0.00     0.074 A 
ATOM     56  C   UNL A   1      45.880  29.423  30.841  1.00  0.00     0.029 A 
ATOM     57  N   UNL A   1      44.628  31.220  31.019  1.00  0.00    -0.354 N 
ATOM     58  N   UNL A   1      40.646  31.226  32.803  1.00  0.00    -0.248 NA
ATOM     59  C   UNL A   1      40.528  32.565  30.897  1.00  0.00     0.031 C 
ATOM     60  C   UNL A   1      45.122  29.363  32.048  1.00  0.00     0.029 A 
ATOM     61  C   UNL A   1      44.185  30.397  32.021  1.00  0.00     0.049 A 
ATOM     62  H   UNL A   1      44.473  32.191  30.960  1.00  0.00     0.167 HD
ATOM     63  C   UNL A   1      41.940  31.431  32.348  1.00  0.00     0.074 A 
ATOM     64  C   UNL A   1      41.806  32.347  31.220  1.00  0.00     0.031 C 
ATOM     65  C   UNL A   1      42.954  30.609  32.747  1.00  0.00     0.037 A 
BRANCH  52  66
ATOM     66  C   UNL A   1      45.323  32.039  28.065  1.00  0.00     0.064 A 
ATOM     67  C   UNL A   1      44.225  32.893  27.847  1.00  0.00     0.173 A 
ATOM     68  C   UNL A   1      46.510  32.390  27.382  1.00  0.00     0.173 A 
ATOM     69  F   UNL A   1      43.043  32.645  28.431  1.00  0.00    -0.203 F 
ATOM     70  C   UNL A   1      44.288  33.959  26.947  1.00  0.00     0.198 A 
ATOM     71  C   UNL A   1      46.585  33.490  26.530  1.00  0.00     0.198 A 
ATOM     72  F   UNL A   1      47.612  31.633  27.409  1.00  0.00    -0.203 F 
ATOM     73  F   UNL A   1      43.180  34.658  26.670  1.00  0.00    -0.200 F 
ATOM     74  C   UNL A   1      45.466  34.252  26.284  1.00  0.00     0.200 A 
ATOM     75  F   UNL A   1      47.733  33.743  25.886  1.00  0.00    -0.200 F 
ATOM     76  F   UNL A   1      45.512  35.232  25.374  1.00  0.00    -0.200 F 
ENDBRANCH  52  66
BRANCH  53  77
ATOM     77  C   UNL A   1      37.330  31.725  31.342  1.00  0.00     0.064 A 
ATOM     78  C   UNL A   1      36.507  31.864  32.472  1.00  0.00     0.173 A 
ATOM     79  C   UNL A   1      37.013  32.534  30.234  1.00  0.00     0.173 A 
ATOM     80  F   UNL A   1      36.768  31.164  33.586  1.00  0.00    -0.203 F 
ATOM     81  C   UNL A   1      35.448  32.777  32.500  1.00  0.00     0.198 A 
ATOM     82  C   UNL A   1      35.952  33.440  30.261  1.00  0.00     0.198 A 
ATOM     83  F   UNL A   1      37.786  32.536  29.139  1.00  0.00    -0.203 F 
ATOM     84  F   UNL A   1      34.725  32.930  33.619  1.00  0.00    -0.200 F 
ATOM     85  C   UNL A   1      35.179  33.573  31.398  1.00  0.00     0.200 A 
ATOM     86  F   UNL A   1      35.730  34.231  29.202  1.00  0.00    -0.200 F 
ATOM     87  F   UNL A   1      34.207  34.495  31.446  1.00  0.00    -0.200 F 
ENDBRANCH  53  77
BRANCH  65  88
ATOM     88  C   UNL A   1      42.679  29.689  33.904  1.00  0.00     0.064 A 
ATOM     89  C   UNL A   1      42.050  28.437  33.782  1.00  0.00     0.173 A 
ATOM     90  C   UNL A   1      43.178  30.039  35.163  1.00  0.00     0.173 A 
ATOM     91  F   UNL A   1      41.636  27.986  32.591  1.00  0.00    -0.203 F 
ATOM     92  C   UNL A   1      41.887  27.600  34.885  1.00  0.00     0.198 A 
ATOM     93  C   UNL A   1      43.048  29.186  36.256  1.00  0.00     0.198 A 
ATOM     94  F   UNL A   1      43.837  31.197  35.326  1.00  0.00    -0.203 F 
ATOM     95  F   UNL A   1      41.268  26.418  34.746  1.00  0.00    -0.200 F 
ATOM     96  C   UNL A   1      42.391  27.973  36.119  1.00  0.00     0.200 A 
ATOM     97  F   UNL A   1      43.581  29.530  37.436  1.00  0.00    -0.200 F 
ATOM     98  F   UNL A   1      42.269  27.153  37.173  1.00  0.00    -0.200 F 
ENDBRANCH  65  88
ENDBRANCH  39  40
ENDBRANCH  32  34
ENDBRANCH  31  32
ENDBRANCH  30  31
ENDBRANCH  29  30
ENDBRANCH  28  29
ENDBRANCH   1  28
TORSDOF 17
ENDMDL
