MODEL 1
REMARK VINA RESULT:     -11.7      0.000      0.000
REMARK SMILES Cc1cc(NC(=O)/C=C/c2ccco2)cc(C(=O)OCCOCCOC(=O)c2ccc(-c3c4nc(c(-c5c(F)c(F)c(F)c(F)c5F)c5ccc([nH]5)c(-c5c(F)c(F)c(F)c(F)c5F)c5nc(c(-c6c(F)c(F)c(F)c(F)c6F)c6ccc3[nH]6)C=C5)C=C4)cc2)c1O
REMARK SMILES IDX 21 1 20 2 19 3 17 4 18 5 16 6 1 7 2 8 3 9 91 10 4 11 15 12
REMARK SMILES IDX 92 13 5 15 6 16 7 18 8 19 9 20 10 21 11 22 14 23 12 24 13 25
REMARK SMILES IDX 22 26 23 27 24 28 25 29 26 30 27 31 28 32 29 33 90 34 30 35
REMARK SMILES IDX 89 36 31 37 32 38 33 39 83 40 34 41 88 42 82 43 84 44 35 45
REMARK SMILES IDX 87 46 81 47 80 48 36 50 68 51 48 52 67 53 49 54 52 55 66 56
REMARK SMILES IDX 85 57 50 58 51 59 65 61 86 62 53 63 37 64 38 65 46 66 39 67
REMARK SMILES IDX 40 68 44 69 47 70 41 71 42 72 45 73 43 74 69 75 70 76 78 77
REMARK SMILES IDX 71 78 72 79 76 80 79 81 73 82 74 83 77 84 75 85 54 86 55 87
REMARK SMILES IDX 63 88 56 89 57 90 61 91 64 92 58 93 59 94 62 95 60 96
REMARK H PARENT 92 14 5 17 84 49 52 60
REMARK Flexibility Score: inf
ROOT
ATOM      1  C   UNL A   1      39.927  20.979  25.873  1.00  0.00     0.202 C 
ENDROOT
BRANCH   1   2
ATOM      2  C   UNL A   1      38.682  21.838  26.126  1.00  0.00     0.261 C 
BRANCH   2   3
ATOM      3  O   UNL A   1      37.870  21.915  24.944  1.00  0.00    -0.460 OA
BRANCH   3   4
ATOM      4  C   UNL A   1      36.824  21.051  24.910  1.00  0.00     0.342 C 
ATOM      5  O   UNL A   1      36.870  19.838  25.004  1.00  0.00    -0.246 OA
BRANCH   4   6
ATOM      6  C   UNL A   1      35.579  21.844  24.812  1.00  0.00     0.104 A 
ATOM      7  C   UNL A   1      32.523  22.762  26.899  1.00  0.00     0.048 C 
ATOM      8  C   UNL A   1      33.533  22.685  25.790  1.00  0.00    -0.006 A 
ATOM      9  C   UNL A   1      33.284  23.378  24.589  1.00  0.00     0.033 A 
ATOM     10  C   UNL A   1      34.728  21.967  25.912  1.00  0.00     0.133 A 
ATOM     11  C   UNL A   1      34.170  23.324  23.502  1.00  0.00     0.042 A 
ATOM     12  C   UNL A   1      35.274  22.484  23.604  1.00  0.00     0.045 A 
BRANCH  10  13
ATOM     13  O   UNL A   1      35.107  21.401  27.097  1.00  0.00    -0.507 OA
ATOM     14  H   UNL A   1      35.718  21.844  27.653  1.00  0.00     0.293 HD
ENDBRANCH  10  13
BRANCH  11  15
ATOM     15  N   UNL A   1      33.860  24.157  22.403  1.00  0.00    -0.322 N 
ATOM     16  C   UNL A   1      33.508  25.471  22.272  1.00  0.00     0.248 C 
ATOM     17  H   UNL A   1      33.908  23.685  21.540  1.00  0.00     0.170 HD
ATOM     18  O   UNL A   1      33.278  25.939  21.159  1.00  0.00    -0.270 OA
BRANCH  16  19
ATOM     19  C   UNL A   1      33.443  26.343  23.449  1.00  0.00     0.075 C 
ATOM     20  C   UNL A   1      32.272  26.595  24.049  1.00  0.00     0.053 C 
BRANCH  20  21
ATOM     21  C   UNL A   1      32.286  27.168  25.347  1.00  0.00     0.126 A 
ATOM     22  C   UNL A   1      33.361  27.541  26.132  1.00  0.00     0.050 A 
ATOM     23  O   UNL A   1      31.142  27.545  26.019  1.00  0.00    -0.465 OA
ATOM     24  C   UNL A   1      32.866  28.233  27.260  1.00  0.00     0.042 A 
ATOM     25  C   UNL A   1      31.502  28.192  27.151  1.00  0.00     0.195 A 
ENDBRANCH  20  21
ENDBRANCH  16  19
ENDBRANCH  11  15
ENDBRANCH   4   6
ENDBRANCH   3   4
ENDBRANCH   2   3
ENDBRANCH   1   2
BRANCH   1  26
ATOM     26  O   UNL A   1      41.073  21.301  26.663  1.00  0.00    -0.374 OA
BRANCH  26  27
ATOM     27  C   UNL A   1      42.319  20.747  26.246  1.00  0.00     0.202 C 
BRANCH  27  28
ATOM     28  C   UNL A   1      43.294  21.710  25.556  1.00  0.00     0.261 C 
BRANCH  28  29
ATOM     29  O   UNL A   1      42.678  22.869  24.968  1.00  0.00    -0.460 OA
BRANCH  29  30
ATOM     30  C   UNL A   1      43.432  23.998  25.010  1.00  0.00     0.338 C 
ATOM     31  O   UNL A   1      44.407  24.267  24.331  1.00  0.00    -0.246 OA
BRANCH  30  32
ATOM     32  C   UNL A   1      42.860  24.953  25.978  1.00  0.00     0.060 A 
ATOM     33  C   UNL A   1      43.516  26.173  26.186  1.00  0.00     0.016 A 
ATOM     34  C   UNL A   1      41.737  24.618  26.739  1.00  0.00     0.016 A 
ATOM     35  C   UNL A   1      43.051  27.063  27.160  1.00  0.00     0.010 A 
ATOM     36  C   UNL A   1      41.271  25.514  27.713  1.00  0.00     0.010 A 
ATOM     37  C   UNL A   1      41.931  26.736  27.941  1.00  0.00    -0.014 A 
BRANCH  37  38
ATOM     38  C   UNL A   1      41.529  27.599  29.088  1.00  0.00     0.031 A 
ATOM     39  C   UNL A   1      42.268  27.462  30.388  1.00  0.00     0.074 A 
ATOM     40  C   UNL A   1      40.522  28.488  28.991  1.00  0.00     0.049 A 
ATOM     41  N   UNL A   1      42.054  28.064  31.531  1.00  0.00    -0.248 NA
ATOM     42  C   UNL A   1      43.390  26.512  30.405  1.00  0.00     0.031 C 
ATOM     43  C   UNL A   1      39.729  28.727  27.793  1.00  0.00     0.029 A 
ATOM     44  N   UNL A   1      39.979  29.346  29.918  1.00  0.00    -0.354 N 
ATOM     45  C   UNL A   1      43.011  27.562  32.401  1.00  0.00     0.074 A 
ATOM     46  C   UNL A   1      43.778  26.576  31.670  1.00  0.00     0.031 C 
ATOM     47  C   UNL A   1      38.797  29.660  28.049  1.00  0.00     0.029 A 
ATOM     48  C   UNL A   1      38.905  30.064  29.446  1.00  0.00     0.049 A 
ATOM     49  H   UNL A   1      40.327  29.437  30.835  1.00  0.00     0.167 HD
ATOM     50  C   UNL A   1      43.242  27.905  33.690  1.00  0.00     0.037 A 
ATOM     51  C   UNL A   1      38.086  30.933  30.073  1.00  0.00     0.037 A 
ATOM     52  C   UNL A   1      42.481  28.882  34.421  1.00  0.00     0.049 A 
ATOM     53  C   UNL A   1      38.327  31.251  31.525  1.00  0.00     0.074 A 
ATOM     54  C   UNL A   1      42.653  29.307  35.727  1.00  0.00     0.029 A 
ATOM     55  N   UNL A   1      41.397  29.583  33.912  1.00  0.00    -0.354 N 
ATOM     56  N   UNL A   1      39.261  30.802  32.327  1.00  0.00    -0.248 NA
ATOM     57  C   UNL A   1      37.401  32.203  32.160  1.00  0.00     0.031 C 
ATOM     58  C   UNL A   1      41.644  30.228  36.024  1.00  0.00     0.029 A 
ATOM     59  C   UNL A   1      40.877  30.421  34.886  1.00  0.00     0.049 A 
ATOM     60  H   UNL A   1      41.049  29.497  32.996  1.00  0.00     0.167 HD
ATOM     61  C   UNL A   1      39.057  31.436  33.545  1.00  0.00     0.074 A 
ATOM     62  C   UNL A   1      37.919  32.313  33.375  1.00  0.00     0.031 C 
ATOM     63  C   UNL A   1      39.752  31.301  34.701  1.00  0.00     0.037 A 
BRANCH  50  64
ATOM     64  C   UNL A   1      44.363  27.202  34.395  1.00  0.00     0.064 A 
ATOM     65  C   UNL A   1      45.657  27.744  34.439  1.00  0.00     0.173 A 
ATOM     66  C   UNL A   1      44.136  25.986  35.057  1.00  0.00     0.173 A 
ATOM     67  F   UNL A   1      45.928  28.895  33.806  1.00  0.00    -0.203 F 
ATOM     68  C   UNL A   1      46.689  27.080  35.097  1.00  0.00     0.198 A 
ATOM     69  C   UNL A   1      45.163  25.341  35.740  1.00  0.00     0.198 A 
ATOM     70  F   UNL A   1      42.917  25.428  35.046  1.00  0.00    -0.203 F 
ATOM     71  F   UNL A   1      47.927  27.591  35.083  1.00  0.00    -0.200 F 
ATOM     72  C   UNL A   1      46.439  25.885  35.753  1.00  0.00     0.200 A 
ATOM     73  F   UNL A   1      44.918  24.192  36.383  1.00  0.00    -0.200 F 
ATOM     74  F   UNL A   1      47.431  25.250  36.394  1.00  0.00    -0.200 F 
ENDBRANCH  50  64
BRANCH  51  75
ATOM     75  C   UNL A   1      36.953  31.563  29.341  1.00  0.00     0.064 A 
ATOM     76  C   UNL A   1      36.971  32.926  29.012  1.00  0.00     0.173 A 
ATOM     77  C   UNL A   1      35.812  30.825  28.991  1.00  0.00     0.173 A 
ATOM     78  F   UNL A   1      38.026  33.682  29.348  1.00  0.00    -0.203 F 
ATOM     79  C   UNL A   1      35.882  33.532  28.387  1.00  0.00     0.198 A 
ATOM     80  C   UNL A   1      34.737  31.426  28.338  1.00  0.00     0.198 A 
ATOM     81  F   UNL A   1      35.740  29.519  29.284  1.00  0.00    -0.203 F 
ATOM     82  F   UNL A   1      35.903  34.849  28.138  1.00  0.00    -0.200 F 
ATOM     83  C   UNL A   1      34.767  32.781  28.047  1.00  0.00     0.200 A 
ATOM     84  F   UNL A   1      33.666  30.694  28.001  1.00  0.00    -0.200 F 
ATOM     85  F   UNL A   1      33.720  33.365  27.449  1.00  0.00    -0.200 F 
ENDBRANCH  51  75
BRANCH  63  86
ATOM     86  C   UNL A   1      39.332  32.154  35.864  1.00  0.00     0.064 A 
ATOM     87  C   UNL A   1      39.848  33.444  36.059  1.00  0.00     0.173 A 
ATOM     88  C   UNL A   1      38.368  31.687  36.771  1.00  0.00     0.173 A 
ATOM     89  F   UNL A   1      40.783  33.930  35.229  1.00  0.00    -0.203 F 
ATOM     90  C   UNL A   1      39.432  34.225  37.134  1.00  0.00     0.198 A 
ATOM     91  C   UNL A   1      37.931  32.484  37.826  1.00  0.00     0.198 A 
ATOM     92  F   UNL A   1      37.839  30.464  36.625  1.00  0.00    -0.203 F 
ATOM     93  F   UNL A   1      39.973  35.435  37.329  1.00  0.00    -0.200 F 
ATOM     94  C   UNL A   1      38.468  33.749  38.011  1.00  0.00     0.200 A 
ATOM     95  F   UNL A   1      36.990  32.027  38.663  1.00  0.00    -0.200 F 
ATOM     96  F   UNL A   1      38.063  34.506  39.039  1.00  0.00    -0.200 F 
ENDBRANCH  63  86
ENDBRANCH  37  38
ENDBRANCH  30  32
ENDBRANCH  29  30
ENDBRANCH  28  29
ENDBRANCH  27  28
ENDBRANCH  26  27
ENDBRANCH   1  26
TORSDOF 18
ENDMDL
MODEL 2
REMARK VINA RESULT:     -11.7      1.007      2.282
REMARK SMILES Cc1cc(NC(=O)/C=C/c2ccco2)cc(C(=O)OCCOCCOC(=O)c2ccc(-c3c4nc(c(-c5c(F)c(F)c(F)c(F)c5F)c5ccc([nH]5)c(-c5c(F)c(F)c(F)c(F)c5F)c5nc(c(-c6c(F)c(F)c(F)c(F)c6F)c6ccc3[nH]6)C=C5)C=C4)cc2)c1O
REMARK SMILES IDX 21 1 20 2 19 3 17 4 18 5 16 6 1 7 2 8 3 9 91 10 4 11 15 12
REMARK SMILES IDX 92 13 5 15 6 16 7 18 8 19 9 20 10 21 11 22 14 23 12 24 13 25
REMARK SMILES IDX 22 26 23 27 24 28 25 29 26 30 27 31 28 32 29 33 90 34 30 35
REMARK SMILES IDX 89 36 31 37 32 38 33 39 83 40 34 41 88 42 82 43 84 44 35 45
REMARK SMILES IDX 87 46 81 47 80 48 36 50 68 51 48 52 67 53 49 54 52 55 66 56
REMARK SMILES IDX 85 57 50 58 51 59 65 61 86 62 53 63 37 64 38 65 46 66 39 67
REMARK SMILES IDX 40 68 44 69 47 70 41 71 42 72 45 73 43 74 69 75 70 76 78 77
REMARK SMILES IDX 71 78 72 79 76 80 79 81 73 82 74 83 77 84 75 85 54 86 55 87
REMARK SMILES IDX 63 88 56 89 57 90 61 91 64 92 58 93 59 94 62 95 60 96
REMARK H PARENT 92 14 5 17 84 49 52 60
REMARK Flexibility Score: inf
ROOT
ATOM      1  C   UNL A   1      39.733  21.049  25.787  1.00  0.00     0.202 C 
ENDROOT
BRANCH   1   2
ATOM      2  C   UNL A   1      38.582  22.021  26.067  1.00  0.00     0.261 C 
BRANCH   2   3
ATOM      3  O   UNL A   1      37.729  22.142  24.917  1.00  0.00    -0.460 OA
BRANCH   3   4
ATOM      4  C   UNL A   1      36.649  21.320  24.915  1.00  0.00     0.342 C 
ATOM      5  O   UNL A   1      36.649  20.108  25.032  1.00  0.00    -0.246 OA
BRANCH   4   6
ATOM      6  C   UNL A   1      35.436  22.159  24.820  1.00  0.00     0.104 A 
ATOM      7  C   UNL A   1      33.912  24.859  22.600  1.00  0.00     0.048 C 
ATOM      8  C   UNL A   1      34.116  23.836  23.681  1.00  0.00    -0.006 A 
ATOM      9  C   UNL A   1      33.123  23.675  24.667  1.00  0.00     0.033 A 
ATOM     10  C   UNL A   1      35.249  23.017  23.734  1.00  0.00     0.133 A 
ATOM     11  C   UNL A   1      33.263  22.760  25.722  1.00  0.00     0.042 A 
ATOM     12  C   UNL A   1      34.466  22.068  25.827  1.00  0.00     0.045 A 
BRANCH  10  13
ATOM     13  O   UNL A   1      36.176  23.009  22.730  1.00  0.00    -0.507 OA
ATOM     14  H   UNL A   1      37.088  22.933  22.934  1.00  0.00     0.293 HD
ENDBRANCH  10  13
BRANCH  11  15
ATOM     15  N   UNL A   1      32.146  22.614  26.574  1.00  0.00    -0.322 N 
ATOM     16  C   UNL A   1      31.001  23.334  26.778  1.00  0.00     0.248 C 
ATOM     17  H   UNL A   1      32.205  21.817  27.149  1.00  0.00     0.170 HD
ATOM     18  O   UNL A   1      30.184  22.966  27.619  1.00  0.00    -0.270 OA
BRANCH  16  19
ATOM     19  C   UNL A   1      30.718  24.522  25.967  1.00  0.00     0.075 C 
ATOM     20  C   UNL A   1      30.990  25.748  26.432  1.00  0.00     0.053 C 
BRANCH  20  21
ATOM     21  C   UNL A   1      31.004  26.832  25.517  1.00  0.00     0.126 A 
ATOM     22  C   UNL A   1      30.372  26.958  24.294  1.00  0.00     0.050 A 
ATOM     23  O   UNL A   1      31.622  28.036  25.781  1.00  0.00    -0.465 OA
ATOM     24  C   UNL A   1      30.536  28.288  23.847  1.00  0.00     0.042 A 
ATOM     25  C   UNL A   1      31.322  28.900  24.785  1.00  0.00     0.195 A 
ENDBRANCH  20  21
ENDBRANCH  16  19
ENDBRANCH  11  15
ENDBRANCH   4   6
ENDBRANCH   3   4
ENDBRANCH   2   3
ENDBRANCH   1   2
BRANCH   1  26
ATOM     26  O   UNL A   1      40.884  21.195  26.622  1.00  0.00    -0.374 OA
BRANCH  26  27
ATOM     27  C   UNL A   1      42.099  20.617  26.150  1.00  0.00     0.202 C 
BRANCH  27  28
ATOM     28  C   UNL A   1      43.172  21.597  25.657  1.00  0.00     0.261 C 
BRANCH  28  29
ATOM     29  O   UNL A   1      42.662  22.735  24.940  1.00  0.00    -0.460 OA
BRANCH  29  30
ATOM     30  C   UNL A   1      43.442  23.844  25.004  1.00  0.00     0.338 C 
ATOM     31  O   UNL A   1      44.447  24.086  24.359  1.00  0.00    -0.246 OA
BRANCH  30  32
ATOM     32  C   UNL A   1      42.860  24.819  25.946  1.00  0.00     0.060 A 
ATOM     33  C   UNL A   1      43.529  26.031  26.158  1.00  0.00     0.016 A 
ATOM     34  C   UNL A   1      41.713  24.509  26.681  1.00  0.00     0.016 A 
ATOM     35  C   UNL A   1      43.052  26.939  27.111  1.00  0.00     0.010 A 
ATOM     36  C   UNL A   1      41.235  25.424  27.632  1.00  0.00     0.010 A 
ATOM     37  C   UNL A   1      41.908  26.638  27.865  1.00  0.00    -0.014 A 
BRANCH  37  38
ATOM     38  C   UNL A   1      41.490  27.519  28.992  1.00  0.00     0.031 A 
ATOM     39  C   UNL A   1      42.239  27.434  30.291  1.00  0.00     0.074 A 
ATOM     40  C   UNL A   1      40.459  28.379  28.878  1.00  0.00     0.049 A 
ATOM     41  N   UNL A   1      42.016  28.060  31.419  1.00  0.00    -0.248 NA
ATOM     42  C   UNL A   1      43.386  26.515  30.326  1.00  0.00     0.031 C 
ATOM     43  C   UNL A   1      39.654  28.566  27.679  1.00  0.00     0.029 A 
ATOM     44  N   UNL A   1      39.899  29.246  29.787  1.00  0.00    -0.354 N 
ATOM     45  C   UNL A   1      42.990  27.606  32.296  1.00  0.00     0.074 A 
ATOM     46  C   UNL A   1      43.778  26.622  31.586  1.00  0.00     0.031 C 
ATOM     47  C   UNL A   1      38.699  29.480  27.917  1.00  0.00     0.029 A 
ATOM     48  C   UNL A   1      38.804  29.924  29.303  1.00  0.00     0.049 A 
ATOM     49  H   UNL A   1      40.249  29.370  30.699  1.00  0.00     0.167 HD
ATOM     50  C   UNL A   1      43.219  27.988  33.574  1.00  0.00     0.037 A 
ATOM     51  C   UNL A   1      37.967  30.787  29.912  1.00  0.00     0.037 A 
ATOM     52  C   UNL A   1      42.436  28.964  34.285  1.00  0.00     0.049 A 
ATOM     53  C   UNL A   1      38.207  31.148  31.354  1.00  0.00     0.074 A 
ATOM     54  C   UNL A   1      42.604  29.426  35.579  1.00  0.00     0.029 A 
ATOM     55  N   UNL A   1      41.332  29.622  33.765  1.00  0.00    -0.354 N 
ATOM     56  N   UNL A   1      39.156  30.745  32.161  1.00  0.00    -0.248 NA
ATOM     57  C   UNL A   1      37.260  32.091  31.970  1.00  0.00     0.031 C 
ATOM     58  C   UNL A   1      41.573  30.328  35.858  1.00  0.00     0.029 A 
ATOM     59  C   UNL A   1      40.795  30.471  34.720  1.00  0.00     0.049 A 
ATOM     60  H   UNL A   1      40.981  29.503  32.853  1.00  0.00     0.167 HD
ATOM     61  C   UNL A   1      38.942  31.404  33.364  1.00  0.00     0.074 A 
ATOM     62  C   UNL A   1      37.781  32.247  33.179  1.00  0.00     0.031 C 
ATOM     63  C   UNL A   1      39.647  31.317  34.519  1.00  0.00     0.037 A 
BRANCH  50  64
ATOM     64  C   UNL A   1      44.362  27.333  34.291  1.00  0.00     0.064 A 
ATOM     65  C   UNL A   1      44.219  26.083  34.912  1.00  0.00     0.173 A 
ATOM     66  C   UNL A   1      45.621  27.951  34.336  1.00  0.00     0.173 A 
ATOM     67  F   UNL A   1      43.031  25.461  34.912  1.00  0.00    -0.203 F 
ATOM     68  C   UNL A   1      45.289  25.488  35.575  1.00  0.00     0.198 A 
ATOM     69  C   UNL A   1      46.695  27.338  34.973  1.00  0.00     0.198 A 
ATOM     70  F   UNL A   1      45.809  29.146  33.756  1.00  0.00    -0.203 F 
ATOM     71  F   UNL A   1      45.116  24.317  36.204  1.00  0.00    -0.200 F 
ATOM     72  C   UNL A   1      46.527  26.111  35.597  1.00  0.00     0.200 A 
ATOM     73  F   UNL A   1      47.894  27.937  34.985  1.00  0.00    -0.200 F 
ATOM     74  F   UNL A   1      47.559  25.533  36.229  1.00  0.00    -0.200 F 
ENDBRANCH  50  64
BRANCH  51  75
ATOM     75  C   UNL A   1      36.813  31.368  29.171  1.00  0.00     0.064 A 
ATOM     76  C   UNL A   1      36.798  32.720  28.799  1.00  0.00     0.173 A 
ATOM     77  C   UNL A   1      35.686  30.594  28.855  1.00  0.00     0.173 A 
ATOM     78  F   UNL A   1      37.839  33.509  29.101  1.00  0.00    -0.203 F 
ATOM     79  C   UNL A   1      35.690  33.282  28.165  1.00  0.00     0.198 A 
ATOM     80  C   UNL A   1      34.592  31.150  28.193  1.00  0.00     0.198 A 
ATOM     81  F   UNL A   1      35.646  29.297  29.190  1.00  0.00    -0.203 F 
ATOM     82  F   UNL A   1      35.680  34.590  27.874  1.00  0.00    -0.200 F 
ATOM     83  C   UNL A   1      34.590  32.496  27.859  1.00  0.00     0.200 A 
ATOM     84  F   UNL A   1      33.535  30.385  27.890  1.00  0.00    -0.200 F 
ATOM     85  F   UNL A   1      33.525  33.037  27.253  1.00  0.00    -0.200 F 
ENDBRANCH  51  75
BRANCH  63  86
ATOM     86  C   UNL A   1      39.211  32.188  35.662  1.00  0.00     0.064 A 
ATOM     87  C   UNL A   1      38.316  31.731  36.641  1.00  0.00     0.173 A 
ATOM     88  C   UNL A   1      39.730  33.485  35.800  1.00  0.00     0.173 A 
ATOM     89  F   UNL A   1      37.779  30.506  36.546  1.00  0.00    -0.203 F 
ATOM     90  C   UNL A   1      37.938  32.550  37.702  1.00  0.00     0.198 A 
ATOM     91  C   UNL A   1      39.374  34.288  36.880  1.00  0.00     0.198 A 
ATOM     92  F   UNL A   1      40.594  33.967  34.895  1.00  0.00    -0.203 F 
ATOM     93  F   UNL A   1      37.044  32.111  38.600  1.00  0.00    -0.200 F 
ATOM     94  C   UNL A   1      38.473  33.823  37.826  1.00  0.00     0.200 A 
ATOM     95  F   UNL A   1      39.905  35.513  37.005  1.00  0.00    -0.200 F 
ATOM     96  F   UNL A   1      38.116  34.605  38.853  1.00  0.00    -0.200 F 
ENDBRANCH  63  86
ENDBRANCH  37  38
ENDBRANCH  30  32
ENDBRANCH  29  30
ENDBRANCH  28  29
ENDBRANCH  27  28
ENDBRANCH  26  27
ENDBRANCH   1  26
TORSDOF 18
ENDMDL
MODEL 3
REMARK VINA RESULT:     -11.5      2.600      8.679
REMARK SMILES Cc1cc(NC(=O)/C=C/c2ccco2)cc(C(=O)OCCOCCOC(=O)c2ccc(-c3c4nc(c(-c5c(F)c(F)c(F)c(F)c5F)c5ccc([nH]5)c(-c5c(F)c(F)c(F)c(F)c5F)c5nc(c(-c6c(F)c(F)c(F)c(F)c6F)c6ccc3[nH]6)C=C5)C=C4)cc2)c1O
REMARK SMILES IDX 21 1 20 2 19 3 17 4 18 5 16 6 1 7 2 8 3 9 91 10 4 11 15 12
REMARK SMILES IDX 92 13 5 15 6 16 7 18 8 19 9 20 10 21 11 22 14 23 12 24 13 25
REMARK SMILES IDX 22 26 23 27 24 28 25 29 26 30 27 31 28 32 29 33 90 34 30 35
REMARK SMILES IDX 89 36 31 37 32 38 33 39 83 40 34 41 88 42 82 43 84 44 35 45
REMARK SMILES IDX 87 46 81 47 80 48 36 50 68 51 48 52 67 53 49 54 52 55 66 56
REMARK SMILES IDX 85 57 50 58 51 59 65 61 86 62 53 63 37 64 38 65 46 66 39 67
REMARK SMILES IDX 40 68 44 69 47 70 41 71 42 72 45 73 43 74 69 75 70 76 78 77
REMARK SMILES IDX 71 78 72 79 76 80 79 81 73 82 74 83 77 84 75 85 54 86 55 87
REMARK SMILES IDX 63 88 56 89 57 90 61 91 64 92 58 93 59 94 62 95 60 96
REMARK H PARENT 92 14 5 17 84 49 52 60
REMARK Flexibility Score: inf
ROOT
ATOM      1  C   UNL A   1      32.755  30.220  26.809  1.00  0.00     0.202 C 
ENDROOT
BRANCH   1   2
ATOM      2  C   UNL A   1      33.293  29.058  25.965  1.00  0.00     0.261 C 
BRANCH   2   3
ATOM      3  O   UNL A   1      33.384  27.859  26.752  1.00  0.00    -0.460 OA
BRANCH   3   4
ATOM      4  C   UNL A   1      32.520  26.874  26.398  1.00  0.00     0.342 C 
ATOM      5  O   UNL A   1      31.356  26.763  26.734  1.00  0.00    -0.246 OA
BRANCH   4   6
ATOM      6  C   UNL A   1      33.215  25.974  25.453  1.00  0.00     0.104 A 
ATOM      7  C   UNL A   1      32.865  24.616  21.907  1.00  0.00     0.048 C 
ATOM      8  C   UNL A   1      33.388  24.921  23.283  1.00  0.00    -0.006 A 
ATOM      9  C   UNL A   1      34.583  24.310  23.711  1.00  0.00     0.033 A 
ATOM     10  C   UNL A   1      32.743  25.810  24.150  1.00  0.00     0.133 A 
ATOM     11  C   UNL A   1      35.111  24.527  24.993  1.00  0.00     0.042 A 
ATOM     12  C   UNL A   1      34.367  25.300  25.880  1.00  0.00     0.045 A 
BRANCH  10  13
ATOM     13  O   UNL A   1      31.670  26.555  23.746  1.00  0.00    -0.507 OA
ATOM     14  H   UNL A   1      31.046  26.191  23.150  1.00  0.00     0.293 HD
ENDBRANCH  10  13
BRANCH  11  15
ATOM     15  N   UNL A   1      36.373  23.948  25.254  1.00  0.00    -0.322 N 
ATOM     16  C   UNL A   1      36.871  22.677  25.187  1.00  0.00     0.248 C 
ATOM     17  H   UNL A   1      37.041  24.607  25.552  1.00  0.00     0.170 HD
ATOM     18  O   UNL A   1      38.041  22.457  25.494  1.00  0.00    -0.270 OA
BRANCH  16  19
ATOM     19  C   UNL A   1      36.032  21.575  24.707  1.00  0.00     0.075 C 
ATOM     20  C   UNL A   1      35.098  21.032  25.499  1.00  0.00     0.053 C 
BRANCH  20  21
ATOM     21  C   UNL A   1      34.108  20.205  24.909  1.00  0.00     0.126 A 
ATOM     22  C   UNL A   1      32.826  20.521  24.502  1.00  0.00     0.050 A 
ATOM     23  O   UNL A   1      34.336  18.893  24.551  1.00  0.00    -0.465 OA
ATOM     24  C   UNL A   1      32.296  19.411  23.807  1.00  0.00     0.042 A 
ATOM     25  C   UNL A   1      33.253  18.436  23.880  1.00  0.00     0.195 A 
ENDBRANCH  20  21
ENDBRANCH  16  19
ENDBRANCH  11  15
ENDBRANCH   4   6
ENDBRANCH   3   4
ENDBRANCH   2   3
ENDBRANCH   1   2
BRANCH   1  26
ATOM     26  O   UNL A   1      31.555  30.830  26.330  1.00  0.00    -0.374 OA
BRANCH  26  27
ATOM     27  C   UNL A   1      31.393  32.222  26.587  1.00  0.00     0.202 C 
BRANCH  27  28
ATOM     28  C   UNL A   1      32.626  32.964  27.122  1.00  0.00     0.261 C 
BRANCH  28  29
ATOM     29  O   UNL A   1      32.342  33.947  28.134  1.00  0.00    -0.460 OA
BRANCH  29  30
ATOM     30  C   UNL A   1      33.404  34.712  28.496  1.00  0.00     0.338 C 
ATOM     31  O   UNL A   1      33.457  35.927  28.566  1.00  0.00    -0.246 OA
BRANCH  30  32
ATOM     32  C   UNL A   1      34.535  33.852  28.894  1.00  0.00     0.060 A 
ATOM     33  C   UNL A   1      34.269  32.681  29.614  1.00  0.00     0.016 A 
ATOM     34  C   UNL A   1      35.854  34.237  28.637  1.00  0.00     0.016 A 
ATOM     35  C   UNL A   1      35.324  31.890  30.083  1.00  0.00     0.010 A 
ATOM     36  C   UNL A   1      36.909  33.440  29.105  1.00  0.00     0.010 A 
ATOM     37  C   UNL A   1      36.654  32.269  29.844  1.00  0.00    -0.014 A 
BRANCH  37  38
ATOM     38  C   UNL A   1      37.779  31.526  30.477  1.00  0.00     0.031 A 
ATOM     39  C   UNL A   1      38.159  31.859  31.892  1.00  0.00     0.074 A 
ATOM     40  C   UNL A   1      38.466  30.574  29.816  1.00  0.00     0.049 A 
ATOM     41  N   UNL A   1      39.136  31.385  32.622  1.00  0.00    -0.248 NA
ATOM     42  C   UNL A   1      37.332  32.868  32.570  1.00  0.00     0.031 C 
ATOM     43  C   UNL A   1      38.201  30.149  28.448  1.00  0.00     0.029 A 
ATOM     44  N   UNL A   1      39.538  29.802  30.196  1.00  0.00    -0.354 N 
ATOM     45  C   UNL A   1      39.044  32.041  33.841  1.00  0.00     0.074 A 
ATOM     46  C   UNL A   1      37.944  32.977  33.739  1.00  0.00     0.031 C 
ATOM     47  C   UNL A   1      39.084  29.201  28.093  1.00  0.00     0.029 A 
ATOM     48  C   UNL A   1      40.003  28.971  29.203  1.00  0.00     0.049 A 
ATOM     49  H   UNL A   1      39.936  29.840  31.096  1.00  0.00     0.167 HD
ATOM     50  C   UNL A   1      39.796  31.868  34.952  1.00  0.00     0.037 A 
ATOM     51  C   UNL A   1      41.060  28.136  29.180  1.00  0.00     0.037 A 
ATOM     52  C   UNL A   1      40.892  30.941  35.057  1.00  0.00     0.049 A 
ATOM     53  C   UNL A   1      41.920  28.007  30.410  1.00  0.00     0.074 A 
ATOM     54  C   UNL A   1      41.701  30.684  36.150  1.00  0.00     0.029 A 
ATOM     55  N   UNL A   1      41.336  30.123  34.028  1.00  0.00    -0.354 N 
ATOM     56  N   UNL A   1      41.798  28.601  31.572  1.00  0.00    -0.248 NA
ATOM     57  C   UNL A   1      43.064  27.085  30.329  1.00  0.00     0.031 C 
ATOM     58  C   UNL A   1      42.667  29.747  35.768  1.00  0.00     0.029 A 
ATOM     59  C   UNL A   1      42.424  29.377  34.455  1.00  0.00     0.049 A 
ATOM     60  H   UNL A   1      40.939  30.079  33.129  1.00  0.00     0.167 HD
ATOM     61  C   UNL A   1      42.822  28.105  32.365  1.00  0.00     0.074 A 
ATOM     62  C   UNL A   1      43.551  27.149  31.560  1.00  0.00     0.031 C 
ATOM     63  C   UNL A   1      43.132  28.417  33.648  1.00  0.00     0.037 A 
BRANCH  50  64
ATOM     64  C   UNL A   1      39.463  32.713  36.145  1.00  0.00     0.064 A 
ATOM     65  C   UNL A   1      40.044  33.975  36.335  1.00  0.00     0.173 A 
ATOM     66  C   UNL A   1      38.532  32.266  37.095  1.00  0.00     0.173 A 
ATOM     67  F   UNL A   1      40.953  34.438  35.464  1.00  0.00    -0.203 F 
ATOM     68  C   UNL A   1      39.726  34.749  37.449  1.00  0.00     0.198 A 
ATOM     69  C   UNL A   1      38.193  33.056  38.190  1.00  0.00     0.198 A 
ATOM     70  F   UNL A   1      37.947  31.067  36.958  1.00  0.00    -0.203 F 
ATOM     71  F   UNL A   1      40.331  35.930  37.635  1.00  0.00    -0.200 F 
ATOM     72  C   UNL A   1      38.796  34.292  38.369  1.00  0.00     0.200 A 
ATOM     73  F   UNL A   1      37.286  32.618  39.074  1.00  0.00    -0.200 F 
ATOM     74  F   UNL A   1      38.483  35.042  39.436  1.00  0.00    -0.200 F 
ENDBRANCH  50  64
BRANCH  51  75
ATOM     75  C   UNL A   1      41.382  27.359  27.951  1.00  0.00     0.064 A 
ATOM     76  C   UNL A   1      40.781  26.116  27.703  1.00  0.00     0.173 A 
ATOM     77  C   UNL A   1      42.324  27.824  27.021  1.00  0.00     0.173 A 
ATOM     78  F   UNL A   1      39.895  25.615  28.575  1.00  0.00    -0.203 F 
ATOM     79  C   UNL A   1      41.131  25.356  26.587  1.00  0.00     0.198 A 
ATOM     80  C   UNL A   1      42.649  27.077  25.890  1.00  0.00     0.198 A 
ATOM     81  F   UNL A   1      42.930  29.004  27.211  1.00  0.00    -0.203 F 
ATOM     82  F   UNL A   1      40.584  24.146  26.406  1.00  0.00    -0.200 F 
ATOM     83  C   UNL A   1      42.061  25.839  25.679  1.00  0.00     0.200 A 
ATOM     84  F   UNL A   1      43.540  27.551  25.009  1.00  0.00    -0.200 F 
ATOM     85  F   UNL A   1      42.399  25.107  24.609  1.00  0.00    -0.200 F 
ENDBRANCH  51  75
BRANCH  63  86
ATOM     86  C   UNL A   1      44.281  27.684  34.279  1.00  0.00     0.064 A 
ATOM     87  C   UNL A   1      45.584  28.204  34.270  1.00  0.00     0.173 A 
ATOM     88  C   UNL A   1      44.065  26.464  34.939  1.00  0.00     0.173 A 
ATOM     89  F   UNL A   1      45.846  29.358  33.639  1.00  0.00    -0.203 F 
ATOM     90  C   UNL A   1      46.632  27.516  34.876  1.00  0.00     0.198 A 
ATOM     91  C   UNL A   1      45.110  25.796  35.571  1.00  0.00     0.198 A 
ATOM     92  F   UNL A   1      42.837  25.928  34.982  1.00  0.00    -0.203 F 
ATOM     93  F   UNL A   1      47.878  28.007  34.814  1.00  0.00    -0.200 F 
ATOM     94  C   UNL A   1      46.393  26.319  35.534  1.00  0.00     0.200 A 
ATOM     95  F   UNL A   1      44.873  24.646  36.218  1.00  0.00    -0.200 F 
ATOM     96  F   UNL A   1      47.402  25.664  36.124  1.00  0.00    -0.200 F 
ENDBRANCH  63  86
ENDBRANCH  37  38
ENDBRANCH  30  32
ENDBRANCH  29  30
ENDBRANCH  28  29
ENDBRANCH  27  28
ENDBRANCH  26  27
ENDBRANCH   1  26
TORSDOF 18
ENDMDL
