MODEL 1
REMARK VINA RESULT:     -11.9      0.000      0.000
REMARK SMILES O=C(OCCOCCOC(=O)[C@H]1CCCCN1C(=O)c1cn2ccccc2n1)c1ccc(-c2c3nc(c(-c4c(F)c(F)c(F)c(F)c4F)c4ccc([nH]4)c(-c4c(F)c(F)c(F)c(F)c4F)c4nc(c(-c5c(F)c(F)c(F)c(F)c5F)c5ccc2[nH]5)C=C4)C=C3)cc1
REMARK SMILES IDX 6 1 5 2 4 3 3 4 2 5 1 6 29 7 30 8 91 9 31 10 90 11 32 12
REMARK SMILES IDX 33 13 34 14 84 15 35 16 89 17 83 18 85 19 36 20 88 21 82 22
REMARK SMILES IDX 81 23 37 25 69 26 49 27 68 28 50 29 53 30 67 31 86 32 51 33
REMARK SMILES IDX 52 34 66 36 87 37 54 38 38 39 39 40 47 41 40 42 41 43 45 44
REMARK SMILES IDX 48 45 42 46 43 47 46 48 44 49 70 50 71 51 79 52 72 53 73 54
REMARK SMILES IDX 77 55 80 56 74 57 75 58 78 59 76 60 55 61 56 62 64 63 57 64
REMARK SMILES IDX 58 65 62 66 65 67 59 68 60 69 63 70 61 71 7 72 8 73 9 74
REMARK SMILES IDX 10 75 11 76 12 77 13 78 17 79 14 80 16 81 15 82 18 83 19 84
REMARK SMILES IDX 20 85 21 86 28 87 22 88 27 89 23 90 26 91 24 92 25 93
REMARK H PARENT 85 24 53 35
REMARK Flexibility Score: inf
ROOT
ATOM      1  O   UNL A   1      32.145  30.303  27.158  1.00  0.00    -0.374 OA
ENDROOT
BRANCH   1   2
ATOM      2  C   UNL A   1      31.665  31.590  26.795  1.00  0.00     0.202 C 
BRANCH   2   3
ATOM      3  C   UNL A   1      32.644  32.764  26.932  1.00  0.00     0.261 C 
BRANCH   3   4
ATOM      4  O   UNL A   1      32.120  33.808  27.785  1.00  0.00    -0.460 OA
BRANCH   4   5
ATOM      5  C   UNL A   1      32.876  34.607  28.584  1.00  0.00     0.338 C 
ATOM      6  O   UNL A   1      32.545  35.766  28.823  1.00  0.00    -0.246 OA
BRANCH   5   7
ATOM      7  C   UNL A   1      34.127  34.066  29.165  1.00  0.00     0.060 A 
ATOM      8  C   UNL A   1      34.084  32.927  29.953  1.00  0.00     0.016 A 
ATOM      9  C   UNL A   1      35.365  34.655  28.910  1.00  0.00     0.016 A 
ATOM     10  C   UNL A   1      35.167  32.499  30.676  1.00  0.00     0.010 A 
ATOM     11  C   UNL A   1      36.516  34.111  29.496  1.00  0.00     0.010 A 
ATOM     12  C   UNL A   1      36.413  33.039  30.398  1.00  0.00    -0.014 A 
BRANCH  12  13
ATOM     13  C   UNL A   1      37.568  32.424  31.074  1.00  0.00     0.031 A 
ATOM     14  C   UNL A   1      38.385  31.416  30.340  1.00  0.00     0.074 A 
ATOM     15  C   UNL A   1      37.930  32.880  32.290  1.00  0.00     0.049 A 
ATOM     16  N   UNL A   1      39.339  30.648  30.787  1.00  0.00    -0.248 NA
ATOM     17  C   UNL A   1      38.087  31.244  28.909  1.00  0.00     0.031 C 
ATOM     18  C   UNL A   1      37.260  33.961  33.023  1.00  0.00     0.029 A 
ATOM     19  N   UNL A   1      38.969  32.530  33.109  1.00  0.00    -0.354 N 
ATOM     20  C   UNL A   1      39.704  29.849  29.715  1.00  0.00     0.074 A 
ATOM     21  C   UNL A   1      38.892  30.244  28.586  1.00  0.00     0.031 C 
ATOM     22  C   UNL A   1      37.936  34.223  34.148  1.00  0.00     0.029 A 
ATOM     23  C   UNL A   1      39.002  33.242  34.282  1.00  0.00     0.049 A 
ATOM     24  H   UNL A   1      39.628  31.835  32.879  1.00  0.00     0.167 HD
ATOM     25  C   UNL A   1      40.621  28.855  29.706  1.00  0.00     0.037 A 
ATOM     26  C   UNL A   1      39.765  33.071  35.377  1.00  0.00     0.037 A 
ATOM     27  C   UNL A   1      41.423  28.522  30.854  1.00  0.00     0.049 A 
ATOM     28  C   UNL A   1      40.744  31.934  35.359  1.00  0.00     0.074 A 
ATOM     29  C   UNL A   1      42.341  27.502  31.007  1.00  0.00     0.029 A 
ATOM     30  N   UNL A   1      41.400  29.230  32.051  1.00  0.00    -0.354 N 
ATOM     31  N   UNL A   1      41.007  31.092  34.388  1.00  0.00    -0.248 NA
ATOM     32  C   UNL A   1      41.502  31.697  36.590  1.00  0.00     0.031 C 
ATOM     33  C   UNL A   1      42.848  27.573  32.311  1.00  0.00     0.029 A 
ATOM     34  C   UNL A   1      42.280  28.663  32.956  1.00  0.00     0.049 A 
ATOM     35  H   UNL A   1      40.840  30.019  32.230  1.00  0.00     0.167 HD
ATOM     36  C   UNL A   1      41.957  30.218  34.888  1.00  0.00     0.074 A 
ATOM     37  C   UNL A   1      42.246  30.654  36.241  1.00  0.00     0.031 C 
ATOM     38  C   UNL A   1      42.530  29.142  34.293  1.00  0.00     0.037 A 
BRANCH  25  39
ATOM     39  C   UNL A   1      40.706  28.023  28.462  1.00  0.00     0.064 A 
ATOM     40  C   UNL A   1      40.044  26.795  28.333  1.00  0.00     0.173 A 
ATOM     41  C   UNL A   1      41.531  28.438  27.404  1.00  0.00     0.173 A 
ATOM     42  F   UNL A   1      39.271  26.336  29.329  1.00  0.00    -0.203 F 
ATOM     43  C   UNL A   1      40.236  25.992  27.209  1.00  0.00     0.198 A 
ATOM     44  C   UNL A   1      41.699  27.646  26.271  1.00  0.00     0.198 A 
ATOM     45  F   UNL A   1      42.196  29.600  27.481  1.00  0.00    -0.203 F 
ATOM     46  F   UNL A   1      39.651  24.788  27.141  1.00  0.00    -0.200 F 
ATOM     47  C   UNL A   1      41.062  26.419  26.180  1.00  0.00     0.200 A 
ATOM     48  F   UNL A   1      42.498  28.060  25.279  1.00  0.00    -0.200 F 
ATOM     49  F   UNL A   1      41.260  25.636  25.110  1.00  0.00    -0.200 F 
ENDBRANCH  25  39
BRANCH  26  50
ATOM     50  C   UNL A   1      39.556  33.930  36.573  1.00  0.00     0.064 A 
ATOM     51  C   UNL A   1      38.769  33.501  37.649  1.00  0.00     0.173 A 
ATOM     52  C   UNL A   1      40.172  35.188  36.681  1.00  0.00     0.173 A 
ATOM     53  F   UNL A   1      38.141  32.318  37.590  1.00  0.00    -0.203 F 
ATOM     54  C   UNL A   1      38.603  34.298  38.783  1.00  0.00     0.198 A 
ATOM     55  C   UNL A   1      40.035  35.967  37.828  1.00  0.00     0.198 A 
ATOM     56  F   UNL A   1      40.938  35.650  35.683  1.00  0.00    -0.203 F 
ATOM     57  F   UNL A   1      37.818  33.878  39.785  1.00  0.00    -0.200 F 
ATOM     58  C   UNL A   1      39.246  35.523  38.876  1.00  0.00     0.200 A 
ATOM     59  F   UNL A   1      40.675  37.140  37.919  1.00  0.00    -0.200 F 
ATOM     60  F   UNL A   1      39.099  36.279  39.974  1.00  0.00    -0.200 F 
ENDBRANCH  26  50
BRANCH  38  61
ATOM     61  C   UNL A   1      43.533  28.389  35.108  1.00  0.00     0.064 A 
ATOM     62  C   UNL A   1      43.154  27.300  35.905  1.00  0.00     0.173 A 
ATOM     63  C   UNL A   1      44.891  28.732  35.049  1.00  0.00     0.173 A 
ATOM     64  F   UNL A   1      41.862  26.953  36.005  1.00  0.00    -0.203 F 
ATOM     65  C   UNL A   1      44.103  26.587  36.629  1.00  0.00     0.198 A 
ATOM     66  C   UNL A   1      45.840  28.000  35.754  1.00  0.00     0.198 A 
ATOM     67  F   UNL A   1      45.294  29.765  34.296  1.00  0.00    -0.203 F 
ATOM     68  F   UNL A   1      43.718  25.572  37.415  1.00  0.00    -0.200 F 
ATOM     69  C   UNL A   1      45.444  26.932  36.546  1.00  0.00     0.200 A 
ATOM     70  F   UNL A   1      47.135  28.327  35.666  1.00  0.00    -0.200 F 
ATOM     71  F   UNL A   1      46.358  26.236  37.236  1.00  0.00    -0.200 F 
ENDBRANCH  38  61
ENDBRANCH  12  13
ENDBRANCH   5   7
ENDBRANCH   4   5
ENDBRANCH   3   4
ENDBRANCH   2   3
ENDBRANCH   1   2
BRANCH   1  72
ATOM     72  C   UNL A   1      33.527  30.055  26.877  1.00  0.00     0.202 C 
BRANCH  72  73
ATOM     73  C   UNL A   1      33.647  28.792  26.033  1.00  0.00     0.261 C 
BRANCH  73  74
ATOM     74  O   UNL A   1      33.220  27.686  26.841  1.00  0.00    -0.462 OA
BRANCH  74  75
ATOM     75  C   UNL A   1      32.169  26.950  26.374  1.00  0.00     0.328 C 
ATOM     76  O   UNL A   1      31.037  26.962  26.846  1.00  0.00    -0.250 OA
BRANCH  75  77
ATOM     77  C   UNL A   1      32.581  26.110  25.146  1.00  0.00     0.195 C 
ATOM     78  C   UNL A   1      32.848  24.630  25.474  1.00  0.00     0.037 C 
ATOM     79  N   UNL A   1      31.678  26.290  24.000  1.00  0.00    -0.323 N 
ATOM     80  C   UNL A   1      31.745  23.616  25.163  1.00  0.00     0.005 C 
ATOM     81  C   UNL A   1      30.477  25.464  23.949  1.00  0.00     0.121 C 
ATOM     82  C   UNL A   1      30.818  23.987  24.015  1.00  0.00     0.022 C 
BRANCH  79  83
ATOM     83  C   UNL A   1      31.917  27.397  23.185  1.00  0.00     0.274 C 
ATOM     84  O   UNL A   1      32.960  27.513  22.534  1.00  0.00    -0.267 OA
BRANCH  83  85
ATOM     85  C   UNL A   1      30.888  28.423  23.106  1.00  0.00     0.147 A 
ATOM     86  C   UNL A   1      30.593  29.391  24.051  1.00  0.00     0.127 A 
ATOM     87  N   UNL A   1      30.104  28.588  21.981  1.00  0.00    -0.223 NA
ATOM     88  N   UNL A   1      29.650  30.197  23.466  1.00  0.00    -0.306 N 
ATOM     89  C   UNL A   1      29.396  29.670  22.204  1.00  0.00     0.137 A 
ATOM     90  C   UNL A   1      29.037  31.348  23.954  1.00  0.00     0.093 A 
ATOM     91  C   UNL A   1      28.476  30.370  21.376  1.00  0.00     0.048 A 
ATOM     92  C   UNL A   1      28.167  32.008  23.168  1.00  0.00     0.018 A 
ATOM     93  C   UNL A   1      27.891  31.495  21.833  1.00  0.00     0.005 A 
ENDBRANCH  83  85
ENDBRANCH  79  83
ENDBRANCH  75  77
ENDBRANCH  74  75
ENDBRANCH  73  74
ENDBRANCH  72  73
ENDBRANCH   1  72
TORSDOF 16
ENDMDL
MODEL 2
REMARK VINA RESULT:     -11.9      2.733      5.073
REMARK SMILES O=C(OCCOCCOC(=O)[C@H]1CCCCN1C(=O)c1cn2ccccc2n1)c1ccc(-c2c3nc(c(-c4c(F)c(F)c(F)c(F)c4F)c4ccc([nH]4)c(-c4c(F)c(F)c(F)c(F)c4F)c4nc(c(-c5c(F)c(F)c(F)c(F)c5F)c5ccc2[nH]5)C=C4)C=C3)cc1
REMARK SMILES IDX 6 1 5 2 4 3 3 4 2 5 1 6 29 7 30 8 91 9 31 10 90 11 32 12
REMARK SMILES IDX 33 13 34 14 84 15 35 16 89 17 83 18 85 19 36 20 88 21 82 22
REMARK SMILES IDX 81 23 37 25 69 26 49 27 68 28 50 29 53 30 67 31 86 32 51 33
REMARK SMILES IDX 52 34 66 36 87 37 54 38 38 39 39 40 47 41 40 42 41 43 45 44
REMARK SMILES IDX 48 45 42 46 43 47 46 48 44 49 70 50 71 51 79 52 72 53 73 54
REMARK SMILES IDX 77 55 80 56 74 57 75 58 78 59 76 60 55 61 56 62 64 63 57 64
REMARK SMILES IDX 58 65 62 66 65 67 59 68 60 69 63 70 61 71 7 72 8 73 9 74
REMARK SMILES IDX 10 75 11 76 12 77 13 78 17 79 14 80 16 81 15 82 18 83 19 84
REMARK SMILES IDX 20 85 21 86 28 87 22 88 27 89 23 90 26 91 24 92 25 93
REMARK H PARENT 85 24 53 35
REMARK Flexibility Score: inf
ROOT
ATOM      1  O   UNL A   1      32.424  27.352  26.876  1.00  0.00    -0.374 OA
ENDROOT
BRANCH   1   2
ATOM      2  C   UNL A   1      31.781  28.597  27.111  1.00  0.00     0.202 C 
BRANCH   2   3
ATOM      3  C   UNL A   1      31.805  29.621  25.969  1.00  0.00     0.261 C 
BRANCH   3   4
ATOM      4  O   UNL A   1      33.022  30.403  25.970  1.00  0.00    -0.460 OA
BRANCH   4   5
ATOM      5  C   UNL A   1      33.381  31.275  26.950  1.00  0.00     0.338 C 
ATOM      6  O   UNL A   1      32.676  32.241  27.232  1.00  0.00    -0.246 OA
BRANCH   5   7
ATOM      7  C   UNL A   1      34.652  31.055  27.678  1.00  0.00     0.060 A 
ATOM      8  C   UNL A   1      34.978  29.784  28.125  1.00  0.00     0.016 A 
ATOM      9  C   UNL A   1      35.556  32.093  27.900  1.00  0.00     0.016 A 
ATOM     10  C   UNL A   1      36.032  29.557  28.972  1.00  0.00     0.010 A 
ATOM     11  C   UNL A   1      36.738  31.834  28.607  1.00  0.00     0.010 A 
ATOM     12  C   UNL A   1      36.967  30.563  29.162  1.00  0.00    -0.014 A 
BRANCH  12  13
ATOM     13  C   UNL A   1      38.170  30.213  29.936  1.00  0.00     0.031 A 
ATOM     14  C   UNL A   1      39.240  29.404  29.287  1.00  0.00     0.074 A 
ATOM     15  C   UNL A   1      38.327  30.739  31.168  1.00  0.00     0.049 A 
ATOM     16  N   UNL A   1      40.298  28.861  29.821  1.00  0.00    -0.248 NA
ATOM     17  C   UNL A   1      39.101  29.169  27.841  1.00  0.00     0.031 C 
ATOM     18  C   UNL A   1      37.383  31.651  31.826  1.00  0.00     0.029 A 
ATOM     19  N   UNL A   1      39.348  30.623  32.071  1.00  0.00    -0.354 N 
ATOM     20  C   UNL A   1      40.911  28.158  28.797  1.00  0.00     0.074 A 
ATOM     21  C   UNL A   1      40.125  28.365  27.600  1.00  0.00     0.031 C 
ATOM     22  C   UNL A   1      37.895  32.055  32.995  1.00  0.00     0.029 A 
ATOM     23  C   UNL A   1      39.133  31.328  33.230  1.00  0.00     0.049 A 
ATOM     24  H   UNL A   1      40.157  30.086  31.906  1.00  0.00     0.167 HD
ATOM     25  C   UNL A   1      42.018  27.385  28.878  1.00  0.00     0.037 A 
ATOM     26  C   UNL A   1      39.825  31.328  34.383  1.00  0.00     0.037 A 
ATOM     27  C   UNL A   1      42.779  27.235  30.090  1.00  0.00     0.049 A 
ATOM     28  C   UNL A   1      41.024  30.429  34.464  1.00  0.00     0.074 A 
ATOM     29  C   UNL A   1      43.879  26.438  30.334  1.00  0.00     0.029 A 
ATOM     30  N   UNL A   1      42.508  27.924  31.269  1.00  0.00    -0.354 N 
ATOM     31  N   UNL A   1      41.539  29.661  33.532  1.00  0.00    -0.248 NA
ATOM     32  C   UNL A   1      41.715  30.363  35.754  1.00  0.00     0.031 C 
ATOM     33  C   UNL A   1      44.254  26.619  31.672  1.00  0.00     0.029 A 
ATOM     34  C   UNL A   1      43.414  27.562  32.249  1.00  0.00     0.049 A 
ATOM     35  H   UNL A   1      41.779  28.574  31.388  1.00  0.00     0.167 HD
ATOM     36  C   UNL A   1      42.611  29.014  34.120  1.00  0.00     0.074 A 
ATOM     37  C   UNL A   1      42.690  29.505  35.483  1.00  0.00     0.031 C 
ATOM     38  C   UNL A   1      43.448  28.086  33.593  1.00  0.00     0.037 A 
BRANCH  25  39
ATOM     39  C   UNL A   1      42.379  26.589  27.660  1.00  0.00     0.064 A 
ATOM     40  C   UNL A   1      41.839  25.321  27.405  1.00  0.00     0.173 A 
ATOM     41  C   UNL A   1      43.344  27.082  26.768  1.00  0.00     0.173 A 
ATOM     42  F   UNL A   1      40.939  24.788  28.245  1.00  0.00    -0.203 F 
ATOM     43  C   UNL A   1      42.282  24.558  26.325  1.00  0.00     0.198 A 
ATOM     44  C   UNL A   1      43.765  26.330  25.675  1.00  0.00     0.198 A 
ATOM     45  F   UNL A   1      43.901  28.285  26.972  1.00  0.00    -0.203 F 
ATOM     46  F   UNL A   1      41.807  23.318  26.142  1.00  0.00    -0.200 F 
ATOM     47  C   UNL A   1      43.243  25.064  25.461  1.00  0.00     0.200 A 
ATOM     48  F   UNL A   1      44.694  26.819  24.843  1.00  0.00    -0.200 F 
ATOM     49  F   UNL A   1      43.681  24.321  24.435  1.00  0.00    -0.200 F 
ENDBRANCH  25  39
BRANCH  26  50
ATOM     50  C   UNL A   1      39.341  32.123  35.543  1.00  0.00     0.064 A 
ATOM     51  C   UNL A   1      38.465  31.575  36.488  1.00  0.00     0.173 A 
ATOM     52  C   UNL A   1      39.776  33.443  35.751  1.00  0.00     0.173 A 
ATOM     53  F   UNL A   1      38.001  30.328  36.327  1.00  0.00    -0.203 F 
ATOM     54  C   UNL A   1      38.041  32.316  37.592  1.00  0.00     0.198 A 
ATOM     55  C   UNL A   1      39.381  34.169  36.873  1.00  0.00     0.198 A 
ATOM     56  F   UNL A   1      40.617  34.019  34.881  1.00  0.00    -0.203 F 
ATOM     57  F   UNL A   1      37.175  31.778  38.463  1.00  0.00    -0.200 F 
ATOM     58  C   UNL A   1      38.508  33.607  37.789  1.00  0.00     0.200 A 
ATOM     59  F   UNL A   1      39.852  35.408  37.067  1.00  0.00    -0.200 F 
ATOM     60  F   UNL A   1      38.113  34.310  38.860  1.00  0.00    -0.200 F 
ENDBRANCH  26  50
BRANCH  38  61
ATOM     61  C   UNL A   1      44.521  27.569  34.497  1.00  0.00     0.064 A 
ATOM     62  C   UNL A   1      45.750  28.231  34.621  1.00  0.00     0.173 A 
ATOM     63  C   UNL A   1      44.295  26.430  35.282  1.00  0.00     0.173 A 
ATOM     64  F   UNL A   1      46.013  29.314  33.874  1.00  0.00    -0.203 F 
ATOM     65  C   UNL A   1      46.725  27.759  35.494  1.00  0.00     0.198 A 
ATOM     66  C   UNL A   1      45.262  25.976  36.171  1.00  0.00     0.198 A 
ATOM     67  F   UNL A   1      43.131  25.770  35.194  1.00  0.00    -0.203 F 
ATOM     68  F   UNL A   1      47.908  28.384  35.573  1.00  0.00    -0.200 F 
ATOM     69  C   UNL A   1      46.477  26.638  36.273  1.00  0.00     0.200 A 
ATOM     70  F   UNL A   1      45.019  24.900  36.931  1.00  0.00    -0.200 F 
ATOM     71  F   UNL A   1      47.413  26.192  37.121  1.00  0.00    -0.200 F 
ENDBRANCH  38  61
ENDBRANCH  12  13
ENDBRANCH   5   7
ENDBRANCH   4   5
ENDBRANCH   3   4
ENDBRANCH   2   3
ENDBRANCH   1   2
BRANCH   1  72
ATOM     72  C   UNL A   1      31.905  26.584  25.784  1.00  0.00     0.202 C 
BRANCH  72  73
ATOM     73  C   UNL A   1      30.489  26.132  26.118  1.00  0.00     0.261 C 
BRANCH  73  74
ATOM     74  O   UNL A   1      30.278  24.860  25.490  1.00  0.00    -0.462 OA
BRANCH  74  75
ATOM     75  C   UNL A   1      30.904  23.783  26.050  1.00  0.00     0.328 C 
ATOM     76  O   UNL A   1      30.888  23.503  27.243  1.00  0.00    -0.250 OA
BRANCH  75  77
ATOM     77  C   UNL A   1      31.623  22.938  24.976  1.00  0.00     0.195 C 
ATOM     78  C   UNL A   1      31.396  23.446  23.540  1.00  0.00     0.037 C 
ATOM     79  N   UNL A   1      33.041  22.706  25.284  1.00  0.00    -0.323 N 
ATOM     80  C   UNL A   1      32.500  24.286  22.893  1.00  0.00     0.005 C 
ATOM     81  C   UNL A   1      33.999  23.728  24.878  1.00  0.00     0.121 C 
ATOM     82  C   UNL A   1      33.912  24.008  23.389  1.00  0.00     0.022 C 
BRANCH  79  83
ATOM     83  C   UNL A   1      33.326  21.647  26.149  1.00  0.00     0.274 C 
ATOM     84  O   UNL A   1      33.557  21.830  27.348  1.00  0.00    -0.267 OA
BRANCH  83  85
ATOM     85  C   UNL A   1      33.334  20.299  25.599  1.00  0.00     0.147 A 
ATOM     86  C   UNL A   1      34.164  19.801  24.610  1.00  0.00     0.127 A 
ATOM     87  N   UNL A   1      32.512  19.305  26.091  1.00  0.00    -0.223 NA
ATOM     88  N   UNL A   1      33.881  18.460  24.539  1.00  0.00    -0.306 N 
ATOM     89  C   UNL A   1      32.877  18.210  25.467  1.00  0.00     0.137 A 
ATOM     90  C   UNL A   1      34.456  17.471  23.744  1.00  0.00     0.093 A 
ATOM     91  C   UNL A   1      32.444  16.863  25.614  1.00  0.00     0.048 A 
ATOM     92  C   UNL A   1      34.043  16.199  23.885  1.00  0.00     0.018 A 
ATOM     93  C   UNL A   1      33.006  15.897  24.863  1.00  0.00     0.005 A 
ENDBRANCH  83  85
ENDBRANCH  79  83
ENDBRANCH  75  77
ENDBRANCH  74  75
ENDBRANCH  73  74
ENDBRANCH  72  73
ENDBRANCH   1  72
TORSDOF 16
ENDMDL
MODEL 3
REMARK VINA RESULT:     -11.7      4.848     10.269
REMARK SMILES O=C(OCCOCCOC(=O)[C@H]1CCCCN1C(=O)c1cn2ccccc2n1)c1ccc(-c2c3nc(c(-c4c(F)c(F)c(F)c(F)c4F)c4ccc([nH]4)c(-c4c(F)c(F)c(F)c(F)c4F)c4nc(c(-c5c(F)c(F)c(F)c(F)c5F)c5ccc2[nH]5)C=C4)C=C3)cc1
REMARK SMILES IDX 6 1 5 2 4 3 3 4 2 5 1 6 29 7 30 8 91 9 31 10 90 11 32 12
REMARK SMILES IDX 33 13 34 14 84 15 35 16 89 17 83 18 85 19 36 20 88 21 82 22
REMARK SMILES IDX 81 23 37 25 69 26 49 27 68 28 50 29 53 30 67 31 86 32 51 33
REMARK SMILES IDX 52 34 66 36 87 37 54 38 38 39 39 40 47 41 40 42 41 43 45 44
REMARK SMILES IDX 48 45 42 46 43 47 46 48 44 49 70 50 71 51 79 52 72 53 73 54
REMARK SMILES IDX 77 55 80 56 74 57 75 58 78 59 76 60 55 61 56 62 64 63 57 64
REMARK SMILES IDX 58 65 62 66 65 67 59 68 60 69 63 70 61 71 7 72 8 73 9 74
REMARK SMILES IDX 10 75 11 76 12 77 13 78 17 79 14 80 16 81 15 82 18 83 19 84
REMARK SMILES IDX 20 85 21 86 28 87 22 88 27 89 23 90 26 91 24 92 25 93
REMARK H PARENT 85 24 53 35
REMARK Flexibility Score: inf
ROOT
ATOM      1  O   UNL A   1      34.690  20.706  25.637  1.00  0.00    -0.374 OA
ENDROOT
BRANCH   1   2
ATOM      2  C   UNL A   1      35.889  20.294  24.994  1.00  0.00     0.202 C 
BRANCH   2   3
ATOM      3  C   UNL A   1      36.899  21.390  24.632  1.00  0.00     0.261 C 
BRANCH   3   4
ATOM      4  O   UNL A   1      37.501  21.980  25.807  1.00  0.00    -0.460 OA
BRANCH   4   5
ATOM      5  C   UNL A   1      38.800  21.815  26.177  1.00  0.00     0.338 C 
ATOM      6  O   UNL A   1      39.333  20.707  26.152  1.00  0.00    -0.246 OA
BRANCH   5   7
ATOM      7  C   UNL A   1      39.576  22.993  26.627  1.00  0.00     0.060 A 
ATOM      8  C   UNL A   1      39.247  24.255  26.155  1.00  0.00     0.016 A 
ATOM      9  C   UNL A   1      40.615  22.875  27.548  1.00  0.00     0.016 A 
ATOM     10  C   UNL A   1      40.047  25.346  26.375  1.00  0.00     0.010 A 
ATOM     11  C   UNL A   1      41.327  24.020  27.930  1.00  0.00     0.010 A 
ATOM     12  C   UNL A   1      41.052  25.259  27.326  1.00  0.00    -0.014 A 
BRANCH  12  13
ATOM     13  C   UNL A   1      41.766  26.505  27.652  1.00  0.00     0.031 A 
ATOM     14  C   UNL A   1      41.127  27.487  28.573  1.00  0.00     0.074 A 
ATOM     15  C   UNL A   1      43.030  26.666  27.210  1.00  0.00     0.049 A 
ATOM     16  N   UNL A   1      41.503  28.699  28.872  1.00  0.00    -0.248 NA
ATOM     17  C   UNL A   1      39.894  27.050  29.247  1.00  0.00     0.031 C 
ATOM     18  C   UNL A   1      43.779  25.689  26.411  1.00  0.00     0.029 A 
ATOM     19  N   UNL A   1      43.926  27.683  27.400  1.00  0.00    -0.354 N 
ATOM     20  C   UNL A   1      40.516  29.197  29.708  1.00  0.00     0.074 A 
ATOM     21  C   UNL A   1      39.538  28.149  29.895  1.00  0.00     0.031 C 
ATOM     22  C   UNL A   1      45.032  26.125  26.231  1.00  0.00     0.029 A 
ATOM     23  C   UNL A   1      45.133  27.468  26.782  1.00  0.00     0.049 A 
ATOM     24  H   UNL A   1      43.724  28.489  27.928  1.00  0.00     0.167 HD
ATOM     25  C   UNL A   1      40.439  30.439  30.237  1.00  0.00     0.037 A 
ATOM     26  C   UNL A   1      46.180  28.296  26.617  1.00  0.00     0.037 A 
ATOM     27  C   UNL A   1      41.456  31.438  30.041  1.00  0.00     0.049 A 
ATOM     28  C   UNL A   1      46.051  29.683  27.175  1.00  0.00     0.074 A 
ATOM     29  C   UNL A   1      41.478  32.752  30.462  1.00  0.00     0.029 A 
ATOM     30  N   UNL A   1      42.651  31.208  29.365  1.00  0.00    -0.354 N 
ATOM     31  N   UNL A   1      45.062  30.204  27.863  1.00  0.00    -0.248 NA
ATOM     32  C   UNL A   1      47.156  30.608  26.908  1.00  0.00     0.031 C 
ATOM     33  C   UNL A   1      42.673  33.329  30.010  1.00  0.00     0.029 A 
ATOM     34  C   UNL A   1      43.414  32.362  29.345  1.00  0.00     0.049 A 
ATOM     35  H   UNL A   1      42.914  30.352  28.959  1.00  0.00     0.167 HD
ATOM     36  C   UNL A   1      45.417  31.519  28.108  1.00  0.00     0.074 A 
ATOM     37  C   UNL A   1      46.730  31.706  27.520  1.00  0.00     0.031 C 
ATOM     38  C   UNL A   1      44.720  32.491  28.745  1.00  0.00     0.037 A 
BRANCH  25  39
ATOM     39  C   UNL A   1      39.177  30.785  30.970  1.00  0.00     0.064 A 
ATOM     40  C   UNL A   1      38.129  31.495  30.368  1.00  0.00     0.173 A 
ATOM     41  C   UNL A   1      39.051  30.458  32.329  1.00  0.00     0.173 A 
ATOM     42  F   UNL A   1      38.214  31.862  29.081  1.00  0.00    -0.203 F 
ATOM     43  C   UNL A   1      37.020  31.900  31.109  1.00  0.00     0.198 A 
ATOM     44  C   UNL A   1      37.930  30.841  33.060  1.00  0.00     0.198 A 
ATOM     45  F   UNL A   1      40.030  29.789  32.957  1.00  0.00    -0.203 F 
ATOM     46  F   UNL A   1      36.065  32.642  30.531  1.00  0.00    -0.200 F 
ATOM     47  C   UNL A   1      36.922  31.572  32.453  1.00  0.00     0.200 A 
ATOM     48  F   UNL A   1      37.838  30.524  34.359  1.00  0.00    -0.200 F 
ATOM     49  F   UNL A   1      35.864  31.980  33.169  1.00  0.00    -0.200 F 
ENDBRANCH  25  39
BRANCH  26  50
ATOM     50  C   UNL A   1      47.361  27.858  25.826  1.00  0.00     0.064 A 
ATOM     51  C   UNL A   1      48.536  27.421  26.450  1.00  0.00     0.173 A 
ATOM     52  C   UNL A   1      47.324  27.831  24.421  1.00  0.00     0.173 A 
ATOM     53  F   UNL A   1      48.632  27.446  27.787  1.00  0.00    -0.203 F 
ATOM     54  C   UNL A   1      49.628  26.979  25.703  1.00  0.00     0.198 A 
ATOM     55  C   UNL A   1      48.402  27.356  23.677  1.00  0.00     0.198 A 
ATOM     56  F   UNL A   1      46.225  28.236  23.769  1.00  0.00    -0.203 F 
ATOM     57  F   UNL A   1      50.752  26.598  26.325  1.00  0.00    -0.200 F 
ATOM     58  C   UNL A   1      49.556  26.936  24.318  1.00  0.00     0.200 A 
ATOM     59  F   UNL A   1      48.318  27.298  22.341  1.00  0.00    -0.200 F 
ATOM     60  F   UNL A   1      50.599  26.495  23.603  1.00  0.00    -0.200 F 
ENDBRANCH  26  50
BRANCH  38  61
ATOM     61  C   UNL A   1      45.384  33.827  28.846  1.00  0.00     0.064 A 
ATOM     62  C   UNL A   1      45.133  34.838  27.908  1.00  0.00     0.173 A 
ATOM     63  C   UNL A   1      46.240  34.111  29.919  1.00  0.00     0.173 A 
ATOM     64  F   UNL A   1      44.335  34.601  26.856  1.00  0.00    -0.203 F 
ATOM     65  C   UNL A   1      45.730  36.087  28.035  1.00  0.00     0.198 A 
ATOM     66  C   UNL A   1      46.815  35.369  30.056  1.00  0.00     0.198 A 
ATOM     67  F   UNL A   1      46.504  33.172  30.839  1.00  0.00    -0.203 F 
ATOM     68  F   UNL A   1      45.507  37.031  27.110  1.00  0.00    -0.200 F 
ATOM     69  C   UNL A   1      46.563  36.354  29.112  1.00  0.00     0.200 A 
ATOM     70  F   UNL A   1      47.611  35.630  31.101  1.00  0.00    -0.200 F 
ATOM     71  F   UNL A   1      47.128  37.563  29.238  1.00  0.00    -0.200 F 
ENDBRANCH  38  61
ENDBRANCH  12  13
ENDBRANCH   5   7
ENDBRANCH   4   5
ENDBRANCH   3   4
ENDBRANCH   2   3
ENDBRANCH   1   2
BRANCH   1  72
ATOM     72  C   UNL A   1      33.515  20.698  24.819  1.00  0.00     0.202 C 
BRANCH  72  73
ATOM     73  C   UNL A   1      32.320  21.141  25.655  1.00  0.00     0.261 C 
BRANCH  73  74
ATOM     74  O   UNL A   1      32.136  22.548  25.441  1.00  0.00    -0.462 OA
BRANCH  74  75
ATOM     75  C   UNL A   1      32.392  23.372  26.499  1.00  0.00     0.328 C 
ATOM     76  O   UNL A   1      31.980  23.199  27.640  1.00  0.00    -0.250 OA
BRANCH  75  77
ATOM     77  C   UNL A   1      33.300  24.549  26.079  1.00  0.00     0.195 C 
ATOM     78  C   UNL A   1      34.546  24.113  25.288  1.00  0.00     0.037 C 
ATOM     79  N   UNL A   1      32.559  25.639  25.428  1.00  0.00    -0.323 N 
ATOM     80  C   UNL A   1      34.514  24.255  23.764  1.00  0.00     0.005 C 
ATOM     81  C   UNL A   1      32.320  25.533  23.993  1.00  0.00     0.121 C 
ATOM     82  C   UNL A   1      33.619  25.363  23.227  1.00  0.00     0.022 C 
BRANCH  79  83
ATOM     83  C   UNL A   1      31.939  26.563  26.271  1.00  0.00     0.274 C 
ATOM     84  O   UNL A   1      30.840  26.338  26.787  1.00  0.00    -0.267 OA
BRANCH  83  85
ATOM     85  C   UNL A   1      32.634  27.813  26.544  1.00  0.00     0.147 A 
ATOM     86  C   UNL A   1      32.068  29.031  26.880  1.00  0.00     0.127 A 
ATOM     87  N   UNL A   1      34.011  27.894  26.565  1.00  0.00    -0.223 NA
ATOM     88  N   UNL A   1      33.126  29.855  27.169  1.00  0.00    -0.306 N 
ATOM     89  C   UNL A   1      34.283  29.112  26.971  1.00  0.00     0.137 A 
ATOM     90  C   UNL A   1      33.129  31.178  27.607  1.00  0.00     0.093 A 
ATOM     91  C   UNL A   1      35.524  29.745  27.257  1.00  0.00     0.048 A 
ATOM     92  C   UNL A   1      34.304  31.774  27.875  1.00  0.00     0.018 A 
ATOM     93  C   UNL A   1      35.536  31.018  27.698  1.00  0.00     0.005 A 
ENDBRANCH  83  85
ENDBRANCH  79  83
ENDBRANCH  75  77
ENDBRANCH  74  75
ENDBRANCH  73  74
ENDBRANCH  72  73
ENDBRANCH   1  72
TORSDOF 16
ENDMDL
