MODEL 1
REMARK VINA RESULT:     -11.7      0.000      0.000
REMARK SMILES C[C@@H](C(=O)OCCOCCOC(=O)c1ccc(-c2c3nc(c(-c4c(F)c(F)c(F)c(F)c4F)c4ccc([nH]4)c(-c4c(F)c(F)c(F)c(F)c4F)c4nc(c(-c5c(F)c(F)c(F)c(F)c5F)c5ccc2[nH]5)C=C4)C=C3)cc1)c1ccc(O[C@H]2CCCC2=O)cc1F
REMARK SMILES IDX 7 1 6 2 5 3 3 4 4 5 2 6 1 7 77 8 78 9 89 10 79 11 88 12
REMARK SMILES IDX 90 13 80 14 81 15 82 16 83 17 86 18 84 19 85 20 87 21 8 22
REMARK SMILES IDX 9 23 10 24 11 25 12 26 13 27 14 28 15 29 76 30 16 31 75 32
REMARK SMILES IDX 17 33 18 34 19 35 69 36 20 37 74 38 68 39 70 40 21 41 73 42
REMARK SMILES IDX 67 43 66 44 22 46 54 47 34 48 53 49 35 50 38 51 52 52 71 53
REMARK SMILES IDX 36 54 37 55 51 57 72 58 39 59 23 60 24 61 32 62 25 63 26 64
REMARK SMILES IDX 30 65 33 66 27 67 28 68 31 69 29 70 55 71 56 72 64 73 57 74
REMARK SMILES IDX 58 75 62 76 65 77 59 78 60 79 63 80 61 81 40 82 41 83 49 84
REMARK SMILES IDX 42 85 43 86 47 87 50 88 44 89 45 90 48 91 46 92
REMARK H PARENT 70 45 38 56
REMARK Flexibility Score: inf
ROOT
ATOM      1  C   UNL A   1      31.703  28.229  26.833  1.00  0.00     0.202 C 
ENDROOT
BRANCH   1   2
ATOM      2  C   UNL A   1      31.256  27.000  26.033  1.00  0.00     0.261 C 
BRANCH   2   3
ATOM      3  O   UNL A   1      31.430  25.801  26.819  1.00  0.00    -0.463 OA
BRANCH   3   4
ATOM      4  C   UNL A   1      30.978  24.645  26.261  1.00  0.00     0.313 C 
ATOM      5  O   UNL A   1      30.162  23.901  26.794  1.00  0.00    -0.252 OA
BRANCH   4   6
ATOM      6  C   UNL A   1      31.609  24.356  24.893  1.00  0.00     0.129 C 
ATOM      7  C   UNL A   1      30.652  24.462  23.700  1.00  0.00     0.025 C 
BRANCH   6   8
ATOM      8  C   UNL A   1      32.356  23.028  24.932  1.00  0.00     0.002 A 
ATOM      9  C   UNL A   1      31.982  21.985  24.078  1.00  0.00     0.011 A 
ATOM     10  C   UNL A   1      33.484  22.827  25.735  1.00  0.00     0.130 A 
ATOM     11  C   UNL A   1      32.740  20.809  24.022  1.00  0.00     0.047 A 
ATOM     12  C   UNL A   1      34.255  21.666  25.667  1.00  0.00     0.086 A 
ATOM     13  F   UNL A   1      33.865  23.761  26.612  1.00  0.00    -0.207 F 
ATOM     14  C   UNL A   1      33.898  20.653  24.790  1.00  0.00     0.123 A 
BRANCH  14  15
ATOM     15  O   UNL A   1      34.539  19.464  24.626  1.00  0.00    -0.483 OA
BRANCH  15  16
ATOM     16  C   UNL A   1      33.828  18.280  24.350  1.00  0.00     0.239 C 
ATOM     17  C   UNL A   1      34.696  17.143  23.783  1.00  0.00     0.054 C 
ATOM     18  C   UNL A   1      32.903  17.564  25.333  1.00  0.00     0.173 C 
ATOM     19  C   UNL A   1      34.369  15.885  24.584  1.00  0.00     0.012 C 
ATOM     20  C   UNL A   1      32.977  16.073  25.167  1.00  0.00     0.080 C 
ATOM     21  O   UNL A   1      32.153  18.119  26.126  1.00  0.00    -0.296 OA
ENDBRANCH  15  16
ENDBRANCH  14  15
ENDBRANCH   6   8
ENDBRANCH   4   6
ENDBRANCH   3   4
ENDBRANCH   2   3
ENDBRANCH   1   2
BRANCH   1  22
ATOM     22  O   UNL A   1      32.302  29.286  26.073  1.00  0.00    -0.374 OA
BRANCH  22  23
ATOM     23  C   UNL A   1      31.455  30.383  25.740  1.00  0.00     0.202 C 
BRANCH  23  24
ATOM     24  C   UNL A   1      31.711  31.690  26.501  1.00  0.00     0.261 C 
BRANCH  24  25
ATOM     25  O   UNL A   1      32.647  31.513  27.574  1.00  0.00    -0.460 OA
BRANCH  25  26
ATOM     26  C   UNL A   1      33.546  32.517  27.687  1.00  0.00     0.338 C 
ATOM     27  O   UNL A   1      33.335  33.721  27.626  1.00  0.00    -0.246 OA
BRANCH  26  28
ATOM     28  C   UNL A   1      34.857  31.971  28.074  1.00  0.00     0.060 A 
ATOM     29  C   UNL A   1      34.926  30.595  28.317  1.00  0.00     0.016 A 
ATOM     30  C   UNL A   1      35.977  32.787  28.257  1.00  0.00     0.016 A 
ATOM     31  C   UNL A   1      36.103  30.033  28.801  1.00  0.00     0.010 A 
ATOM     32  C   UNL A   1      37.157  32.222  28.751  1.00  0.00     0.010 A 
ATOM     33  C   UNL A   1      37.209  30.851  29.061  1.00  0.00    -0.014 A 
BRANCH  33  34
ATOM     34  C   UNL A   1      38.357  30.288  29.810  1.00  0.00     0.031 A 
ATOM     35  C   UNL A   1      38.555  30.698  31.243  1.00  0.00     0.074 A 
ATOM     36  C   UNL A   1      39.172  29.385  29.241  1.00  0.00     0.049 A 
ATOM     37  N   UNL A   1      39.474  30.322  32.095  1.00  0.00    -0.248 NA
ATOM     38  C   UNL A   1      37.585  31.659  31.790  1.00  0.00     0.031 C 
ATOM     39  C   UNL A   1      39.051  28.883  27.874  1.00  0.00     0.029 A 
ATOM     40  N   UNL A   1      40.265  28.728  29.747  1.00  0.00    -0.354 N 
ATOM     41  C   UNL A   1      39.195  31.000  33.274  1.00  0.00     0.074 A 
ATOM     42  C   UNL A   1      38.040  31.835  33.021  1.00  0.00     0.031 C 
ATOM     43  C   UNL A   1      40.034  27.995  27.648  1.00  0.00     0.029 A 
ATOM     44  C   UNL A   1      40.868  27.888  28.844  1.00  0.00     0.049 A 
ATOM     45  H   UNL A   1      40.586  28.847  30.670  1.00  0.00     0.167 HD
ATOM     46  C   UNL A   1      39.838  30.926  34.463  1.00  0.00     0.037 A 
ATOM     47  C   UNL A   1      41.975  27.131  28.971  1.00  0.00     0.037 A 
ATOM     48  C   UNL A   1      40.983  30.092  34.711  1.00  0.00     0.049 A 
ATOM     49  C   UNL A   1      42.712  27.119  30.284  1.00  0.00     0.074 A 
ATOM     50  C   UNL A   1      41.693  29.927  35.887  1.00  0.00     0.029 A 
ATOM     51  N   UNL A   1      41.592  29.287  33.759  1.00  0.00    -0.354 N 
ATOM     52  N   UNL A   1      42.423  27.739  31.404  1.00  0.00    -0.248 NA
ATOM     53  C   UNL A   1      43.930  26.299  30.353  1.00  0.00     0.031 C 
ATOM     54  C   UNL A   1      42.762  29.060  35.635  1.00  0.00     0.029 A 
ATOM     55  C   UNL A   1      42.688  28.645  34.314  1.00  0.00     0.049 A 
ATOM     56  H   UNL A   1      41.291  29.187  32.828  1.00  0.00     0.167 HD
ATOM     57  C   UNL A   1      43.402  27.362  32.314  1.00  0.00     0.074 A 
ATOM     58  C   UNL A   1      44.288  26.451  31.619  1.00  0.00     0.031 C 
ATOM     59  C   UNL A   1      43.553  27.735  33.609  1.00  0.00     0.037 A 
BRANCH  46  60
ATOM     60  C   UNL A   1      39.333  31.792  35.578  1.00  0.00     0.064 A 
ATOM     61  C   UNL A   1      38.402  31.320  36.516  1.00  0.00     0.173 A 
ATOM     62  C   UNL A   1      39.808  33.103  35.728  1.00  0.00     0.173 A 
ATOM     63  F   UNL A   1      37.906  30.078  36.408  1.00  0.00    -0.203 F 
ATOM     64  C   UNL A   1      37.950  32.137  37.549  1.00  0.00     0.198 A 
ATOM     65  C   UNL A   1      39.374  33.908  36.777  1.00  0.00     0.198 A 
ATOM     66  F   UNL A   1      40.700  33.602  34.860  1.00  0.00    -0.203 F 
ATOM     67  F   UNL A   1      37.028  31.680  38.408  1.00  0.00    -0.200 F 
ATOM     68  C   UNL A   1      38.441  33.427  37.683  1.00  0.00     0.200 A 
ATOM     69  F   UNL A   1      39.857  35.151  36.911  1.00  0.00    -0.200 F 
ATOM     70  F   UNL A   1      38.009  34.210  38.680  1.00  0.00    -0.200 F 
ENDBRANCH  46  60
BRANCH  47  71
ATOM     71  C   UNL A   1      42.457  26.324  27.821  1.00  0.00     0.064 A 
ATOM     72  C   UNL A   1      43.428  26.822  26.942  1.00  0.00     0.173 A 
ATOM     73  C   UNL A   1      41.944  25.043  27.568  1.00  0.00     0.173 A 
ATOM     74  F   UNL A   1      43.931  28.052  27.127  1.00  0.00    -0.203 F 
ATOM     75  C   UNL A   1      43.855  26.078  25.844  1.00  0.00     0.198 A 
ATOM     76  C   UNL A   1      42.391  24.288  26.486  1.00  0.00     0.198 A 
ATOM     77  F   UNL A   1      41.010  24.521  28.377  1.00  0.00    -0.203 F 
ATOM     78  F   UNL A   1      44.752  26.596  24.994  1.00  0.00    -0.200 F 
ATOM     79  C   UNL A   1      43.341  24.810  25.620  1.00  0.00     0.200 A 
ATOM     80  F   UNL A   1      41.898  23.059  26.279  1.00  0.00    -0.200 F 
ATOM     81  F   UNL A   1      43.754  24.093  24.566  1.00  0.00    -0.200 F 
ENDBRANCH  47  71
BRANCH  59  82
ATOM     82  C   UNL A   1      44.699  27.134  34.369  1.00  0.00     0.064 A 
ATOM     83  C   UNL A   1      45.943  27.774  34.456  1.00  0.00     0.173 A 
ATOM     84  C   UNL A   1      44.533  25.923  35.059  1.00  0.00     0.173 A 
ATOM     85  F   UNL A   1      46.155  28.926  33.802  1.00  0.00    -0.203 F 
ATOM     86  C   UNL A   1      46.988  27.212  35.184  1.00  0.00     0.198 A 
ATOM     87  C   UNL A   1      45.570  25.378  35.810  1.00  0.00     0.198 A 
ATOM     88  F   UNL A   1      43.360  25.274  35.015  1.00  0.00    -0.203 F 
ATOM     89  F   UNL A   1      48.182  27.818  35.215  1.00  0.00    -0.200 F 
ATOM     90  C   UNL A   1      46.799  26.019  35.867  1.00  0.00     0.200 A 
ATOM     91  F   UNL A   1      45.382  24.233  36.480  1.00  0.00    -0.200 F 
ATOM     92  F   UNL A   1      47.803  25.484  36.574  1.00  0.00    -0.200 F 
ENDBRANCH  59  82
ENDBRANCH  33  34
ENDBRANCH  26  28
ENDBRANCH  25  26
ENDBRANCH  24  25
ENDBRANCH  23  24
ENDBRANCH  22  23
ENDBRANCH   1  22
TORSDOF 17
ENDMDL
MODEL 2
REMARK VINA RESULT:     -11.5      4.443     10.616
REMARK SMILES C[C@@H](C(=O)OCCOCCOC(=O)c1ccc(-c2c3nc(c(-c4c(F)c(F)c(F)c(F)c4F)c4ccc([nH]4)c(-c4c(F)c(F)c(F)c(F)c4F)c4nc(c(-c5c(F)c(F)c(F)c(F)c5F)c5ccc2[nH]5)C=C4)C=C3)cc1)c1ccc(O[C@H]2CCCC2=O)cc1F
REMARK SMILES IDX 7 1 6 2 5 3 3 4 4 5 2 6 1 7 77 8 78 9 89 10 79 11 88 12
REMARK SMILES IDX 90 13 80 14 81 15 82 16 83 17 86 18 84 19 85 20 87 21 8 22
REMARK SMILES IDX 9 23 10 24 11 25 12 26 13 27 14 28 15 29 76 30 16 31 75 32
REMARK SMILES IDX 17 33 18 34 19 35 69 36 20 37 74 38 68 39 70 40 21 41 73 42
REMARK SMILES IDX 67 43 66 44 22 46 54 47 34 48 53 49 35 50 38 51 52 52 71 53
REMARK SMILES IDX 36 54 37 55 51 57 72 58 39 59 23 60 24 61 32 62 25 63 26 64
REMARK SMILES IDX 30 65 33 66 27 67 28 68 31 69 29 70 55 71 56 72 64 73 57 74
REMARK SMILES IDX 58 75 62 76 65 77 59 78 60 79 63 80 61 81 40 82 41 83 49 84
REMARK SMILES IDX 42 85 43 86 47 87 50 88 44 89 45 90 48 91 46 92
REMARK H PARENT 70 45 38 56
REMARK Flexibility Score: inf
ROOT
ATOM      1  C   UNL A   1      37.193  22.412  24.748  1.00  0.00     0.202 C 
ENDROOT
BRANCH   1   2
ATOM      2  C   UNL A   1      36.840  23.698  25.505  1.00  0.00     0.261 C 
BRANCH   2   3
ATOM      3  O   UNL A   1      35.698  24.339  24.896  1.00  0.00    -0.463 OA
BRANCH   3   4
ATOM      4  C   UNL A   1      34.481  24.011  25.409  1.00  0.00     0.313 C 
ATOM      5  O   UNL A   1      34.305  23.616  26.557  1.00  0.00    -0.252 OA
BRANCH   4   6
ATOM      6  C   UNL A   1      33.342  24.170  24.393  1.00  0.00     0.129 C 
ATOM      7  C   UNL A   1      33.708  23.824  22.946  1.00  0.00     0.025 C 
BRANCH   6   8
ATOM      8  C   UNL A   1      32.711  25.552  24.527  1.00  0.00     0.002 A 
ATOM      9  C   UNL A   1      33.072  26.577  23.647  1.00  0.00     0.011 A 
ATOM     10  C   UNL A   1      31.698  25.826  25.452  1.00  0.00     0.130 A 
ATOM     11  C   UNL A   1      32.409  27.810  23.686  1.00  0.00     0.047 A 
ATOM     12  C   UNL A   1      31.019  27.045  25.481  1.00  0.00     0.086 A 
ATOM     13  F   UNL A   1      31.342  24.909  26.357  1.00  0.00    -0.207 F 
ATOM     14  C   UNL A   1      31.358  28.042  24.579  1.00  0.00     0.123 A 
BRANCH  14  15
ATOM     15  O   UNL A   1      30.799  29.280  24.499  1.00  0.00    -0.483 OA
BRANCH  15  16
ATOM     16  C   UNL A   1      29.891  29.609  23.473  1.00  0.00     0.239 C 
ATOM     17  C   UNL A   1      29.007  28.436  23.016  1.00  0.00     0.054 C 
ATOM     18  C   UNL A   1      28.924  30.791  23.505  1.00  0.00     0.173 C 
ATOM     19  C   UNL A   1      27.566  28.941  22.990  1.00  0.00     0.012 C 
ATOM     20  C   UNL A   1      27.623  30.453  22.833  1.00  0.00     0.080 C 
ATOM     21  O   UNL A   1      29.176  31.895  23.970  1.00  0.00    -0.296 OA
ENDBRANCH  15  16
ENDBRANCH  14  15
ENDBRANCH   6   8
ENDBRANCH   4   6
ENDBRANCH   3   4
ENDBRANCH   2   3
ENDBRANCH   1   2
BRANCH   1  22
ATOM     22  O   UNL A   1      37.276  21.223  25.542  1.00  0.00    -0.374 OA
BRANCH  22  23
ATOM     23  C   UNL A   1      37.754  20.053  24.881  1.00  0.00     0.202 C 
BRANCH  23  24
ATOM     24  C   UNL A   1      39.072  19.472  25.406  1.00  0.00     0.261 C 
BRANCH  24  25
ATOM     25  O   UNL A   1      39.506  20.121  26.609  1.00  0.00    -0.460 OA
BRANCH  25  26
ATOM     26  C   UNL A   1      40.832  20.390  26.639  1.00  0.00     0.338 C 
ATOM     27  O   UNL A   1      41.745  19.701  26.204  1.00  0.00    -0.246 OA
BRANCH  26  28
ATOM     28  C   UNL A   1      41.053  21.756  27.138  1.00  0.00     0.060 A 
ATOM     29  C   UNL A   1      40.433  22.797  26.437  1.00  0.00     0.016 A 
ATOM     30  C   UNL A   1      41.891  22.025  28.223  1.00  0.00     0.016 A 
ATOM     31  C   UNL A   1      40.695  24.119  26.781  1.00  0.00     0.010 A 
ATOM     32  C   UNL A   1      42.159  23.355  28.564  1.00  0.00     0.010 A 
ATOM     33  C   UNL A   1      41.592  24.404  27.818  1.00  0.00    -0.014 A 
BRANCH  33  34
ATOM     34  C   UNL A   1      42.054  25.800  28.002  1.00  0.00     0.031 A 
ATOM     35  C   UNL A   1      43.378  26.206  27.418  1.00  0.00     0.074 A 
ATOM     36  C   UNL A   1      41.282  26.702  28.631  1.00  0.00     0.049 A 
ATOM     37  N   UNL A   1      43.974  27.370  27.438  1.00  0.00    -0.248 NA
ATOM     38  C   UNL A   1      44.131  25.157  26.711  1.00  0.00     0.031 C 
ATOM     39  C   UNL A   1      39.964  26.432  29.201  1.00  0.00     0.029 A 
ATOM     40  N   UNL A   1      41.498  28.031  28.891  1.00  0.00    -0.354 N 
ATOM     41  C   UNL A   1      45.168  27.195  26.753  1.00  0.00     0.074 A 
ATOM     42  C   UNL A   1      45.230  25.805  26.354  1.00  0.00     0.031 C 
ATOM     43  C   UNL A   1      39.487  27.563  29.747  1.00  0.00     0.029 A 
ATOM     44  C   UNL A   1      40.477  28.627  29.589  1.00  0.00     0.049 A 
ATOM     45  H   UNL A   1      42.307  28.512  28.604  1.00  0.00     0.167 HD
ATOM     46  C   UNL A   1      46.123  28.113  26.472  1.00  0.00     0.037 A 
ATOM     47  C   UNL A   1      40.366  29.886  30.055  1.00  0.00     0.037 A 
ATOM     48  C   UNL A   1      46.056  29.494  26.867  1.00  0.00     0.049 A 
ATOM     49  C   UNL A   1      41.474  30.870  29.789  1.00  0.00     0.074 A 
ATOM     50  C   UNL A   1      46.960  30.510  26.612  1.00  0.00     0.029 A 
ATOM     51  N   UNL A   1      45.026  30.052  27.610  1.00  0.00    -0.354 N 
ATOM     52  N   UNL A   1      42.586  30.705  29.112  1.00  0.00    -0.248 NA
ATOM     53  C   UNL A   1      41.311  32.219  30.349  1.00  0.00     0.031 C 
ATOM     54  C   UNL A   1      46.502  31.671  27.243  1.00  0.00     0.029 A 
ATOM     55  C   UNL A   1      45.286  31.391  27.849  1.00  0.00     0.049 A 
ATOM     56  H   UNL A   1      44.228  29.567  27.923  1.00  0.00     0.167 HD
ATOM     57  C   UNL A   1      43.237  31.930  29.140  1.00  0.00     0.074 A 
ATOM     58  C   UNL A   1      42.392  32.834  29.893  1.00  0.00     0.031 C 
ATOM     59  C   UNL A   1      44.428  32.278  28.593  1.00  0.00     0.037 A 
BRANCH  46  60
ATOM     60  C   UNL A   1      47.336  27.644  25.725  1.00  0.00     0.064 A 
ATOM     61  C   UNL A   1      47.394  27.664  24.323  1.00  0.00     0.173 A 
ATOM     62  C   UNL A   1      48.467  27.195  26.422  1.00  0.00     0.173 A 
ATOM     63  F   UNL A   1      46.333  28.071  23.610  1.00  0.00    -0.203 F 
ATOM     64  C   UNL A   1      48.532  27.230  23.648  1.00  0.00     0.198 A 
ATOM     65  C   UNL A   1      49.613  26.787  25.745  1.00  0.00     0.198 A 
ATOM     66  F   UNL A   1      48.465  27.157  27.763  1.00  0.00    -0.203 F 
ATOM     67  F   UNL A   1      48.549  27.218  22.307  1.00  0.00    -0.200 F 
ATOM     68  C   UNL A   1      49.642  26.799  24.358  1.00  0.00     0.200 A 
ATOM     69  F   UNL A   1      50.688  26.380  26.433  1.00  0.00    -0.200 F 
ATOM     70  F   UNL A   1      50.738  26.388  23.707  1.00  0.00    -0.200 F 
ENDBRANCH  46  60
BRANCH  47  71
ATOM     71  C   UNL A   1      39.161  30.288  30.827  1.00  0.00     0.064 A 
ATOM     72  C   UNL A   1      38.038  30.826  30.186  1.00  0.00     0.173 A 
ATOM     73  C   UNL A   1      39.117  30.157  32.223  1.00  0.00     0.173 A 
ATOM     74  F   UNL A   1      38.042  30.995  28.856  1.00  0.00    -0.203 F 
ATOM     75  C   UNL A   1      36.922  31.235  30.914  1.00  0.00     0.198 A 
ATOM     76  C   UNL A   1      37.990  30.540  32.947  1.00  0.00     0.198 A 
ATOM     77  F   UNL A   1      40.168  29.650  32.885  1.00  0.00    -0.203 F 
ATOM     78  F   UNL A   1      35.878  31.788  30.281  1.00  0.00    -0.200 F 
ATOM     79  C   UNL A   1      36.896  31.086  32.292  1.00  0.00     0.200 A 
ATOM     80  F   UNL A   1      37.966  30.385  34.277  1.00  0.00    -0.200 F 
ATOM     81  F   UNL A   1      35.822  31.476  32.991  1.00  0.00    -0.200 F 
ENDBRANCH  47  71
BRANCH  59  82
ATOM     82  C   UNL A   1      44.873  33.702  28.756  1.00  0.00     0.064 A 
ATOM     83  C   UNL A   1      45.683  34.103  29.827  1.00  0.00     0.173 A 
ATOM     84  C   UNL A   1      44.519  34.668  27.801  1.00  0.00     0.173 A 
ATOM     85  F   UNL A   1      46.035  33.219  30.774  1.00  0.00    -0.203 F 
ATOM     86  C   UNL A   1      46.104  35.424  29.951  1.00  0.00     0.198 A 
ATOM     87  C   UNL A   1      44.966  35.981  27.912  1.00  0.00     0.198 A 
ATOM     88  F   UNL A   1      43.752  34.335  26.752  1.00  0.00    -0.203 F 
ATOM     89  F   UNL A   1      46.840  35.794  31.007  1.00  0.00    -0.200 F 
ATOM     90  C   UNL A   1      45.752  36.360  28.989  1.00  0.00     0.200 A 
ATOM     91  F   UNL A   1      44.636  36.881  26.975  1.00  0.00    -0.200 F 
ATOM     92  F   UNL A   1      46.164  37.629  29.106  1.00  0.00    -0.200 F 
ENDBRANCH  59  82
ENDBRANCH  33  34
ENDBRANCH  26  28
ENDBRANCH  25  26
ENDBRANCH  24  25
ENDBRANCH  23  24
ENDBRANCH  22  23
ENDBRANCH   1  22
TORSDOF 17
ENDMDL
MODEL 3
REMARK VINA RESULT:     -11.5      2.820      4.782
REMARK SMILES C[C@@H](C(=O)OCCOCCOC(=O)c1ccc(-c2c3nc(c(-c4c(F)c(F)c(F)c(F)c4F)c4ccc([nH]4)c(-c4c(F)c(F)c(F)c(F)c4F)c4nc(c(-c5c(F)c(F)c(F)c(F)c5F)c5ccc2[nH]5)C=C4)C=C3)cc1)c1ccc(O[C@H]2CCCC2=O)cc1F
REMARK SMILES IDX 7 1 6 2 5 3 3 4 4 5 2 6 1 7 77 8 78 9 89 10 79 11 88 12
REMARK SMILES IDX 90 13 80 14 81 15 82 16 83 17 86 18 84 19 85 20 87 21 8 22
REMARK SMILES IDX 9 23 10 24 11 25 12 26 13 27 14 28 15 29 76 30 16 31 75 32
REMARK SMILES IDX 17 33 18 34 19 35 69 36 20 37 74 38 68 39 70 40 21 41 73 42
REMARK SMILES IDX 67 43 66 44 22 46 54 47 34 48 53 49 35 50 38 51 52 52 71 53
REMARK SMILES IDX 36 54 37 55 51 57 72 58 39 59 23 60 24 61 32 62 25 63 26 64
REMARK SMILES IDX 30 65 33 66 27 67 28 68 31 69 29 70 55 71 56 72 64 73 57 74
REMARK SMILES IDX 58 75 62 76 65 77 59 78 60 79 63 80 61 81 40 82 41 83 49 84
REMARK SMILES IDX 42 85 43 86 47 87 50 88 44 89 45 90 48 91 46 92
REMARK H PARENT 70 45 38 56
REMARK Flexibility Score: inf
ROOT
ATOM      1  C   UNL A   1      35.556  33.426  28.056  1.00  0.00     0.202 C 
ENDROOT
BRANCH   1   2
ATOM      2  C   UNL A   1      35.548  31.895  28.127  1.00  0.00     0.261 C 
BRANCH   2   3
ATOM      3  O   UNL A   1      34.235  31.388  27.800  1.00  0.00    -0.463 OA
BRANCH   3   4
ATOM      4  C   UNL A   1      34.192  30.153  27.230  1.00  0.00     0.313 C 
ATOM      5  O   UNL A   1      34.964  29.242  27.510  1.00  0.00    -0.252 OA
BRANCH   4   6
ATOM      6  C   UNL A   1      33.081  30.018  26.180  1.00  0.00     0.129 C 
ATOM      7  C   UNL A   1      31.784  30.766  26.505  1.00  0.00     0.025 C 
BRANCH   6   8
ATOM      8  C   UNL A   1      32.847  28.547  25.853  1.00  0.00     0.002 A 
ATOM      9  C   UNL A   1      31.920  27.803  26.589  1.00  0.00     0.011 A 
ATOM     10  C   UNL A   1      33.462  27.914  24.767  1.00  0.00     0.130 A 
ATOM     11  C   UNL A   1      31.610  26.488  26.217  1.00  0.00     0.047 A 
ATOM     12  C   UNL A   1      33.141  26.613  24.378  1.00  0.00     0.086 A 
ATOM     13  F   UNL A   1      34.397  28.550  24.053  1.00  0.00    -0.207 F 
ATOM     14  C   UNL A   1      32.193  25.896  25.091  1.00  0.00     0.123 A 
BRANCH  14  15
ATOM     15  O   UNL A   1      31.791  24.620  24.843  1.00  0.00    -0.483 OA
BRANCH  15  16
ATOM     16  C   UNL A   1      32.367  23.525  25.518  1.00  0.00     0.239 C 
ATOM     17  C   UNL A   1      33.889  23.405  25.338  1.00  0.00     0.054 C 
ATOM     18  C   UNL A   1      32.157  23.201  26.996  1.00  0.00     0.173 C 
ATOM     19  C   UNL A   1      34.493  23.208  26.727  1.00  0.00     0.012 C 
ATOM     20  C   UNL A   1      33.402  22.628  27.612  1.00  0.00     0.080 C 
ATOM     21  O   UNL A   1      31.103  23.336  27.605  1.00  0.00    -0.296 OA
ENDBRANCH  15  16
ENDBRANCH  14  15
ENDBRANCH   6   8
ENDBRANCH   4   6
ENDBRANCH   3   4
ENDBRANCH   2   3
ENDBRANCH   1   2
BRANCH   1  22
ATOM     22  O   UNL A   1      34.655  34.097  28.946  1.00  0.00    -0.374 OA
BRANCH  22  23
ATOM     23  C   UNL A   1      33.850  35.125  28.374  1.00  0.00     0.202 C 
BRANCH  23  24
ATOM     24  C   UNL A   1      32.906  35.858  29.334  1.00  0.00     0.261 C 
BRANCH  24  25
ATOM     25  O   UNL A   1      32.532  35.039  30.451  1.00  0.00    -0.460 OA
BRANCH  25  26
ATOM     26  C   UNL A   1      32.781  35.606  31.653  1.00  0.00     0.338 C 
ATOM     27  O   UNL A   1      32.120  36.459  32.230  1.00  0.00    -0.246 OA
BRANCH  26  28
ATOM     28  C   UNL A   1      33.914  34.925  32.301  1.00  0.00     0.060 A 
ATOM     29  C   UNL A   1      35.133  35.612  32.337  1.00  0.00     0.016 A 
ATOM     30  C   UNL A   1      33.809  33.626  32.807  1.00  0.00     0.016 A 
ATOM     31  C   UNL A   1      36.272  34.981  32.826  1.00  0.00     0.010 A 
ATOM     32  C   UNL A   1      34.957  32.991  33.293  1.00  0.00     0.010 A 
ATOM     33  C   UNL A   1      36.197  33.653  33.266  1.00  0.00    -0.014 A 
BRANCH  33  34
ATOM     34  C   UNL A   1      37.454  32.918  33.541  1.00  0.00     0.031 A 
ATOM     35  C   UNL A   1      38.182  33.188  34.828  1.00  0.00     0.074 A 
ATOM     36  C   UNL A   1      37.907  31.987  32.684  1.00  0.00     0.049 A 
ATOM     37  N   UNL A   1      39.285  32.654  35.287  1.00  0.00    -0.248 NA
ATOM     38  C   UNL A   1      37.584  34.194  35.720  1.00  0.00     0.031 C 
ATOM     39  C   UNL A   1      37.263  31.613  31.428  1.00  0.00     0.029 A 
ATOM     40  N   UNL A   1      39.018  31.185  32.747  1.00  0.00    -0.354 N 
ATOM     41  C   UNL A   1      39.513  33.259  36.515  1.00  0.00     0.074 A 
ATOM     42  C   UNL A   1      38.453  34.223  36.719  1.00  0.00     0.031 C 
ATOM     43  C   UNL A   1      37.992  30.652  30.835  1.00  0.00     0.029 A 
ATOM     44  C   UNL A   1      39.166  30.365  31.657  1.00  0.00     0.049 A 
ATOM     45  H   UNL A   1      39.649  31.196  33.503  1.00  0.00     0.167 HD
ATOM     46  C   UNL A   1      40.512  33.024  37.399  1.00  0.00     0.037 A 
ATOM     47  C   UNL A   1      40.148  29.493  31.355  1.00  0.00     0.037 A 
ATOM     48  C   UNL A   1      41.562  32.062  37.194  1.00  0.00     0.049 A 
ATOM     49  C   UNL A   1      41.285  29.301  32.324  1.00  0.00     0.074 A 
ATOM     50  C   UNL A   1      42.607  31.731  38.039  1.00  0.00     0.029 A 
ATOM     51  N   UNL A   1      41.703  31.280  36.057  1.00  0.00    -0.354 N 
ATOM     52  N   UNL A   1      41.477  29.853  33.498  1.00  0.00    -0.248 NA
ATOM     53  C   UNL A   1      42.342  28.359  31.926  1.00  0.00     0.031 C 
ATOM     54  C   UNL A   1      43.409  30.786  37.391  1.00  0.00     0.029 A 
ATOM     55  C   UNL A   1      42.835  30.489  36.165  1.00  0.00     0.049 A 
ATOM     56  H   UNL A   1      41.090  31.287  35.287  1.00  0.00     0.167 HD
ATOM     57  C   UNL A   1      42.654  29.307  33.990  1.00  0.00     0.074 A 
ATOM     58  C   UNL A   1      43.129  28.372  32.992  1.00  0.00     0.031 C 
ATOM     59  C   UNL A   1      43.287  29.557  35.164  1.00  0.00     0.037 A 
BRANCH  46  60
ATOM     60  C   UNL A   1      40.532  33.843  38.655  1.00  0.00     0.064 A 
ATOM     61  C   UNL A   1      39.834  33.446  39.806  1.00  0.00     0.173 A 
ATOM     62  C   UNL A   1      41.282  35.026  38.718  1.00  0.00     0.173 A 
ATOM     63  F   UNL A   1      39.090  32.330  39.793  1.00  0.00    -0.203 F 
ATOM     64  C   UNL A   1      39.869  34.216  40.965  1.00  0.00     0.198 A 
ATOM     65  C   UNL A   1      41.337  35.780  39.887  1.00  0.00     0.198 A 
ATOM     66  F   UNL A   1      41.969  35.449  37.646  1.00  0.00    -0.203 F 
ATOM     67  F   UNL A   1      39.160  33.840  42.040  1.00  0.00    -0.200 F 
ATOM     68  C   UNL A   1      40.626  35.378  41.007  1.00  0.00     0.200 A 
ATOM     69  F   UNL A   1      42.077  36.897  39.929  1.00  0.00    -0.200 F 
ATOM     70  F   UNL A   1      40.664  36.115  42.126  1.00  0.00    -0.200 F 
ENDBRANCH  46  60
BRANCH  47  71
ATOM     71  C   UNL A   1      40.102  28.738  30.076  1.00  0.00     0.064 A 
ATOM     72  C   UNL A   1      39.475  27.488  29.996  1.00  0.00     0.173 A 
ATOM     73  C   UNL A   1      40.701  29.244  28.913  1.00  0.00     0.173 A 
ATOM     74  F   UNL A   1      38.910  26.950  31.087  1.00  0.00    -0.203 F 
ATOM     75  C   UNL A   1      39.462  26.764  28.804  1.00  0.00     0.198 A 
ATOM     76  C   UNL A   1      40.665  28.532  27.716  1.00  0.00     0.198 A 
ATOM     77  F   UNL A   1      41.318  30.435  28.938  1.00  0.00    -0.203 F 
ATOM     78  F   UNL A   1      38.894  25.552  28.766  1.00  0.00    -0.200 F 
ATOM     79  C   UNL A   1      40.052  27.289  27.665  1.00  0.00     0.200 A 
ATOM     80  F   UNL A   1      41.227  29.048  26.614  1.00  0.00    -0.200 F 
ATOM     81  F   UNL A   1      40.037  26.595  26.519  1.00  0.00    -0.200 F 
ENDBRANCH  47  71
BRANCH  59  82
ATOM     82  C   UNL A   1      44.541  28.784  35.448  1.00  0.00     0.064 A 
ATOM     83  C   UNL A   1      45.807  29.279  35.102  1.00  0.00     0.173 A 
ATOM     84  C   UNL A   1      44.478  27.553  36.119  1.00  0.00     0.173 A 
ATOM     85  F   UNL A   1      45.918  30.445  34.446  1.00  0.00    -0.203 F 
ATOM     86  C   UNL A   1      46.962  28.558  35.393  1.00  0.00     0.198 A 
ATOM     87  C   UNL A   1      45.636  26.848  36.434  1.00  0.00     0.198 A 
ATOM     88  F   UNL A   1      43.293  27.039  36.479  1.00  0.00    -0.203 F 
ATOM     89  F   UNL A   1      48.156  29.028  35.012  1.00  0.00    -0.200 F 
ATOM     90  C   UNL A   1      46.876  27.348  36.066  1.00  0.00     0.200 A 
ATOM     91  F   UNL A   1      45.553  25.686  37.096  1.00  0.00    -0.200 F 
ATOM     92  F   UNL A   1      47.989  26.660  36.352  1.00  0.00    -0.200 F 
ENDBRANCH  59  82
ENDBRANCH  33  34
ENDBRANCH  26  28
ENDBRANCH  25  26
ENDBRANCH  24  25
ENDBRANCH  23  24
ENDBRANCH  22  23
ENDBRANCH   1  22
TORSDOF 17
ENDMDL
