MODEL 1
REMARK VINA RESULT:     -11.0      0.000      0.000
REMARK SMILES COc1ccc(C(=O)N(C)CCC(=O)OCCOCCOC(=O)c2ccc(-c3c4nc(c(-c5c(F)c(F)c(F)c(F)c5F)c5ccc([nH]5)c(-c5c(F)c(F)c(F)c(F)c5F)c5nc(c(-c6c(F)c(F)c(F)c(F)c6F)c6ccc3[nH]6)C=C5)C=C4)cc2)cc1O
REMARK SMILES IDX 16 1 15 2 13 3 14 4 12 5 11 6 9 7 10 8 7 9 8 10 6 11 3 12
REMARK SMILES IDX 4 13 88 14 5 15 87 16 2 17 1 18 89 19 17 21 18 22 19 23
REMARK SMILES IDX 20 24 21 25 22 26 23 27 24 28 25 29 86 30 26 31 85 32 27 33
REMARK SMILES IDX 28 34 29 35 79 36 30 37 84 38 78 39 80 40 31 41 83 42 77 43
REMARK SMILES IDX 76 44 32 46 64 47 44 48 63 49 45 50 48 51 62 52 81 53 46 54
REMARK SMILES IDX 47 55 61 57 82 58 49 59 33 60 34 61 42 62 35 63 36 64 40 65
REMARK SMILES IDX 43 66 37 67 38 68 41 69 39 70 65 71 66 72 74 73 67 74 68 75
REMARK SMILES IDX 72 76 75 77 69 78 70 79 73 80 71 81 50 82 51 83 59 84 52 85
REMARK SMILES IDX 53 86 57 87 60 88 54 89 55 90 58 91 56 92
REMARK H PARENT 89 20 80 45 48 56
REMARK Flexibility Score: inf
ROOT
ATOM      1  C   UNL A   1      39.619  21.486  26.039  1.00  0.00     0.261 C 
ENDROOT
BRANCH   1   2
ATOM      2  O   UNL A   1      38.426  21.007  25.382  1.00  0.00    -0.463 OA
BRANCH   2   3
ATOM      3  C   UNL A   1      37.319  21.787  25.479  1.00  0.00     0.307 C 
ATOM      4  O   UNL A   1      37.293  22.911  25.964  1.00  0.00    -0.252 OA
BRANCH   3   5
ATOM      5  C   UNL A   1      36.078  21.089  24.968  1.00  0.00     0.144 C 
BRANCH   5   6
ATOM      6  C   UNL A   1      34.883  22.000  24.670  1.00  0.00     0.131 C 
BRANCH   6   7
ATOM      7  N   UNL A   1      33.635  21.535  25.298  1.00  0.00    -0.341 N 
ATOM      8  C   UNL A   1      33.296  22.126  26.579  1.00  0.00     0.147 C 
BRANCH   7   9
ATOM      9  C   UNL A   1      32.827  20.681  24.556  1.00  0.00     0.253 C 
ATOM     10  O   UNL A   1      31.970  21.120  23.790  1.00  0.00    -0.269 OA
BRANCH   9  11
ATOM     11  C   UNL A   1      33.007  19.214  24.515  1.00  0.00     0.043 A 
ATOM     12  C   UNL A   1      33.404  16.435  24.777  1.00  0.00     0.160 A 
ATOM     13  C   UNL A   1      32.804  17.168  25.797  1.00  0.00     0.051 A 
ATOM     14  C   UNL A   1      33.741  17.104  23.599  1.00  0.00     0.158 A 
ATOM     15  C   UNL A   1      32.611  18.540  25.677  1.00  0.00     0.018 A 
ATOM     16  C   UNL A   1      33.594  18.492  23.479  1.00  0.00     0.064 A 
BRANCH  12  17
ATOM     17  O   UNL A   1      33.544  15.105  25.039  1.00  0.00    -0.493 OA
ATOM     18  C   UNL A   1      32.460  14.421  25.660  1.00  0.00     0.278 C 
ENDBRANCH  12  17
BRANCH  14  19
ATOM     19  O   UNL A   1      34.153  16.439  22.479  1.00  0.00    -0.504 OA
ATOM     20  H   UNL A   1      35.051  16.480  22.214  1.00  0.00     0.293 HD
ENDBRANCH  14  19
ENDBRANCH   9  11
ENDBRANCH   7   9
ENDBRANCH   6   7
ENDBRANCH   5   6
ENDBRANCH   3   5
ENDBRANCH   2   3
ENDBRANCH   1   2
BRANCH   1  21
ATOM     21  C   UNL A   1      40.499  20.341  26.556  1.00  0.00     0.202 C 
BRANCH  21  22
ATOM     22  O   UNL A   1      41.489  19.875  25.635  1.00  0.00    -0.374 OA
BRANCH  22  23
ATOM     23  C   UNL A   1      42.838  20.027  26.072  1.00  0.00     0.202 C 
BRANCH  23  24
ATOM     24  C   UNL A   1      43.663  21.090  25.328  1.00  0.00     0.261 C 
BRANCH  24  25
ATOM     25  O   UNL A   1      42.899  22.260  24.981  1.00  0.00    -0.460 OA
BRANCH  25  26
ATOM     26  C   UNL A   1      43.596  23.414  24.876  1.00  0.00     0.338 C 
ATOM     27  O   UNL A   1      44.508  23.648  24.107  1.00  0.00    -0.246 OA
BRANCH  26  28
ATOM     28  C   UNL A   1      43.004  24.459  25.756  1.00  0.00     0.060 A 
ATOM     29  C   UNL A   1      43.503  25.765  25.640  1.00  0.00     0.016 A 
ATOM     30  C   UNL A   1      42.013  24.185  26.699  1.00  0.00     0.016 A 
ATOM     31  C   UNL A   1      43.067  26.784  26.498  1.00  0.00     0.010 A 
ATOM     32  C   UNL A   1      41.570  25.209  27.551  1.00  0.00     0.010 A 
ATOM     33  C   UNL A   1      42.119  26.510  27.488  1.00  0.00    -0.014 A 
BRANCH  33  34
ATOM     34  C   UNL A   1      41.794  27.490  28.570  1.00  0.00     0.031 A 
ATOM     35  C   UNL A   1      42.485  27.334  29.900  1.00  0.00     0.074 A 
ATOM     36  C   UNL A   1      40.874  28.468  28.434  1.00  0.00     0.049 A 
ATOM     37  N   UNL A   1      42.241  27.923  31.044  1.00  0.00    -0.248 NA
ATOM     38  C   UNL A   1      43.620  26.396  29.938  1.00  0.00     0.031 C 
ATOM     39  C   UNL A   1      40.190  28.842  27.202  1.00  0.00     0.029 A 
ATOM     40  N   UNL A   1      40.283  29.268  29.390  1.00  0.00    -0.354 N 
ATOM     41  C   UNL A   1      43.214  27.458  31.919  1.00  0.00     0.074 A 
ATOM     42  C   UNL A   1      43.982  26.460  31.208  1.00  0.00     0.031 C 
ATOM     43  C   UNL A   1      39.154  29.646  27.499  1.00  0.00     0.029 A 
ATOM     44  C   UNL A   1      39.138  29.885  28.940  1.00  0.00     0.049 A 
ATOM     45  H   UNL A   1      40.643  29.386  30.299  1.00  0.00     0.167 HD
ATOM     46  C   UNL A   1      43.483  27.868  33.182  1.00  0.00     0.037 A 
ATOM     47  C   UNL A   1      38.164  30.529  29.614  1.00  0.00     0.037 A 
ATOM     48  C   UNL A   1      42.720  28.856  33.894  1.00  0.00     0.049 A 
ATOM     49  C   UNL A   1      38.345  30.815  31.080  1.00  0.00     0.074 A 
ATOM     50  C   UNL A   1      42.948  29.384  35.153  1.00  0.00     0.029 A 
ATOM     51  N   UNL A   1      41.565  29.454  33.414  1.00  0.00    -0.354 N 
ATOM     52  N   UNL A   1      39.305  30.435  31.884  1.00  0.00    -0.248 NA
ATOM     53  C   UNL A   1      37.339  31.679  31.720  1.00  0.00     0.031 C 
ATOM     54  C   UNL A   1      41.893  30.248  35.462  1.00  0.00     0.029 A 
ATOM     55  C   UNL A   1      41.047  30.314  34.368  1.00  0.00     0.049 A 
ATOM     56  H   UNL A   1      41.172  29.290  32.526  1.00  0.00     0.167 HD
ATOM     57  C   UNL A   1      39.081  31.094  33.086  1.00  0.00     0.074 A 
ATOM     58  C   UNL A   1      37.862  31.856  32.925  1.00  0.00     0.031 C 
ATOM     59  C   UNL A   1      39.849  31.097  34.202  1.00  0.00     0.037 A 
BRANCH  46  60
ATOM     60  C   UNL A   1      44.671  27.255  33.866  1.00  0.00     0.064 A 
ATOM     61  C   UNL A   1      45.949  27.827  33.762  1.00  0.00     0.173 A 
ATOM     62  C   UNL A   1      44.528  26.109  34.660  1.00  0.00     0.173 A 
ATOM     63  F   UNL A   1      46.141  28.922  33.010  1.00  0.00    -0.203 F 
ATOM     64  C   UNL A   1      47.046  27.252  34.396  1.00  0.00     0.198 A 
ATOM     65  C   UNL A   1      45.621  25.557  35.322  1.00  0.00     0.198 A 
ATOM     66  F   UNL A   1      43.326  25.529  34.803  1.00  0.00    -0.203 F 
ATOM     67  F   UNL A   1      48.266  27.783  34.235  1.00  0.00    -0.200 F 
ATOM     68  C   UNL A   1      46.880  26.121  35.181  1.00  0.00     0.200 A 
ATOM     69  F   UNL A   1      45.457  24.474  36.095  1.00  0.00    -0.200 F 
ATOM     70  F   UNL A   1      47.935  25.571  35.797  1.00  0.00    -0.200 F 
ENDBRANCH  46  60
BRANCH  47  71
ATOM     71  C   UNL A   1      36.934  30.982  28.912  1.00  0.00     0.064 A 
ATOM     72  C   UNL A   1      36.762  32.323  28.547  1.00  0.00     0.173 A 
ATOM     73  C   UNL A   1      35.879  30.095  28.650  1.00  0.00     0.173 A 
ATOM     74  F   UNL A   1      37.726  33.216  28.815  1.00  0.00    -0.203 F 
ATOM     75  C   UNL A   1      35.574  32.766  27.967  1.00  0.00     0.198 A 
ATOM     76  C   UNL A   1      34.700  30.533  28.047  1.00  0.00     0.198 A 
ATOM     77  F   UNL A   1      35.973  28.808  29.012  1.00  0.00    -0.203 F 
ATOM     78  F   UNL A   1      35.414  34.065  27.684  1.00  0.00    -0.200 F 
ATOM     79  C   UNL A   1      34.546  31.870  27.714  1.00  0.00     0.200 A 
ATOM     80  F   UNL A   1      33.706  29.667  27.812  1.00  0.00    -0.200 F 
ATOM     81  F   UNL A   1      33.400  32.301  27.169  1.00  0.00    -0.200 F 
ENDBRANCH  47  71
BRANCH  59  82
ATOM     82  C   UNL A   1      39.469  32.030  35.317  1.00  0.00     0.064 A 
ATOM     83  C   UNL A   1      39.934  33.350  35.382  1.00  0.00     0.173 A 
ATOM     84  C   UNL A   1      38.564  31.603  36.303  1.00  0.00     0.173 A 
ATOM     85  F   UNL A   1      40.813  33.802  34.477  1.00  0.00    -0.203 F 
ATOM     86  C   UNL A   1      39.516  34.204  36.401  1.00  0.00     0.198 A 
ATOM     87  C   UNL A   1      38.123  32.468  37.300  1.00  0.00     0.198 A 
ATOM     88  F   UNL A   1      38.086  30.349  36.286  1.00  0.00    -0.203 F 
ATOM     89  F   UNL A   1      40.003  35.450  36.468  1.00  0.00    -0.200 F 
ATOM     90  C   UNL A   1      38.603  33.767  37.351  1.00  0.00     0.200 A 
ATOM     91  F   UNL A   1      37.229  32.048  38.204  1.00  0.00    -0.200 F 
ATOM     92  F   UNL A   1      38.190  34.598  38.318  1.00  0.00    -0.200 F 
ENDBRANCH  59  82
ENDBRANCH  33  34
ENDBRANCH  26  28
ENDBRANCH  25  26
ENDBRANCH  24  25
ENDBRANCH  23  24
ENDBRANCH  22  23
ENDBRANCH  21  22
ENDBRANCH   1  21
TORSDOF 20
ENDMDL
MODEL 2
REMARK VINA RESULT:     -10.6      1.906      3.464
REMARK SMILES COc1ccc(C(=O)N(C)CCC(=O)OCCOCCOC(=O)c2ccc(-c3c4nc(c(-c5c(F)c(F)c(F)c(F)c5F)c5ccc([nH]5)c(-c5c(F)c(F)c(F)c(F)c5F)c5nc(c(-c6c(F)c(F)c(F)c(F)c6F)c6ccc3[nH]6)C=C5)C=C4)cc2)cc1O
REMARK SMILES IDX 16 1 15 2 13 3 14 4 12 5 11 6 9 7 10 8 7 9 8 10 6 11 3 12
REMARK SMILES IDX 4 13 88 14 5 15 87 16 2 17 1 18 89 19 17 21 18 22 19 23
REMARK SMILES IDX 20 24 21 25 22 26 23 27 24 28 25 29 86 30 26 31 85 32 27 33
REMARK SMILES IDX 28 34 29 35 79 36 30 37 84 38 78 39 80 40 31 41 83 42 77 43
REMARK SMILES IDX 76 44 32 46 64 47 44 48 63 49 45 50 48 51 62 52 81 53 46 54
REMARK SMILES IDX 47 55 61 57 82 58 49 59 33 60 34 61 42 62 35 63 36 64 40 65
REMARK SMILES IDX 43 66 37 67 38 68 41 69 39 70 65 71 66 72 74 73 67 74 68 75
REMARK SMILES IDX 72 76 75 77 69 78 70 79 73 80 71 81 50 82 51 83 59 84 52 85
REMARK SMILES IDX 53 86 57 87 60 88 54 89 55 90 58 91 56 92
REMARK H PARENT 89 20 80 45 48 56
REMARK Flexibility Score: inf
ROOT
ATOM      1  C   UNL A   1      39.621  21.245  25.752  1.00  0.00     0.261 C 
ENDROOT
BRANCH   1   2
ATOM      2  O   UNL A   1      38.256  21.412  25.310  1.00  0.00    -0.463 OA
BRANCH   2   3
ATOM      3  C   UNL A   1      37.599  22.512  25.758  1.00  0.00     0.307 C 
ATOM      4  O   UNL A   1      38.126  23.584  26.025  1.00  0.00    -0.252 OA
BRANCH   3   5
ATOM      5  C   UNL A   1      36.121  22.256  25.955  1.00  0.00     0.144 C 
BRANCH   5   6
ATOM      6  C   UNL A   1      35.469  21.324  24.928  1.00  0.00     0.131 C 
BRANCH   6   7
ATOM      7  N   UNL A   1      34.412  21.982  24.143  1.00  0.00    -0.341 N 
ATOM      8  C   UNL A   1      33.049  21.568  24.420  1.00  0.00     0.147 C 
BRANCH   7   9
ATOM      9  C   UNL A   1      34.791  23.030  23.312  1.00  0.00     0.253 C 
ATOM     10  O   UNL A   1      35.787  22.945  22.595  1.00  0.00    -0.269 OA
BRANCH   9  11
ATOM     11  C   UNL A   1      33.983  24.252  23.114  1.00  0.00     0.043 A 
ATOM     12  C   UNL A   1      32.394  26.580  23.077  1.00  0.00     0.160 A 
ATOM     13  C   UNL A   1      33.237  26.310  24.151  1.00  0.00     0.051 A 
ATOM     14  C   UNL A   1      32.408  25.700  21.994  1.00  0.00     0.158 A 
ATOM     15  C   UNL A   1      34.018  25.160  24.179  1.00  0.00     0.018 A 
ATOM     16  C   UNL A   1      33.155  24.515  22.025  1.00  0.00     0.064 A 
BRANCH  12  17
ATOM     17  O   UNL A   1      31.675  27.732  23.194  1.00  0.00    -0.493 OA
ATOM     18  C   UNL A   1      32.260  28.944  22.724  1.00  0.00     0.278 C 
ENDBRANCH  12  17
BRANCH  14  19
ATOM     19  O   UNL A   1      31.765  25.981  20.822  1.00  0.00    -0.504 OA
ATOM     20  H   UNL A   1      30.843  25.833  20.747  1.00  0.00     0.293 HD
ENDBRANCH  14  19
ENDBRANCH   9  11
ENDBRANCH   7   9
ENDBRANCH   6   7
ENDBRANCH   5   6
ENDBRANCH   3   5
ENDBRANCH   2   3
ENDBRANCH   1   2
BRANCH   1  21
ATOM     21  C   UNL A   1      39.937  19.793  26.132  1.00  0.00     0.202 C 
BRANCH  21  22
ATOM     22  O   UNL A   1      41.156  19.276  25.590  1.00  0.00    -0.374 OA
BRANCH  22  23
ATOM     23  C   UNL A   1      42.326  19.570  26.350  1.00  0.00     0.202 C 
BRANCH  23  24
ATOM     24  C   UNL A   1      43.270  20.619  25.739  1.00  0.00     0.261 C 
BRANCH  24  25
ATOM     25  O   UNL A   1      43.158  21.913  26.359  1.00  0.00    -0.460 OA
BRANCH  25  26
ATOM     26  C   UNL A   1      42.959  22.956  25.521  1.00  0.00     0.338 C 
ATOM     27  O   UNL A   1      43.043  22.945  24.309  1.00  0.00    -0.246 OA
BRANCH  26  28
ATOM     28  C   UNL A   1      42.469  24.142  26.278  1.00  0.00     0.060 A 
ATOM     29  C   UNL A   1      43.111  25.368  26.049  1.00  0.00     0.016 A 
ATOM     30  C   UNL A   1      41.437  24.072  27.214  1.00  0.00     0.016 A 
ATOM     31  C   UNL A   1      42.774  26.509  26.791  1.00  0.00     0.010 A 
ATOM     32  C   UNL A   1      41.095  25.218  27.949  1.00  0.00     0.010 A 
ATOM     33  C   UNL A   1      41.784  26.439  27.775  1.00  0.00    -0.014 A 
BRANCH  33  34
ATOM     34  C   UNL A   1      41.549  27.552  28.747  1.00  0.00     0.031 A 
ATOM     35  C   UNL A   1      42.304  27.528  30.050  1.00  0.00     0.074 A 
ATOM     36  C   UNL A   1      40.656  28.542  28.539  1.00  0.00     0.049 A 
ATOM     37  N   UNL A   1      42.140  28.257  31.126  1.00  0.00    -0.248 NA
ATOM     38  C   UNL A   1      43.408  26.558  30.145  1.00  0.00     0.031 C 
ATOM     39  C   UNL A   1      39.920  28.794  27.306  1.00  0.00     0.029 A 
ATOM     40  N   UNL A   1      40.143  29.472  29.420  1.00  0.00    -0.354 N 
ATOM     41  C   UNL A   1      43.142  27.861  32.002  1.00  0.00     0.074 A 
ATOM     42  C   UNL A   1      43.839  26.757  31.379  1.00  0.00     0.031 C 
ATOM     43  C   UNL A   1      38.928  29.668  27.555  1.00  0.00     0.029 A 
ATOM     44  C   UNL A   1      38.996  30.075  28.955  1.00  0.00     0.049 A 
ATOM     45  H   UNL A   1      40.554  29.682  30.290  1.00  0.00     0.167 HD
ATOM     46  C   UNL A   1      43.492  28.406  33.192  1.00  0.00     0.037 A 
ATOM     47  C   UNL A   1      38.081  30.832  29.594  1.00  0.00     0.037 A 
ATOM     48  C   UNL A   1      42.800  29.500  33.816  1.00  0.00     0.049 A 
ATOM     49  C   UNL A   1      38.348  31.282  31.005  1.00  0.00     0.074 A 
ATOM     50  C   UNL A   1      43.112  30.164  34.990  1.00  0.00     0.029 A 
ATOM     51  N   UNL A   1      41.642  30.081  33.325  1.00  0.00    -0.354 N 
ATOM     52  N   UNL A   1      39.337  30.962  31.801  1.00  0.00    -0.248 NA
ATOM     53  C   UNL A   1      37.407  32.254  31.585  1.00  0.00     0.031 C 
ATOM     54  C   UNL A   1      42.104  31.099  35.245  1.00  0.00     0.029 A 
ATOM     55  C   UNL A   1      41.203  31.068  34.194  1.00  0.00     0.049 A 
ATOM     56  H   UNL A   1      41.197  29.830  32.484  1.00  0.00     0.167 HD
ATOM     57  C   UNL A   1      39.199  31.767  32.925  1.00  0.00     0.074 A 
ATOM     58  C   UNL A   1      37.998  32.551  32.733  1.00  0.00     0.031 C 
ATOM     59  C   UNL A   1      40.025  31.872  33.993  1.00  0.00     0.037 A 
BRANCH  46  60
ATOM     60  C   UNL A   1      44.693  27.833  33.886  1.00  0.00     0.064 A 
ATOM     61  C   UNL A   1      45.982  28.341  33.655  1.00  0.00     0.173 A 
ATOM     62  C   UNL A   1      44.556  26.792  34.814  1.00  0.00     0.173 A 
ATOM     63  F   UNL A   1      46.169  29.334  32.772  1.00  0.00    -0.203 F 
ATOM     64  C   UNL A   1      47.091  27.803  34.299  1.00  0.00     0.198 A 
ATOM     65  C   UNL A   1      45.664  26.279  35.483  1.00  0.00     0.198 A 
ATOM     66  F   UNL A   1      43.346  26.277  35.080  1.00  0.00    -0.203 F 
ATOM     67  F   UNL A   1      48.317  28.267  34.019  1.00  0.00    -0.200 F 
ATOM     68  C   UNL A   1      46.931  26.777  35.218  1.00  0.00     0.200 A 
ATOM     69  F   UNL A   1      45.506  25.300  36.385  1.00  0.00    -0.200 F 
ATOM     70  F   UNL A   1      47.999  26.263  35.843  1.00  0.00    -0.200 F 
ENDBRANCH  46  60
BRANCH  47  71
ATOM     71  C   UNL A   1      36.831  31.246  28.904  1.00  0.00     0.064 A 
ATOM     72  C   UNL A   1      36.639  32.570  28.488  1.00  0.00     0.173 A 
ATOM     73  C   UNL A   1      35.777  30.341  28.704  1.00  0.00     0.173 A 
ATOM     74  F   UNL A   1      37.601  33.480  28.697  1.00  0.00    -0.203 F 
ATOM     75  C   UNL A   1      35.434  32.980  27.920  1.00  0.00     0.198 A 
ATOM     76  C   UNL A   1      34.581  30.746  28.112  1.00  0.00     0.198 A 
ATOM     77  F   UNL A   1      35.891  29.072  29.116  1.00  0.00    -0.203 F 
ATOM     78  F   UNL A   1      35.257  34.265  27.587  1.00  0.00    -0.200 F 
ATOM     79  C   UNL A   1      34.408  32.067  27.728  1.00  0.00     0.200 A 
ATOM     80  F   UNL A   1      33.589  29.863  27.936  1.00  0.00    -0.200 F 
ATOM     81  F   UNL A   1      33.246  32.465  27.194  1.00  0.00    -0.200 F 
ENDBRANCH  47  71
BRANCH  59  82
ATOM     82  C   UNL A   1      39.735  32.944  35.006  1.00  0.00     0.064 A 
ATOM     83  C   UNL A   1      39.023  32.688  36.185  1.00  0.00     0.173 A 
ATOM     84  C   UNL A   1      40.245  34.239  34.815  1.00  0.00     0.173 A 
ATOM     85  F   UNL A   1      38.500  31.474  36.409  1.00  0.00    -0.203 F 
ATOM     86  C   UNL A   1      38.821  33.694  37.129  1.00  0.00     0.198 A 
ATOM     87  C   UNL A   1      40.070  35.231  35.774  1.00  0.00     0.198 A 
ATOM     88  F   UNL A   1      40.937  34.536  33.704  1.00  0.00    -0.203 F 
ATOM     89  F   UNL A   1      38.103  33.439  38.231  1.00  0.00    -0.200 F 
ATOM     90  C   UNL A   1      39.354  34.959  36.928  1.00  0.00     0.200 A 
ATOM     91  F   UNL A   1      40.602  36.446  35.585  1.00  0.00    -0.200 F 
ATOM     92  F   UNL A   1      39.174  35.918  37.848  1.00  0.00    -0.200 F 
ENDBRANCH  59  82
ENDBRANCH  33  34
ENDBRANCH  26  28
ENDBRANCH  25  26
ENDBRANCH  24  25
ENDBRANCH  23  24
ENDBRANCH  22  23
ENDBRANCH  21  22
ENDBRANCH   1  21
TORSDOF 20
ENDMDL
MODEL 3
REMARK VINA RESULT:     -10.6      4.677      9.574
REMARK SMILES COc1ccc(C(=O)N(C)CCC(=O)OCCOCCOC(=O)c2ccc(-c3c4nc(c(-c5c(F)c(F)c(F)c(F)c5F)c5ccc([nH]5)c(-c5c(F)c(F)c(F)c(F)c5F)c5nc(c(-c6c(F)c(F)c(F)c(F)c6F)c6ccc3[nH]6)C=C5)C=C4)cc2)cc1O
REMARK SMILES IDX 16 1 15 2 13 3 14 4 12 5 11 6 9 7 10 8 7 9 8 10 6 11 3 12
REMARK SMILES IDX 4 13 88 14 5 15 87 16 2 17 1 18 89 19 17 21 18 22 19 23
REMARK SMILES IDX 20 24 21 25 22 26 23 27 24 28 25 29 86 30 26 31 85 32 27 33
REMARK SMILES IDX 28 34 29 35 79 36 30 37 84 38 78 39 80 40 31 41 83 42 77 43
REMARK SMILES IDX 76 44 32 46 64 47 44 48 63 49 45 50 48 51 62 52 81 53 46 54
REMARK SMILES IDX 47 55 61 57 82 58 49 59 33 60 34 61 42 62 35 63 36 64 40 65
REMARK SMILES IDX 43 66 37 67 38 68 41 69 39 70 65 71 66 72 74 73 67 74 68 75
REMARK SMILES IDX 72 76 75 77 69 78 70 79 73 80 71 81 50 82 51 83 59 84 52 85
REMARK SMILES IDX 53 86 57 87 60 88 54 89 55 90 58 91 56 92
REMARK H PARENT 89 20 80 45 48 56
REMARK Flexibility Score: inf
ROOT
ATOM      1  C   UNL A   1      32.795  29.471  26.262  1.00  0.00     0.261 C 
ENDROOT
BRANCH   1   2
ATOM      2  O   UNL A   1      32.372  28.504  27.247  1.00  0.00    -0.463 OA
BRANCH   2   3
ATOM      3  C   UNL A   1      31.986  27.288  26.784  1.00  0.00     0.307 C 
ATOM      4  O   UNL A   1      30.920  26.744  27.043  1.00  0.00    -0.252 OA
BRANCH   3   5
ATOM      5  C   UNL A   1      33.054  26.630  25.939  1.00  0.00     0.144 C 
BRANCH   5   6
ATOM      6  C   UNL A   1      32.663  25.292  25.303  1.00  0.00     0.131 C 
BRANCH   6   7
ATOM      7  N   UNL A   1      32.392  25.398  23.861  1.00  0.00    -0.341 N 
ATOM      8  C   UNL A   1      33.518  25.177  22.972  1.00  0.00     0.147 C 
BRANCH   7   9
ATOM      9  C   UNL A   1      31.068  25.565  23.470  1.00  0.00     0.253 C 
ATOM     10  O   UNL A   1      30.283  24.618  23.458  1.00  0.00    -0.269 OA
BRANCH   9  11
ATOM     11  C   UNL A   1      30.462  26.880  23.172  1.00  0.00     0.043 A 
ATOM     12  C   UNL A   1      29.006  29.221  22.579  1.00  0.00     0.160 A 
ATOM     13  C   UNL A   1      28.427  28.189  23.312  1.00  0.00     0.051 A 
ATOM     14  C   UNL A   1      30.344  29.090  22.205  1.00  0.00     0.158 A 
ATOM     15  C   UNL A   1      29.137  27.029  23.602  1.00  0.00     0.018 A 
ATOM     16  C   UNL A   1      31.060  27.911  22.451  1.00  0.00     0.064 A 
BRANCH  12  17
ATOM     17  O   UNL A   1      28.188  30.287  22.355  1.00  0.00    -0.493 OA
ATOM     18  C   UNL A   1      27.668  30.988  23.482  1.00  0.00     0.278 C 
ENDBRANCH  12  17
BRANCH  14  19
ATOM     19  O   UNL A   1      31.049  30.123  21.657  1.00  0.00    -0.504 OA
ATOM     20  H   UNL A   1      31.346  30.069  20.770  1.00  0.00     0.293 HD
ENDBRANCH  14  19
ENDBRANCH   9  11
ENDBRANCH   7   9
ENDBRANCH   6   7
ENDBRANCH   5   6
ENDBRANCH   3   5
ENDBRANCH   2   3
ENDBRANCH   1   2
BRANCH   1  21
ATOM     21  C   UNL A   1      31.622  30.284  25.702  1.00  0.00     0.202 C 
BRANCH  21  22
ATOM     22  O   UNL A   1      31.481  31.599  26.245  1.00  0.00    -0.374 OA
BRANCH  22  23
ATOM     23  C   UNL A   1      32.373  31.910  27.314  1.00  0.00     0.202 C 
BRANCH  23  24
ATOM     24  C   UNL A   1      32.947  33.336  27.308  1.00  0.00     0.261 C 
BRANCH  24  25
ATOM     25  O   UNL A   1      32.207  34.249  28.139  1.00  0.00    -0.460 OA
BRANCH  25  26
ATOM     26  C   UNL A   1      32.933  35.205  28.762  1.00  0.00     0.338 C 
ATOM     27  O   UNL A   1      32.697  36.397  28.791  1.00  0.00    -0.246 OA
BRANCH  26  28
ATOM     28  C   UNL A   1      34.031  34.588  29.557  1.00  0.00     0.060 A 
ATOM     29  C   UNL A   1      35.309  34.552  28.981  1.00  0.00     0.016 A 
ATOM     30  C   UNL A   1      33.829  34.022  30.817  1.00  0.00     0.016 A 
ATOM     31  C   UNL A   1      36.372  33.903  29.624  1.00  0.00     0.010 A 
ATOM     32  C   UNL A   1      34.897  33.381  31.463  1.00  0.00     0.010 A 
ATOM     33  C   UNL A   1      36.171  33.278  30.858  1.00  0.00    -0.014 A 
BRANCH  33  34
ATOM     34  C   UNL A   1      37.198  32.380  31.473  1.00  0.00     0.031 A 
ATOM     35  C   UNL A   1      37.864  32.832  32.747  1.00  0.00     0.074 A 
ATOM     36  C   UNL A   1      37.596  31.218  30.915  1.00  0.00     0.049 A 
ATOM     37  N   UNL A   1      38.907  32.338  33.366  1.00  0.00    -0.248 NA
ATOM     38  C   UNL A   1      37.257  33.991  33.423  1.00  0.00     0.031 C 
ATOM     39  C   UNL A   1      36.996  30.568  29.757  1.00  0.00     0.029 A 
ATOM     40  N   UNL A   1      38.685  30.423  31.207  1.00  0.00    -0.354 N 
ATOM     41  C   UNL A   1      39.052  33.098  34.519  1.00  0.00     0.074 A 
ATOM     42  C   UNL A   1      38.062  34.151  34.460  1.00  0.00     0.031 C 
ATOM     43  C   UNL A   1      37.819  29.597  29.319  1.00  0.00     0.029 A 
ATOM     44  C   UNL A   1      38.979  29.526  30.204  1.00  0.00     0.049 A 
ATOM     45  H   UNL A   1      39.199  30.490  32.044  1.00  0.00     0.167 HD
ATOM     46  C   UNL A   1      39.893  32.903  35.562  1.00  0.00     0.037 A 
ATOM     47  C   UNL A   1      40.074  28.768  29.997  1.00  0.00     0.037 A 
ATOM     48  C   UNL A   1      40.880  31.861  35.623  1.00  0.00     0.049 A 
ATOM     49  C   UNL A   1      41.136  28.696  31.061  1.00  0.00     0.074 A 
ATOM     50  C   UNL A   1      41.739  31.541  36.661  1.00  0.00     0.029 A 
ATOM     51  N   UNL A   1      41.156  30.977  34.592  1.00  0.00    -0.354 N 
ATOM     52  N   UNL A   1      41.228  29.364  32.183  1.00  0.00    -0.248 NA
ATOM     53  C   UNL A   1      42.214  27.714  30.862  1.00  0.00     0.031 C 
ATOM     54  C   UNL A   1      42.580  30.510  36.231  1.00  0.00     0.029 A 
ATOM     55  C   UNL A   1      42.199  30.140  34.953  1.00  0.00     0.049 A 
ATOM     56  H   UNL A   1      40.681  30.950  33.729  1.00  0.00     0.167 HD
ATOM     57  C   UNL A   1      42.304  28.813  32.868  1.00  0.00     0.074 A 
ATOM     58  C   UNL A   1      42.868  27.793  32.012  1.00  0.00     0.031 C 
ATOM     59  C   UNL A   1      42.745  29.102  34.116  1.00  0.00     0.037 A 
BRANCH  46  60
ATOM     60  C   UNL A   1      39.762  33.831  36.735  1.00  0.00     0.064 A 
ATOM     61  C   UNL A   1      40.427  35.067  36.767  1.00  0.00     0.173 A 
ATOM     62  C   UNL A   1      38.940  33.501  37.822  1.00  0.00     0.173 A 
ATOM     63  F   UNL A   1      41.230  35.429  35.754  1.00  0.00    -0.203 F 
ATOM     64  C   UNL A   1      40.304  35.920  37.859  1.00  0.00     0.198 A 
ATOM     65  C   UNL A   1      38.792  34.373  38.897  1.00  0.00     0.198 A 
ATOM     66  F   UNL A   1      38.273  32.337  37.838  1.00  0.00    -0.203 F 
ATOM     67  F   UNL A   1      40.994  37.069  37.891  1.00  0.00    -0.200 F 
ATOM     68  C   UNL A   1      39.481  35.576  38.920  1.00  0.00     0.200 A 
ATOM     69  F   UNL A   1      37.982  34.047  39.915  1.00  0.00    -0.200 F 
ATOM     70  F   UNL A   1      39.358  36.401  39.969  1.00  0.00    -0.200 F 
ENDBRANCH  46  60
BRANCH  47  71
ATOM     71  C   UNL A   1      40.222  27.983  28.742  1.00  0.00     0.064 A 
ATOM     72  C   UNL A   1      39.700  26.688  28.634  1.00  0.00     0.173 A 
ATOM     73  C   UNL A   1      40.942  28.489  27.650  1.00  0.00     0.173 A 
ATOM     74  F   UNL A   1      39.040  26.147  29.668  1.00  0.00    -0.203 F 
ATOM     75  C   UNL A   1      39.911  25.919  27.491  1.00  0.00     0.198 A 
ATOM     76  C   UNL A   1      41.132  27.729  26.496  1.00  0.00     0.198 A 
ATOM     77  F   UNL A   1      41.495  29.708  27.712  1.00  0.00    -0.203 F 
ATOM     78  F   UNL A   1      39.453  24.661  27.440  1.00  0.00    -0.200 F 
ATOM     79  C   UNL A   1      40.624  26.441  26.422  1.00  0.00     0.200 A 
ATOM     80  F   UNL A   1      41.828  28.233  25.468  1.00  0.00    -0.200 F 
ATOM     81  F   UNL A   1      40.838  25.695  25.330  1.00  0.00    -0.200 F 
ENDBRANCH  47  71
BRANCH  59  82
ATOM     82  C   UNL A   1      43.833  28.243  34.696  1.00  0.00     0.064 A 
ATOM     83  C   UNL A   1      45.188  28.590  34.613  1.00  0.00     0.173 A 
ATOM     84  C   UNL A   1      43.496  27.080  35.409  1.00  0.00     0.173 A 
ATOM     85  F   UNL A   1      45.565  29.680  33.929  1.00  0.00    -0.203 F 
ATOM     86  C   UNL A   1      46.166  27.798  35.210  1.00  0.00     0.198 A 
ATOM     87  C   UNL A   1      44.472  26.309  36.033  1.00  0.00     0.198 A 
ATOM     88  F   UNL A   1      42.213  26.704  35.521  1.00  0.00    -0.203 F 
ATOM     89  F   UNL A   1      47.458  28.126  35.085  1.00  0.00    -0.200 F 
ATOM     90  C   UNL A   1      45.806  26.666  35.929  1.00  0.00     0.200 A 
ATOM     91  F   UNL A   1      44.120  25.228  36.740  1.00  0.00    -0.200 F 
ATOM     92  F   UNL A   1      46.749  25.917  36.519  1.00  0.00    -0.200 F 
ENDBRANCH  59  82
ENDBRANCH  33  34
ENDBRANCH  26  28
ENDBRANCH  25  26
ENDBRANCH  24  25
ENDBRANCH  23  24
ENDBRANCH  22  23
ENDBRANCH  21  22
ENDBRANCH   1  21
TORSDOF 20
ENDMDL
