MODEL 1
REMARK VINA RESULT:     -11.0      0.000      0.000
REMARK SMILES C[C@H](NC(=O)N1CC[C@H](C(=O)OCCOCCOC(=O)c2ccc(-c3c4nc(c(-c5c(F)c(F)c(F)c(F)c5F)c5ccc([nH]5)c(-c5c(F)c(F)c(F)c(F)c5F)c5nc(c(-c6c(F)c(F)c(F)c(F)c6F)c6ccc3[nH]6)C=C5)C=C4)cc2)[C@H]1C)c1ccsc1
REMARK SMILES IDX 14 1 13 2 12 3 10 4 11 5 9 6 6 7 7 8 84 9 8 10 85 11 4 12
REMARK SMILES IDX 3 13 5 15 2 16 1 17 86 18 87 19 90 20 88 21 89 22 15 23
REMARK SMILES IDX 16 24 17 25 18 26 19 27 20 28 21 29 22 30 83 31 23 32 82 33
REMARK SMILES IDX 24 34 25 35 26 36 76 37 27 38 81 39 75 40 77 41 28 42 80 43
REMARK SMILES IDX 74 44 73 45 29 47 61 48 41 49 60 50 42 51 45 52 59 53 78 54
REMARK SMILES IDX 43 55 44 56 58 58 79 59 46 60 30 61 31 62 39 63 32 64 33 65
REMARK SMILES IDX 37 66 40 67 34 68 35 69 38 70 36 71 62 72 63 73 71 74 64 75
REMARK SMILES IDX 65 76 69 77 72 78 66 79 67 80 70 81 68 82 47 83 48 84 56 85
REMARK SMILES IDX 49 86 50 87 54 88 57 89 51 90 52 91 55 92 53 93
REMARK H PARENT 3 14 77 46 45 57
REMARK Flexibility Score: inf
ROOT
ATOM      1  C   UNL A   1      33.986  33.230  28.200  1.00  0.00     0.202 C 
ENDROOT
BRANCH   1   2
ATOM      2  C   UNL A   1      34.358  31.780  27.881  1.00  0.00     0.261 C 
BRANCH   2   3
ATOM      3  O   UNL A   1      33.280  31.050  27.267  1.00  0.00    -0.463 OA
BRANCH   3   4
ATOM      4  C   UNL A   1      33.578  29.766  26.912  1.00  0.00     0.311 C 
ATOM      5  O   UNL A   1      34.710  29.326  26.790  1.00  0.00    -0.252 OA
BRANCH   4   6
ATOM      6  C   UNL A   1      32.310  28.975  26.637  1.00  0.00     0.123 C 
ATOM      7  N   UNL A   1      32.591  27.998  24.481  1.00  0.00    -0.321 N 
ATOM      8  C   UNL A   1      31.989  29.321  24.296  1.00  0.00     0.122 C 
ATOM      9  C   UNL A   1      32.551  27.637  25.907  1.00  0.00     0.098 C 
ATOM     10  C   UNL A   1      31.423  29.733  25.649  1.00  0.00     0.039 C 
ATOM     11  C   UNL A   1      31.388  26.694  26.254  1.00  0.00     0.032 C 
BRANCH   7  12
ATOM     12  C   UNL A   1      33.662  27.709  23.674  1.00  0.00     0.318 C 
ATOM     13  N   UNL A   1      33.992  26.454  23.329  1.00  0.00    -0.331 N 
ATOM     14  H   UNL A   1      34.933  26.396  23.048  1.00  0.00     0.165 HD
ATOM     15  O   UNL A   1      34.366  28.588  23.172  1.00  0.00    -0.249 OA
BRANCH  13  16
ATOM     16  C   UNL A   1      33.340  25.157  23.258  1.00  0.00     0.112 C 
ATOM     17  C   UNL A   1      32.824  24.751  21.888  1.00  0.00     0.036 C 
BRANCH  16  18
ATOM     18  C   UNL A   1      34.040  24.099  24.082  1.00  0.00    -0.015 A 
ATOM     19  C   UNL A   1      34.526  22.822  23.647  1.00  0.00     0.017 A 
ATOM     20  C   UNL A   1      34.317  24.256  25.434  1.00  0.00     0.070 A 
ATOM     21  C   UNL A   1      35.130  22.090  24.645  1.00  0.00     0.065 A 
ATOM     22  S   UNL A   1      35.119  22.919  26.132  1.00  0.00    -0.152 S 
ENDBRANCH  16  18
ENDBRANCH  13  16
ENDBRANCH   7  12
ENDBRANCH   4   6
ENDBRANCH   3   4
ENDBRANCH   2   3
ENDBRANCH   1   2
BRANCH   1  23
ATOM     23  O   UNL A   1      34.749  33.906  29.197  1.00  0.00    -0.374 OA
BRANCH  23  24
ATOM     24  C   UNL A   1      34.039  34.487  30.286  1.00  0.00     0.202 C 
BRANCH  24  25
ATOM     25  C   UNL A   1      34.473  34.089  31.702  1.00  0.00     0.261 C 
BRANCH  25  26
ATOM     26  O   UNL A   1      34.592  32.665  31.863  1.00  0.00    -0.460 OA
BRANCH  26  27
ATOM     27  C   UNL A   1      35.599  32.284  32.686  1.00  0.00     0.338 C 
ATOM     28  O   UNL A   1      35.692  32.480  33.886  1.00  0.00    -0.246 OA
BRANCH  27  29
ATOM     29  C   UNL A   1      36.551  31.419  31.968  1.00  0.00     0.060 A 
ATOM     30  C   UNL A   1      37.698  31.018  32.664  1.00  0.00     0.016 A 
ATOM     31  C   UNL A   1      36.393  31.108  30.616  1.00  0.00     0.016 A 
ATOM     32  C   UNL A   1      38.725  30.362  31.994  1.00  0.00     0.010 A 
ATOM     33  C   UNL A   1      37.433  30.456  29.940  1.00  0.00     0.010 A 
ATOM     34  C   UNL A   1      38.621  30.124  30.617  1.00  0.00    -0.014 A 
BRANCH  34  35
ATOM     35  C   UNL A   1      39.833  29.695  29.879  1.00  0.00     0.031 A 
ATOM     36  C   UNL A   1      40.962  30.676  29.705  1.00  0.00     0.074 A 
ATOM     37  C   UNL A   1      39.959  28.432  29.437  1.00  0.00     0.049 A 
ATOM     38  N   UNL A   1      42.135  30.504  29.151  1.00  0.00    -0.248 NA
ATOM     39  C   UNL A   1      40.739  32.034  30.229  1.00  0.00     0.031 C 
ATOM     40  C   UNL A   1      38.946  27.388  29.567  1.00  0.00     0.029 A 
ATOM     41  N   UNL A   1      41.000  27.815  28.789  1.00  0.00    -0.354 N 
ATOM     42  C   UNL A   1      42.786  31.727  29.255  1.00  0.00     0.074 A 
ATOM     43  C   UNL A   1      41.870  32.643  29.899  1.00  0.00     0.031 C 
ATOM     44  C   UNL A   1      39.412  26.258  29.008  1.00  0.00     0.029 A 
ATOM     45  C   UNL A   1      40.747  26.504  28.469  1.00  0.00     0.049 A 
ATOM     46  H   UNL A   1      41.847  28.269  28.576  1.00  0.00     0.167 HD
ATOM     47  C   UNL A   1      44.039  32.052  28.860  1.00  0.00     0.037 A 
ATOM     48  C   UNL A   1      41.508  25.611  27.805  1.00  0.00     0.037 A 
ATOM     49  C   UNL A   1      44.957  31.135  28.238  1.00  0.00     0.049 A 
ATOM     50  C   UNL A   1      42.888  26.010  27.348  1.00  0.00     0.074 A 
ATOM     51  C   UNL A   1      46.265  31.358  27.847  1.00  0.00     0.029 A 
ATOM     52  N   UNL A   1      44.658  29.822  27.909  1.00  0.00    -0.354 N 
ATOM     53  N   UNL A   1      43.515  27.152  27.504  1.00  0.00    -0.248 NA
ATOM     54  C   UNL A   1      43.671  24.992  26.634  1.00  0.00     0.031 C 
ATOM     55  C   UNL A   1      46.741  30.194  27.236  1.00  0.00     0.029 A 
ATOM     56  C   UNL A   1      45.746  29.231  27.291  1.00  0.00     0.049 A 
ATOM     57  H   UNL A   1      43.798  29.376  28.089  1.00  0.00     0.167 HD
ATOM     58  C   UNL A   1      44.768  26.983  26.928  1.00  0.00     0.074 A 
ATOM     59  C   UNL A   1      44.821  25.622  26.438  1.00  0.00     0.031 C 
ATOM     60  C   UNL A   1      45.782  27.875  26.812  1.00  0.00     0.037 A 
BRANCH  47  61
ATOM     61  C   UNL A   1      44.493  33.466  29.072  1.00  0.00     0.064 A 
ATOM     62  C   UNL A   1      45.162  33.858  30.240  1.00  0.00     0.173 A 
ATOM     63  C   UNL A   1      44.308  34.425  28.065  1.00  0.00     0.173 A 
ATOM     64  F   UNL A   1      45.352  32.980  31.238  1.00  0.00    -0.203 F 
ATOM     65  C   UNL A   1      45.617  35.165  30.399  1.00  0.00     0.198 A 
ATOM     66  C   UNL A   1      44.785  35.724  28.217  1.00  0.00     0.198 A 
ATOM     67  F   UNL A   1      43.676  34.098  26.928  1.00  0.00    -0.203 F 
ATOM     68  F   UNL A   1      46.225  35.527  31.536  1.00  0.00    -0.200 F 
ATOM     69  C   UNL A   1      45.436  36.093  29.384  1.00  0.00     0.200 A 
ATOM     70  F   UNL A   1      44.619  36.617  27.231  1.00  0.00    -0.200 F 
ATOM     71  F   UNL A   1      45.886  37.346  29.533  1.00  0.00    -0.200 F 
ENDBRANCH  47  61
BRANCH  48  72
ATOM     72  C   UNL A   1      40.979  24.252  27.517  1.00  0.00     0.064 A 
ATOM     73  C   UNL A   1      41.518  23.114  28.131  1.00  0.00     0.173 A 
ATOM     74  C   UNL A   1      39.945  24.065  26.588  1.00  0.00     0.173 A 
ATOM     75  F   UNL A   1      42.526  23.239  29.007  1.00  0.00    -0.203 F 
ATOM     76  C   UNL A   1      41.058  21.837  27.810  1.00  0.00     0.198 A 
ATOM     77  C   UNL A   1      39.466  22.791  26.289  1.00  0.00     0.198 A 
ATOM     78  F   UNL A   1      39.396  25.121  25.970  1.00  0.00    -0.203 F 
ATOM     79  F   UNL A   1      41.627  20.762  28.372  1.00  0.00    -0.200 F 
ATOM     80  C   UNL A   1      40.031  21.678  26.893  1.00  0.00     0.200 A 
ATOM     81  F   UNL A   1      38.466  22.642  25.410  1.00  0.00    -0.200 F 
ATOM     82  F   UNL A   1      39.591  20.450  26.583  1.00  0.00    -0.200 F 
ENDBRANCH  48  72
BRANCH  60  83
ATOM     83  C   UNL A   1      47.042  27.401  26.148  1.00  0.00     0.064 A 
ATOM     84  C   UNL A   1      48.061  26.769  26.874  1.00  0.00     0.173 A 
ATOM     85  C   UNL A   1      47.214  27.543  24.762  1.00  0.00     0.173 A 
ATOM     86  F   UNL A   1      47.950  26.621  28.204  1.00  0.00    -0.203 F 
ATOM     87  C   UNL A   1      49.218  26.321  26.243  1.00  0.00     0.198 A 
ATOM     88  C   UNL A   1      48.359  27.067  24.130  1.00  0.00     0.198 A 
ATOM     89  F   UNL A   1      46.264  28.132  24.020  1.00  0.00    -0.203 F 
ATOM     90  F   UNL A   1      50.200  25.761  26.965  1.00  0.00    -0.200 F 
ATOM     91  C   UNL A   1      49.363  26.464  24.871  1.00  0.00     0.200 A 
ATOM     92  F   UNL A   1      48.490  27.194  22.802  1.00  0.00    -0.200 F 
ATOM     93  F   UNL A   1      50.475  26.025  24.264  1.00  0.00    -0.200 F 
ENDBRANCH  60  83
ENDBRANCH  34  35
ENDBRANCH  27  29
ENDBRANCH  26  27
ENDBRANCH  25  26
ENDBRANCH  24  25
ENDBRANCH  23  24
ENDBRANCH   1  23
TORSDOF 17
ENDMDL
MODEL 2
REMARK VINA RESULT:     -11.0      4.493      6.788
REMARK SMILES C[C@H](NC(=O)N1CC[C@H](C(=O)OCCOCCOC(=O)c2ccc(-c3c4nc(c(-c5c(F)c(F)c(F)c(F)c5F)c5ccc([nH]5)c(-c5c(F)c(F)c(F)c(F)c5F)c5nc(c(-c6c(F)c(F)c(F)c(F)c6F)c6ccc3[nH]6)C=C5)C=C4)cc2)[C@H]1C)c1ccsc1
REMARK SMILES IDX 14 1 13 2 12 3 10 4 11 5 9 6 6 7 7 8 84 9 8 10 85 11 4 12
REMARK SMILES IDX 3 13 5 15 2 16 1 17 86 18 87 19 90 20 88 21 89 22 15 23
REMARK SMILES IDX 16 24 17 25 18 26 19 27 20 28 21 29 22 30 83 31 23 32 82 33
REMARK SMILES IDX 24 34 25 35 26 36 76 37 27 38 81 39 75 40 77 41 28 42 80 43
REMARK SMILES IDX 74 44 73 45 29 47 61 48 41 49 60 50 42 51 45 52 59 53 78 54
REMARK SMILES IDX 43 55 44 56 58 58 79 59 46 60 30 61 31 62 39 63 32 64 33 65
REMARK SMILES IDX 37 66 40 67 34 68 35 69 38 70 36 71 62 72 63 73 71 74 64 75
REMARK SMILES IDX 65 76 69 77 72 78 66 79 67 80 70 81 68 82 47 83 48 84 56 85
REMARK SMILES IDX 49 86 50 87 54 88 57 89 51 90 52 91 55 92 53 93
REMARK H PARENT 3 14 77 46 45 57
REMARK Flexibility Score: inf
ROOT
ATOM      1  C   UNL A   1      32.692  29.622  26.960  1.00  0.00     0.202 C 
ENDROOT
BRANCH   1   2
ATOM      2  C   UNL A   1      31.872  28.334  27.061  1.00  0.00     0.261 C 
BRANCH   2   3
ATOM      3  O   UNL A   1      31.407  27.868  25.780  1.00  0.00    -0.463 OA
BRANCH   3   4
ATOM      4  C   UNL A   1      30.886  26.606  25.779  1.00  0.00     0.311 C 
ATOM      5  O   UNL A   1      30.290  26.100  26.717  1.00  0.00    -0.252 OA
BRANCH   4   6
ATOM      6  C   UNL A   1      31.198  25.897  24.471  1.00  0.00     0.123 C 
ATOM      7  N   UNL A   1      32.387  23.916  25.056  1.00  0.00    -0.321 N 
ATOM      8  C   UNL A   1      33.368  24.990  24.885  1.00  0.00     0.122 C 
ATOM      9  C   UNL A   1      31.080  24.360  24.547  1.00  0.00     0.098 C 
ATOM     10  C   UNL A   1      32.669  26.096  24.104  1.00  0.00     0.039 C 
ATOM     11  C   UNL A   1      30.779  23.840  23.132  1.00  0.00     0.032 C 
BRANCH   7  12
ATOM     12  C   UNL A   1      32.520  23.158  26.192  1.00  0.00     0.318 C 
ATOM     13  N   UNL A   1      33.201  22.002  26.216  1.00  0.00    -0.331 N 
ATOM     14  H   UNL A   1      32.926  21.440  26.976  1.00  0.00     0.165 HD
ATOM     15  O   UNL A   1      32.060  23.514  27.279  1.00  0.00    -0.249 OA
BRANCH  13  16
ATOM     16  C   UNL A   1      34.235  21.352  25.427  1.00  0.00     0.112 C 
ATOM     17  C   UNL A   1      35.666  21.676  25.819  1.00  0.00     0.036 C 
BRANCH  16  18
ATOM     18  C   UNL A   1      33.909  19.911  25.101  1.00  0.00    -0.015 A 
ATOM     19  C   UNL A   1      34.798  18.894  24.619  1.00  0.00     0.017 A 
ATOM     20  C   UNL A   1      32.637  19.373  25.248  1.00  0.00     0.070 A 
ATOM     21  C   UNL A   1      34.190  17.673  24.429  1.00  0.00     0.065 A 
ATOM     22  S   UNL A   1      32.534  17.722  24.818  1.00  0.00    -0.152 S 
ENDBRANCH  16  18
ENDBRANCH  13  16
ENDBRANCH   7  12
ENDBRANCH   4   6
ENDBRANCH   3   4
ENDBRANCH   2   3
ENDBRANCH   1   2
BRANCH   1  23
ATOM     23  O   UNL A   1      32.206  30.651  26.100  1.00  0.00    -0.374 OA
BRANCH  23  24
ATOM     24  C   UNL A   1      31.428  31.688  26.690  1.00  0.00     0.202 C 
BRANCH  24  25
ATOM     25  C   UNL A   1      32.105  33.049  26.887  1.00  0.00     0.261 C 
BRANCH  25  26
ATOM     26  O   UNL A   1      32.568  33.245  28.234  1.00  0.00    -0.460 OA
BRANCH  26  27
ATOM     27  C   UNL A   1      33.657  34.046  28.334  1.00  0.00     0.338 C 
ATOM     28  O   UNL A   1      33.682  35.263  28.386  1.00  0.00    -0.246 OA
BRANCH  27  29
ATOM     29  C   UNL A   1      34.872  33.238  28.544  1.00  0.00     0.060 A 
ATOM     30  C   UNL A   1      34.700  31.957  29.084  1.00  0.00     0.016 A 
ATOM     31  C   UNL A   1      36.151  33.758  28.338  1.00  0.00     0.016 A 
ATOM     32  C   UNL A   1      35.807  31.216  29.484  1.00  0.00     0.010 A 
ATOM     33  C   UNL A   1      37.265  33.014  28.750  1.00  0.00     0.010 A 
ATOM     34  C   UNL A   1      37.092  31.762  29.368  1.00  0.00    -0.014 A 
BRANCH  34  35
ATOM     35  C   UNL A   1      38.214  31.084  30.061  1.00  0.00     0.031 A 
ATOM     36  C   UNL A   1      38.459  31.390  31.514  1.00  0.00     0.074 A 
ATOM     37  C   UNL A   1      38.955  30.157  29.429  1.00  0.00     0.049 A 
ATOM     38  N   UNL A   1      39.339  30.875  32.335  1.00  0.00    -0.248 NA
ATOM     39  C   UNL A   1      37.594  32.412  32.126  1.00  0.00     0.031 C 
ATOM     40  C   UNL A   1      38.796  29.760  28.032  1.00  0.00     0.029 A 
ATOM     41  N   UNL A   1      39.989  29.380  29.887  1.00  0.00    -0.354 N 
ATOM     42  C   UNL A   1      39.138  31.511  33.553  1.00  0.00     0.074 A 
ATOM     43  C   UNL A   1      38.072  32.470  33.362  1.00  0.00     0.031 C 
ATOM     44  C   UNL A   1      39.708  28.816  27.743  1.00  0.00     0.029 A 
ATOM     45  C   UNL A   1      40.522  28.555  28.928  1.00  0.00     0.049 A 
ATOM     46  H   UNL A   1      40.316  29.410  30.815  1.00  0.00     0.167 HD
ATOM     47  C   UNL A   1      39.776  31.304  34.729  1.00  0.00     0.037 A 
ATOM     48  C   UNL A   1      41.558  27.697  29.001  1.00  0.00     0.037 A 
ATOM     49  C   UNL A   1      40.822  30.336  34.925  1.00  0.00     0.049 A 
ATOM     50  C   UNL A   1      42.272  27.509  30.316  1.00  0.00     0.074 A 
ATOM     51  C   UNL A   1      41.495  30.018  36.091  1.00  0.00     0.029 A 
ATOM     52  N   UNL A   1      41.351  29.535  33.924  1.00  0.00    -0.354 N 
ATOM     53  N   UNL A   1      42.034  28.073  31.475  1.00  0.00    -0.248 NA
ATOM     54  C   UNL A   1      43.390  26.556  30.333  1.00  0.00     0.031 C 
ATOM     55  C   UNL A   1      42.466  29.060  35.786  1.00  0.00     0.029 A 
ATOM     56  C   UNL A   1      42.364  28.745  34.440  1.00  0.00     0.049 A 
ATOM     57  H   UNL A   1      41.050  29.529  32.987  1.00  0.00     0.167 HD
ATOM     58  C   UNL A   1      42.956  27.530  32.362  1.00  0.00     0.074 A 
ATOM     59  C   UNL A   1      43.744  26.575  31.611  1.00  0.00     0.031 C 
ATOM     60  C   UNL A   1      43.137  27.799  33.679  1.00  0.00     0.037 A 
BRANCH  47  61
ATOM     61  C   UNL A   1      39.375  32.151  35.900  1.00  0.00     0.064 A 
ATOM     62  C   UNL A   1      39.952  33.409  36.131  1.00  0.00     0.173 A 
ATOM     63  C   UNL A   1      38.359  31.723  36.767  1.00  0.00     0.173 A 
ATOM     64  F   UNL A   1      40.937  33.857  35.338  1.00  0.00    -0.203 F 
ATOM     65  C   UNL A   1      39.535  34.202  37.198  1.00  0.00     0.198 A 
ATOM     66  C   UNL A   1      37.927  32.529  37.818  1.00  0.00     0.198 A 
ATOM     67  F   UNL A   1      37.774  30.530  36.586  1.00  0.00    -0.203 F 
ATOM     68  F   UNL A   1      40.121  35.385  37.420  1.00  0.00    -0.200 F 
ATOM     69  C   UNL A   1      38.517  33.765  38.033  1.00  0.00     0.200 A 
ATOM     70  F   UNL A   1      36.937  32.110  38.617  1.00  0.00    -0.200 F 
ATOM     71  F   UNL A   1      38.108  34.534  39.051  1.00  0.00    -0.200 F 
ENDBRANCH  47  61
BRANCH  48  72
ATOM     72  C   UNL A   1      41.997  26.955  27.790  1.00  0.00     0.064 A 
ATOM     73  C   UNL A   1      41.496  25.681  27.492  1.00  0.00     0.173 A 
ATOM     74  C   UNL A   1      42.959  27.498  26.924  1.00  0.00     0.173 A 
ATOM     75  F   UNL A   1      40.595  25.110  28.304  1.00  0.00    -0.203 F 
ATOM     76  C   UNL A   1      41.958  24.967  26.387  1.00  0.00     0.198 A 
ATOM     77  C   UNL A   1      43.398  26.795  25.804  1.00  0.00     0.198 A 
ATOM     78  F   UNL A   1      43.472  28.713  27.164  1.00  0.00    -0.203 F 
ATOM     79  F   UNL A   1      41.502  23.728  26.156  1.00  0.00    -0.200 F 
ATOM     80  C   UNL A   1      42.905  25.525  25.543  1.00  0.00     0.200 A 
ATOM     81  F   UNL A   1      44.305  27.343  24.984  1.00  0.00    -0.200 F 
ATOM     82  F   UNL A   1      43.350  24.837  24.483  1.00  0.00    -0.200 F 
ENDBRANCH  48  72
BRANCH  60  83
ATOM     83  C   UNL A   1      44.213  27.037  34.395  1.00  0.00     0.064 A 
ATOM     84  C   UNL A   1      43.971  25.772  34.949  1.00  0.00     0.173 A 
ATOM     85  C   UNL A   1      45.512  27.560  34.491  1.00  0.00     0.173 A 
ATOM     86  F   UNL A   1      42.742  25.235  34.894  1.00  0.00    -0.203 F 
ATOM     87  C   UNL A   1      44.983  25.070  35.598  1.00  0.00     0.198 A 
ATOM     88  C   UNL A   1      46.528  26.842  35.115  1.00  0.00     0.198 A 
ATOM     89  F   UNL A   1      45.797  28.762  33.969  1.00  0.00    -0.203 F 
ATOM     90  F   UNL A   1      44.718  23.882  36.161  1.00  0.00    -0.200 F 
ATOM     91  C   UNL A   1      46.262  25.602  35.674  1.00  0.00     0.200 A 
ATOM     92  F   UNL A   1      47.766  27.351  35.175  1.00  0.00    -0.200 F 
ATOM     93  F   UNL A   1      47.236  24.920  36.293  1.00  0.00    -0.200 F 
ENDBRANCH  60  83
ENDBRANCH  34  35
ENDBRANCH  27  29
ENDBRANCH  26  27
ENDBRANCH  25  26
ENDBRANCH  24  25
ENDBRANCH  23  24
ENDBRANCH   1  23
TORSDOF 17
ENDMDL
MODEL 3
REMARK VINA RESULT:     -11.0      4.382      6.768
REMARK SMILES C[C@H](NC(=O)N1CC[C@H](C(=O)OCCOCCOC(=O)c2ccc(-c3c4nc(c(-c5c(F)c(F)c(F)c(F)c5F)c5ccc([nH]5)c(-c5c(F)c(F)c(F)c(F)c5F)c5nc(c(-c6c(F)c(F)c(F)c(F)c6F)c6ccc3[nH]6)C=C5)C=C4)cc2)[C@H]1C)c1ccsc1
REMARK SMILES IDX 14 1 13 2 12 3 10 4 11 5 9 6 6 7 7 8 84 9 8 10 85 11 4 12
REMARK SMILES IDX 3 13 5 15 2 16 1 17 86 18 87 19 90 20 88 21 89 22 15 23
REMARK SMILES IDX 16 24 17 25 18 26 19 27 20 28 21 29 22 30 83 31 23 32 82 33
REMARK SMILES IDX 24 34 25 35 26 36 76 37 27 38 81 39 75 40 77 41 28 42 80 43
REMARK SMILES IDX 74 44 73 45 29 47 61 48 41 49 60 50 42 51 45 52 59 53 78 54
REMARK SMILES IDX 43 55 44 56 58 58 79 59 46 60 30 61 31 62 39 63 32 64 33 65
REMARK SMILES IDX 37 66 40 67 34 68 35 69 38 70 36 71 62 72 63 73 71 74 64 75
REMARK SMILES IDX 65 76 69 77 72 78 66 79 67 80 70 81 68 82 47 83 48 84 56 85
REMARK SMILES IDX 49 86 50 87 54 88 57 89 51 90 52 91 55 92 53 93
REMARK H PARENT 3 14 77 46 45 57
REMARK Flexibility Score: inf
ROOT
ATOM      1  C   UNL A   1      31.400  28.087  27.255  1.00  0.00     0.202 C 
ENDROOT
BRANCH   1   2
ATOM      2  C   UNL A   1      31.008  27.231  26.049  1.00  0.00     0.261 C 
BRANCH   2   3
ATOM      3  O   UNL A   1      30.993  25.822  26.347  1.00  0.00    -0.463 OA
BRANCH   3   4
ATOM      4  C   UNL A   1      32.178  25.175  26.140  1.00  0.00     0.311 C 
ATOM      5  O   UNL A   1      33.069  25.576  25.410  1.00  0.00    -0.252 OA
BRANCH   4   6
ATOM      6  C   UNL A   1      32.211  23.859  26.900  1.00  0.00     0.123 C 
ATOM      7  N   UNL A   1      33.219  22.271  25.434  1.00  0.00    -0.321 N 
ATOM      8  C   UNL A   1      31.776  22.262  25.177  1.00  0.00     0.122 C 
ATOM      9  C   UNL A   1      33.492  23.031  26.664  1.00  0.00     0.098 C 
ATOM     10  C   UNL A   1      31.117  22.925  26.380  1.00  0.00     0.039 C 
ATOM     11  C   UNL A   1      33.702  22.129  27.891  1.00  0.00     0.032 C 
BRANCH   7  12
ATOM     12  C   UNL A   1      34.024  22.341  24.326  1.00  0.00     0.318 C 
ATOM     13  N   UNL A   1      35.335  22.056  24.363  1.00  0.00    -0.331 N 
ATOM     14  H   UNL A   1      35.813  22.466  23.606  1.00  0.00     0.165 HD
ATOM     15  O   UNL A   1      33.586  22.628  23.209  1.00  0.00    -0.249 OA
BRANCH  13  16
ATOM     16  C   UNL A   1      36.243  21.306  25.215  1.00  0.00     0.112 C 
ATOM     17  C   UNL A   1      36.581  19.901  24.746  1.00  0.00     0.036 C 
BRANCH  16  18
ATOM     18  C   UNL A   1      37.373  22.151  25.760  1.00  0.00    -0.015 A 
ATOM     19  C   UNL A   1      38.721  21.747  26.038  1.00  0.00     0.017 A 
ATOM     20  C   UNL A   1      37.229  23.499  26.065  1.00  0.00     0.070 A 
ATOM     21  C   UNL A   1      39.515  22.763  26.521  1.00  0.00     0.065 A 
ATOM     22  S   UNL A   1      38.656  24.227  26.659  1.00  0.00    -0.152 S 
ENDBRANCH  16  18
ENDBRANCH  13  16
ENDBRANCH   7  12
ENDBRANCH   4   6
ENDBRANCH   3   4
ENDBRANCH   2   3
ENDBRANCH   1   2
BRANCH   1  23
ATOM     23  O   UNL A   1      32.358  29.123  27.048  1.00  0.00    -0.374 OA
BRANCH  23  24
ATOM     24  C   UNL A   1      32.057  30.109  26.065  1.00  0.00     0.202 C 
BRANCH  24  25
ATOM     25  C   UNL A   1      32.151  31.579  26.491  1.00  0.00     0.261 C 
BRANCH  25  26
ATOM     26  O   UNL A   1      32.746  31.740  27.790  1.00  0.00    -0.460 OA
BRANCH  26  27
ATOM     27  C   UNL A   1      33.672  32.727  27.855  1.00  0.00     0.338 C 
ATOM     28  O   UNL A   1      33.478  33.930  27.847  1.00  0.00    -0.246 OA
BRANCH  27  29
ATOM     29  C   UNL A   1      35.010  32.162  28.110  1.00  0.00     0.060 A 
ATOM     30  C   UNL A   1      35.075  30.800  28.430  1.00  0.00     0.016 A 
ATOM     31  C   UNL A   1      36.153  32.961  28.158  1.00  0.00     0.016 A 
ATOM     32  C   UNL A   1      36.273  30.245  28.866  1.00  0.00     0.010 A 
ATOM     33  C   UNL A   1      37.357  32.402  28.606  1.00  0.00     0.010 A 
ATOM     34  C   UNL A   1      37.409  31.054  29.006  1.00  0.00    -0.014 A 
BRANCH  34  35
ATOM     35  C   UNL A   1      38.577  30.513  29.741  1.00  0.00     0.031 A 
ATOM     36  C   UNL A   1      38.779  30.912  31.178  1.00  0.00     0.074 A 
ATOM     37  C   UNL A   1      39.402  29.623  29.162  1.00  0.00     0.049 A 
ATOM     38  N   UNL A   1      39.691  30.518  32.030  1.00  0.00    -0.248 NA
ATOM     39  C   UNL A   1      37.822  31.885  31.731  1.00  0.00     0.031 C 
ATOM     40  C   UNL A   1      39.294  29.144  27.786  1.00  0.00     0.029 A 
ATOM     41  N   UNL A   1      40.495  28.963  29.666  1.00  0.00    -0.354 N 
ATOM     42  C   UNL A   1      39.422  31.195  33.212  1.00  0.00     0.074 A 
ATOM     43  C   UNL A   1      38.279  32.046  32.965  1.00  0.00     0.031 C 
ATOM     44  C   UNL A   1      40.287  28.269  27.552  1.00  0.00     0.029 A 
ATOM     45  C   UNL A   1      41.108  28.140  28.754  1.00  0.00     0.049 A 
ATOM     46  H   UNL A   1      40.808  29.068  30.593  1.00  0.00     0.167 HD
ATOM     47  C   UNL A   1      40.062  31.103  34.401  1.00  0.00     0.037 A 
ATOM     48  C   UNL A   1      42.213  27.380  28.878  1.00  0.00     0.037 A 
ATOM     49  C   UNL A   1      41.187  30.241  34.653  1.00  0.00     0.049 A 
ATOM     50  C   UNL A   1      42.926  27.322  30.205  1.00  0.00     0.074 A 
ATOM     51  C   UNL A   1      41.872  30.042  35.839  1.00  0.00     0.029 A 
ATOM     52  N   UNL A   1      41.794  29.439  33.699  1.00  0.00    -0.354 N 
ATOM     53  N   UNL A   1      42.628  27.921  31.333  1.00  0.00    -0.248 NA
ATOM     54  C   UNL A   1      44.123  26.472  30.279  1.00  0.00     0.031 C 
ATOM     55  C   UNL A   1      42.926  29.158  35.589  1.00  0.00     0.029 A 
ATOM     56  C   UNL A   1      42.866  28.768  34.261  1.00  0.00     0.049 A 
ATOM     57  H   UNL A   1      41.505  29.360  32.761  1.00  0.00     0.167 HD
ATOM     58  C   UNL A   1      43.583  27.506  32.252  1.00  0.00     0.074 A 
ATOM     59  C   UNL A   1      44.459  26.586  31.556  1.00  0.00     0.031 C 
ATOM     60  C   UNL A   1      43.726  27.855  33.554  1.00  0.00     0.037 A 
BRANCH  47  61
ATOM     61  C   UNL A   1      39.577  31.971  35.525  1.00  0.00     0.064 A 
ATOM     62  C   UNL A   1      38.591  31.534  36.420  1.00  0.00     0.173 A 
ATOM     63  C   UNL A   1      40.152  33.232  35.741  1.00  0.00     0.173 A 
ATOM     64  F   UNL A   1      38.001  30.341  36.247  1.00  0.00    -0.203 F 
ATOM     65  C   UNL A   1      38.185  32.336  37.485  1.00  0.00     0.198 A 
ATOM     66  C   UNL A   1      39.762  34.021  36.820  1.00  0.00     0.198 A 
ATOM     67  F   UNL A   1      41.101  33.693  34.914  1.00  0.00    -0.203 F 
ATOM     68  F   UNL A   1      37.218  31.913  38.310  1.00  0.00    -0.200 F 
ATOM     69  C   UNL A   1      38.778  33.574  37.688  1.00  0.00     0.200 A 
ATOM     70  F   UNL A   1      40.342  35.212  37.022  1.00  0.00    -0.200 F 
ATOM     71  F   UNL A   1      38.397  34.339  38.720  1.00  0.00    -0.200 F 
ENDBRANCH  47  61
BRANCH  48  72
ATOM     72  C   UNL A   1      42.728  26.619  27.709  1.00  0.00     0.064 A 
ATOM     73  C   UNL A   1      42.372  25.281  27.494  1.00  0.00     0.173 A 
ATOM     74  C   UNL A   1      43.620  27.212  26.802  1.00  0.00     0.173 A 
ATOM     75  F   UNL A   1      41.543  24.664  28.348  1.00  0.00    -0.203 F 
ATOM     76  C   UNL A   1      42.906  24.556  26.430  1.00  0.00     0.198 A 
ATOM     77  C   UNL A   1      44.131  26.495  25.722  1.00  0.00     0.198 A 
ATOM     78  F   UNL A   1      43.994  28.489  26.963  1.00  0.00    -0.203 F 
ATOM     79  F   UNL A   1      42.591  23.263  26.278  1.00  0.00    -0.200 F 
ATOM     80  C   UNL A   1      43.782  25.164  25.544  1.00  0.00     0.200 A 
ATOM     81  F   UNL A   1      44.968  27.089  24.861  1.00  0.00    -0.200 F 
ATOM     82  F   UNL A   1      44.298  24.466  24.522  1.00  0.00    -0.200 F 
ENDBRANCH  48  72
BRANCH  60  83
ATOM     83  C   UNL A   1      44.856  27.227  34.315  1.00  0.00     0.064 A 
ATOM     84  C   UNL A   1      46.091  27.876  34.461  1.00  0.00     0.173 A 
ATOM     85  C   UNL A   1      44.690  25.982  34.940  1.00  0.00     0.173 A 
ATOM     86  F   UNL A   1      46.304  29.062  33.871  1.00  0.00    -0.203 F 
ATOM     87  C   UNL A   1      47.127  27.288  35.183  1.00  0.00     0.198 A 
ATOM     88  C   UNL A   1      45.717  25.412  35.685  1.00  0.00     0.198 A 
ATOM     89  F   UNL A   1      43.524  25.325  34.838  1.00  0.00    -0.203 F 
ATOM     90  F   UNL A   1      48.314  27.905  35.270  1.00  0.00    -0.200 F 
ATOM     91  C   UNL A   1      46.937  26.061  35.800  1.00  0.00     0.200 A 
ATOM     92  F   UNL A   1      45.527  24.232  36.292  1.00  0.00    -0.200 F 
ATOM     93  F   UNL A   1      47.933  25.500  36.500  1.00  0.00    -0.200 F 
ENDBRANCH  60  83
ENDBRANCH  34  35
ENDBRANCH  27  29
ENDBRANCH  26  27
ENDBRANCH  25  26
ENDBRANCH  24  25
ENDBRANCH  23  24
ENDBRANCH   1  23
TORSDOF 17
ENDMDL
