MODEL 1
REMARK VINA RESULT:     -12.8      0.000      0.000
REMARK SMILES COc1ccccc1C(=O)N/C(=C/c1ccc2c(c1)OCO2)C(=O)Nc1ccc(C(=O)OCCOCCOC(=O)c2ccc(-c3c4nc(c(-c5c(F)c(F)c(F)c(F)c5F)c5ccc([nH]5)c(-c5c(F)c(F)c(F)c(F)c5F)c5nc(c(-c6c(F)c(F)c(F)c(F)c6F)c6ccc3[nH]6)C=C5)C=C4)cc2)cc1
REMARK SMILES IDX 33 1 32 2 30 3 31 4 29 5 26 6 27 7 105 8 28 9 104 10 25 11
REMARK SMILES IDX 23 12 24 13 12 15 13 16 11 17 9 18 10 19 8 21 3 22 4 23 5 24
REMARK SMILES IDX 7 25 6 26 2 27 1 28 14 29 15 30 19 31 16 32 18 33 17 34
REMARK SMILES IDX 20 35 22 36 21 37 34 38 35 39 36 40 37 41 38 42 39 43 40 44
REMARK SMILES IDX 41 45 42 46 103 47 43 48 102 49 44 50 45 51 46 52 96 53
REMARK SMILES IDX 47 54 101 55 95 56 97 57 48 58 100 59 94 60 93 61 49 63
REMARK SMILES IDX 81 64 61 65 80 66 62 67 65 68 79 69 98 70 63 71 64 72 78 74
REMARK SMILES IDX 99 75 66 76 50 77 51 78 59 79 52 80 53 81 57 82 60 83 54 84
REMARK SMILES IDX 55 85 58 86 56 87 82 88 83 89 91 90 84 91 85 92 89 93 92 94
REMARK SMILES IDX 86 95 87 96 90 97 88 98 67 99 68 100 76 101 69 102 70 103
REMARK SMILES IDX 74 104 77 105 71 106 72 107 75 108 73 109
REMARK H PARENT 25 14 11 20 97 62 65 73
REMARK Flexibility Score: inf
ROOT
ATOM      1  C   UNL A   1      32.745  36.334  30.960  1.00  0.00     0.261 C 
ENDROOT
BRANCH   1   2
ATOM      2  O   UNL A   1      32.562  35.235  30.065  1.00  0.00    -0.460 OA
BRANCH   2   3
ATOM      3  C   UNL A   1      33.340  35.285  28.957  1.00  0.00     0.338 C 
ATOM      4  O   UNL A   1      34.020  36.208  28.552  1.00  0.00    -0.246 OA
BRANCH   3   5
ATOM      5  C   UNL A   1      33.381  33.943  28.396  1.00  0.00     0.060 A 
ATOM      6  C   UNL A   1      33.590  30.315  27.021  1.00  0.00     0.041 A 
ATOM      7  C   UNL A   1      32.364  31.275  26.798  1.00  0.00     0.027 A 
ATOM      8  C   UNL A   1      34.661  31.102  27.675  1.00  0.00     0.027 A 
ATOM      9  C   UNL A   1      32.162  33.207  27.508  1.00  0.00     0.018 A 
ATOM     10  C   UNL A   1      34.650  32.919  28.501  1.00  0.00     0.018 A 
BRANCH   6  11
ATOM     11  N   UNL A   1      33.567  28.973  27.520  1.00  0.00    -0.321 N 
ATOM     12  C   UNL A   1      32.634  28.120  26.934  1.00  0.00     0.272 C 
ATOM     13  O   UNL A   1      31.484  28.315  27.336  1.00  0.00    -0.267 OA
ATOM     14  H   UNL A   1      34.175  28.671  28.233  1.00  0.00     0.170 HD
BRANCH  12  15
ATOM     15  C   UNL A   1      32.861  27.299  25.570  1.00  0.00     0.108 C 
ATOM     16  C   UNL A   1      33.122  25.950  25.406  1.00  0.00     0.040 C 
BRANCH  15  17
ATOM     17  N   UNL A   1      32.970  27.978  24.354  1.00  0.00    -0.317 N 
ATOM     18  C   UNL A   1      32.187  28.559  23.391  1.00  0.00     0.259 C 
ATOM     19  O   UNL A   1      32.773  28.951  22.376  1.00  0.00    -0.269 OA
ATOM     20  H   UNL A   1      33.919  28.068  24.108  1.00  0.00     0.170 HD
BRANCH  18  21
ATOM     21  C   UNL A   1      30.727  28.694  23.436  1.00  0.00     0.082 A 
ATOM     22  C   UNL A   1      29.792  27.676  23.567  1.00  0.00     0.131 A 
ATOM     23  C   UNL A   1      28.486  27.946  23.126  1.00  0.00     0.047 A 
ATOM     24  C   UNL A   1      28.060  29.242  22.836  1.00  0.00     0.004 A 
ATOM     25  C   UNL A   1      30.266  30.023  23.317  1.00  0.00     0.018 A 
ATOM     26  C   UNL A   1      28.929  30.299  23.049  1.00  0.00     0.001 A 
BRANCH  22  27
ATOM     27  O   UNL A   1      29.898  26.418  24.084  1.00  0.00    -0.496 OA
ATOM     28  C   UNL A   1      30.283  25.293  23.315  1.00  0.00     0.278 C 
ENDBRANCH  22  27
ENDBRANCH  18  21
ENDBRANCH  15  17
BRANCH  16  29
ATOM     29  C   UNL A   1      32.963  24.807  26.394  1.00  0.00    -0.019 A 
ATOM     30  C   UNL A   1      31.243  24.161  26.711  1.00  0.00     0.012 A 
ATOM     31  C   UNL A   1      34.387  23.777  25.951  1.00  0.00     0.058 A 
ATOM     32  C   UNL A   1      30.790  22.406  26.385  1.00  0.00     0.051 A 
ATOM     33  C   UNL A   1      34.040  22.121  25.641  1.00  0.00     0.166 A 
ATOM     34  C   UNL A   1      32.127  21.352  25.818  1.00  0.00     0.165 A 
ATOM     35  O   UNL A   1      35.056  20.788  24.836  1.00  0.00    -0.454 OA
ATOM     36  O   UNL A   1      32.154  19.661  25.174  1.00  0.00    -0.454 OA
ATOM     37  C   UNL A   1      33.892  19.270  24.491  1.00  0.00     0.468 C 
ENDBRANCH  16  29
ENDBRANCH  12  15
ENDBRANCH   6  11
ENDBRANCH   3   5
ENDBRANCH   2   3
ENDBRANCH   1   2
BRANCH   1  38
ATOM     38  C   UNL A   1      33.246  35.843  32.323  1.00  0.00     0.202 C 
BRANCH  38  39
ATOM     39  O   UNL A   1      32.748  34.579  32.765  1.00  0.00    -0.374 OA
BRANCH  39  40
ATOM     40  C   UNL A   1      33.650  33.475  32.623  1.00  0.00     0.202 C 
BRANCH  40  41
ATOM     41  C   UNL A   1      34.864  33.480  33.556  1.00  0.00     0.261 C 
BRANCH  41  42
ATOM     42  O   UNL A   1      35.695  32.327  33.315  1.00  0.00    -0.460 OA
BRANCH  42  43
ATOM     43  C   UNL A   1      36.989  32.482  33.679  1.00  0.00     0.338 C 
ATOM     44  O   UNL A   1      37.418  32.988  34.702  1.00  0.00    -0.246 OA
BRANCH  43  45
ATOM     45  C   UNL A   1      37.853  31.747  32.737  1.00  0.00     0.060 A 
ATOM     46  C   UNL A   1      38.777  30.844  33.280  1.00  0.00     0.016 A 
ATOM     47  C   UNL A   1      37.806  31.973  31.361  1.00  0.00     0.016 A 
ATOM     48  C   UNL A   1      39.699  30.208  32.456  1.00  0.00     0.010 A 
ATOM     49  C   UNL A   1      38.739  31.340  30.535  1.00  0.00     0.010 A 
ATOM     50  C   UNL A   1      39.714  30.487  31.085  1.00  0.00    -0.014 A 
BRANCH  50  51
ATOM     51  C   UNL A   1      40.842  30.004  30.253  1.00  0.00     0.031 A 
ATOM     52  C   UNL A   1      41.989  30.932  29.970  1.00  0.00     0.074 A 
ATOM     53  C   UNL A   1      40.854  28.746  29.779  1.00  0.00     0.049 A 
ATOM     54  N   UNL A   1      43.046  30.747  29.221  1.00  0.00    -0.248 NA
ATOM     55  C   UNL A   1      41.936  32.254  30.617  1.00  0.00     0.031 C 
ATOM     56  C   UNL A   1      39.822  27.742  30.026  1.00  0.00     0.029 A 
ATOM     57  N   UNL A   1      41.767  28.105  28.980  1.00  0.00    -0.354 N 
ATOM     58  C   UNL A   1      43.772  31.928  29.294  1.00  0.00     0.074 A 
ATOM     59  C   UNL A   1      43.021  32.838  30.131  1.00  0.00     0.031 C 
ATOM     60  C   UNL A   1      40.154  26.610  29.383  1.00  0.00     0.029 A 
ATOM     61  C   UNL A   1      41.396  26.826  28.644  1.00  0.00     0.049 A 
ATOM     62  H   UNL A   1      42.607  28.519  28.679  1.00  0.00     0.167 HD
ATOM     63  C   UNL A   1      44.963  32.222  28.718  1.00  0.00     0.037 A 
ATOM     64  C   UNL A   1      41.979  25.945  27.808  1.00  0.00     0.037 A 
ATOM     65  C   UNL A   1      45.704  31.309  27.887  1.00  0.00     0.049 A 
ATOM     66  C   UNL A   1      43.262  26.327  27.115  1.00  0.00     0.074 A 
ATOM     67  C   UNL A   1      46.931  31.501  27.276  1.00  0.00     0.029 A 
ATOM     68  N   UNL A   1      45.281  30.033  27.540  1.00  0.00    -0.354 N 
ATOM     69  N   UNL A   1      43.957  27.435  27.207  1.00  0.00    -0.248 NA
ATOM     70  C   UNL A   1      43.842  25.332  26.202  1.00  0.00     0.031 C 
ATOM     71  C   UNL A   1      47.213  30.373  26.499  1.00  0.00     0.029 A 
ATOM     72  C   UNL A   1      46.205  29.443  26.693  1.00  0.00     0.049 A 
ATOM     73  H   UNL A   1      44.447  29.611  27.850  1.00  0.00     0.167 HD
ATOM     74  C   UNL A   1      45.073  27.257  26.396  1.00  0.00     0.074 A 
ATOM     75  C   UNL A   1      44.967  25.928  25.832  1.00  0.00     0.031 C 
ATOM     76  C   UNL A   1      46.092  28.114  26.144  1.00  0.00     0.037 A 
BRANCH  63  77
ATOM     77  C   UNL A   1      45.525  33.598  28.938  1.00  0.00     0.064 A 
ATOM     78  C   UNL A   1      46.429  33.877  29.976  1.00  0.00     0.173 A 
ATOM     79  C   UNL A   1      45.185  34.647  28.070  1.00  0.00     0.173 A 
ATOM     80  F   UNL A   1      46.780  32.915  30.842  1.00  0.00    -0.203 F 
ATOM     81  C   UNL A   1      46.944  35.159  30.153  1.00  0.00     0.198 A 
ATOM     82  C   UNL A   1      45.731  35.919  28.227  1.00  0.00     0.198 A 
ATOM     83  F   UNL A   1      44.330  34.438  27.057  1.00  0.00    -0.203 F 
ATOM     84  F   UNL A   1      47.763  35.412  31.183  1.00  0.00    -0.200 F 
ATOM     85  C   UNL A   1      46.603  36.176  29.274  1.00  0.00     0.200 A 
ATOM     86  F   UNL A   1      45.413  36.894  27.366  1.00  0.00    -0.200 F 
ATOM     87  F   UNL A   1      47.109  37.405  29.439  1.00  0.00    -0.200 F 
ENDBRANCH  63  77
BRANCH  64  88
ATOM     88  C   UNL A   1      41.347  24.620  27.565  1.00  0.00     0.064 A 
ATOM     89  C   UNL A   1      41.879  23.450  28.121  1.00  0.00     0.173 A 
ATOM     90  C   UNL A   1      40.212  24.496  26.750  1.00  0.00     0.173 A 
ATOM     91  F   UNL A   1      42.977  23.513  28.889  1.00  0.00    -0.203 F 
ATOM     92  C   UNL A   1      41.318  22.203  27.851  1.00  0.00     0.198 A 
ATOM     93  C   UNL A   1      39.628  23.252  26.511  1.00  0.00     0.198 A 
ATOM     94  F   UNL A   1      39.659  25.583  26.193  1.00  0.00    -0.203 F 
ATOM     95  F   UNL A   1      41.882  21.096  28.350  1.00  0.00    -0.200 F 
ATOM     96  C   UNL A   1      40.189  22.106  27.052  1.00  0.00     0.200 A 
ATOM     97  F   UNL A   1      38.527  23.167  25.753  1.00  0.00    -0.200 F 
ATOM     98  F   UNL A   1      39.647  20.908  26.796  1.00  0.00    -0.200 F 
ENDBRANCH  64  88
BRANCH  76  99
ATOM     99  C   UNL A   1      47.207  27.628  25.259  1.00  0.00     0.064 A 
ATOM    100  C   UNL A   1      47.238  27.903  23.883  1.00  0.00     0.173 A 
ATOM    101  C   UNL A   1      48.283  26.910  25.806  1.00  0.00     0.173 A 
ATOM    102  F   UNL A   1      46.230  28.575  23.305  1.00  0.00    -0.203 F 
ATOM    103  C   UNL A   1      48.285  27.450  23.085  1.00  0.00     0.198 A 
ATOM    104  C   UNL A   1      49.347  26.493  25.012  1.00  0.00     0.198 A 
ATOM    105  F   UNL A   1      48.310  26.626  27.116  1.00  0.00    -0.203 F 
ATOM    106  F   UNL A   1      48.264  27.675  21.763  1.00  0.00    -0.200 F 
ATOM    107  C   UNL A   1      49.343  26.755  23.651  1.00  0.00     0.200 A 
ATOM    108  F   UNL A   1      50.378  25.840  25.566  1.00  0.00    -0.200 F 
ATOM    109  F   UNL A   1      50.355  26.330  22.883  1.00  0.00    -0.200 F 
ENDBRANCH  76  99
ENDBRANCH  50  51
ENDBRANCH  43  45
ENDBRANCH  42  43
ENDBRANCH  41  42
ENDBRANCH  40  41
ENDBRANCH  39  40
ENDBRANCH  38  39
ENDBRANCH   1  38
TORSDOF 20
ENDMDL
MODEL 2
REMARK VINA RESULT:     -12.5      1.126      6.814
REMARK SMILES COc1ccccc1C(=O)N/C(=C/c1ccc2c(c1)OCO2)C(=O)Nc1ccc(C(=O)OCCOCCOC(=O)c2ccc(-c3c4nc(c(-c5c(F)c(F)c(F)c(F)c5F)c5ccc([nH]5)c(-c5c(F)c(F)c(F)c(F)c5F)c5nc(c(-c6c(F)c(F)c(F)c(F)c6F)c6ccc3[nH]6)C=C5)C=C4)cc2)cc1
REMARK SMILES IDX 33 1 32 2 30 3 31 4 29 5 26 6 27 7 105 8 28 9 104 10 25 11
REMARK SMILES IDX 23 12 24 13 12 15 13 16 11 17 9 18 10 19 8 21 3 22 4 23 5 24
REMARK SMILES IDX 7 25 6 26 2 27 1 28 14 29 15 30 19 31 16 32 18 33 17 34
REMARK SMILES IDX 20 35 22 36 21 37 34 38 35 39 36 40 37 41 38 42 39 43 40 44
REMARK SMILES IDX 41 45 42 46 103 47 43 48 102 49 44 50 45 51 46 52 96 53
REMARK SMILES IDX 47 54 101 55 95 56 97 57 48 58 100 59 94 60 93 61 49 63
REMARK SMILES IDX 81 64 61 65 80 66 62 67 65 68 79 69 98 70 63 71 64 72 78 74
REMARK SMILES IDX 99 75 66 76 50 77 51 78 59 79 52 80 53 81 57 82 60 83 54 84
REMARK SMILES IDX 55 85 58 86 56 87 82 88 83 89 91 90 84 91 85 92 89 93 92 94
REMARK SMILES IDX 86 95 87 96 90 97 88 98 67 99 68 100 76 101 69 102 70 103
REMARK SMILES IDX 74 104 77 105 71 106 72 107 75 108 73 109
REMARK H PARENT 25 14 11 20 97 62 65 73
REMARK Flexibility Score: inf
ROOT
ATOM      1  C   UNL A   1      33.687  34.821  31.318  1.00  0.00     0.261 C 
ENDROOT
BRANCH   1   2
ATOM      2  O   UNL A   1      32.793  35.179  30.261  1.00  0.00    -0.460 OA
BRANCH   2   3
ATOM      3  C   UNL A   1      33.384  35.283  29.046  1.00  0.00     0.338 C 
ATOM      4  O   UNL A   1      33.940  36.246  28.556  1.00  0.00    -0.246 OA
BRANCH   3   5
ATOM      5  C   UNL A   1      33.409  33.949  28.462  1.00  0.00     0.060 A 
ATOM      6  C   UNL A   1      33.581  30.345  27.022  1.00  0.00     0.041 A 
ATOM      7  C   UNL A   1      32.346  31.305  26.856  1.00  0.00     0.027 A 
ATOM      8  C   UNL A   1      34.671  31.125  27.653  1.00  0.00     0.027 A 
ATOM      9  C   UNL A   1      32.163  33.225  27.602  1.00  0.00     0.018 A 
ATOM     10  C   UNL A   1      34.684  32.928  28.508  1.00  0.00     0.018 A 
BRANCH   6  11
ATOM     11  N   UNL A   1      33.578  28.995  27.499  1.00  0.00    -0.321 N 
ATOM     12  C   UNL A   1      32.622  28.151  26.938  1.00  0.00     0.272 C 
ATOM     13  O   UNL A   1      31.489  28.339  27.388  1.00  0.00    -0.267 OA
ATOM     14  H   UNL A   1      34.214  28.682  28.182  1.00  0.00     0.170 HD
BRANCH  12  15
ATOM     15  C   UNL A   1      32.794  27.353  25.553  1.00  0.00     0.108 C 
ATOM     16  C   UNL A   1      33.026  26.003  25.355  1.00  0.00     0.040 C 
BRANCH  15  17
ATOM     17  N   UNL A   1      32.881  28.053  24.347  1.00  0.00    -0.317 N 
ATOM     18  C   UNL A   1      32.115  28.395  23.263  1.00  0.00     0.259 C 
ATOM     19  O   UNL A   1      32.706  28.957  22.333  1.00  0.00    -0.269 OA
ATOM     20  H   UNL A   1      33.788  28.421  24.240  1.00  0.00     0.170 HD
BRANCH  18  21
ATOM     21  C   UNL A   1      30.690  28.095  23.088  1.00  0.00     0.082 A 
ATOM     22  C   UNL A   1      29.723  28.911  22.515  1.00  0.00     0.131 A 
ATOM     23  C   UNL A   1      28.385  28.654  22.858  1.00  0.00     0.047 A 
ATOM     24  C   UNL A   1      28.003  27.480  23.505  1.00  0.00     0.004 A 
ATOM     25  C   UNL A   1      30.301  26.831  23.581  1.00  0.00     0.018 A 
ATOM     26  C   UNL A   1      28.958  26.511  23.761  1.00  0.00     0.001 A 
BRANCH  22  27
ATOM     27  O   UNL A   1      29.827  29.943  21.628  1.00  0.00    -0.496 OA
ATOM     28  C   UNL A   1      28.831  30.939  21.478  1.00  0.00     0.278 C 
ENDBRANCH  22  27
ENDBRANCH  18  21
ENDBRANCH  15  17
BRANCH  16  29
ATOM     29  C   UNL A   1      32.874  24.845  26.326  1.00  0.00    -0.019 A 
ATOM     30  C   UNL A   1      31.159  24.172  26.621  1.00  0.00     0.012 A 
ATOM     31  C   UNL A   1      34.314  23.839  25.880  1.00  0.00     0.058 A 
ATOM     32  C   UNL A   1      30.732  22.416  26.267  1.00  0.00     0.051 A 
ATOM     33  C   UNL A   1      33.991  22.183  25.544  1.00  0.00     0.166 A 
ATOM     34  C   UNL A   1      32.087  21.387  25.696  1.00  0.00     0.165 A 
ATOM     35  O   UNL A   1      35.030  20.874  24.728  1.00  0.00    -0.454 OA
ATOM     36  O   UNL A   1      32.140  19.706  25.028  1.00  0.00    -0.454 OA
ATOM     37  C   UNL A   1      33.888  19.347  24.352  1.00  0.00     0.468 C 
ENDBRANCH  16  29
ENDBRANCH  12  15
ENDBRANCH   6  11
ENDBRANCH   3   5
ENDBRANCH   2   3
ENDBRANCH   1   2
BRANCH   1  38
ATOM     38  C   UNL A   1      33.811  35.965  32.330  1.00  0.00     0.202 C 
BRANCH  38  39
ATOM     39  O   UNL A   1      35.094  36.145  32.933  1.00  0.00    -0.374 OA
BRANCH  39  40
ATOM     40  C   UNL A   1      35.623  35.002  33.614  1.00  0.00     0.202 C 
BRANCH  40  41
ATOM     41  C   UNL A   1      36.902  34.403  33.022  1.00  0.00     0.261 C 
BRANCH  41  42
ATOM     42  O   UNL A   1      36.598  33.587  31.874  1.00  0.00    -0.460 OA
BRANCH  42  43
ATOM     43  C   UNL A   1      36.451  32.269  32.144  1.00  0.00     0.338 C 
ATOM     44  O   UNL A   1      35.524  31.727  32.720  1.00  0.00    -0.246 OA
BRANCH  43  45
ATOM     45  C   UNL A   1      37.504  31.508  31.448  1.00  0.00     0.060 A 
ATOM     46  C   UNL A   1      38.473  30.876  32.240  1.00  0.00     0.016 A 
ATOM     47  C   UNL A   1      37.581  31.455  30.056  1.00  0.00     0.016 A 
ATOM     48  C   UNL A   1      39.557  30.241  31.644  1.00  0.00     0.010 A 
ATOM     49  C   UNL A   1      38.675  30.824  29.458  1.00  0.00     0.010 A 
ATOM     50  C   UNL A   1      39.687  30.251  30.250  1.00  0.00    -0.014 A 
BRANCH  50  51
ATOM     51  C   UNL A   1      40.954  29.793  29.631  1.00  0.00     0.031 A 
ATOM     52  C   UNL A   1      41.028  28.404  29.063  1.00  0.00     0.074 A 
ATOM     53  C   UNL A   1      42.015  30.615  29.555  1.00  0.00     0.049 A 
ATOM     54  N   UNL A   1      42.046  27.774  28.534  1.00  0.00    -0.248 NA
ATOM     55  C   UNL A   1      39.786  27.615  29.101  1.00  0.00     0.031 C 
ATOM     56  C   UNL A   1      42.047  31.997  30.028  1.00  0.00     0.029 A 
ATOM     57  N   UNL A   1      43.275  30.399  29.057  1.00  0.00    -0.354 N 
ATOM     58  C   UNL A   1      41.572  26.514  28.191  1.00  0.00     0.074 A 
ATOM     59  C   UNL A   1      40.186  26.455  28.603  1.00  0.00     0.031 C 
ATOM     60  C   UNL A   1      43.271  32.504  29.807  1.00  0.00     0.029 A 
ATOM     61  C   UNL A   1      44.119  31.470  29.219  1.00  0.00     0.049 A 
ATOM     62  H   UNL A   1      43.548  29.558  28.624  1.00  0.00     0.167 HD
ATOM     63  C   UNL A   1      42.235  25.502  27.581  1.00  0.00     0.037 A 
ATOM     64  C   UNL A   1      45.434  31.587  28.952  1.00  0.00     0.037 A 
ATOM     65  C   UNL A   1      43.615  25.572  27.174  1.00  0.00     0.049 A 
ATOM     66  C   UNL A   1      46.169  30.417  28.348  1.00  0.00     0.074 A 
ATOM     67  C   UNL A   1      44.372  24.610  26.527  1.00  0.00     0.029 A 
ATOM     68  N   UNL A   1      44.448  26.661  27.385  1.00  0.00    -0.354 N 
ATOM     69  N   UNL A   1      45.711  29.237  28.003  1.00  0.00    -0.248 NA
ATOM     70  C   UNL A   1      47.605  30.597  28.095  1.00  0.00     0.031 C 
ATOM     71  C   UNL A   1      45.681  25.088  26.415  1.00  0.00     0.029 A 
ATOM     72  C   UNL A   1      45.721  26.380  26.915  1.00  0.00     0.049 A 
ATOM     73  H   UNL A   1      44.175  27.507  27.807  1.00  0.00     0.167 HD
ATOM     74  C   UNL A   1      46.790  28.550  27.459  1.00  0.00     0.074 A 
ATOM     75  C   UNL A   1      47.922  29.451  27.508  1.00  0.00     0.031 C 
ATOM     76  C   UNL A   1      46.839  27.290  26.962  1.00  0.00     0.037 A 
BRANCH  63  77
ATOM     77  C   UNL A   1      41.488  24.219  27.346  1.00  0.00     0.064 A 
ATOM     78  C   UNL A   1      41.831  23.027  28.002  1.00  0.00     0.173 A 
ATOM     79  C   UNL A   1      40.384  24.193  26.480  1.00  0.00     0.173 A 
ATOM     80  F   UNL A   1      42.884  22.992  28.833  1.00  0.00    -0.203 F 
ATOM     81  C   UNL A   1      41.117  21.852  27.777  1.00  0.00     0.198 A 
ATOM     82  C   UNL A   1      39.649  23.026  26.285  1.00  0.00     0.198 A 
ATOM     83  F   UNL A   1      40.007  25.304  25.829  1.00  0.00    -0.203 F 
ATOM     84  F   UNL A   1      41.497  20.715  28.374  1.00  0.00    -0.200 F 
ATOM     85  C   UNL A   1      40.022  21.855  26.926  1.00  0.00     0.200 A 
ATOM     86  F   UNL A   1      38.581  23.036  25.476  1.00  0.00    -0.200 F 
ATOM     87  F   UNL A   1      39.328  20.727  26.719  1.00  0.00    -0.200 F 
ENDBRANCH  63  77
BRANCH  64  88
ATOM     88  C   UNL A   1      46.149  32.852  29.270  1.00  0.00     0.064 A 
ATOM     89  C   UNL A   1      46.636  33.105  30.559  1.00  0.00     0.173 A 
ATOM     90  C   UNL A   1      46.337  33.844  28.296  1.00  0.00     0.173 A 
ATOM     91  F   UNL A   1      46.461  32.198  31.531  1.00  0.00    -0.203 F 
ATOM     92  C   UNL A   1      47.260  34.312  30.869  1.00  0.00     0.198 A 
ATOM     93  C   UNL A   1      46.995  35.035  28.598  1.00  0.00     0.198 A 
ATOM     94  F   UNL A   1      45.893  33.654  27.045  1.00  0.00    -0.203 F 
ATOM     95  F   UNL A   1      47.664  34.550  32.124  1.00  0.00    -0.200 F 
ATOM     96  C   UNL A   1      47.446  35.273  29.887  1.00  0.00     0.200 A 
ATOM     97  F   UNL A   1      47.187  35.952  27.640  1.00  0.00    -0.200 F 
ATOM     98  F   UNL A   1      48.049  36.431  30.184  1.00  0.00    -0.200 F 
ENDBRANCH  64  88
BRANCH  76  99
ATOM     99  C   UNL A   1      48.145  26.822  26.381  1.00  0.00     0.064 A 
ATOM    100  C   UNL A   1      48.494  27.065  25.044  1.00  0.00     0.173 A 
ATOM    101  C   UNL A   1      49.079  26.153  27.189  1.00  0.00     0.173 A 
ATOM    102  F   UNL A   1      47.635  27.689  24.223  1.00  0.00    -0.203 F 
ATOM    103  C   UNL A   1      49.714  26.629  24.531  1.00  0.00     0.198 A 
ATOM    104  C   UNL A   1      50.313  25.754  26.684  1.00  0.00     0.198 A 
ATOM    105  F   UNL A   1      48.802  25.902  28.477  1.00  0.00    -0.203 F 
ATOM    106  F   UNL A   1      50.001  26.821  23.236  1.00  0.00    -0.200 F 
ATOM    107  C   UNL A   1      50.625  25.984  25.353  1.00  0.00     0.200 A 
ATOM    108  F   UNL A   1      51.199  25.149  27.485  1.00  0.00    -0.200 F 
ATOM    109  F   UNL A   1      51.802  25.574  24.860  1.00  0.00    -0.200 F 
ENDBRANCH  76  99
ENDBRANCH  50  51
ENDBRANCH  43  45
ENDBRANCH  42  43
ENDBRANCH  41  42
ENDBRANCH  40  41
ENDBRANCH  39  40
ENDBRANCH  38  39
ENDBRANCH   1  38
TORSDOF 20
ENDMDL
MODEL 3
REMARK VINA RESULT:     -11.7      1.679      8.196
REMARK SMILES COc1ccccc1C(=O)N/C(=C/c1ccc2c(c1)OCO2)C(=O)Nc1ccc(C(=O)OCCOCCOC(=O)c2ccc(-c3c4nc(c(-c5c(F)c(F)c(F)c(F)c5F)c5ccc([nH]5)c(-c5c(F)c(F)c(F)c(F)c5F)c5nc(c(-c6c(F)c(F)c(F)c(F)c6F)c6ccc3[nH]6)C=C5)C=C4)cc2)cc1
REMARK SMILES IDX 33 1 32 2 30 3 31 4 29 5 26 6 27 7 105 8 28 9 104 10 25 11
REMARK SMILES IDX 23 12 24 13 12 15 13 16 11 17 9 18 10 19 8 21 3 22 4 23 5 24
REMARK SMILES IDX 7 25 6 26 2 27 1 28 14 29 15 30 19 31 16 32 18 33 17 34
REMARK SMILES IDX 20 35 22 36 21 37 34 38 35 39 36 40 37 41 38 42 39 43 40 44
REMARK SMILES IDX 41 45 42 46 103 47 43 48 102 49 44 50 45 51 46 52 96 53
REMARK SMILES IDX 47 54 101 55 95 56 97 57 48 58 100 59 94 60 93 61 49 63
REMARK SMILES IDX 81 64 61 65 80 66 62 67 65 68 79 69 98 70 63 71 64 72 78 74
REMARK SMILES IDX 99 75 66 76 50 77 51 78 59 79 52 80 53 81 57 82 60 83 54 84
REMARK SMILES IDX 55 85 58 86 56 87 82 88 83 89 91 90 84 91 85 92 89 93 92 94
REMARK SMILES IDX 86 95 87 96 90 97 88 98 67 99 68 100 76 101 69 102 70 103
REMARK SMILES IDX 74 104 77 105 71 106 72 107 75 108 73 109
REMARK H PARENT 25 14 11 20 97 62 65 73
REMARK Flexibility Score: inf
ROOT
ATOM      1  C   UNL A   1      34.880  31.204  28.528  1.00  0.00     0.261 C 
ENDROOT
BRANCH   1   2
ATOM      2  O   UNL A   1      34.435  30.744  27.250  1.00  0.00    -0.460 OA
BRANCH   2   3
ATOM      3  C   UNL A   1      33.098  30.539  27.168  1.00  0.00     0.338 C 
ATOM      4  O   UNL A   1      32.204  31.363  27.189  1.00  0.00    -0.246 OA
BRANCH   3   5
ATOM      5  C   UNL A   1      32.895  29.132  26.856  1.00  0.00     0.060 A 
ATOM      6  C   UNL A   1      32.510  25.349  26.058  1.00  0.00     0.041 A 
ATOM      7  C   UNL A   1      31.340  26.268  26.569  1.00  0.00     0.027 A 
ATOM      8  C   UNL A   1      33.677  26.221  25.790  1.00  0.00     0.027 A 
ATOM      9  C   UNL A   1      31.460  28.279  27.035  1.00  0.00     0.018 A 
ATOM     10  C   UNL A   1      34.029  28.134  26.234  1.00  0.00     0.018 A 
BRANCH   6  11
ATOM     11  N   UNL A   1      32.927  24.089  26.594  1.00  0.00    -0.321 N 
ATOM     12  C   UNL A   1      32.663  22.972  25.804  1.00  0.00     0.272 C 
ATOM     13  O   UNL A   1      31.481  22.624  25.840  1.00  0.00    -0.267 OA
ATOM     14  H   UNL A   1      33.374  24.016  27.469  1.00  0.00     0.170 HD
BRANCH  12  15
ATOM     15  C   UNL A   1      33.602  22.443  24.609  1.00  0.00     0.108 C 
ATOM     16  C   UNL A   1      33.386  22.512  23.245  1.00  0.00     0.040 C 
BRANCH  15  17
ATOM     17  N   UNL A   1      34.732  21.673  24.896  1.00  0.00    -0.317 N 
ATOM     18  C   UNL A   1      35.151  20.368  24.903  1.00  0.00     0.259 C 
ATOM     19  O   UNL A   1      36.273  20.159  25.380  1.00  0.00    -0.269 OA
ATOM     20  H   UNL A   1      35.468  22.259  25.189  1.00  0.00     0.170 HD
BRANCH  18  21
ATOM     21  C   UNL A   1      34.366  19.210  24.461  1.00  0.00     0.082 A 
ATOM     22  C   UNL A   1      34.766  17.881  24.442  1.00  0.00     0.131 A 
ATOM     23  C   UNL A   1      34.076  17.019  23.574  1.00  0.00     0.047 A 
ATOM     24  C   UNL A   1      32.873  17.387  22.972  1.00  0.00     0.004 A 
ATOM     25  C   UNL A   1      33.070  19.534  24.003  1.00  0.00     0.018 A 
ATOM     26  C   UNL A   1      32.311  18.613  23.286  1.00  0.00     0.001 A 
BRANCH  22  27
ATOM     27  O   UNL A   1      35.726  17.220  25.151  1.00  0.00    -0.496 OA
ATOM     28  C   UNL A   1      35.686  15.826  25.396  1.00  0.00     0.278 C 
ENDBRANCH  22  27
ENDBRANCH  18  21
ENDBRANCH  15  17
BRANCH  16  29
ATOM     29  C   UNL A   1      32.396  23.359  22.464  1.00  0.00    -0.019 A 
ATOM     30  C   UNL A   1      30.701  23.620  23.198  1.00  0.00     0.012 A 
ATOM     31  C   UNL A   1      33.479  24.686  21.872  1.00  0.00     0.058 A 
ATOM     32  C   UNL A   1      30.061  25.302  23.587  1.00  0.00     0.051 A 
ATOM     33  C   UNL A   1      32.938  26.287  22.192  1.00  0.00     0.166 A 
ATOM     34  C   UNL A   1      31.140  26.665  23.143  1.00  0.00     0.165 A 
ATOM     35  O   UNL A   1      33.827  27.918  22.107  1.00  0.00    -0.454 OA
ATOM     36  O   UNL A   1      31.070  28.438  23.500  1.00  0.00    -0.454 OA
ATOM     37  C   UNL A   1      32.707  29.259  22.960  1.00  0.00     0.468 C 
ENDBRANCH  16  29
ENDBRANCH  12  15
ENDBRANCH   6  11
ENDBRANCH   3   5
ENDBRANCH   2   3
ENDBRANCH   1   2
BRANCH   1  38
ATOM     38  C   UNL A   1      35.029  32.730  28.531  1.00  0.00     0.202 C 
BRANCH  38  39
ATOM     39  O   UNL A   1      35.595  33.312  29.706  1.00  0.00    -0.374 OA
BRANCH  39  40
ATOM     40  C   UNL A   1      34.662  33.651  30.739  1.00  0.00     0.202 C 
BRANCH  40  41
ATOM     41  C   UNL A   1      34.657  32.731  31.963  1.00  0.00     0.261 C 
BRANCH  41  42
ATOM     42  O   UNL A   1      35.725  31.767  31.880  1.00  0.00    -0.460 OA
BRANCH  42  43
ATOM     43  C   UNL A   1      36.679  31.901  32.830  1.00  0.00     0.338 C 
ATOM     44  O   UNL A   1      36.519  32.020  34.032  1.00  0.00    -0.246 OA
BRANCH  43  45
ATOM     45  C   UNL A   1      38.005  31.675  32.227  1.00  0.00     0.060 A 
ATOM     46  C   UNL A   1      38.290  32.341  31.027  1.00  0.00     0.016 A 
ATOM     47  C   UNL A   1      38.930  30.792  32.785  1.00  0.00     0.016 A 
ATOM     48  C   UNL A   1      39.474  32.080  30.347  1.00  0.00     0.010 A 
ATOM     49  C   UNL A   1      40.116  30.524  32.097  1.00  0.00     0.010 A 
ATOM     50  C   UNL A   1      40.374  31.137  30.856  1.00  0.00    -0.014 A 
BRANCH  50  51
ATOM     51  C   UNL A   1      41.508  30.682  30.016  1.00  0.00     0.031 A 
ATOM     52  C   UNL A   1      41.460  29.308  29.408  1.00  0.00     0.074 A 
ATOM     53  C   UNL A   1      42.553  31.492  29.780  1.00  0.00     0.049 A 
ATOM     54  N   UNL A   1      42.361  28.680  28.696  1.00  0.00    -0.248 NA
ATOM     55  C   UNL A   1      40.230  28.533  29.639  1.00  0.00     0.031 C 
ATOM     56  C   UNL A   1      42.689  32.860  30.276  1.00  0.00     0.029 A 
ATOM     57  N   UNL A   1      43.705  31.274  29.067  1.00  0.00    -0.354 N 
ATOM     58  C   UNL A   1      41.814  27.437  28.407  1.00  0.00     0.074 A 
ATOM     59  C   UNL A   1      40.518  27.383  29.050  1.00  0.00     0.031 C 
ATOM     60  C   UNL A   1      43.866  33.358  29.860  1.00  0.00     0.029 A 
ATOM     61  C   UNL A   1      44.583  32.330  29.109  1.00  0.00     0.049 A 
ATOM     62  H   UNL A   1      43.886  30.443  28.572  1.00  0.00     0.167 HD
ATOM     63  C   UNL A   1      42.345  26.435  27.666  1.00  0.00     0.037 A 
ATOM     64  C   UNL A   1      45.834  32.439  28.623  1.00  0.00     0.037 A 
ATOM     65  C   UNL A   1      43.635  26.499  27.030  1.00  0.00     0.049 A 
ATOM     66  C   UNL A   1      46.434  31.277  27.872  1.00  0.00     0.074 A 
ATOM     67  C   UNL A   1      44.253  25.547  26.238  1.00  0.00     0.029 A 
ATOM     68  N   UNL A   1      44.510  27.571  27.122  1.00  0.00    -0.354 N 
ATOM     69  N   UNL A   1      45.904  30.113  27.580  1.00  0.00    -0.248 NA
ATOM     70  C   UNL A   1      47.809  31.447  27.379  1.00  0.00     0.031 C 
ATOM     71  C   UNL A   1      45.532  26.012  25.915  1.00  0.00     0.029 A 
ATOM     72  C   UNL A   1      45.679  27.288  26.433  1.00  0.00     0.049 A 
ATOM     73  H   UNL A   1      44.328  28.408  27.607  1.00  0.00     0.167 HD
ATOM     74  C   UNL A   1      46.862  29.429  26.841  1.00  0.00     0.074 A 
ATOM     75  C   UNL A   1      48.001  30.315  26.717  1.00  0.00     0.031 C 
ATOM     76  C   UNL A   1      46.803  28.183  26.310  1.00  0.00     0.037 A 
BRANCH  63  77
ATOM     77  C   UNL A   1      41.547  25.168  27.530  1.00  0.00     0.064 A 
ATOM     78  C   UNL A   1      40.433  25.078  26.681  1.00  0.00     0.173 A 
ATOM     79  C   UNL A   1      41.930  24.014  28.230  1.00  0.00     0.173 A 
ATOM     80  F   UNL A   1      40.016  26.153  25.996  1.00  0.00    -0.203 F 
ATOM     81  C   UNL A   1      39.715  23.889  26.563  1.00  0.00     0.198 A 
ATOM     82  C   UNL A   1      41.233  22.817  28.082  1.00  0.00     0.198 A 
ATOM     83  F   UNL A   1      42.990  24.040  29.052  1.00  0.00    -0.203 F 
ATOM     84  F   UNL A   1      38.623  23.843  25.788  1.00  0.00    -0.200 F 
ATOM     85  C   UNL A   1      40.120  22.758  27.256  1.00  0.00     0.200 A 
ATOM     86  F   UNL A   1      41.637  21.722  28.738  1.00  0.00    -0.200 F 
ATOM     87  F   UNL A   1      39.437  21.613  27.133  1.00  0.00    -0.200 F 
ENDBRANCH  63  77
BRANCH  64  88
ATOM     88  C   UNL A   1      46.614  33.686  28.845  1.00  0.00     0.064 A 
ATOM     89  C   UNL A   1      47.281  33.917  30.055  1.00  0.00     0.173 A 
ATOM     90  C   UNL A   1      46.687  34.682  27.860  1.00  0.00     0.173 A 
ATOM     91  F   UNL A   1      47.223  33.005  31.037  1.00  0.00    -0.203 F 
ATOM     92  C   UNL A   1      47.969  35.108  30.282  1.00  0.00     0.198 A 
ATOM     93  C   UNL A   1      47.407  35.856  28.074  1.00  0.00     0.198 A 
ATOM     94  F   UNL A   1      46.069  34.512  26.682  1.00  0.00    -0.203 F 
ATOM     95  F   UNL A   1      48.549  35.326  31.470  1.00  0.00    -0.200 F 
ATOM     96  C   UNL A   1      48.037  36.073  29.290  1.00  0.00     0.200 A 
ATOM     97  F   UNL A   1      47.485  36.777  27.105  1.00  0.00    -0.200 F 
ATOM     98  F   UNL A   1      48.702  37.216  29.507  1.00  0.00    -0.200 F 
ENDBRANCH  64  88
BRANCH  76  99
ATOM     99  C   UNL A   1      47.982  27.715  25.501  1.00  0.00     0.064 A 
ATOM    100  C   UNL A   1      49.099  27.110  26.096  1.00  0.00     0.173 A 
ATOM    101  C   UNL A   1      47.973  27.838  24.102  1.00  0.00     0.173 A 
ATOM    102  F   UNL A   1      49.166  26.977  27.430  1.00  0.00    -0.203 F 
ATOM    103  C   UNL A   1      50.175  26.676  25.326  1.00  0.00     0.198 A 
ATOM    104  C   UNL A   1      49.033  27.368  23.332  1.00  0.00     0.198 A 
ATOM    105  F   UNL A   1      46.928  28.401  23.479  1.00  0.00    -0.203 F 
ATOM    106  F   UNL A   1      51.257  26.153  25.921  1.00  0.00    -0.200 F 
ATOM    107  C   UNL A   1      50.137  26.796  23.945  1.00  0.00     0.200 A 
ATOM    108  F   UNL A   1      48.984  27.467  21.997  1.00  0.00    -0.200 F 
ATOM    109  F   UNL A   1      51.169  26.368  23.204  1.00  0.00    -0.200 F 
ENDBRANCH  76  99
ENDBRANCH  50  51
ENDBRANCH  43  45
ENDBRANCH  42  43
ENDBRANCH  41  42
ENDBRANCH  40  41
ENDBRANCH  39  40
ENDBRANCH  38  39
ENDBRANCH   1  38
TORSDOF 20
ENDMDL
