MODEL 1
REMARK VINA RESULT:     -10.4      0.000      0.000
REMARK SMILES O=C(OCCOCCOC(=O)[C@@H]1C[C@H]1C(=O)N[C@@H]1CONC1=O)c1ccc(-c2c3nc(c(-c4c(F)c(F)c(F)c(F)c4F)c4ccc([nH]4)c(-c4c(F)c(F)c(F)c(F)c4F)c4nc(c(-c5c(F)c(F)c(F)c(F)c5F)c5ccc2[nH]5)C=C4)C=C3)cc1
REMARK SMILES IDX 6 1 5 2 4 3 3 4 2 5 1 6 24 7 25 8 86 9 26 10 85 11 27 12
REMARK SMILES IDX 28 13 29 14 79 15 30 16 84 17 78 18 80 19 31 20 83 21 77 22
REMARK SMILES IDX 76 23 32 25 64 26 44 27 63 28 45 29 48 30 62 31 81 32 46 33
REMARK SMILES IDX 47 34 61 36 82 37 49 38 33 39 34 40 42 41 35 42 36 43 40 44
REMARK SMILES IDX 43 45 37 46 38 47 41 48 39 49 65 50 66 51 74 52 67 53 68 54
REMARK SMILES IDX 72 55 75 56 69 57 70 58 73 59 71 60 50 61 51 62 59 63 52 64
REMARK SMILES IDX 53 65 57 66 60 67 54 68 55 69 58 70 56 71 7 72 8 73 9 74
REMARK SMILES IDX 10 75 11 76 12 77 13 78 14 79 15 80 16 81 17 82 18 84 19 85
REMARK SMILES IDX 22 86 20 87 21 88 23 89
REMARK H PARENT 80 24 48 35 17 83 21 90
REMARK Flexibility Score: inf
ROOT
ATOM      1  O   UNL A   1      40.902  19.929  26.174  1.00  0.00    -0.374 OA
ENDROOT
BRANCH   1   2
ATOM      2  C   UNL A   1      39.558  19.606  25.802  1.00  0.00     0.202 C 
BRANCH   2   3
ATOM      3  C   UNL A   1      38.681  20.795  25.398  1.00  0.00     0.261 C 
BRANCH   3   4
ATOM      4  O   UNL A   1      39.091  21.986  26.090  1.00  0.00    -0.460 OA
BRANCH   4   5
ATOM      5  C   UNL A   1      38.466  23.185  26.127  1.00  0.00     0.338 C 
ATOM      6  O   UNL A   1      37.387  23.302  25.548  1.00  0.00    -0.246 OA
BRANCH   5   7
ATOM      7  C   UNL A   1      39.010  24.386  26.832  1.00  0.00     0.060 A 
ATOM      8  C   UNL A   1      38.838  24.669  28.189  1.00  0.00     0.016 A 
ATOM      9  C   UNL A   1      39.838  25.238  26.083  1.00  0.00     0.016 A 
ATOM     10  C   UNL A   1      39.430  25.765  28.789  1.00  0.00     0.010 A 
ATOM     11  C   UNL A   1      40.461  26.336  26.681  1.00  0.00     0.010 A 
ATOM     12  C   UNL A   1      40.244  26.598  28.038  1.00  0.00    -0.014 A 
BRANCH  12  13
ATOM     13  C   UNL A   1      40.739  27.813  28.690  1.00  0.00     0.031 A 
ATOM     14  C   UNL A   1      42.197  27.897  28.986  1.00  0.00     0.074 A 
ATOM     15  C   UNL A   1      39.904  28.848  28.874  1.00  0.00     0.049 A 
ATOM     16  N   UNL A   1      42.865  28.823  29.613  1.00  0.00    -0.248 NA
ATOM     17  C   UNL A   1      43.023  26.779  28.496  1.00  0.00     0.031 C 
ATOM     18  C   UNL A   1      38.497  28.877  28.467  1.00  0.00     0.029 A 
ATOM     19  N   UNL A   1      40.119  30.076  29.434  1.00  0.00    -0.354 N 
ATOM     20  C   UNL A   1      44.179  28.385  29.628  1.00  0.00     0.074 A 
ATOM     21  C   UNL A   1      44.220  27.110  28.950  1.00  0.00     0.031 C 
ATOM     22  C   UNL A   1      37.971  30.064  28.805  1.00  0.00     0.029 A 
ATOM     23  C   UNL A   1      38.982  30.841  29.512  1.00  0.00     0.049 A 
ATOM     24  H   UNL A   1      41.000  30.382  29.748  1.00  0.00     0.167 HD
ATOM     25  C   UNL A   1      45.247  29.002  30.181  1.00  0.00     0.037 A 
ATOM     26  C   UNL A   1      38.784  32.010  30.143  1.00  0.00     0.037 A 
ATOM     27  C   UNL A   1      45.147  30.269  30.854  1.00  0.00     0.049 A 
ATOM     28  C   UNL A   1      39.962  32.633  30.843  1.00  0.00     0.074 A 
ATOM     29  C   UNL A   1      46.133  30.988  31.497  1.00  0.00     0.029 A 
ATOM     30  N   UNL A   1      43.967  30.997  30.973  1.00  0.00    -0.354 N 
ATOM     31  N   UNL A   1      41.201  32.199  30.915  1.00  0.00    -0.248 NA
ATOM     32  C   UNL A   1      39.724  33.892  31.556  1.00  0.00     0.031 C 
ATOM     33  C   UNL A   1      45.535  32.120  32.065  1.00  0.00     0.029 A 
ATOM     34  C   UNL A   1      44.192  32.145  31.711  1.00  0.00     0.049 A 
ATOM     35  H   UNL A   1      43.100  30.734  30.589  1.00  0.00     0.167 HD
ATOM     36  C   UNL A   1      41.895  33.137  31.662  1.00  0.00     0.074 A 
ATOM     37  C   UNL A   1      40.938  34.171  32.012  1.00  0.00     0.031 C 
ATOM     38  C   UNL A   1      43.203  33.149  32.026  1.00  0.00     0.037 A 
BRANCH  25  39
ATOM     39  C   UNL A   1      46.548  28.254  30.164  1.00  0.00     0.064 A 
ATOM     40  C   UNL A   1      47.504  28.429  29.151  1.00  0.00     0.173 A 
ATOM     41  C   UNL A   1      46.805  27.281  31.142  1.00  0.00     0.173 A 
ATOM     42  F   UNL A   1      47.296  29.323  28.171  1.00  0.00    -0.203 F 
ATOM     43  C   UNL A   1      48.639  27.623  29.089  1.00  0.00     0.198 A 
ATOM     44  C   UNL A   1      47.958  26.503  31.098  1.00  0.00     0.198 A 
ATOM     45  F   UNL A   1      45.924  27.065  32.130  1.00  0.00    -0.203 F 
ATOM     46  F   UNL A   1      49.492  27.746  28.061  1.00  0.00    -0.200 F 
ATOM     47  C   UNL A   1      48.866  26.662  30.062  1.00  0.00     0.200 A 
ATOM     48  F   UNL A   1      48.177  25.578  32.044  1.00  0.00    -0.200 F 
ATOM     49  F   UNL A   1      49.948  25.874  29.992  1.00  0.00    -0.200 F 
ENDBRANCH  25  39
BRANCH  26  50
ATOM     50  C   UNL A   1      37.421  32.603  30.191  1.00  0.00     0.064 A 
ATOM     51  C   UNL A   1      36.975  33.501  29.214  1.00  0.00     0.173 A 
ATOM     52  C   UNL A   1      36.519  32.251  31.209  1.00  0.00     0.173 A 
ATOM     53  F   UNL A   1      37.802  33.885  28.229  1.00  0.00    -0.203 F 
ATOM     54  C   UNL A   1      35.685  34.030  29.256  1.00  0.00     0.198 A 
ATOM     55  C   UNL A   1      35.220  32.755  31.233  1.00  0.00     0.198 A 
ATOM     56  F   UNL A   1      36.891  31.394  32.171  1.00  0.00    -0.203 F 
ATOM     57  F   UNL A   1      35.295  34.915  28.328  1.00  0.00    -0.200 F 
ATOM     58  C   UNL A   1      34.806  33.650  30.260  1.00  0.00     0.200 A 
ATOM     59  F   UNL A   1      34.372  32.370  32.196  1.00  0.00    -0.200 F 
ATOM     60  F   UNL A   1      33.563  34.149  30.292  1.00  0.00    -0.200 F 
ENDBRANCH  26  50
BRANCH  38  61
ATOM     61  C   UNL A   1      43.680  34.335  32.810  1.00  0.00     0.064 A 
ATOM     62  C   UNL A   1      44.103  35.513  32.179  1.00  0.00     0.173 A 
ATOM     63  C   UNL A   1      43.625  34.316  34.211  1.00  0.00     0.173 A 
ATOM     64  F   UNL A   1      44.187  35.571  30.842  1.00  0.00    -0.203 F 
ATOM     65  C   UNL A   1      44.463  36.629  32.927  1.00  0.00     0.198 A 
ATOM     66  C   UNL A   1      43.950  35.445  34.953  1.00  0.00     0.198 A 
ATOM     67  F   UNL A   1      43.217  33.212  34.858  1.00  0.00    -0.203 F 
ATOM     68  F   UNL A   1      44.896  37.736  32.309  1.00  0.00    -0.200 F 
ATOM     69  C   UNL A   1      44.373  36.599  34.311  1.00  0.00     0.200 A 
ATOM     70  F   UNL A   1      43.843  35.420  36.289  1.00  0.00    -0.200 F 
ATOM     71  F   UNL A   1      44.695  37.684  35.029  1.00  0.00    -0.200 F 
ENDBRANCH  38  61
ENDBRANCH  12  13
ENDBRANCH   5   7
ENDBRANCH   4   5
ENDBRANCH   3   4
ENDBRANCH   2   3
ENDBRANCH   1   2
BRANCH   1  72
ATOM     72  C   UNL A   1      41.186  19.928  27.578  1.00  0.00     0.202 C 
BRANCH  72  73
ATOM     73  C   UNL A   1      41.711  21.302  28.000  1.00  0.00     0.261 C 
BRANCH  73  74
ATOM     74  O   UNL A   1      42.894  21.565  27.237  1.00  0.00    -0.463 OA
BRANCH  74  75
ATOM     75  C   UNL A   1      43.476  22.762  27.526  1.00  0.00     0.309 C 
ATOM     76  O   UNL A   1      43.570  23.285  28.622  1.00  0.00    -0.252 OA
BRANCH  75  77
ATOM     77  C   UNL A   1      44.106  23.304  26.308  1.00  0.00     0.112 C 
ATOM     78  C   UNL A   1      43.359  24.109  25.273  1.00  0.00     0.030 C 
ATOM     79  C   UNL A   1      43.778  22.703  24.973  1.00  0.00     0.093 C 
BRANCH  79  80
ATOM     80  C   UNL A   1      44.888  22.265  24.100  1.00  0.00     0.224 C 
ATOM     81  O   UNL A   1      45.700  23.109  23.729  1.00  0.00    -0.275 OA
ATOM     82  N   UNL A   1      44.883  21.062  23.441  1.00  0.00    -0.342 N 
ATOM     83  H   UNL A   1      44.700  21.128  22.477  1.00  0.00     0.164 HD
BRANCH  82  84
ATOM     84  C   UNL A   1      45.106  19.679  23.927  1.00  0.00     0.202 C 
ATOM     85  C   UNL A   1      43.816  19.209  24.629  1.00  0.00     0.228 C 
ATOM     86  C   UNL A   1      46.124  19.271  24.987  1.00  0.00     0.268 C 
ATOM     87  O   UNL A   1      44.138  18.347  25.719  1.00  0.00    -0.271 OA
ATOM     88  N   UNL A   1      45.504  18.542  25.958  1.00  0.00    -0.233 N 
ATOM     89  O   UNL A   1      47.327  19.477  25.001  1.00  0.00    -0.270 OA
ATOM     90  H   UNL A   1      45.971  18.187  26.749  1.00  0.00     0.199 HD
ENDBRANCH  82  84
ENDBRANCH  79  80
ENDBRANCH  75  77
ENDBRANCH  74  75
ENDBRANCH  73  74
ENDBRANCH  72  73
ENDBRANCH   1  72
TORSDOF 16
ENDMDL
MODEL 2
REMARK VINA RESULT:     -10.3      0.897      2.069
REMARK SMILES O=C(OCCOCCOC(=O)[C@@H]1C[C@H]1C(=O)N[C@@H]1CONC1=O)c1ccc(-c2c3nc(c(-c4c(F)c(F)c(F)c(F)c4F)c4ccc([nH]4)c(-c4c(F)c(F)c(F)c(F)c4F)c4nc(c(-c5c(F)c(F)c(F)c(F)c5F)c5ccc2[nH]5)C=C4)C=C3)cc1
REMARK SMILES IDX 6 1 5 2 4 3 3 4 2 5 1 6 24 7 25 8 86 9 26 10 85 11 27 12
REMARK SMILES IDX 28 13 29 14 79 15 30 16 84 17 78 18 80 19 31 20 83 21 77 22
REMARK SMILES IDX 76 23 32 25 64 26 44 27 63 28 45 29 48 30 62 31 81 32 46 33
REMARK SMILES IDX 47 34 61 36 82 37 49 38 33 39 34 40 42 41 35 42 36 43 40 44
REMARK SMILES IDX 43 45 37 46 38 47 41 48 39 49 65 50 66 51 74 52 67 53 68 54
REMARK SMILES IDX 72 55 75 56 69 57 70 58 73 59 71 60 50 61 51 62 59 63 52 64
REMARK SMILES IDX 53 65 57 66 60 67 54 68 55 69 58 70 56 71 7 72 8 73 9 74
REMARK SMILES IDX 10 75 11 76 12 77 13 78 14 79 15 80 16 81 17 82 18 84 19 85
REMARK SMILES IDX 22 86 20 87 21 88 23 89
REMARK H PARENT 80 24 48 35 17 83 21 90
REMARK Flexibility Score: inf
ROOT
ATOM      1  O   UNL A   1      42.640  21.660  27.935  1.00  0.00    -0.374 OA
ENDROOT
BRANCH   1   2
ATOM      2  C   UNL A   1      41.399  21.123  27.466  1.00  0.00     0.202 C 
BRANCH   2   3
ATOM      3  C   UNL A   1      40.808  21.812  26.232  1.00  0.00     0.261 C 
BRANCH   3   4
ATOM      4  O   UNL A   1      39.436  22.171  26.460  1.00  0.00    -0.460 OA
BRANCH   4   5
ATOM      5  C   UNL A   1      38.857  23.385  26.316  1.00  0.00     0.338 C 
ATOM      6  O   UNL A   1      37.906  23.493  25.544  1.00  0.00    -0.246 OA
BRANCH   5   7
ATOM      7  C   UNL A   1      39.305  24.613  27.041  1.00  0.00     0.060 A 
ATOM      8  C   UNL A   1      39.113  24.859  28.404  1.00  0.00     0.016 A 
ATOM      9  C   UNL A   1      40.061  25.541  26.307  1.00  0.00     0.016 A 
ATOM     10  C   UNL A   1      39.616  25.987  29.022  1.00  0.00     0.010 A 
ATOM     11  C   UNL A   1      40.595  26.675  26.924  1.00  0.00     0.010 A 
ATOM     12  C   UNL A   1      40.360  26.895  28.285  1.00  0.00    -0.014 A 
BRANCH  12  13
ATOM     13  C   UNL A   1      40.758  28.135  28.958  1.00  0.00     0.031 A 
ATOM     14  C   UNL A   1      42.193  28.293  29.329  1.00  0.00     0.074 A 
ATOM     15  C   UNL A   1      39.863  29.126  29.095  1.00  0.00     0.049 A 
ATOM     16  N   UNL A   1      42.779  29.253  29.987  1.00  0.00    -0.248 NA
ATOM     17  C   UNL A   1      43.099  27.219  28.886  1.00  0.00     0.031 C 
ATOM     18  C   UNL A   1      38.480  29.083  28.616  1.00  0.00     0.029 A 
ATOM     19  N   UNL A   1      39.986  30.363  29.661  1.00  0.00    -0.354 N 
ATOM     20  C   UNL A   1      44.112  28.882  30.072  1.00  0.00     0.074 A 
ATOM     21  C   UNL A   1      44.252  27.610  29.400  1.00  0.00     0.031 C 
ATOM     22  C   UNL A   1      37.876  30.241  28.922  1.00  0.00     0.029 A 
ATOM     23  C   UNL A   1      38.808  31.069  29.678  1.00  0.00     0.049 A 
ATOM     24  H   UNL A   1      40.833  30.714  30.020  1.00  0.00     0.167 HD
ATOM     25  C   UNL A   1      45.116  29.553  30.677  1.00  0.00     0.037 A 
ATOM     26  C   UNL A   1      38.518  32.227  30.295  1.00  0.00     0.037 A 
ATOM     27  C   UNL A   1      44.917  30.814  31.340  1.00  0.00     0.049 A 
ATOM     28  C   UNL A   1      39.626  32.910  31.052  1.00  0.00     0.074 A 
ATOM     29  C   UNL A   1      45.830  31.583  32.031  1.00  0.00     0.029 A 
ATOM     30  N   UNL A   1      43.697  31.481  31.396  1.00  0.00    -0.354 N 
ATOM     31  N   UNL A   1      40.879  32.540  31.190  1.00  0.00    -0.248 NA
ATOM     32  C   UNL A   1      39.287  34.155  31.747  1.00  0.00     0.031 C 
ATOM     33  C   UNL A   1      45.147  32.683  32.563  1.00  0.00     0.029 A 
ATOM     34  C   UNL A   1      43.824  32.640  32.140  1.00  0.00     0.049 A 
ATOM     35  H   UNL A   1      42.865  31.173  30.968  1.00  0.00     0.167 HD
ATOM     36  C   UNL A   1      41.485  33.513  31.969  1.00  0.00     0.074 A 
ATOM     37  C   UNL A   1      40.460  34.496  32.265  1.00  0.00     0.031 C 
ATOM     38  C   UNL A   1      42.770  33.591  32.400  1.00  0.00     0.037 A 
BRANCH  25  39
ATOM     39  C   UNL A   1      46.453  28.873  30.730  1.00  0.00     0.064 A 
ATOM     40  C   UNL A   1      47.431  29.057  29.740  1.00  0.00     0.173 A 
ATOM     41  C   UNL A   1      46.726  27.953  31.754  1.00  0.00     0.173 A 
ATOM     42  F   UNL A   1      47.211  29.900  28.719  1.00  0.00    -0.203 F 
ATOM     43  C   UNL A   1      48.607  28.308  29.746  1.00  0.00     0.198 A 
ATOM     44  C   UNL A   1      47.918  27.234  31.777  1.00  0.00     0.198 A 
ATOM     45  F   UNL A   1      45.825  27.731  32.723  1.00  0.00    -0.203 F 
ATOM     46  F   UNL A   1      49.485  28.435  28.740  1.00  0.00    -0.200 F 
ATOM     47  C   UNL A   1      48.849  27.399  30.763  1.00  0.00     0.200 A 
ATOM     48  F   UNL A   1      48.152  26.359  32.766  1.00  0.00    -0.200 F 
ATOM     49  F   UNL A   1      49.971  26.666  30.758  1.00  0.00    -0.200 F 
ENDBRANCH  25  39
BRANCH  26  50
ATOM     50  C   UNL A   1      37.127  32.749  30.269  1.00  0.00     0.064 A 
ATOM     51  C   UNL A   1      36.226  32.493  31.310  1.00  0.00     0.173 A 
ATOM     52  C   UNL A   1      36.678  33.550  29.205  1.00  0.00     0.173 A 
ATOM     53  F   UNL A   1      36.597  31.719  32.341  1.00  0.00    -0.203 F 
ATOM     54  C   UNL A   1      34.931  33.010  31.286  1.00  0.00     0.198 A 
ATOM     55  C   UNL A   1      35.394  34.092  29.197  1.00  0.00     0.198 A 
ATOM     56  F   UNL A   1      37.498  33.829  28.181  1.00  0.00    -0.203 F 
ATOM     57  F   UNL A   1      34.077  32.721  32.278  1.00  0.00    -0.200 F 
ATOM     58  C   UNL A   1      34.519  33.816  30.235  1.00  0.00     0.200 A 
ATOM     59  F   UNL A   1      35.010  34.884  28.187  1.00  0.00    -0.200 F 
ATOM     60  F   UNL A   1      33.279  34.323  30.219  1.00  0.00    -0.200 F 
ENDBRANCH  26  50
BRANCH  38  61
ATOM     61  C   UNL A   1      43.145  34.801  33.204  1.00  0.00     0.064 A 
ATOM     62  C   UNL A   1      43.158  34.779  34.605  1.00  0.00     0.173 A 
ATOM     63  C   UNL A   1      43.582  35.964  32.554  1.00  0.00     0.173 A 
ATOM     64  F   UNL A   1      42.733  33.694  35.269  1.00  0.00    -0.203 F 
ATOM     65  C   UNL A   1      43.589  35.886  35.328  1.00  0.00     0.198 A 
ATOM     66  C   UNL A   1      44.045  37.055  33.280  1.00  0.00     0.198 A 
ATOM     67  F   UNL A   1      43.594  36.027  31.213  1.00  0.00    -0.203 F 
ATOM     68  F   UNL A   1      43.564  35.860  36.667  1.00  0.00    -0.200 F 
ATOM     69  C   UNL A   1      44.045  37.017  34.666  1.00  0.00     0.200 A 
ATOM     70  F   UNL A   1      44.504  38.138  32.637  1.00  0.00    -0.200 F 
ATOM     71  F   UNL A   1      44.484  38.073  35.364  1.00  0.00    -0.200 F 
ENDBRANCH  38  61
ENDBRANCH  12  13
ENDBRANCH   5   7
ENDBRANCH   4   5
ENDBRANCH   3   4
ENDBRANCH   2   3
ENDBRANCH   1   2
BRANCH   1  72
ATOM     72  C   UNL A   1      42.551  22.623  28.994  1.00  0.00     0.202 C 
BRANCH  72  73
ATOM     73  C   UNL A   1      43.447  23.823  28.677  1.00  0.00     0.261 C 
BRANCH  73  74
ATOM     74  O   UNL A   1      44.591  23.333  27.969  1.00  0.00    -0.463 OA
BRANCH  74  75
ATOM     75  C   UNL A   1      45.342  24.315  27.398  1.00  0.00     0.309 C 
ATOM     76  O   UNL A   1      46.045  25.127  27.974  1.00  0.00    -0.252 OA
BRANCH  75  77
ATOM     77  C   UNL A   1      45.284  24.184  25.931  1.00  0.00     0.112 C 
ATOM     78  C   UNL A   1      44.347  24.986  25.061  1.00  0.00     0.030 C 
ATOM     79  C   UNL A   1      44.095  23.528  25.293  1.00  0.00     0.093 C 
BRANCH  79  80
ATOM     80  C   UNL A   1      44.323  22.418  24.342  1.00  0.00     0.224 C 
ATOM     81  O   UNL A   1      44.505  22.695  23.160  1.00  0.00    -0.275 OA
ATOM     82  N   UNL A   1      44.035  21.111  24.647  1.00  0.00    -0.342 N 
ATOM     83  H   UNL A   1      43.222  20.764  24.216  1.00  0.00     0.164 HD
BRANCH  82  84
ATOM     84  C   UNL A   1      44.735  20.130  25.511  1.00  0.00     0.202 C 
ATOM     85  C   UNL A   1      46.235  20.167  25.153  1.00  0.00     0.228 C 
ATOM     86  C   UNL A   1      44.514  18.622  25.489  1.00  0.00     0.268 C 
ATOM     87  O   UNL A   1      46.803  18.866  25.291  1.00  0.00    -0.271 OA
ATOM     88  N   UNL A   1      45.714  17.988  25.352  1.00  0.00    -0.233 N 
ATOM     89  O   UNL A   1      43.470  18.007  25.626  1.00  0.00    -0.270 OA
ATOM     90  H   UNL A   1      45.805  17.009  25.300  1.00  0.00     0.199 HD
ENDBRANCH  82  84
ENDBRANCH  79  80
ENDBRANCH  75  77
ENDBRANCH  74  75
ENDBRANCH  73  74
ENDBRANCH  72  73
ENDBRANCH   1  72
TORSDOF 16
ENDMDL
MODEL 3
REMARK VINA RESULT:     -10.3      5.009      8.525
REMARK SMILES O=C(OCCOCCOC(=O)[C@@H]1C[C@H]1C(=O)N[C@@H]1CONC1=O)c1ccc(-c2c3nc(c(-c4c(F)c(F)c(F)c(F)c4F)c4ccc([nH]4)c(-c4c(F)c(F)c(F)c(F)c4F)c4nc(c(-c5c(F)c(F)c(F)c(F)c5F)c5ccc2[nH]5)C=C4)C=C3)cc1
REMARK SMILES IDX 6 1 5 2 4 3 3 4 2 5 1 6 24 7 25 8 86 9 26 10 85 11 27 12
REMARK SMILES IDX 28 13 29 14 79 15 30 16 84 17 78 18 80 19 31 20 83 21 77 22
REMARK SMILES IDX 76 23 32 25 64 26 44 27 63 28 45 29 48 30 62 31 81 32 46 33
REMARK SMILES IDX 47 34 61 36 82 37 49 38 33 39 34 40 42 41 35 42 36 43 40 44
REMARK SMILES IDX 43 45 37 46 38 47 41 48 39 49 65 50 66 51 74 52 67 53 68 54
REMARK SMILES IDX 72 55 75 56 69 57 70 58 73 59 71 60 50 61 51 62 59 63 52 64
REMARK SMILES IDX 53 65 57 66 60 67 54 68 55 69 58 70 56 71 7 72 8 73 9 74
REMARK SMILES IDX 10 75 11 76 12 77 13 78 14 79 15 80 16 81 17 82 18 84 19 85
REMARK SMILES IDX 22 86 20 87 21 88 23 89
REMARK H PARENT 80 24 48 35 17 83 21 90
REMARK Flexibility Score: inf
ROOT
ATOM      1  O   UNL A   1      30.735  27.755  25.055  1.00  0.00    -0.374 OA
ENDROOT
BRANCH   1   2
ATOM      2  C   UNL A   1      31.700  28.809  24.984  1.00  0.00     0.202 C 
BRANCH   2   3
ATOM      3  C   UNL A   1      31.990  29.528  26.305  1.00  0.00     0.261 C 
BRANCH   3   4
ATOM      4  O   UNL A   1      33.090  30.439  26.156  1.00  0.00    -0.460 OA
BRANCH   4   5
ATOM      5  C   UNL A   1      33.642  31.241  27.095  1.00  0.00     0.338 C 
ATOM      6  O   UNL A   1      33.121  32.334  27.312  1.00  0.00    -0.246 OA
BRANCH   5   7
ATOM      7  C   UNL A   1      34.854  30.879  27.892  1.00  0.00     0.060 A 
ATOM      8  C   UNL A   1      35.131  29.610  28.406  1.00  0.00     0.016 A 
ATOM      9  C   UNL A   1      35.831  31.877  28.046  1.00  0.00     0.016 A 
ATOM     10  C   UNL A   1      36.308  29.331  29.074  1.00  0.00     0.010 A 
ATOM     11  C   UNL A   1      37.035  31.604  28.700  1.00  0.00     0.010 A 
ATOM     12  C   UNL A   1      37.262  30.326  29.220  1.00  0.00    -0.014 A 
BRANCH  12  13
ATOM     13  C   UNL A   1      38.431  30.013  30.048  1.00  0.00     0.031 A 
ATOM     14  C   UNL A   1      39.478  29.129  29.463  1.00  0.00     0.074 A 
ATOM     15  C   UNL A   1      38.584  30.631  31.230  1.00  0.00     0.049 A 
ATOM     16  N   UNL A   1      40.560  28.651  30.010  1.00  0.00    -0.248 NA
ATOM     17  C   UNL A   1      39.282  28.732  28.058  1.00  0.00     0.031 C 
ATOM     18  C   UNL A   1      37.661  31.623  31.787  1.00  0.00     0.029 A 
ATOM     19  N   UNL A   1      39.574  30.528  32.166  1.00  0.00    -0.354 N 
ATOM     20  C   UNL A   1      41.153  27.868  29.032  1.00  0.00     0.074 A 
ATOM     21  C   UNL A   1      40.314  27.931  27.858  1.00  0.00     0.031 C 
ATOM     22  C   UNL A   1      38.125  32.029  32.978  1.00  0.00     0.029 A 
ATOM     23  C   UNL A   1      39.331  31.272  33.293  1.00  0.00     0.049 A 
ATOM     24  H   UNL A   1      40.381  29.977  32.044  1.00  0.00     0.167 HD
ATOM     25  C   UNL A   1      42.295  27.153  29.131  1.00  0.00     0.037 A 
ATOM     26  C   UNL A   1      39.989  31.282  34.465  1.00  0.00     0.037 A 
ATOM     27  C   UNL A   1      43.087  27.119  30.330  1.00  0.00     0.049 A 
ATOM     28  C   UNL A   1      41.201  30.398  34.592  1.00  0.00     0.074 A 
ATOM     29  C   UNL A   1      44.240  26.405  30.588  1.00  0.00     0.029 A 
ATOM     30  N   UNL A   1      42.786  27.836  31.484  1.00  0.00    -0.354 N 
ATOM     31  N   UNL A   1      41.740  29.607  33.692  1.00  0.00    -0.248 NA
ATOM     32  C   UNL A   1      41.889  30.393  35.886  1.00  0.00     0.031 C 
ATOM     33  C   UNL A   1      44.598  26.638  31.921  1.00  0.00     0.029 A 
ATOM     34  C   UNL A   1      43.714  27.556  32.471  1.00  0.00     0.049 A 
ATOM     35  H   UNL A   1      42.025  28.452  31.583  1.00  0.00     0.167 HD
ATOM     36  C   UNL A   1      42.841  29.024  34.301  1.00  0.00     0.074 A 
ATOM     37  C   UNL A   1      42.896  29.564  35.647  1.00  0.00     0.031 C 
ATOM     38  C   UNL A   1      43.727  28.128  33.798  1.00  0.00     0.037 A 
BRANCH  25  39
ATOM     39  C   UNL A   1      42.659  26.289  27.959  1.00  0.00     0.064 A 
ATOM     40  C   UNL A   1      43.572  26.700  26.976  1.00  0.00     0.173 A 
ATOM     41  C   UNL A   1      42.014  25.055  27.775  1.00  0.00     0.173 A 
ATOM     42  F   UNL A   1      44.195  27.885  27.083  1.00  0.00    -0.203 F 
ATOM     43  C   UNL A   1      43.786  25.934  25.830  1.00  0.00     0.198 A 
ATOM     44  C   UNL A   1      42.258  24.276  26.648  1.00  0.00     0.198 A 
ATOM     45  F   UNL A   1      41.126  24.615  28.678  1.00  0.00    -0.203 F 
ATOM     46  F   UNL A   1      44.594  26.391  24.862  1.00  0.00    -0.200 F 
ATOM     47  C   UNL A   1      43.131  24.724  25.668  1.00  0.00     0.200 A 
ATOM     48  F   UNL A   1      41.626  23.104  26.497  1.00  0.00    -0.200 F 
ATOM     49  F   UNL A   1      43.322  23.998  24.558  1.00  0.00    -0.200 F 
ENDBRANCH  25  39
BRANCH  26  50
ATOM     50  C   UNL A   1      39.469  32.093  35.597  1.00  0.00     0.064 A 
ATOM     51  C   UNL A   1      38.574  31.561  36.533  1.00  0.00     0.173 A 
ATOM     52  C   UNL A   1      39.888  33.421  35.784  1.00  0.00     0.173 A 
ATOM     53  F   UNL A   1      38.127  30.303  36.392  1.00  0.00    -0.203 F 
ATOM     54  C   UNL A   1      38.113  32.325  37.605  1.00  0.00     0.198 A 
ATOM     55  C   UNL A   1      39.452  34.173  36.872  1.00  0.00     0.198 A 
ATOM     56  F   UNL A   1      40.746  33.983  34.919  1.00  0.00    -0.203 F 
ATOM     57  F   UNL A   1      37.230  31.802  38.467  1.00  0.00    -0.200 F 
ATOM     58  C   UNL A   1      38.559  33.626  37.779  1.00  0.00     0.200 A 
ATOM     59  F   UNL A   1      39.901  35.424  37.043  1.00  0.00    -0.200 F 
ATOM     60  F   UNL A   1      38.126  34.355  38.817  1.00  0.00    -0.200 F 
ENDBRANCH  26  50
BRANCH  38  61
ATOM     61  C   UNL A   1      44.853  27.707  34.695  1.00  0.00     0.064 A 
ATOM     62  C   UNL A   1      44.765  26.563  35.500  1.00  0.00     0.173 A 
ATOM     63  C   UNL A   1      46.065  28.413  34.674  1.00  0.00     0.173 A 
ATOM     64  F   UNL A   1      43.621  25.867  35.563  1.00  0.00    -0.203 F 
ATOM     65  C   UNL A   1      45.852  26.146  36.261  1.00  0.00     0.198 A 
ATOM     66  C   UNL A   1      47.159  27.972  35.408  1.00  0.00     0.198 A 
ATOM     67  F   UNL A   1      46.197  29.509  33.911  1.00  0.00    -0.203 F 
ATOM     68  F   UNL A   1      45.740  25.069  37.051  1.00  0.00    -0.200 F 
ATOM     69  C   UNL A   1      47.051  26.842  36.204  1.00  0.00     0.200 A 
ATOM     70  F   UNL A   1      48.323  28.634  35.336  1.00  0.00    -0.200 F 
ATOM     71  F   UNL A   1      48.105  26.423  36.918  1.00  0.00    -0.200 F 
ENDBRANCH  38  61
ENDBRANCH  12  13
ENDBRANCH   5   7
ENDBRANCH   4   5
ENDBRANCH   3   4
ENDBRANCH   2   3
ENDBRANCH   1   2
BRANCH   1  72
ATOM     72  C   UNL A   1      31.128  26.586  25.785  1.00  0.00     0.202 C 
BRANCH  72  73
ATOM     73  C   UNL A   1      30.255  25.400  25.369  1.00  0.00     0.261 C 
BRANCH  73  74
ATOM     74  O   UNL A   1      31.078  24.229  25.387  1.00  0.00    -0.463 OA
BRANCH  74  75
ATOM     75  C   UNL A   1      30.983  23.510  26.539  1.00  0.00     0.309 C 
ATOM     76  O   UNL A   1      30.060  23.521  27.335  1.00  0.00    -0.252 OA
BRANCH  75  77
ATOM     77  C   UNL A   1      32.133  22.594  26.640  1.00  0.00     0.112 C 
ATOM     78  C   UNL A   1      33.021  22.504  27.857  1.00  0.00     0.030 C 
ATOM     79  C   UNL A   1      33.527  23.148  26.603  1.00  0.00     0.093 C 
BRANCH  79  80
ATOM     80  C   UNL A   1      34.489  22.583  25.631  1.00  0.00     0.224 C 
ATOM     81  O   UNL A   1      35.218  21.668  26.003  1.00  0.00    -0.275 OA
ATOM     82  N   UNL A   1      34.823  23.221  24.463  1.00  0.00    -0.342 N 
ATOM     83  H   UNL A   1      35.711  23.643  24.470  1.00  0.00     0.164 HD
BRANCH  82  84
ATOM     84  C   UNL A   1      34.078  23.386  23.191  1.00  0.00     0.202 C 
ATOM     85  C   UNL A   1      33.658  24.865  23.075  1.00  0.00     0.228 C 
ATOM     86  C   UNL A   1      32.745  22.724  22.859  1.00  0.00     0.268 C 
ATOM     87  O   UNL A   1      32.397  24.964  22.416  1.00  0.00    -0.271 OA
ATOM     88  N   UNL A   1      31.857  23.673  22.446  1.00  0.00    -0.233 N 
ATOM     89  O   UNL A   1      32.462  21.538  22.879  1.00  0.00    -0.270 OA
ATOM     90  H   UNL A   1      30.927  23.469  22.193  1.00  0.00     0.199 HD
ENDBRANCH  82  84
ENDBRANCH  79  80
ENDBRANCH  75  77
ENDBRANCH  74  75
ENDBRANCH  73  74
ENDBRANCH  72  73
ENDBRANCH   1  72
TORSDOF 16
ENDMDL
