MODEL 1
REMARK VINA RESULT:     -11.7      0.000      0.000
REMARK SMILES O=C(OCCOCCOC(=O)[C@@H](Cc1c(F)cccc1Cl)c1ccc(Cl)cc1)c1ccc(-c2c3nc(c(-c4c(F)c(F)c(F)c(F)c4F)c4ccc([nH]4)c(-c4c(F)c(F)c(F)c(F)c4F)c4nc(c(-c5c(F)c(F)c(F)c(F)c5F)c5ccc2[nH]5)C=C4)C=C3)cc1
REMARK SMILES IDX 6 1 5 2 4 3 3 4 2 5 1 6 29 7 30 8 91 9 31 10 90 11 32 12
REMARK SMILES IDX 33 13 34 14 84 15 35 16 89 17 83 18 85 19 36 20 88 21 82 22
REMARK SMILES IDX 81 23 37 25 69 26 49 27 68 28 50 29 53 30 67 31 86 32 51 33
REMARK SMILES IDX 52 34 66 36 87 37 54 38 38 39 39 40 47 41 40 42 41 43 45 44
REMARK SMILES IDX 48 45 42 46 43 47 46 48 44 49 70 50 71 51 79 52 72 53 73 54
REMARK SMILES IDX 77 55 80 56 74 57 75 58 78 59 76 60 55 61 56 62 64 63 57 64
REMARK SMILES IDX 58 65 62 66 65 67 59 68 60 69 63 70 61 71 7 72 8 73 9 74
REMARK SMILES IDX 10 75 11 76 12 77 13 78 14 79 15 80 20 81 16 82 17 83 19 84
REMARK SMILES IDX 21 85 18 86 22 87 23 88 28 89 24 90 27 91 25 92 26 93
REMARK H PARENT 85 24 53 35
REMARK Flexibility Score: inf
ROOT
ATOM      1  O   UNL A   1      34.849  21.489  25.435  1.00  0.00    -0.374 OA
ENDROOT
BRANCH   1   2
ATOM      2  C   UNL A   1      35.687  22.171  24.500  1.00  0.00     0.202 C 
BRANCH   2   3
ATOM      3  C   UNL A   1      37.147  21.683  24.411  1.00  0.00     0.261 C 
BRANCH   3   4
ATOM      4  O   UNL A   1      37.726  21.508  25.727  1.00  0.00    -0.460 OA
BRANCH   4   5
ATOM      5  C   UNL A   1      39.035  21.497  26.083  1.00  0.00     0.338 C 
ATOM      6  O   UNL A   1      39.720  20.502  25.864  1.00  0.00    -0.246 OA
BRANCH   5   7
ATOM      7  C   UNL A   1      39.676  22.673  26.732  1.00  0.00     0.060 A 
ATOM      8  C   UNL A   1      39.281  23.971  26.455  1.00  0.00     0.016 A 
ATOM      9  C   UNL A   1      40.684  22.488  27.687  1.00  0.00     0.016 A 
ATOM     10  C   UNL A   1      39.925  25.062  26.956  1.00  0.00     0.010 A 
ATOM     11  C   UNL A   1      41.300  23.597  28.287  1.00  0.00     0.010 A 
ATOM     12  C   UNL A   1      40.921  24.886  27.897  1.00  0.00    -0.014 A 
BRANCH  12  13
ATOM     13  C   UNL A   1      41.578  26.140  28.277  1.00  0.00     0.031 A 
ATOM     14  C   UNL A   1      42.916  26.420  27.678  1.00  0.00     0.074 A 
ATOM     15  C   UNL A   1      40.809  27.104  28.819  1.00  0.00     0.049 A 
ATOM     16  N   UNL A   1      43.659  27.484  27.786  1.00  0.00    -0.248 NA
ATOM     17  C   UNL A   1      43.481  25.375  26.804  1.00  0.00     0.031 C 
ATOM     18  C   UNL A   1      39.394  26.943  29.190  1.00  0.00     0.029 A 
ATOM     19  N   UNL A   1      41.058  28.426  29.053  1.00  0.00    -0.354 N 
ATOM     20  C   UNL A   1      44.792  27.222  27.032  1.00  0.00     0.074 A 
ATOM     21  C   UNL A   1      44.639  25.909  26.453  1.00  0.00     0.031 C 
ATOM     22  C   UNL A   1      38.892  28.132  29.549  1.00  0.00     0.029 A 
ATOM     23  C   UNL A   1      39.972  29.107  29.548  1.00  0.00     0.049 A 
ATOM     24  H   UNL A   1      41.931  28.849  28.884  1.00  0.00     0.167 HD
ATOM     25  C   UNL A   1      45.868  28.022  26.870  1.00  0.00     0.037 A 
ATOM     26  C   UNL A   1      39.894  30.369  30.004  1.00  0.00     0.037 A 
ATOM     27  C   UNL A   1      45.959  29.321  27.474  1.00  0.00     0.049 A 
ATOM     28  C   UNL A   1      41.154  31.187  29.936  1.00  0.00     0.074 A 
ATOM     29  C   UNL A   1      47.037  30.181  27.542  1.00  0.00     0.029 A 
ATOM     30  N   UNL A   1      44.896  29.951  28.116  1.00  0.00    -0.354 N 
ATOM     31  N   UNL A   1      42.305  30.879  29.384  1.00  0.00    -0.248 NA
ATOM     32  C   UNL A   1      41.122  32.504  30.575  1.00  0.00     0.031 C 
ATOM     33  C   UNL A   1      46.635  31.314  28.260  1.00  0.00     0.029 A 
ATOM     34  C   UNL A   1      45.292  31.185  28.593  1.00  0.00     0.049 A 
ATOM     35  H   UNL A   1      43.993  29.570  28.217  1.00  0.00     0.167 HD
ATOM     36  C   UNL A   1      43.139  31.962  29.609  1.00  0.00     0.074 A 
ATOM     37  C   UNL A   1      42.342  32.950  30.314  1.00  0.00     0.031 C 
ATOM     38  C   UNL A   1      44.447  32.126  29.286  1.00  0.00     0.037 A 
BRANCH  25  39
ATOM     39  C   UNL A   1      47.030  27.449  26.117  1.00  0.00     0.064 A 
ATOM     40  C   UNL A   1      48.044  26.715  26.751  1.00  0.00     0.173 A 
ATOM     41  C   UNL A   1      47.166  27.704  24.743  1.00  0.00     0.173 A 
ATOM     42  F   UNL A   1      47.985  26.483  28.071  1.00  0.00    -0.203 F 
ATOM     43  C   UNL A   1      49.161  26.278  26.042  1.00  0.00     0.198 A 
ATOM     44  C   UNL A   1      48.271  27.245  24.033  1.00  0.00     0.198 A 
ATOM     45  F   UNL A   1      46.236  28.421  24.095  1.00  0.00    -0.203 F 
ATOM     46  F   UNL A   1      50.148  25.633  26.679  1.00  0.00    -0.200 F 
ATOM     47  C   UNL A   1      49.273  26.539  24.684  1.00  0.00     0.200 A 
ATOM     48  F   UNL A   1      48.379  27.505  22.723  1.00  0.00    -0.200 F 
ATOM     49  F   UNL A   1      50.354  26.131  24.006  1.00  0.00    -0.200 F 
ENDBRANCH  25  39
BRANCH  26  50
ATOM     50  C   UNL A   1      38.652  30.867  30.659  1.00  0.00     0.064 A 
ATOM     51  C   UNL A   1      38.459  30.783  32.043  1.00  0.00     0.173 A 
ATOM     52  C   UNL A   1      37.605  31.413  29.895  1.00  0.00     0.173 A 
ATOM     53  F   UNL A   1      39.413  30.253  32.822  1.00  0.00    -0.203 F 
ATOM     54  C   UNL A   1      37.264  31.202  32.633  1.00  0.00     0.198 A 
ATOM     55  C   UNL A   1      36.430  31.868  30.488  1.00  0.00     0.198 A 
ATOM     56  F   UNL A   1      37.724  31.514  28.562  1.00  0.00    -0.203 F 
ATOM     57  F   UNL A   1      37.084  31.054  33.952  1.00  0.00    -0.200 F 
ATOM     58  C   UNL A   1      36.254  31.749  31.856  1.00  0.00     0.200 A 
ATOM     59  F   UNL A   1      35.466  32.411  29.731  1.00  0.00    -0.200 F 
ATOM     60  F   UNL A   1      35.108  32.148  32.422  1.00  0.00    -0.200 F 
ENDBRANCH  26  50
BRANCH  38  61
ATOM     61  C   UNL A   1      45.062  33.432  29.675  1.00  0.00     0.064 A 
ATOM     62  C   UNL A   1      45.041  34.537  28.812  1.00  0.00     0.173 A 
ATOM     63  C   UNL A   1      45.652  33.582  30.938  1.00  0.00     0.173 A 
ATOM     64  F   UNL A   1      44.503  34.428  27.589  1.00  0.00    -0.203 F 
ATOM     65  C   UNL A   1      45.619  35.742  29.192  1.00  0.00     0.198 A 
ATOM     66  C   UNL A   1      46.199  34.800  31.325  1.00  0.00     0.198 A 
ATOM     67  F   UNL A   1      45.687  32.552  31.796  1.00  0.00    -0.203 F 
ATOM     68  F   UNL A   1      45.640  36.771  28.333  1.00  0.00    -0.200 F 
ATOM     69  C   UNL A   1      46.190  35.875  30.449  1.00  0.00     0.200 A 
ATOM     70  F   UNL A   1      46.738  34.931  32.545  1.00  0.00    -0.200 F 
ATOM     71  F   UNL A   1      46.742  37.040  30.813  1.00  0.00    -0.200 F 
ENDBRANCH  38  61
ENDBRANCH  12  13
ENDBRANCH   5   7
ENDBRANCH   4   5
ENDBRANCH   3   4
ENDBRANCH   2   3
ENDBRANCH   1   2
BRANCH   1  72
ATOM     72  C   UNL A   1      34.183  22.297  26.410  1.00  0.00     0.202 C 
BRANCH  72  73
ATOM     73  C   UNL A   1      32.938  22.921  25.806  1.00  0.00     0.261 C 
BRANCH  73  74
ATOM     74  O   UNL A   1      32.289  23.684  26.830  1.00  0.00    -0.463 OA
BRANCH  74  75
ATOM     75  C   UNL A   1      31.258  24.471  26.420  1.00  0.00     0.313 C 
ATOM     76  O   UNL A   1      30.099  24.385  26.815  1.00  0.00    -0.252 OA
BRANCH  75  77
ATOM     77  C   UNL A   1      31.688  25.419  25.314  1.00  0.00     0.134 C 
BRANCH  77  78
ATOM     78  C   UNL A   1      30.742  25.544  24.067  1.00  0.00     0.060 C 
BRANCH  78  79
ATOM     79  C   UNL A   1      30.456  26.894  23.434  1.00  0.00     0.008 A 
ATOM     80  C   UNL A   1      31.431  27.538  22.678  1.00  0.00     0.127 A 
ATOM     81  C   UNL A   1      29.221  27.559  23.517  1.00  0.00     0.047 A 
ATOM     82  F   UNL A   1      32.498  26.852  22.255  1.00  0.00    -0.207 F 
ATOM     83  C   UNL A   1      31.314  28.870  22.284  1.00  0.00     0.039 A 
ATOM     84  C   UNL A   1      29.095  28.913  23.173  1.00  0.00     0.021 A 
ATOM     85  Cl  UNL A   1      27.750  26.702  23.815  1.00  0.00    -0.084 Cl
ATOM     86  C   UNL A   1      30.166  29.585  22.595  1.00  0.00     0.005 A 
ENDBRANCH  78  79
ENDBRANCH  77  78
BRANCH  77  87
ATOM     87  C   UNL A   1      32.239  26.682  25.952  1.00  0.00    -0.033 A 
ATOM     88  C   UNL A   1      31.399  27.492  26.729  1.00  0.00     0.006 A 
ATOM     89  C   UNL A   1      33.537  27.143  25.674  1.00  0.00     0.006 A 
ATOM     90  C   UNL A   1      31.859  28.707  27.239  1.00  0.00     0.021 A 
ATOM     91  C   UNL A   1      34.010  28.339  26.206  1.00  0.00     0.021 A 
ATOM     92  C   UNL A   1      33.166  29.118  26.987  1.00  0.00     0.041 A 
ATOM     93  Cl  UNL A   1      33.739  30.608  27.625  1.00  0.00    -0.084 Cl
ENDBRANCH  77  87
ENDBRANCH  75  77
ENDBRANCH  74  75
ENDBRANCH  73  74
ENDBRANCH  72  73
ENDBRANCH   1  72
TORSDOF 17
ENDMDL
MODEL 2
REMARK VINA RESULT:     -11.6      4.444      9.558
REMARK SMILES O=C(OCCOCCOC(=O)[C@@H](Cc1c(F)cccc1Cl)c1ccc(Cl)cc1)c1ccc(-c2c3nc(c(-c4c(F)c(F)c(F)c(F)c4F)c4ccc([nH]4)c(-c4c(F)c(F)c(F)c(F)c4F)c4nc(c(-c5c(F)c(F)c(F)c(F)c5F)c5ccc2[nH]5)C=C4)C=C3)cc1
REMARK SMILES IDX 6 1 5 2 4 3 3 4 2 5 1 6 29 7 30 8 91 9 31 10 90 11 32 12
REMARK SMILES IDX 33 13 34 14 84 15 35 16 89 17 83 18 85 19 36 20 88 21 82 22
REMARK SMILES IDX 81 23 37 25 69 26 49 27 68 28 50 29 53 30 67 31 86 32 51 33
REMARK SMILES IDX 52 34 66 36 87 37 54 38 38 39 39 40 47 41 40 42 41 43 45 44
REMARK SMILES IDX 48 45 42 46 43 47 46 48 44 49 70 50 71 51 79 52 72 53 73 54
REMARK SMILES IDX 77 55 80 56 74 57 75 58 78 59 76 60 55 61 56 62 64 63 57 64
REMARK SMILES IDX 58 65 62 66 65 67 59 68 60 69 63 70 61 71 7 72 8 73 9 74
REMARK SMILES IDX 10 75 11 76 12 77 13 78 14 79 15 80 20 81 16 82 17 83 19 84
REMARK SMILES IDX 21 85 18 86 22 87 23 88 28 89 24 90 27 91 25 92 26 93
REMARK H PARENT 85 24 53 35
REMARK Flexibility Score: inf
ROOT
ATOM      1  O   UNL A   1      32.799  28.131  25.236  1.00  0.00    -0.374 OA
ENDROOT
BRANCH   1   2
ATOM      2  C   UNL A   1      32.765  29.535  24.969  1.00  0.00     0.202 C 
BRANCH   2   3
ATOM      3  C   UNL A   1      32.040  30.409  26.012  1.00  0.00     0.261 C 
BRANCH   3   4
ATOM      4  O   UNL A   1      32.804  30.512  27.237  1.00  0.00    -0.460 OA
BRANCH   4   5
ATOM      5  C   UNL A   1      33.654  31.496  27.627  1.00  0.00     0.338 C 
ATOM      6  O   UNL A   1      33.287  32.667  27.600  1.00  0.00    -0.246 OA
BRANCH   5   7
ATOM      7  C   UNL A   1      35.031  31.192  28.100  1.00  0.00     0.060 A 
ATOM      8  C   UNL A   1      35.402  29.925  28.520  1.00  0.00     0.016 A 
ATOM      9  C   UNL A   1      36.015  32.190  28.094  1.00  0.00     0.016 A 
ATOM     10  C   UNL A   1      36.624  29.653  29.056  1.00  0.00     0.010 A 
ATOM     11  C   UNL A   1      37.310  31.908  28.556  1.00  0.00     0.010 A 
ATOM     12  C   UNL A   1      37.598  30.633  29.055  1.00  0.00    -0.014 A 
BRANCH  12  13
ATOM     13  C   UNL A   1      38.826  30.223  29.740  1.00  0.00     0.031 A 
ATOM     14  C   UNL A   1      38.971  30.610  31.174  1.00  0.00     0.074 A 
ATOM     15  C   UNL A   1      39.552  29.238  29.176  1.00  0.00     0.049 A 
ATOM     16  N   UNL A   1      39.913  30.299  32.018  1.00  0.00    -0.248 NA
ATOM     17  C   UNL A   1      37.886  31.425  31.752  1.00  0.00     0.031 C 
ATOM     18  C   UNL A   1      39.283  28.644  27.858  1.00  0.00     0.029 A 
ATOM     19  N   UNL A   1      40.582  28.488  29.667  1.00  0.00    -0.354 N 
ATOM     20  C   UNL A   1      39.558  30.913  33.210  1.00  0.00     0.074 A 
ATOM     21  C   UNL A   1      38.307  31.599  32.994  1.00  0.00     0.031 C 
ATOM     22  C   UNL A   1      40.090  27.589  27.674  1.00  0.00     0.029 A 
ATOM     23  C   UNL A   1      41.006  27.509  28.802  1.00  0.00     0.049 A 
ATOM     24  H   UNL A   1      40.982  28.636  30.555  1.00  0.00     0.167 HD
ATOM     25  C   UNL A   1      40.249  30.905  34.370  1.00  0.00     0.037 A 
ATOM     26  C   UNL A   1      42.062  26.683  28.901  1.00  0.00     0.037 A 
ATOM     27  C   UNL A   1      41.492  30.201  34.521  1.00  0.00     0.049 A 
ATOM     28  C   UNL A   1      42.893  26.802  30.148  1.00  0.00     0.074 A 
ATOM     29  C   UNL A   1      42.390  30.227  35.568  1.00  0.00     0.029 A 
ATOM     30  N   UNL A   1      42.001  29.322  33.569  1.00  0.00    -0.354 N 
ATOM     31  N   UNL A   1      42.667  27.526  31.221  1.00  0.00    -0.248 NA
ATOM     32  C   UNL A   1      44.132  26.024  30.194  1.00  0.00     0.031 C 
ATOM     33  C   UNL A   1      43.463  29.392  35.231  1.00  0.00     0.029 A 
ATOM     34  C   UNL A   1      43.208  28.803  33.999  1.00  0.00     0.049 A 
ATOM     35  H   UNL A   1      41.566  29.102  32.713  1.00  0.00     0.167 HD
ATOM     36  C   UNL A   1      43.735  27.295  32.070  1.00  0.00     0.074 A 
ATOM     37  C   UNL A   1      44.587  26.330  31.400  1.00  0.00     0.031 C 
ATOM     38  C   UNL A   1      44.007  27.840  33.283  1.00  0.00     0.037 A 
BRANCH  25  39
ATOM     39  C   UNL A   1      39.722  31.765  35.478  1.00  0.00     0.064 A 
ATOM     40  C   UNL A   1      38.730  31.319  36.364  1.00  0.00     0.173 A 
ATOM     41  C   UNL A   1      40.172  33.088  35.609  1.00  0.00     0.173 A 
ATOM     42  F   UNL A   1      38.235  30.078  36.253  1.00  0.00    -0.203 F 
ATOM     43  C   UNL A   1      38.192  32.174  37.324  1.00  0.00     0.198 A 
ATOM     44  C   UNL A   1      39.649  33.932  36.584  1.00  0.00     0.198 A 
ATOM     45  F   UNL A   1      41.102  33.571  34.772  1.00  0.00    -0.203 F 
ATOM     46  F   UNL A   1      37.201  31.747  38.119  1.00  0.00    -0.200 F 
ATOM     47  C   UNL A   1      38.653  33.478  37.436  1.00  0.00     0.200 A 
ATOM     48  F   UNL A   1      40.092  35.193  36.686  1.00  0.00    -0.200 F 
ATOM     49  F   UNL A   1      38.125  34.303  38.350  1.00  0.00    -0.200 F 
ENDBRANCH  25  39
BRANCH  26  50
ATOM     50  C   UNL A   1      42.447  25.799  27.765  1.00  0.00     0.064 A 
ATOM     51  C   UNL A   1      43.269  26.247  26.723  1.00  0.00     0.173 A 
ATOM     52  C   UNL A   1      41.963  24.481  27.683  1.00  0.00     0.173 A 
ATOM     53  F   UNL A   1      43.744  27.500  26.735  1.00  0.00    -0.203 F 
ATOM     54  C   UNL A   1      43.572  25.422  25.638  1.00  0.00     0.198 A 
ATOM     55  C   UNL A   1      42.299  23.646  26.621  1.00  0.00     0.198 A 
ATOM     56  F   UNL A   1      41.164  23.994  28.645  1.00  0.00    -0.203 F 
ATOM     57  F   UNL A   1      44.311  25.896  24.626  1.00  0.00    -0.200 F 
ATOM     58  C   UNL A   1      43.092  24.121  25.591  1.00  0.00     0.200 A 
ATOM     59  F   UNL A   1      41.844  22.385  26.592  1.00  0.00    -0.200 F 
ATOM     60  F   UNL A   1      43.381  23.332  24.547  1.00  0.00    -0.200 F 
ENDBRANCH  26  50
BRANCH  38  61
ATOM     61  C   UNL A   1      45.260  27.370  33.950  1.00  0.00     0.064 A 
ATOM     62  C   UNL A   1      46.482  28.033  33.763  1.00  0.00     0.173 A 
ATOM     63  C   UNL A   1      45.228  26.260  34.806  1.00  0.00     0.173 A 
ATOM     64  F   UNL A   1      46.558  29.088  32.937  1.00  0.00    -0.203 F 
ATOM     65  C   UNL A   1      47.636  27.581  34.390  1.00  0.00     0.198 A 
ATOM     66  C   UNL A   1      46.379  25.832  35.456  1.00  0.00     0.198 A 
ATOM     67  F   UNL A   1      44.079  25.601  35.017  1.00  0.00    -0.203 F 
ATOM     68  F   UNL A   1      48.806  28.193  34.156  1.00  0.00    -0.200 F 
ATOM     69  C   UNL A   1      47.583  26.487  35.241  1.00  0.00     0.200 A 
ATOM     70  F   UNL A   1      46.324  24.784  36.289  1.00  0.00    -0.200 F 
ATOM     71  F   UNL A   1      48.697  26.056  35.847  1.00  0.00    -0.200 F 
ENDBRANCH  38  61
ENDBRANCH  12  13
ENDBRANCH   5   7
ENDBRANCH   4   5
ENDBRANCH   3   4
ENDBRANCH   2   3
ENDBRANCH   1   2
BRANCH   1  72
ATOM     72  C   UNL A   1      33.337  27.295  24.207  1.00  0.00     0.202 C 
BRANCH  72  73
ATOM     73  C   UNL A   1      32.428  26.100  23.978  1.00  0.00     0.261 C 
BRANCH  73  74
ATOM     74  O   UNL A   1      32.749  25.543  22.698  1.00  0.00    -0.463 OA
BRANCH  74  75
ATOM     75  C   UNL A   1      33.261  24.284  22.711  1.00  0.00     0.313 C 
ATOM     76  O   UNL A   1      33.626  23.656  21.721  1.00  0.00    -0.252 OA
BRANCH  75  77
ATOM     77  C   UNL A   1      33.231  23.685  24.106  1.00  0.00     0.134 C 
BRANCH  77  78
ATOM     78  C   UNL A   1      32.119  22.619  24.406  1.00  0.00     0.060 C 
BRANCH  78  79
ATOM     79  C   UNL A   1      32.419  21.132  24.331  1.00  0.00     0.008 A 
ATOM     80  C   UNL A   1      32.300  20.449  23.125  1.00  0.00     0.127 A 
ATOM     81  C   UNL A   1      32.865  20.361  25.418  1.00  0.00     0.047 A 
ATOM     82  F   UNL A   1      32.220  21.139  21.981  1.00  0.00    -0.207 F 
ATOM     83  C   UNL A   1      32.322  19.058  23.045  1.00  0.00     0.039 A 
ATOM     84  C   UNL A   1      32.847  18.959  25.376  1.00  0.00     0.021 A 
ATOM     85  Cl  UNL A   1      33.677  21.079  26.764  1.00  0.00    -0.084 Cl
ATOM     86  C   UNL A   1      32.528  18.304  24.192  1.00  0.00     0.005 A 
ENDBRANCH  78  79
ENDBRANCH  77  78
BRANCH  77  87
ATOM     87  C   UNL A   1      34.660  23.403  24.538  1.00  0.00    -0.033 A 
ATOM     88  C   UNL A   1      35.405  22.419  23.875  1.00  0.00     0.006 A 
ATOM     89  C   UNL A   1      35.217  24.005  25.679  1.00  0.00     0.006 A 
ATOM     90  C   UNL A   1      36.682  22.075  24.323  1.00  0.00     0.021 A 
ATOM     91  C   UNL A   1      36.502  23.688  26.109  1.00  0.00     0.021 A 
ATOM     92  C   UNL A   1      37.230  22.721  25.429  1.00  0.00     0.041 A 
ATOM     93  Cl  UNL A   1      38.807  22.308  25.973  1.00  0.00    -0.084 Cl
ENDBRANCH  77  87
ENDBRANCH  75  77
ENDBRANCH  74  75
ENDBRANCH  73  74
ENDBRANCH  72  73
ENDBRANCH   1  72
TORSDOF 17
ENDMDL
MODEL 3
REMARK VINA RESULT:     -11.5      4.352      9.640
REMARK SMILES O=C(OCCOCCOC(=O)[C@@H](Cc1c(F)cccc1Cl)c1ccc(Cl)cc1)c1ccc(-c2c3nc(c(-c4c(F)c(F)c(F)c(F)c4F)c4ccc([nH]4)c(-c4c(F)c(F)c(F)c(F)c4F)c4nc(c(-c5c(F)c(F)c(F)c(F)c5F)c5ccc2[nH]5)C=C4)C=C3)cc1
REMARK SMILES IDX 6 1 5 2 4 3 3 4 2 5 1 6 29 7 30 8 91 9 31 10 90 11 32 12
REMARK SMILES IDX 33 13 34 14 84 15 35 16 89 17 83 18 85 19 36 20 88 21 82 22
REMARK SMILES IDX 81 23 37 25 69 26 49 27 68 28 50 29 53 30 67 31 86 32 51 33
REMARK SMILES IDX 52 34 66 36 87 37 54 38 38 39 39 40 47 41 40 42 41 43 45 44
REMARK SMILES IDX 48 45 42 46 43 47 46 48 44 49 70 50 71 51 79 52 72 53 73 54
REMARK SMILES IDX 77 55 80 56 74 57 75 58 78 59 76 60 55 61 56 62 64 63 57 64
REMARK SMILES IDX 58 65 62 66 65 67 59 68 60 69 63 70 61 71 7 72 8 73 9 74
REMARK SMILES IDX 10 75 11 76 12 77 13 78 14 79 15 80 20 81 16 82 17 83 19 84
REMARK SMILES IDX 21 85 18 86 22 87 23 88 28 89 24 90 27 91 25 92 26 93
REMARK H PARENT 85 24 53 35
REMARK Flexibility Score: inf
ROOT
ATOM      1  O   UNL A   1      31.650  28.035  26.337  1.00  0.00    -0.374 OA
ENDROOT
BRANCH   1   2
ATOM      2  C   UNL A   1      31.618  29.283  25.639  1.00  0.00     0.202 C 
BRANCH   2   3
ATOM      3  C   UNL A   1      32.819  30.222  25.868  1.00  0.00     0.261 C 
BRANCH   3   4
ATOM      4  O   UNL A   1      32.635  31.036  27.051  1.00  0.00    -0.460 OA
BRANCH   4   5
ATOM      5  C   UNL A   1      33.448  31.999  27.554  1.00  0.00     0.338 C 
ATOM      6  O   UNL A   1      33.055  33.160  27.617  1.00  0.00    -0.246 OA
BRANCH   5   7
ATOM      7  C   UNL A   1      34.816  31.683  28.047  1.00  0.00     0.060 A 
ATOM      8  C   UNL A   1      35.167  30.414  28.477  1.00  0.00     0.016 A 
ATOM      9  C   UNL A   1      35.810  32.670  28.049  1.00  0.00     0.016 A 
ATOM     10  C   UNL A   1      36.380  30.132  29.030  1.00  0.00     0.010 A 
ATOM     11  C   UNL A   1      37.096  32.377  28.528  1.00  0.00     0.010 A 
ATOM     12  C   UNL A   1      37.364  31.101  29.036  1.00  0.00    -0.014 A 
BRANCH  12  13
ATOM     13  C   UNL A   1      38.578  30.681  29.739  1.00  0.00     0.031 A 
ATOM     14  C   UNL A   1      38.687  31.029  31.187  1.00  0.00     0.074 A 
ATOM     15  C   UNL A   1      39.325  29.717  29.166  1.00  0.00     0.049 A 
ATOM     16  N   UNL A   1      39.611  30.703  32.044  1.00  0.00    -0.248 NA
ATOM     17  C   UNL A   1      37.582  31.820  31.761  1.00  0.00     0.031 C 
ATOM     18  C   UNL A   1      39.092  29.157  27.826  1.00  0.00     0.029 A 
ATOM     19  N   UNL A   1      40.350  28.962  29.661  1.00  0.00    -0.354 N 
ATOM     20  C   UNL A   1      39.223  31.280  33.243  1.00  0.00     0.074 A 
ATOM     21  C   UNL A   1      37.972  31.963  33.016  1.00  0.00     0.031 C 
ATOM     22  C   UNL A   1      39.912  28.114  27.633  1.00  0.00     0.029 A 
ATOM     23  C   UNL A   1      40.801  28.010  28.779  1.00  0.00     0.049 A 
ATOM     24  H   UNL A   1      40.728  29.087  30.562  1.00  0.00     0.167 HD
ATOM     25  C   UNL A   1      39.887  31.246  34.418  1.00  0.00     0.037 A 
ATOM     26  C   UNL A   1      41.861  27.189  28.881  1.00  0.00     0.037 A 
ATOM     27  C   UNL A   1      41.131  30.547  34.580  1.00  0.00     0.049 A 
ATOM     28  C   UNL A   1      42.661  27.279  30.151  1.00  0.00     0.074 A 
ATOM     29  C   UNL A   1      42.004  30.550  35.648  1.00  0.00     0.029 A 
ATOM     30  N   UNL A   1      41.670  29.698  33.616  1.00  0.00    -0.354 N 
ATOM     31  N   UNL A   1      42.405  27.972  31.237  1.00  0.00    -0.248 NA
ATOM     32  C   UNL A   1      43.905  26.509  30.205  1.00  0.00     0.031 C 
ATOM     33  C   UNL A   1      43.091  29.732  35.314  1.00  0.00     0.029 A 
ATOM     34  C   UNL A   1      42.870  29.176  34.061  1.00  0.00     0.049 A 
ATOM     35  H   UNL A   1      41.256  29.499  32.745  1.00  0.00     0.167 HD
ATOM     36  C   UNL A   1      43.454  27.726  32.105  1.00  0.00     0.074 A 
ATOM     37  C   UNL A   1      44.329  26.785  31.429  1.00  0.00     0.031 C 
ATOM     38  C   UNL A   1      43.693  28.239  33.339  1.00  0.00     0.037 A 
BRANCH  25  39
ATOM     39  C   UNL A   1      39.327  32.071  35.537  1.00  0.00     0.064 A 
ATOM     40  C   UNL A   1      39.685  33.415  35.727  1.00  0.00     0.173 A 
ATOM     41  C   UNL A   1      38.470  31.481  36.478  1.00  0.00     0.173 A 
ATOM     42  F   UNL A   1      40.537  34.013  34.882  1.00  0.00    -0.203 F 
ATOM     43  C   UNL A   1      39.223  34.128  36.832  1.00  0.00     0.198 A 
ATOM     44  C   UNL A   1      37.991  32.204  37.567  1.00  0.00     0.198 A 
ATOM     45  F   UNL A   1      38.116  30.193  36.355  1.00  0.00    -0.203 F 
ATOM     46  F   UNL A   1      39.627  35.390  37.029  1.00  0.00    -0.200 F 
ATOM     47  C   UNL A   1      38.374  33.524  37.749  1.00  0.00     0.200 A 
ATOM     48  F   UNL A   1      37.177  31.615  38.454  1.00  0.00    -0.200 F 
ATOM     49  F   UNL A   1      37.942  34.207  38.818  1.00  0.00    -0.200 F 
ENDBRANCH  25  39
BRANCH  26  50
ATOM     50  C   UNL A   1      42.279  26.339  27.731  1.00  0.00     0.064 A 
ATOM     51  C   UNL A   1      41.771  25.048  27.540  1.00  0.00     0.173 A 
ATOM     52  C   UNL A   1      43.236  26.797  26.808  1.00  0.00     0.173 A 
ATOM     53  F   UNL A   1      40.871  24.548  28.399  1.00  0.00    -0.203 F 
ATOM     54  C   UNL A   1      42.218  24.244  26.489  1.00  0.00     0.198 A 
ATOM     55  C   UNL A   1      43.651  26.011  25.737  1.00  0.00     0.198 A 
ATOM     56  F   UNL A   1      43.768  28.022  26.940  1.00  0.00    -0.203 F 
ATOM     57  F   UNL A   1      41.759  22.992  26.365  1.00  0.00    -0.200 F 
ATOM     58  C   UNL A   1      43.153  24.728  25.586  1.00  0.00     0.200 A 
ATOM     59  F   UNL A   1      44.543  26.493  24.859  1.00  0.00    -0.200 F 
ATOM     60  F   UNL A   1      43.582  23.955  24.580  1.00  0.00    -0.200 F 
ENDBRANCH  26  50
BRANCH  38  61
ATOM     61  C   UNL A   1      44.934  27.759  34.022  1.00  0.00     0.064 A 
ATOM     62  C   UNL A   1      44.930  26.609  34.823  1.00  0.00     0.173 A 
ATOM     63  C   UNL A   1      46.144  28.446  33.846  1.00  0.00     0.173 A 
ATOM     64  F   UNL A   1      43.789  25.934  35.031  1.00  0.00    -0.203 F 
ATOM     65  C   UNL A   1      46.093  26.179  35.451  1.00  0.00     0.198 A 
ATOM     66  C   UNL A   1      47.311  27.993  34.449  1.00  0.00     0.198 A 
ATOM     67  F   UNL A   1      46.192  29.547  33.082  1.00  0.00    -0.203 F 
ATOM     68  F   UNL A   1      46.058  25.110  36.258  1.00  0.00    -0.200 F 
ATOM     69  C   UNL A   1      47.282  26.866  35.258  1.00  0.00     0.200 A 
ATOM     70  F   UNL A   1      48.462  28.649  34.251  1.00  0.00    -0.200 F 
ATOM     71  F   UNL A   1      48.403  26.446  35.861  1.00  0.00    -0.200 F 
ENDBRANCH  38  61
ENDBRANCH  12  13
ENDBRANCH   5   7
ENDBRANCH   4   5
ENDBRANCH   3   4
ENDBRANCH   2   3
ENDBRANCH   1   2
BRANCH   1  72
ATOM     72  C   UNL A   1      31.672  26.851  25.535  1.00  0.00     0.202 C 
BRANCH  72  73
ATOM     73  C   UNL A   1      33.083  26.291  25.473  1.00  0.00     0.261 C 
BRANCH  73  74
ATOM     74  O   UNL A   1      33.586  26.514  24.150  1.00  0.00    -0.463 OA
BRANCH  74  75
ATOM     75  C   UNL A   1      33.765  25.403  23.389  1.00  0.00     0.313 C 
ATOM     76  O   UNL A   1      33.960  25.396  22.176  1.00  0.00    -0.252 OA
BRANCH  75  77
ATOM     77  C   UNL A   1      33.584  24.134  24.205  1.00  0.00     0.134 C 
BRANCH  77  78
ATOM     78  C   UNL A   1      32.455  23.143  23.751  1.00  0.00     0.060 C 
BRANCH  78  79
ATOM     79  C   UNL A   1      32.482  21.683  24.165  1.00  0.00     0.008 A 
ATOM     80  C   UNL A   1      32.509  21.333  25.512  1.00  0.00     0.127 A 
ATOM     81  C   UNL A   1      32.439  20.605  23.264  1.00  0.00     0.047 A 
ATOM     82  F   UNL A   1      32.208  22.250  26.438  1.00  0.00    -0.207 F 
ATOM     83  C   UNL A   1      32.780  20.036  25.944  1.00  0.00     0.039 A 
ATOM     84  C   UNL A   1      32.758  19.300  23.669  1.00  0.00     0.021 A 
ATOM     85  Cl  UNL A   1      31.769  20.776  21.681  1.00  0.00    -0.084 Cl
ATOM     86  C   UNL A   1      32.975  19.024  25.014  1.00  0.00     0.005 A 
ENDBRANCH  78  79
ENDBRANCH  77  78
BRANCH  77  87
ATOM     87  C   UNL A   1      34.958  23.583  24.545  1.00  0.00    -0.033 A 
ATOM     88  C   UNL A   1      35.667  22.846  23.587  1.00  0.00     0.006 A 
ATOM     89  C   UNL A   1      35.486  23.670  25.843  1.00  0.00     0.006 A 
ATOM     90  C   UNL A   1      36.885  22.245  23.913  1.00  0.00     0.021 A 
ATOM     91  C   UNL A   1      36.714  23.100  26.164  1.00  0.00     0.021 A 
ATOM     92  C   UNL A   1      37.409  22.387  25.196  1.00  0.00     0.041 A 
ATOM     93  Cl  UNL A   1      38.914  21.659  25.596  1.00  0.00    -0.084 Cl
ENDBRANCH  77  87
ENDBRANCH  75  77
ENDBRANCH  74  75
ENDBRANCH  73  74
ENDBRANCH  72  73
ENDBRANCH   1  72
TORSDOF 17
ENDMDL
