MODEL 1
REMARK VINA RESULT:     -10.7      0.000      0.000
REMARK SMILES CCC[C@H](c1ccccc1)[C@@](C)(O)C(=O)OCCOCCOC(=O)c1ccc(-c2c3nc(c(-c4c(F)c(F)c(F)c(F)c4F)c4ccc([nH]4)c(-c4c(F)c(F)c(F)c(F)c4F)c4nc(c(-c5c(F)c(F)c(F)c(F)c5F)c5ccc2[nH]5)C=C4)C=C3)cc1
REMARK SMILES IDX 18 1 17 2 16 3 14 4 15 5 11 6 12 7 4 8 3 9 2 10 1 11 5 12
REMARK SMILES IDX 6 13 10 14 7 15 9 16 8 17 13 18 19 20 20 21 21 22 22 23
REMARK SMILES IDX 23 24 24 25 25 26 26 27 87 28 27 29 86 30 28 31 29 32 30 33
REMARK SMILES IDX 80 34 31 35 85 36 79 37 81 38 32 39 84 40 78 41 77 42 33 44
REMARK SMILES IDX 65 45 45 46 64 47 46 48 49 49 63 50 82 51 47 52 48 53 62 55
REMARK SMILES IDX 83 56 50 57 34 58 35 59 43 60 36 61 37 62 41 63 44 64 38 65
REMARK SMILES IDX 39 66 42 67 40 68 66 69 67 70 75 71 68 72 69 73 73 74 76 75
REMARK SMILES IDX 70 76 71 77 74 78 72 79 51 80 52 81 60 82 53 83 54 84 58 85
REMARK SMILES IDX 61 86 55 87 56 88 59 89 57 90
REMARK H PARENT 13 19 81 43 49 54
REMARK Flexibility Score: inf
ROOT
ATOM      1  C   UNL A   1      32.855  28.929  25.003  1.00  0.00     0.202 C 
ENDROOT
BRANCH   1   2
ATOM      2  C   UNL A   1      31.999  27.813  25.601  1.00  0.00     0.261 C 
BRANCH   2   3
ATOM      3  O   UNL A   1      32.724  26.575  25.575  1.00  0.00    -0.461 OA
BRANCH   3   4
ATOM      4  C   UNL A   1      31.977  25.463  25.824  1.00  0.00     0.338 C 
ATOM      5  O   UNL A   1      31.352  25.295  26.864  1.00  0.00    -0.249 OA
BRANCH   4   6
ATOM      6  C   UNL A   1      32.084  24.420  24.668  1.00  0.00     0.165 C 
ATOM      7  C   UNL A   1      30.719  24.486  23.958  1.00  0.00     0.055 C 
BRANCH   6   8
ATOM      8  C   UNL A   1      33.304  24.686  23.674  1.00  0.00     0.062 C 
BRANCH   8   9
ATOM      9  C   UNL A   1      32.938  24.462  22.165  1.00  0.00     0.012 C 
BRANCH   9  10
ATOM     10  C   UNL A   1      32.893  25.737  21.307  1.00  0.00    -0.003 C 
ATOM     11  C   UNL A   1      32.529  25.521  19.850  1.00  0.00     0.004 C 
ENDBRANCH   9  10
ENDBRANCH   8   9
BRANCH   8  12
ATOM     12  C   UNL A   1      34.612  24.018  24.124  1.00  0.00    -0.041 A 
ATOM     13  C   UNL A   1      35.255  24.312  25.339  1.00  0.00     0.004 A 
ATOM     14  C   UNL A   1      35.278  23.156  23.235  1.00  0.00     0.004 A 
ATOM     15  C   UNL A   1      36.530  23.811  25.625  1.00  0.00     0.000 A 
ATOM     16  C   UNL A   1      36.568  22.689  23.503  1.00  0.00     0.000 A 
ATOM     17  C   UNL A   1      37.198  23.024  24.694  1.00  0.00     0.000 A 
ENDBRANCH   8  12
ENDBRANCH   6   8
BRANCH   6  18
ATOM     18  O   UNL A   1      32.170  23.064  25.151  1.00  0.00    -0.378 OA
ATOM     19  H   UNL A   1      32.344  23.071  26.106  1.00  0.00     0.212 HD
ENDBRANCH   6  18
ENDBRANCH   4   6
ENDBRANCH   3   4
ENDBRANCH   2   3
ENDBRANCH   1   2
BRANCH   1  20
ATOM     20  O   UNL A   1      32.962  30.135  25.764  1.00  0.00    -0.374 OA
BRANCH  20  21
ATOM     21  C   UNL A   1      31.752  30.817  26.092  1.00  0.00     0.202 C 
BRANCH  21  22
ATOM     22  C   UNL A   1      31.872  32.132  26.873  1.00  0.00     0.261 C 
BRANCH  22  23
ATOM     23  O   UNL A   1      32.819  32.066  27.949  1.00  0.00    -0.460 OA
BRANCH  23  24
ATOM     24  C   UNL A   1      33.753  33.041  27.929  1.00  0.00     0.338 C 
ATOM     25  O   UNL A   1      33.564  34.253  27.888  1.00  0.00    -0.246 OA
BRANCH  24  26
ATOM     26  C   UNL A   1      35.094  32.476  28.141  1.00  0.00     0.060 A 
ATOM     27  C   UNL A   1      35.176  31.090  28.315  1.00  0.00     0.016 A 
ATOM     28  C   UNL A   1      36.231  33.280  28.259  1.00  0.00     0.016 A 
ATOM     29  C   UNL A   1      36.381  30.507  28.689  1.00  0.00     0.010 A 
ATOM     30  C   UNL A   1      37.442  32.694  28.647  1.00  0.00     0.010 A 
ATOM     31  C   UNL A   1      37.503  31.314  28.916  1.00  0.00    -0.014 A 
BRANCH  31  32
ATOM     32  C   UNL A   1      38.649  30.720  29.642  1.00  0.00     0.031 A 
ATOM     33  C   UNL A   1      38.852  31.095  31.086  1.00  0.00     0.074 A 
ATOM     34  C   UNL A   1      39.424  29.787  29.065  1.00  0.00     0.049 A 
ATOM     35  N   UNL A   1      39.711  30.627  31.955  1.00  0.00    -0.248 NA
ATOM     36  C   UNL A   1      37.957  32.133  31.625  1.00  0.00     0.031 C 
ATOM     37  C   UNL A   1      39.299  29.322  27.686  1.00  0.00     0.029 A 
ATOM     38  N   UNL A   1      40.462  29.053  29.578  1.00  0.00    -0.354 N 
ATOM     39  C   UNL A   1      39.456  31.308  33.139  1.00  0.00     0.074 A 
ATOM     40  C   UNL A   1      38.391  32.247  32.870  1.00  0.00     0.031 C 
ATOM     41  C   UNL A   1      40.224  28.372  27.462  1.00  0.00     0.029 A 
ATOM     42  C   UNL A   1      41.011  28.175  28.678  1.00  0.00     0.049 A 
ATOM     43  H   UNL A   1      40.784  29.147  30.504  1.00  0.00     0.167 HD
ATOM     44  C   UNL A   1      40.045  31.149  34.348  1.00  0.00     0.037 A 
ATOM     45  C   UNL A   1      42.032  27.308  28.827  1.00  0.00     0.037 A 
ATOM     46  C   UNL A   1      41.104  30.214  34.613  1.00  0.00     0.049 A 
ATOM     47  C   UNL A   1      42.702  27.183  30.171  1.00  0.00     0.074 A 
ATOM     48  C   UNL A   1      41.766  29.970  35.804  1.00  0.00     0.029 A 
ATOM     49  N   UNL A   1      41.659  29.366  33.665  1.00  0.00    -0.354 N 
ATOM     50  N   UNL A   1      42.432  27.806  31.292  1.00  0.00    -0.248 NA
ATOM     51  C   UNL A   1      43.809  26.222  30.270  1.00  0.00     0.031 C 
ATOM     52  C   UNL A   1      42.751  29.005  35.566  1.00  0.00     0.029 A 
ATOM     53  C   UNL A   1      42.671  28.613  34.238  1.00  0.00     0.049 A 
ATOM     54  H   UNL A   1      41.376  29.309  32.724  1.00  0.00     0.167 HD
ATOM     55  C   UNL A   1      43.316  27.297  32.235  1.00  0.00     0.074 A 
ATOM     56  C   UNL A   1      44.118  26.300  31.556  1.00  0.00     0.031 C 
ATOM     57  C   UNL A   1      43.455  27.624  33.545  1.00  0.00     0.037 A 
BRANCH  44  58
ATOM     58  C   UNL A   1      39.567  32.027  35.467  1.00  0.00     0.064 A 
ATOM     59  C   UNL A   1      40.074  33.323  35.654  1.00  0.00     0.173 A 
ATOM     60  C   UNL A   1      38.581  31.573  36.354  1.00  0.00     0.173 A 
ATOM     61  F   UNL A   1      41.032  33.797  34.843  1.00  0.00    -0.203 F 
ATOM     62  C   UNL A   1      39.627  34.121  36.704  1.00  0.00     0.198 A 
ATOM     63  C   UNL A   1      38.117  32.384  37.386  1.00  0.00     0.198 A 
ATOM     64  F   UNL A   1      38.064  30.343  36.218  1.00  0.00    -0.203 F 
ATOM     65  F   UNL A   1      40.157  35.337  36.893  1.00  0.00    -0.200 F 
ATOM     66  C   UNL A   1      38.645  33.654  37.566  1.00  0.00     0.200 A 
ATOM     67  F   UNL A   1      37.163  31.934  38.212  1.00  0.00    -0.200 F 
ATOM     68  F   UNL A   1      38.213  34.424  38.574  1.00  0.00    -0.200 F 
ENDBRANCH  44  58
BRANCH  45  69
ATOM     69  C   UNL A   1      42.476  26.480  27.675  1.00  0.00     0.064 A 
ATOM     70  C   UNL A   1      43.499  26.913  26.820  1.00  0.00     0.173 A 
ATOM     71  C   UNL A   1      41.870  25.246  27.398  1.00  0.00     0.173 A 
ATOM     72  F   UNL A   1      44.090  28.097  27.030  1.00  0.00    -0.203 F 
ATOM     73  C   UNL A   1      43.887  26.150  25.720  1.00  0.00     0.198 A 
ATOM     74  C   UNL A   1      42.278  24.472  26.313  1.00  0.00     0.198 A 
ATOM     75  F   UNL A   1      40.885  24.788  28.184  1.00  0.00    -0.203 F 
ATOM     76  F   UNL A   1      44.835  26.608  24.892  1.00  0.00    -0.200 F 
ATOM     77  C   UNL A   1      43.280  24.928  25.471  1.00  0.00     0.200 A 
ATOM     78  F   UNL A   1      41.695  23.287  26.081  1.00  0.00    -0.200 F 
ATOM     79  F   UNL A   1      43.653  24.195  24.413  1.00  0.00    -0.200 F 
ENDBRANCH  45  69
BRANCH  57  80
ATOM     80  C   UNL A   1      44.493  26.876  34.330  1.00  0.00     0.064 A 
ATOM     81  C   UNL A   1      45.801  27.362  34.468  1.00  0.00     0.173 A 
ATOM     82  C   UNL A   1      44.165  25.674  34.974  1.00  0.00     0.173 A 
ATOM     83  F   UNL A   1      46.166  28.501  33.860  1.00  0.00    -0.203 F 
ATOM     84  C   UNL A   1      46.754  26.652  35.194  1.00  0.00     0.198 A 
ATOM     85  C   UNL A   1      45.112  24.982  35.725  1.00  0.00     0.198 A 
ATOM     86  F   UNL A   1      42.924  25.173  34.882  1.00  0.00    -0.203 F 
ATOM     87  F   UNL A   1      48.012  27.107  35.267  1.00  0.00    -0.200 F 
ATOM     88  C   UNL A   1      46.406  25.467  35.826  1.00  0.00     0.200 A 
ATOM     89  F   UNL A   1      44.772  23.845  36.345  1.00  0.00    -0.200 F 
ATOM     90  F   UNL A   1      47.325  24.786  36.524  1.00  0.00    -0.200 F 
ENDBRANCH  57  80
ENDBRANCH  31  32
ENDBRANCH  24  26
ENDBRANCH  23  24
ENDBRANCH  22  23
ENDBRANCH  21  22
ENDBRANCH  20  21
ENDBRANCH   1  20
TORSDOF 19
ENDMDL
MODEL 2
REMARK VINA RESULT:     -10.6      1.184      2.456
REMARK SMILES CCC[C@H](c1ccccc1)[C@@](C)(O)C(=O)OCCOCCOC(=O)c1ccc(-c2c3nc(c(-c4c(F)c(F)c(F)c(F)c4F)c4ccc([nH]4)c(-c4c(F)c(F)c(F)c(F)c4F)c4nc(c(-c5c(F)c(F)c(F)c(F)c5F)c5ccc2[nH]5)C=C4)C=C3)cc1
REMARK SMILES IDX 18 1 17 2 16 3 14 4 15 5 11 6 12 7 4 8 3 9 2 10 1 11 5 12
REMARK SMILES IDX 6 13 10 14 7 15 9 16 8 17 13 18 19 20 20 21 21 22 22 23
REMARK SMILES IDX 23 24 24 25 25 26 26 27 87 28 27 29 86 30 28 31 29 32 30 33
REMARK SMILES IDX 80 34 31 35 85 36 79 37 81 38 32 39 84 40 78 41 77 42 33 44
REMARK SMILES IDX 65 45 45 46 64 47 46 48 49 49 63 50 82 51 47 52 48 53 62 55
REMARK SMILES IDX 83 56 50 57 34 58 35 59 43 60 36 61 37 62 41 63 44 64 38 65
REMARK SMILES IDX 39 66 42 67 40 68 66 69 67 70 75 71 68 72 69 73 73 74 76 75
REMARK SMILES IDX 70 76 71 77 74 78 72 79 51 80 52 81 60 82 53 83 54 84 58 85
REMARK SMILES IDX 61 86 55 87 56 88 59 89 57 90
REMARK H PARENT 13 19 81 43 49 54
REMARK Flexibility Score: inf
ROOT
ATOM      1  C   UNL A   1      33.363  28.750  23.749  1.00  0.00     0.202 C 
ENDROOT
BRANCH   1   2
ATOM      2  C   UNL A   1      32.668  27.469  23.289  1.00  0.00     0.261 C 
BRANCH   2   3
ATOM      3  O   UNL A   1      33.514  26.338  23.542  1.00  0.00    -0.461 OA
BRANCH   3   4
ATOM      4  C   UNL A   1      33.192  25.209  22.850  1.00  0.00     0.338 C 
ATOM      5  O   UNL A   1      33.308  25.113  21.634  1.00  0.00    -0.249 OA
BRANCH   4   6
ATOM      6  C   UNL A   1      32.594  24.108  23.779  1.00  0.00     0.165 C 
ATOM      7  C   UNL A   1      31.073  24.189  23.547  1.00  0.00     0.055 C 
BRANCH   6   8
ATOM      8  C   UNL A   1      33.178  22.649  23.505  1.00  0.00     0.062 C 
BRANCH   8   9
ATOM      9  C   UNL A   1      32.184  21.497  23.892  1.00  0.00     0.012 C 
BRANCH   9  10
ATOM     10  C   UNL A   1      32.153  20.307  22.919  1.00  0.00    -0.003 C 
ATOM     11  C   UNL A   1      31.779  20.653  21.490  1.00  0.00     0.004 C 
ENDBRANCH   9  10
ENDBRANCH   8   9
BRANCH   8  12
ATOM     12  C   UNL A   1      34.612  22.460  24.022  1.00  0.00    -0.041 A 
ATOM     13  C   UNL A   1      35.726  23.123  23.478  1.00  0.00     0.004 A 
ATOM     14  C   UNL A   1      34.858  21.489  25.009  1.00  0.00     0.004 A 
ATOM     15  C   UNL A   1      37.028  22.788  23.864  1.00  0.00     0.000 A 
ATOM     16  C   UNL A   1      36.161  21.127  25.364  1.00  0.00     0.000 A 
ATOM     17  C   UNL A   1      37.247  21.770  24.784  1.00  0.00     0.000 A 
ENDBRANCH   8  12
ENDBRANCH   6   8
BRANCH   6  18
ATOM     18  O   UNL A   1      32.757  24.415  25.179  1.00  0.00    -0.378 OA
ATOM     19  H   UNL A   1      32.891  25.370  25.287  1.00  0.00     0.212 HD
ENDBRANCH   6  18
ENDBRANCH   4   6
ENDBRANCH   3   4
ENDBRANCH   2   3
ENDBRANCH   1   2
BRANCH   1  20
ATOM     20  O   UNL A   1      33.116  29.167  25.094  1.00  0.00    -0.374 OA
BRANCH  20  21
ATOM     21  C   UNL A   1      31.831  29.713  25.391  1.00  0.00     0.202 C 
BRANCH  21  22
ATOM     22  C   UNL A   1      31.779  30.930  26.323  1.00  0.00     0.261 C 
BRANCH  22  23
ATOM     23  O   UNL A   1      32.699  30.843  27.421  1.00  0.00    -0.460 OA
BRANCH  23  24
ATOM     24  C   UNL A   1      33.476  31.935  27.584  1.00  0.00     0.338 C 
ATOM     25  O   UNL A   1      33.110  33.103  27.680  1.00  0.00    -0.246 OA
BRANCH  24  26
ATOM     26  C   UNL A   1      34.875  31.544  27.813  1.00  0.00     0.060 A 
ATOM     27  C   UNL A   1      35.138  30.174  27.932  1.00  0.00     0.016 A 
ATOM     28  C   UNL A   1      35.890  32.486  28.001  1.00  0.00     0.016 A 
ATOM     29  C   UNL A   1      36.399  29.740  28.318  1.00  0.00     0.010 A 
ATOM     30  C   UNL A   1      37.158  32.048  28.402  1.00  0.00     0.010 A 
ATOM     31  C   UNL A   1      37.398  30.678  28.614  1.00  0.00    -0.014 A 
BRANCH  31  32
ATOM     32  C   UNL A   1      38.594  30.208  29.350  1.00  0.00     0.031 A 
ATOM     33  C   UNL A   1      38.780  30.660  30.774  1.00  0.00     0.074 A 
ATOM     34  C   UNL A   1      39.436  29.316  28.803  1.00  0.00     0.049 A 
ATOM     35  N   UNL A   1      39.681  30.301  31.651  1.00  0.00    -0.248 NA
ATOM     36  C   UNL A   1      37.810  31.647  31.279  1.00  0.00     0.031 C 
ATOM     37  C   UNL A   1      39.335  28.783  27.447  1.00  0.00     0.029 A 
ATOM     38  N   UNL A   1      40.534  28.689  29.334  1.00  0.00    -0.354 N 
ATOM     39  C   UNL A   1      39.384  31.009  32.808  1.00  0.00     0.074 A 
ATOM     40  C   UNL A   1      38.245  31.849  32.513  1.00  0.00     0.031 C 
ATOM     41  C   UNL A   1      40.331  27.900  27.252  1.00  0.00     0.029 A 
ATOM     42  C   UNL A   1      41.142  27.819  28.465  1.00  0.00     0.049 A 
ATOM     43  H   UNL A   1      40.855  28.848  30.251  1.00  0.00     0.167 HD
ATOM     44  C   UNL A   1      39.996  30.951  34.015  1.00  0.00     0.037 A 
ATOM     45  C   UNL A   1      42.230  27.043  28.637  1.00  0.00     0.037 A 
ATOM     46  C   UNL A   1      41.128  30.114  34.307  1.00  0.00     0.049 A 
ATOM     47  C   UNL A   1      42.920  27.030  29.976  1.00  0.00     0.074 A 
ATOM     48  C   UNL A   1      41.818  29.976  35.498  1.00  0.00     0.029 A 
ATOM     49  N   UNL A   1      41.740  29.273  33.388  1.00  0.00    -0.354 N 
ATOM     50  N   UNL A   1      42.612  27.678  31.074  1.00  0.00    -0.248 NA
ATOM     51  C   UNL A   1      44.101  26.165  30.102  1.00  0.00     0.031 C 
ATOM     52  C   UNL A   1      42.875  29.083  35.288  1.00  0.00     0.029 A 
ATOM     53  C   UNL A   1      42.814  28.629  33.980  1.00  0.00     0.049 A 
ATOM     54  H   UNL A   1      41.453  29.153  32.454  1.00  0.00     0.167 HD
ATOM     55  C   UNL A   1      43.543  27.282  32.026  1.00  0.00     0.074 A 
ATOM     56  C   UNL A   1      44.415  26.323  31.380  1.00  0.00     0.031 C 
ATOM     57  C   UNL A   1      43.667  27.675  33.319  1.00  0.00     0.037 A 
BRANCH  44  58
ATOM     58  C   UNL A   1      39.459  31.836  35.102  1.00  0.00     0.064 A 
ATOM     59  C   UNL A   1      38.571  31.352  36.074  1.00  0.00     0.173 A 
ATOM     60  C   UNL A   1      39.850  33.181  35.179  1.00  0.00     0.173 A 
ATOM     61  F   UNL A   1      38.153  30.078  36.033  1.00  0.00    -0.203 F 
ATOM     62  C   UNL A   1      38.075  32.189  37.070  1.00  0.00     0.198 A 
ATOM     63  C   UNL A   1      39.373  34.008  36.192  1.00  0.00     0.198 A 
ATOM     64  F   UNL A   1      40.697  33.692  34.273  1.00  0.00    -0.203 F 
ATOM     65  F   UNL A   1      37.191  31.719  37.961  1.00  0.00    -0.200 F 
ATOM     66  C   UNL A   1      38.480  33.515  37.132  1.00  0.00     0.200 A 
ATOM     67  F   UNL A   1      39.771  35.286  36.255  1.00  0.00    -0.200 F 
ATOM     68  F   UNL A   1      38.004  34.319  38.093  1.00  0.00    -0.200 F 
ENDBRANCH  44  58
BRANCH  45  69
ATOM     69  C   UNL A   1      42.727  26.204  27.516  1.00  0.00     0.064 A 
ATOM     70  C   UNL A   1      42.213  24.921  27.284  1.00  0.00     0.173 A 
ATOM     71  C   UNL A   1      43.742  26.665  26.665  1.00  0.00     0.173 A 
ATOM     72  F   UNL A   1      41.259  24.427  28.086  1.00  0.00    -0.203 F 
ATOM     73  C   UNL A   1      42.708  24.123  26.254  1.00  0.00     0.198 A 
ATOM     74  C   UNL A   1      44.217  25.876  25.619  1.00  0.00     0.198 A 
ATOM     75  F   UNL A   1      44.269  27.884  26.847  1.00  0.00    -0.203 F 
ATOM     76  F   UNL A   1      42.231  22.883  26.083  1.00  0.00    -0.200 F 
ATOM     77  C   UNL A   1      43.706  24.604  25.419  1.00  0.00     0.200 A 
ATOM     78  F   UNL A   1      45.175  26.348  24.809  1.00  0.00    -0.200 F 
ATOM     79  F   UNL A   1      44.181  23.837  24.429  1.00  0.00    -0.200 F 
ENDBRANCH  45  69
BRANCH  57  80
ATOM     80  C   UNL A   1      44.769  27.047  34.122  1.00  0.00     0.064 A 
ATOM     81  C   UNL A   1      44.576  25.847  34.822  1.00  0.00     0.173 A 
ATOM     82  C   UNL A   1      46.039  27.640  34.170  1.00  0.00     0.173 A 
ATOM     83  F   UNL A   1      43.375  25.248  34.816  1.00  0.00    -0.203 F 
ATOM     84  C   UNL A   1      45.606  25.281  35.568  1.00  0.00     0.198 A 
ATOM     85  C   UNL A   1      47.076  27.056  34.893  1.00  0.00     0.198 A 
ATOM     86  F   UNL A   1      46.278  28.784  33.510  1.00  0.00    -0.203 F 
ATOM     87  F   UNL A   1      45.383  24.162  36.272  1.00  0.00    -0.200 F 
ATOM     88  C   UNL A   1      46.855  25.883  35.598  1.00  0.00     0.200 A 
ATOM     89  F   UNL A   1      48.285  27.631  34.910  1.00  0.00    -0.200 F 
ATOM     90  F   UNL A   1      47.845  25.336  36.316  1.00  0.00    -0.200 F 
ENDBRANCH  57  80
ENDBRANCH  31  32
ENDBRANCH  24  26
ENDBRANCH  23  24
ENDBRANCH  22  23
ENDBRANCH  21  22
ENDBRANCH  20  21
ENDBRANCH   1  20
TORSDOF 19
ENDMDL
MODEL 3
REMARK VINA RESULT:     -10.6      1.371      2.304
REMARK SMILES CCC[C@H](c1ccccc1)[C@@](C)(O)C(=O)OCCOCCOC(=O)c1ccc(-c2c3nc(c(-c4c(F)c(F)c(F)c(F)c4F)c4ccc([nH]4)c(-c4c(F)c(F)c(F)c(F)c4F)c4nc(c(-c5c(F)c(F)c(F)c(F)c5F)c5ccc2[nH]5)C=C4)C=C3)cc1
REMARK SMILES IDX 18 1 17 2 16 3 14 4 15 5 11 6 12 7 4 8 3 9 2 10 1 11 5 12
REMARK SMILES IDX 6 13 10 14 7 15 9 16 8 17 13 18 19 20 20 21 21 22 22 23
REMARK SMILES IDX 23 24 24 25 25 26 26 27 87 28 27 29 86 30 28 31 29 32 30 33
REMARK SMILES IDX 80 34 31 35 85 36 79 37 81 38 32 39 84 40 78 41 77 42 33 44
REMARK SMILES IDX 65 45 45 46 64 47 46 48 49 49 63 50 82 51 47 52 48 53 62 55
REMARK SMILES IDX 83 56 50 57 34 58 35 59 43 60 36 61 37 62 41 63 44 64 38 65
REMARK SMILES IDX 39 66 42 67 40 68 66 69 67 70 75 71 68 72 69 73 73 74 76 75
REMARK SMILES IDX 70 76 71 77 74 78 72 79 51 80 52 81 60 82 53 83 54 84 58 85
REMARK SMILES IDX 61 86 55 87 56 88 59 89 57 90
REMARK H PARENT 13 19 81 43 49 54
REMARK Flexibility Score: inf
ROOT
ATOM      1  C   UNL A   1      33.311  28.136  25.414  1.00  0.00     0.202 C 
ENDROOT
BRANCH   1   2
ATOM      2  C   UNL A   1      32.458  27.111  24.668  1.00  0.00     0.261 C 
BRANCH   2   3
ATOM      3  O   UNL A   1      33.027  25.803  24.816  1.00  0.00    -0.461 OA
BRANCH   3   4
ATOM      4  C   UNL A   1      33.663  25.321  23.710  1.00  0.00     0.338 C 
ATOM      5  O   UNL A   1      33.704  25.925  22.646  1.00  0.00    -0.249 OA
BRANCH   4   6
ATOM      6  C   UNL A   1      34.247  23.895  23.952  1.00  0.00     0.165 C 
ATOM      7  C   UNL A   1      35.606  24.143  24.633  1.00  0.00     0.055 C 
BRANCH   6   8
ATOM      8  C   UNL A   1      33.295  22.947  24.814  1.00  0.00     0.062 C 
BRANCH   8   9
ATOM      9  C   UNL A   1      33.446  23.155  26.362  1.00  0.00     0.012 C 
BRANCH   9  10
ATOM     10  C   UNL A   1      32.168  22.911  27.182  1.00  0.00    -0.003 C 
ATOM     11  C   UNL A   1      30.881  23.358  26.515  1.00  0.00     0.004 C 
ENDBRANCH   9  10
ENDBRANCH   8   9
BRANCH   8  12
ATOM     12  C   UNL A   1      33.322  21.481  24.357  1.00  0.00    -0.041 A 
ATOM     13  C   UNL A   1      32.366  20.921  23.492  1.00  0.00     0.004 A 
ATOM     14  C   UNL A   1      34.272  20.610  24.918  1.00  0.00     0.004 A 
ATOM     15  C   UNL A   1      32.330  19.544  23.246  1.00  0.00     0.000 A 
ATOM     16  C   UNL A   1      34.211  19.230  24.704  1.00  0.00     0.000 A 
ATOM     17  C   UNL A   1      33.233  18.696  23.874  1.00  0.00     0.000 A 
ENDBRANCH   8  12
ENDBRANCH   6   8
BRANCH   6  18
ATOM     18  O   UNL A   1      34.583  23.217  22.724  1.00  0.00    -0.378 OA
ATOM     19  H   UNL A   1      33.938  23.452  22.038  1.00  0.00     0.212 HD
ENDBRANCH   6  18
ENDBRANCH   4   6
ENDBRANCH   3   4
ENDBRANCH   2   3
ENDBRANCH   1   2
BRANCH   1  20
ATOM     20  O   UNL A   1      33.052  29.514  25.132  1.00  0.00    -0.374 OA
BRANCH  20  21
ATOM     21  C   UNL A   1      31.773  30.033  25.495  1.00  0.00     0.202 C 
BRANCH  21  22
ATOM     22  C   UNL A   1      31.739  31.176  26.518  1.00  0.00     0.261 C 
BRANCH  22  23
ATOM     23  O   UNL A   1      32.739  31.051  27.540  1.00  0.00    -0.460 OA
BRANCH  23  24
ATOM     24  C   UNL A   1      33.533  32.134  27.677  1.00  0.00     0.338 C 
ATOM     25  O   UNL A   1      33.185  33.309  27.753  1.00  0.00    -0.246 OA
BRANCH  24  26
ATOM     26  C   UNL A   1      34.928  31.726  27.905  1.00  0.00     0.060 A 
ATOM     27  C   UNL A   1      35.176  30.353  28.012  1.00  0.00     0.016 A 
ATOM     28  C   UNL A   1      35.953  32.655  28.102  1.00  0.00     0.016 A 
ATOM     29  C   UNL A   1      36.432  29.901  28.397  1.00  0.00     0.010 A 
ATOM     30  C   UNL A   1      37.216  32.201  28.501  1.00  0.00     0.010 A 
ATOM     31  C   UNL A   1      37.440  30.826  28.702  1.00  0.00    -0.014 A 
BRANCH  31  32
ATOM     32  C   UNL A   1      38.630  30.337  29.436  1.00  0.00     0.031 A 
ATOM     33  C   UNL A   1      38.820  30.777  30.862  1.00  0.00     0.074 A 
ATOM     34  C   UNL A   1      39.462  29.439  28.883  1.00  0.00     0.049 A 
ATOM     35  N   UNL A   1      39.716  30.401  31.738  1.00  0.00    -0.248 NA
ATOM     36  C   UNL A   1      37.861  31.771  31.374  1.00  0.00     0.031 C 
ATOM     37  C   UNL A   1      39.356  28.917  27.523  1.00  0.00     0.029 A 
ATOM     38  N   UNL A   1      40.552  28.796  29.410  1.00  0.00    -0.354 N 
ATOM     39  C   UNL A   1      39.426  31.105  32.900  1.00  0.00     0.074 A 
ATOM     40  C   UNL A   1      38.297  31.960  32.610  1.00  0.00     0.031 C 
ATOM     41  C   UNL A   1      40.342  28.025  27.322  1.00  0.00     0.029 A 
ATOM     42  C   UNL A   1      41.151  27.925  28.535  1.00  0.00     0.049 A 
ATOM     43  H   UNL A   1      40.875  28.945  30.328  1.00  0.00     0.167 HD
ATOM     44  C   UNL A   1      40.036  31.030  34.106  1.00  0.00     0.037 A 
ATOM     45  C   UNL A   1      42.230  27.135  28.703  1.00  0.00     0.037 A 
ATOM     46  C   UNL A   1      41.158  30.179  34.393  1.00  0.00     0.049 A 
ATOM     47  C   UNL A   1      42.918  27.105  30.043  1.00  0.00     0.074 A 
ATOM     48  C   UNL A   1      41.846  30.024  35.584  1.00  0.00     0.029 A 
ATOM     49  N   UNL A   1      41.762  29.337  33.469  1.00  0.00    -0.354 N 
ATOM     50  N   UNL A   1      42.617  27.748  31.145  1.00  0.00    -0.248 NA
ATOM     51  C   UNL A   1      44.090  26.225  30.163  1.00  0.00     0.031 C 
ATOM     52  C   UNL A   1      42.892  29.120  35.369  1.00  0.00     0.029 A 
ATOM     53  C   UNL A   1      42.827  28.676  34.057  1.00  0.00     0.049 A 
ATOM     54  H   UNL A   1      41.474  29.227  32.534  1.00  0.00     0.167 HD
ATOM     55  C   UNL A   1      43.543  27.335  32.094  1.00  0.00     0.074 A 
ATOM     56  C   UNL A   1      44.404  26.370  31.442  1.00  0.00     0.031 C 
ATOM     57  C   UNL A   1      43.670  27.718  33.390  1.00  0.00     0.037 A 
BRANCH  44  58
ATOM     58  C   UNL A   1      39.509  31.914  35.199  1.00  0.00     0.064 A 
ATOM     59  C   UNL A   1      38.638  31.426  36.185  1.00  0.00     0.173 A 
ATOM     60  C   UNL A   1      39.891  33.262  35.269  1.00  0.00     0.173 A 
ATOM     61  F   UNL A   1      38.229  30.149  36.152  1.00  0.00    -0.203 F 
ATOM     62  C   UNL A   1      38.150  32.261  37.187  1.00  0.00     0.198 A 
ATOM     63  C   UNL A   1      39.423  34.087  36.287  1.00  0.00     0.198 A 
ATOM     64  F   UNL A   1      40.722  33.777  34.350  1.00  0.00    -0.203 F 
ATOM     65  F   UNL A   1      37.283  31.787  38.091  1.00  0.00    -0.200 F 
ATOM     66  C   UNL A   1      38.547  33.590  37.240  1.00  0.00     0.200 A 
ATOM     67  F   UNL A   1      39.813  35.368  36.342  1.00  0.00    -0.200 F 
ATOM     68  F   UNL A   1      38.079  34.393  38.206  1.00  0.00    -0.200 F 
ENDBRANCH  44  58
BRANCH  45  69
ATOM     69  C   UNL A   1      42.718  26.299  27.576  1.00  0.00     0.064 A 
ATOM     70  C   UNL A   1      43.709  26.764  26.700  1.00  0.00     0.173 A 
ATOM     71  C   UNL A   1      42.189  25.020  27.345  1.00  0.00     0.173 A 
ATOM     72  F   UNL A   1      44.226  27.989  26.867  1.00  0.00    -0.203 F 
ATOM     73  C   UNL A   1      44.138  25.991  25.624  1.00  0.00     0.198 A 
ATOM     74  C   UNL A   1      42.639  24.237  26.283  1.00  0.00     0.198 A 
ATOM     75  F   UNL A   1      41.238  24.530  28.152  1.00  0.00    -0.203 F 
ATOM     76  F   UNL A   1      45.052  26.478  24.775  1.00  0.00    -0.200 F 
ATOM     77  C   UNL A   1      43.607  24.726  25.419  1.00  0.00     0.200 A 
ATOM     78  F   UNL A   1      42.130  23.012  26.094  1.00  0.00    -0.200 F 
ATOM     79  F   UNL A   1      44.020  23.983  24.384  1.00  0.00    -0.200 F 
ENDBRANCH  45  69
BRANCH  57  80
ATOM     80  C   UNL A   1      44.764  27.071  34.190  1.00  0.00     0.064 A 
ATOM     81  C   UNL A   1      46.042  27.639  34.281  1.00  0.00     0.173 A 
ATOM     82  C   UNL A   1      44.519  25.882  34.894  1.00  0.00     0.173 A 
ATOM     83  F   UNL A   1      46.328  28.769  33.615  1.00  0.00    -0.203 F 
ATOM     84  C   UNL A   1      47.047  27.023  35.021  1.00  0.00     0.198 A 
ATOM     85  C   UNL A   1      45.518  25.284  35.657  1.00  0.00     0.198 A 
ATOM     86  F   UNL A   1      43.310  25.303  34.847  1.00  0.00    -0.203 F 
ATOM     87  F   UNL A   1      48.277  27.556  35.051  1.00  0.00    -0.200 F 
ATOM     88  C   UNL A   1      46.783  25.850  35.713  1.00  0.00     0.200 A 
ATOM     89  F   UNL A   1      45.258  24.158  36.335  1.00  0.00    -0.200 F 
ATOM     90  F   UNL A   1      47.752  25.259  36.425  1.00  0.00    -0.200 F 
ENDBRANCH  57  80
ENDBRANCH  31  32
ENDBRANCH  24  26
ENDBRANCH  23  24
ENDBRANCH  22  23
ENDBRANCH  21  22
ENDBRANCH  20  21
ENDBRANCH   1  20
TORSDOF 19
ENDMDL
