MODEL 1
REMARK VINA RESULT:     -13.5      0.000      0.000
REMARK SMILES C[C@@H](Oc1ccc(/C=C2\C(=O)[NH+]=C(OCCOCCOC(=O)c3ccc(-c4c5nc(c(-c6c(F)c(F)c(F)c(F)c6F)c6ccc([nH]6)c(-c6c(F)c(F)c(F)c(F)c6F)c6nc(c(-c7c(F)c(F)c(F)c(F)c7F)c7ccc4[nH]7)C=C6)C=C5)cc3)N(c3ccc4c(c3)OCO4)C2=O)cc1)C(=O)[O-]
REMARK SMILES IDX 16 1 15 2 14 3 13 4 8 5 9 6 10 7 96 8 11 9 12 10 86 11 97 12
REMARK SMILES IDX 7 14 4 15 5 16 99 17 6 18 98 19 3 20 2 21 1 22 100 23 101 24
REMARK SMILES IDX 102 25 87 26 88 27 92 28 89 29 91 30 90 31 93 32 95 33 94 34
REMARK SMILES IDX 17 35 18 36 19 37 20 38 21 39 22 40 23 41 24 42 85 43 25 44
REMARK SMILES IDX 84 45 26 46 27 47 28 48 78 49 29 50 83 51 77 52 79 53 30 54
REMARK SMILES IDX 82 55 76 56 75 57 31 59 63 60 43 61 62 62 44 63 47 64 61 65
REMARK SMILES IDX 80 66 45 67 46 68 60 70 81 71 48 72 32 73 33 74 41 75 34 76
REMARK SMILES IDX 35 77 39 78 42 79 36 80 37 81 40 82 38 83 64 84 65 85 73 86
REMARK SMILES IDX 66 87 67 88 71 89 74 90 68 91 69 92 72 93 70 94 49 95 50 96
REMARK SMILES IDX 58 97 51 98 52 99 56 100 59 101 53 102 54 103 57 104 55 105
REMARK H PARENT 12 13 79 58 47 69
REMARK Flexibility Score: inf
ROOT
ATOM      1  C   UNL A   1      32.101  29.428  27.192  1.00  0.00     0.202 C 
ENDROOT
BRANCH   1   2
ATOM      2  C   UNL A   1      32.487  28.062  26.606  1.00  0.00     0.266 C 
BRANCH   2   3
ATOM      3  O   UNL A   1      31.393  27.240  26.135  1.00  0.00    -0.428 OA
BRANCH   3   4
ATOM      4  C   UNL A   1      31.708  26.191  25.334  1.00  0.00     0.465 C 
ATOM      5  C   UNL A   1      31.811  22.790  23.248  1.00  0.00     0.032 C 
ATOM      6  C   UNL A   1      32.052  23.979  23.836  1.00  0.00     0.155 C 
ATOM      7  C   UNL A   1      32.781  24.198  25.096  1.00  0.00     0.349 C 
ATOM      8  C   UNL A   1      31.563  25.205  23.149  1.00  0.00     0.357 C 
ATOM      9  O   UNL A   1      33.827  23.617  25.349  1.00  0.00    -0.240 OA
ATOM     10  N   UNL A   1      32.273  25.178  25.894  1.00  0.00    -0.171 N 
ATOM     11  N   UNL A   1      31.412  26.298  23.986  1.00  0.00    -0.123 N 
ATOM     12  O   UNL A   1      31.277  25.188  21.952  1.00  0.00    -0.240 OA
ATOM     13  H   UNL A   1      32.337  25.114  26.875  1.00  0.00     0.319 HD
BRANCH   5  14
ATOM     14  C   UNL A   1      32.104  21.396  23.647  1.00  0.00    -0.024 A 
ATOM     15  C   UNL A   1      32.544  18.658  24.199  1.00  0.00     0.120 A 
ATOM     16  C   UNL A   1      32.468  19.578  25.236  1.00  0.00     0.047 A 
ATOM     17  C   UNL A   1      32.367  19.085  22.889  1.00  0.00     0.047 A 
ATOM     18  C   UNL A   1      32.233  20.932  24.962  1.00  0.00     0.012 A 
ATOM     19  C   UNL A   1      32.168  20.442  22.617  1.00  0.00     0.012 A 
BRANCH  15  20
ATOM     20  O   UNL A   1      32.638  17.337  24.524  1.00  0.00    -0.485 OA
BRANCH  20  21
ATOM     21  C   UNL A   1      33.835  16.987  25.230  1.00  0.00     0.216 C 
ATOM     22  C   UNL A   1      35.070  17.605  24.579  1.00  0.00     0.059 C 
BRANCH  21  23
ATOM     23  C   UNL A   1      33.997  15.470  25.186  1.00  0.00     0.082 C 
ATOM     24  O   UNL A   1      33.098  14.654  25.321  1.00  0.00    -0.546 OA
ATOM     25  O   UNL A   1      35.273  15.051  25.061  1.00  0.00    -0.546 OA
ENDBRANCH  21  23
ENDBRANCH  20  21
ENDBRANCH  15  20
ENDBRANCH   5  14
BRANCH  11  26
ATOM     26  C   UNL A   1      30.881  27.492  23.430  1.00  0.00     0.144 A 
ATOM     27  C   UNL A   1      31.767  28.464  22.908  1.00  0.00     0.056 A 
ATOM     28  C   UNL A   1      29.499  27.712  23.421  1.00  0.00     0.103 A 
ATOM     29  C   UNL A   1      31.280  29.667  22.390  1.00  0.00     0.055 A 
ATOM     30  C   UNL A   1      29.050  28.885  22.854  1.00  0.00     0.170 A 
ATOM     31  C   UNL A   1      29.914  29.837  22.359  1.00  0.00     0.166 A 
ATOM     32  O   UNL A   1      27.747  29.243  22.699  1.00  0.00    -0.453 OA
ATOM     33  O   UNL A   1      29.259  30.914  21.848  1.00  0.00    -0.454 OA
ATOM     34  C   UNL A   1      27.895  30.451  21.922  1.00  0.00     0.468 C 
ENDBRANCH  11  26
ENDBRANCH   3   4
ENDBRANCH   2   3
ENDBRANCH   1   2
BRANCH   1  35
ATOM     35  O   UNL A   1      32.124  30.455  26.192  1.00  0.00    -0.374 OA
BRANCH  35  36
ATOM     36  C   UNL A   1      31.307  31.597  26.491  1.00  0.00     0.202 C 
BRANCH  36  37
ATOM     37  C   UNL A   1      32.089  32.887  26.706  1.00  0.00     0.261 C 
BRANCH  37  38
ATOM     38  O   UNL A   1      32.817  32.794  27.931  1.00  0.00    -0.460 OA
BRANCH  38  39
ATOM     39  C   UNL A   1      33.829  33.681  28.050  1.00  0.00     0.338 C 
ATOM     40  O   UNL A   1      33.758  34.898  27.997  1.00  0.00    -0.246 OA
BRANCH  39  41
ATOM     41  C   UNL A   1      35.052  32.951  28.445  1.00  0.00     0.060 A 
ATOM     42  C   UNL A   1      34.909  31.607  28.812  1.00  0.00     0.016 A 
ATOM     43  C   UNL A   1      36.321  33.546  28.408  1.00  0.00     0.016 A 
ATOM     44  C   UNL A   1      36.022  30.872  29.198  1.00  0.00     0.010 A 
ATOM     45  C   UNL A   1      37.437  32.809  28.791  1.00  0.00     0.010 A 
ATOM     46  C   UNL A   1      37.281  31.484  29.229  1.00  0.00    -0.014 A 
BRANCH  46  47
ATOM     47  C   UNL A   1      38.392  30.811  29.929  1.00  0.00     0.031 A 
ATOM     48  C   UNL A   1      38.619  31.157  31.373  1.00  0.00     0.074 A 
ATOM     49  C   UNL A   1      39.148  29.897  29.301  1.00  0.00     0.049 A 
ATOM     50  N   UNL A   1      39.522  30.707  32.202  1.00  0.00    -0.248 NA
ATOM     51  C   UNL A   1      37.703  32.152  31.959  1.00  0.00     0.031 C 
ATOM     52  C   UNL A   1      38.994  29.482  27.907  1.00  0.00     0.029 A 
ATOM     53  N   UNL A   1      40.204  29.155  29.760  1.00  0.00    -0.354 N 
ATOM     54  C   UNL A   1      39.277  31.355  33.406  1.00  0.00     0.074 A 
ATOM     55  C   UNL A   1      38.172  32.260  33.193  1.00  0.00     0.031 C 
ATOM     56  C   UNL A   1      39.932  28.562  27.621  1.00  0.00     0.029 A 
ATOM     57  C   UNL A   1      40.757  28.339  28.806  1.00  0.00     0.049 A 
ATOM     58  H   UNL A   1      40.533  29.202  30.687  1.00  0.00     0.167 HD
ATOM     59  C   UNL A   1      39.908  31.190  34.591  1.00  0.00     0.037 A 
ATOM     60  C   UNL A   1      41.818  27.516  28.893  1.00  0.00     0.037 A 
ATOM     61  C   UNL A   1      41.014  30.295  34.790  1.00  0.00     0.049 A 
ATOM     62  C   UNL A   1      42.531  27.385  30.215  1.00  0.00     0.074 A 
ATOM     63  C   UNL A   1      41.745  30.063  35.940  1.00  0.00     0.029 A 
ATOM     64  N   UNL A   1      41.547  29.480  33.801  1.00  0.00    -0.354 N 
ATOM     65  N   UNL A   1      42.279  27.982  31.356  1.00  0.00    -0.248 NA
ATOM     66  C   UNL A   1      43.666  26.453  30.265  1.00  0.00     0.031 C 
ATOM     67  C   UNL A   1      42.742  29.128  35.639  1.00  0.00     0.029 A 
ATOM     68  C   UNL A   1      42.603  28.747  34.314  1.00  0.00     0.049 A 
ATOM     69  H   UNL A   1      41.224  29.432  32.872  1.00  0.00     0.167 HD
ATOM     70  C   UNL A   1      43.200  27.476  32.263  1.00  0.00     0.074 A 
ATOM     71  C   UNL A   1      44.005  26.511  31.543  1.00  0.00     0.031 C 
ATOM     72  C   UNL A   1      43.372  27.781  33.574  1.00  0.00     0.037 A 
BRANCH  59  73
ATOM     73  C   UNL A   1      39.418  32.001  35.751  1.00  0.00     0.064 A 
ATOM     74  C   UNL A   1      39.893  33.301  35.986  1.00  0.00     0.173 A 
ATOM     75  C   UNL A   1      38.449  31.487  36.624  1.00  0.00     0.173 A 
ATOM     76  F   UNL A   1      40.838  33.827  35.192  1.00  0.00    -0.203 F 
ATOM     77  C   UNL A   1      39.425  34.050  37.061  1.00  0.00     0.198 A 
ATOM     78  C   UNL A   1      37.965  32.249  37.684  1.00  0.00     0.198 A 
ATOM     79  F   UNL A   1      37.969  30.247  36.447  1.00  0.00    -0.203 F 
ATOM     80  F   UNL A   1      39.921  35.275  37.289  1.00  0.00    -0.200 F 
ATOM     81  C   UNL A   1      38.457  33.528  37.903  1.00  0.00     0.200 A 
ATOM     82  F   UNL A   1      37.026  31.744  38.496  1.00  0.00    -0.200 F 
ATOM     83  F   UNL A   1      38.000  34.254  38.934  1.00  0.00    -0.200 F 
ENDBRANCH  59  73
BRANCH  60  84
ATOM     84  C   UNL A   1      42.273  26.749  27.704  1.00  0.00     0.064 A 
ATOM     85  C   UNL A   1      41.765  25.472  27.428  1.00  0.00     0.173 A 
ATOM     86  C   UNL A   1      43.254  27.260  26.843  1.00  0.00     0.173 A 
ATOM     87  F   UNL A   1      40.841  24.930  28.234  1.00  0.00    -0.203 F 
ATOM     88  C   UNL A   1      42.243  24.723  26.354  1.00  0.00     0.198 A 
ATOM     89  C   UNL A   1      43.712  26.522  25.753  1.00  0.00     0.198 A 
ATOM     90  F   UNL A   1      43.771  28.478  27.061  1.00  0.00    -0.203 F 
ATOM     91  F   UNL A   1      41.782  23.482  26.147  1.00  0.00    -0.200 F 
ATOM     92  C   UNL A   1      43.215  25.249  25.517  1.00  0.00     0.200 A 
ATOM     93  F   UNL A   1      44.643  27.039  24.939  1.00  0.00    -0.200 F 
ATOM     94  F   UNL A   1      43.679  24.526  24.489  1.00  0.00    -0.200 F 
ENDBRANCH  60  84
BRANCH  72  95
ATOM     95  C   UNL A   1      44.437  27.029  34.314  1.00  0.00     0.064 A 
ATOM     96  C   UNL A   1      44.180  25.791  34.918  1.00  0.00     0.173 A 
ATOM     97  C   UNL A   1      45.738  27.548  34.399  1.00  0.00     0.173 A 
ATOM     98  F   UNL A   1      42.948  25.261  34.874  1.00  0.00    -0.203 F 
ATOM     99  C   UNL A   1      45.180  25.113  35.609  1.00  0.00     0.198 A 
ATOM    100  C   UNL A   1      46.743  26.855  35.065  1.00  0.00     0.198 A 
ATOM    101  F   UNL A   1      46.035  28.726  33.828  1.00  0.00    -0.203 F 
ATOM    102  F   UNL A   1      44.900  23.958  36.227  1.00  0.00    -0.200 F 
ATOM    103  C   UNL A   1      46.461  25.643  35.678  1.00  0.00     0.200 A 
ATOM    104  F   UNL A   1      47.982  27.361  35.120  1.00  0.00    -0.200 F 
ATOM    105  F   UNL A   1      47.422  24.989  36.345  1.00  0.00    -0.200 F 
ENDBRANCH  72  95
ENDBRANCH  46  47
ENDBRANCH  39  41
ENDBRANCH  38  39
ENDBRANCH  37  38
ENDBRANCH  36  37
ENDBRANCH  35  36
ENDBRANCH   1  35
TORSDOF 18
ENDMDL
MODEL 2
REMARK VINA RESULT:     -13.3      1.442      2.667
REMARK SMILES C[C@@H](Oc1ccc(/C=C2\C(=O)[NH+]=C(OCCOCCOC(=O)c3ccc(-c4c5nc(c(-c6c(F)c(F)c(F)c(F)c6F)c6ccc([nH]6)c(-c6c(F)c(F)c(F)c(F)c6F)c6nc(c(-c7c(F)c(F)c(F)c(F)c7F)c7ccc4[nH]7)C=C6)C=C5)cc3)N(c3ccc4c(c3)OCO4)C2=O)cc1)C(=O)[O-]
REMARK SMILES IDX 16 1 15 2 14 3 13 4 8 5 9 6 10 7 96 8 11 9 12 10 86 11 97 12
REMARK SMILES IDX 7 14 4 15 5 16 99 17 6 18 98 19 3 20 2 21 1 22 100 23 101 24
REMARK SMILES IDX 102 25 87 26 88 27 92 28 89 29 91 30 90 31 93 32 95 33 94 34
REMARK SMILES IDX 17 35 18 36 19 37 20 38 21 39 22 40 23 41 24 42 85 43 25 44
REMARK SMILES IDX 84 45 26 46 27 47 28 48 78 49 29 50 83 51 77 52 79 53 30 54
REMARK SMILES IDX 82 55 76 56 75 57 31 59 63 60 43 61 62 62 44 63 47 64 61 65
REMARK SMILES IDX 80 66 45 67 46 68 60 70 81 71 48 72 32 73 33 74 41 75 34 76
REMARK SMILES IDX 35 77 39 78 42 79 36 80 37 81 40 82 38 83 64 84 65 85 73 86
REMARK SMILES IDX 66 87 67 88 71 89 74 90 68 91 69 92 72 93 70 94 49 95 50 96
REMARK SMILES IDX 58 97 51 98 52 99 56 100 59 101 53 102 54 103 57 104 55 105
REMARK H PARENT 12 13 79 58 47 69
REMARK Flexibility Score: inf
ROOT
ATOM      1  C   UNL A   1      31.809  29.835  26.469  1.00  0.00     0.202 C 
ENDROOT
BRANCH   1   2
ATOM      2  C   UNL A   1      32.132  28.372  26.805  1.00  0.00     0.266 C 
BRANCH   2   3
ATOM      3  O   UNL A   1      31.242  27.380  26.241  1.00  0.00    -0.428 OA
BRANCH   3   4
ATOM      4  C   UNL A   1      31.805  26.400  25.489  1.00  0.00     0.465 C 
ATOM      5  C   UNL A   1      32.663  23.087  23.437  1.00  0.00     0.032 C 
ATOM      6  C   UNL A   1      32.653  24.288  24.050  1.00  0.00     0.155 C 
ATOM      7  C   UNL A   1      33.175  24.586  25.393  1.00  0.00     0.349 C 
ATOM      8  C   UNL A   1      32.084  25.443  23.304  1.00  0.00     0.357 C 
ATOM      9  O   UNL A   1      34.254  24.156  25.780  1.00  0.00    -0.240 OA
ATOM     10  N   UNL A   1      32.433  25.469  26.118  1.00  0.00    -0.171 N 
ATOM     11  N   UNL A   1      31.671  26.488  24.114  1.00  0.00    -0.123 N 
ATOM     12  O   UNL A   1      31.959  25.407  22.080  1.00  0.00    -0.240 OA
ATOM     13  H   UNL A   1      32.380  25.398  27.099  1.00  0.00     0.319 HD
BRANCH   5  14
ATOM     14  C   UNL A   1      33.101  21.742  23.872  1.00  0.00    -0.024 A 
ATOM     15  C   UNL A   1      33.691  19.115  24.733  1.00  0.00     0.120 A 
ATOM     16  C   UNL A   1      34.608  20.139  24.929  1.00  0.00     0.047 A 
ATOM     17  C   UNL A   1      32.466  19.396  24.143  1.00  0.00     0.047 A 
ATOM     18  C   UNL A   1      34.307  21.444  24.516  1.00  0.00     0.012 A 
ATOM     19  C   UNL A   1      32.183  20.692  23.700  1.00  0.00     0.012 A 
BRANCH  15  20
ATOM     20  O   UNL A   1      33.974  17.894  25.271  1.00  0.00    -0.485 OA
BRANCH  20  21
ATOM     21  C   UNL A   1      34.826  17.075  24.461  1.00  0.00     0.216 C 
ATOM     22  C   UNL A   1      34.137  16.662  23.163  1.00  0.00     0.059 C 
BRANCH  21  23
ATOM     23  C   UNL A   1      35.154  15.803  25.238  1.00  0.00     0.082 C 
ATOM     24  O   UNL A   1      36.239  15.527  25.727  1.00  0.00    -0.546 OA
ATOM     25  O   UNL A   1      34.144  14.910  25.292  1.00  0.00    -0.546 OA
ENDBRANCH  21  23
ENDBRANCH  20  21
ENDBRANCH  15  20
ENDBRANCH   5  14
BRANCH  11  26
ATOM     26  C   UNL A   1      31.049  27.603  23.493  1.00  0.00     0.144 A 
ATOM     27  C   UNL A   1      31.857  28.621  22.932  1.00  0.00     0.056 A 
ATOM     28  C   UNL A   1      29.654  27.704  23.458  1.00  0.00     0.103 A 
ATOM     29  C   UNL A   1      31.277  29.751  22.349  1.00  0.00     0.055 A 
ATOM     30  C   UNL A   1      29.115  28.805  22.828  1.00  0.00     0.170 A 
ATOM     31  C   UNL A   1      29.902  29.802  22.295  1.00  0.00     0.166 A 
ATOM     32  O   UNL A   1      27.788  29.042  22.641  1.00  0.00    -0.453 OA
ATOM     33  O   UNL A   1      29.166  30.791  21.723  1.00  0.00    -0.454 OA
ATOM     34  C   UNL A   1      27.845  30.218  21.806  1.00  0.00     0.468 C 
ENDBRANCH  11  26
ENDBRANCH   3   4
ENDBRANCH   2   3
ENDBRANCH   1   2
BRANCH   1  35
ATOM     35  O   UNL A   1      32.979  30.661  26.533  1.00  0.00    -0.374 OA
BRANCH  35  36
ATOM     36  C   UNL A   1      33.012  31.566  27.646  1.00  0.00     0.202 C 
BRANCH  36  37
ATOM     37  C   UNL A   1      33.064  33.037  27.256  1.00  0.00     0.261 C 
BRANCH  37  38
ATOM     38  O   UNL A   1      32.317  33.800  28.204  1.00  0.00    -0.460 OA
BRANCH  38  39
ATOM     39  C   UNL A   1      32.989  34.843  28.738  1.00  0.00     0.338 C 
ATOM     40  O   UNL A   1      32.658  36.018  28.737  1.00  0.00    -0.246 OA
BRANCH  39  41
ATOM     41  C   UNL A   1      34.138  34.320  29.506  1.00  0.00     0.060 A 
ATOM     42  C   UNL A   1      35.419  34.567  28.996  1.00  0.00     0.016 A 
ATOM     43  C   UNL A   1      33.977  33.650  30.727  1.00  0.00     0.016 A 
ATOM     44  C   UNL A   1      36.537  34.095  29.671  1.00  0.00     0.010 A 
ATOM     45  C   UNL A   1      35.097  33.180  31.406  1.00  0.00     0.010 A 
ATOM     46  C   UNL A   1      36.375  33.364  30.854  1.00  0.00    -0.014 A 
BRANCH  46  47
ATOM     47  C   UNL A   1      37.519  32.604  31.393  1.00  0.00     0.031 A 
ATOM     48  C   UNL A   1      38.023  32.975  32.758  1.00  0.00     0.074 A 
ATOM     49  C   UNL A   1      38.065  31.596  30.695  1.00  0.00     0.049 A 
ATOM     50  N   UNL A   1      39.008  32.463  33.447  1.00  0.00    -0.248 NA
ATOM     51  C   UNL A   1      37.321  34.078  33.438  1.00  0.00     0.031 C 
ATOM     52  C   UNL A   1      37.636  31.151  29.370  1.00  0.00     0.029 A 
ATOM     53  N   UNL A   1      39.108  30.765  31.009  1.00  0.00    -0.354 N 
ATOM     54  C   UNL A   1      39.036  33.174  34.640  1.00  0.00     0.074 A 
ATOM     55  C   UNL A   1      38.003  34.180  34.568  1.00  0.00     0.031 C 
ATOM     56  C   UNL A   1      38.419  30.130  28.979  1.00  0.00     0.029 A 
ATOM     57  C   UNL A   1      39.409  29.864  30.019  1.00  0.00     0.049 A 
ATOM     58  H   UNL A   1      39.595  30.810  31.864  1.00  0.00     0.167 HD
ATOM     59  C   UNL A   1      39.843  32.985  35.709  1.00  0.00     0.037 A 
ATOM     60  C   UNL A   1      40.386  28.939  29.969  1.00  0.00     0.037 A 
ATOM     61  C   UNL A   1      40.876  31.989  35.766  1.00  0.00     0.049 A 
ATOM     62  C   UNL A   1      41.299  28.781  31.159  1.00  0.00     0.074 A 
ATOM     63  C   UNL A   1      41.768  31.722  36.788  1.00  0.00     0.029 A 
ATOM     64  N   UNL A   1      41.150  31.089  34.746  1.00  0.00    -0.354 N 
ATOM     65  N   UNL A   1      41.305  29.440  32.293  1.00  0.00    -0.248 NA
ATOM     66  C   UNL A   1      42.331  27.740  31.066  1.00  0.00     0.031 C 
ATOM     67  C   UNL A   1      42.604  30.680  36.374  1.00  0.00     0.029 A 
ATOM     68  C   UNL A   1      42.203  30.269  35.112  1.00  0.00     0.049 A 
ATOM     69  H   UNL A   1      40.669  31.042  33.888  1.00  0.00     0.167 HD
ATOM     70  C   UNL A   1      42.315  28.873  33.058  1.00  0.00     0.074 A 
ATOM     71  C   UNL A   1      42.889  27.806  32.265  1.00  0.00     0.031 C 
ATOM     72  C   UNL A   1      42.737  29.204  34.304  1.00  0.00     0.037 A 
BRANCH  59  73
ATOM     73  C   UNL A   1      39.639  33.883  36.892  1.00  0.00     0.064 A 
ATOM     74  C   UNL A   1      38.865  33.478  37.990  1.00  0.00     0.173 A 
ATOM     75  C   UNL A   1      40.239  35.149  36.940  1.00  0.00     0.173 A 
ATOM     76  F   UNL A   1      38.250  32.285  37.979  1.00  0.00    -0.203 F 
ATOM     77  C   UNL A   1      38.688  34.314  39.088  1.00  0.00     0.198 A 
ATOM     78  C   UNL A   1      40.081  35.972  38.052  1.00  0.00     0.198 A 
ATOM     79  F   UNL A   1      40.983  35.584  35.913  1.00  0.00    -0.203 F 
ATOM     80  F   UNL A   1      37.912  33.924  40.109  1.00  0.00    -0.200 F 
ATOM     81  C   UNL A   1      39.302  35.556  39.122  1.00  0.00     0.200 A 
ATOM     82  F   UNL A   1      40.679  37.171  38.085  1.00  0.00    -0.200 F 
ATOM     83  F   UNL A   1      39.138  36.358  40.183  1.00  0.00    -0.200 F 
ENDBRANCH  59  73
BRANCH  60  84
ATOM     84  C   UNL A   1      40.554  28.089  28.763  1.00  0.00     0.064 A 
ATOM     85  C   UNL A   1      41.331  28.517  27.677  1.00  0.00     0.173 A 
ATOM     86  C   UNL A   1      39.908  26.849  28.653  1.00  0.00     0.173 A 
ATOM     87  F   UNL A   1      41.950  29.705  27.725  1.00  0.00    -0.203 F 
ATOM     88  C   UNL A   1      41.430  27.752  26.516  1.00  0.00     0.198 A 
ATOM     89  C   UNL A   1      40.031  26.072  27.503  1.00  0.00     0.198 A 
ATOM     90  F   UNL A   1      39.155  26.392  29.663  1.00  0.00    -0.203 F 
ATOM     91  F   UNL A   1      42.132  28.212  25.471  1.00  0.00    -0.200 F 
ATOM     92  C   UNL A   1      40.782  26.530  26.431  1.00  0.00     0.200 A 
ATOM     93  F   UNL A   1      39.412  24.886  27.428  1.00  0.00    -0.200 F 
ATOM     94  F   UNL A   1      40.872  25.798  25.312  1.00  0.00    -0.200 F 
ENDBRANCH  60  84
BRANCH  72  95
ATOM     95  C   UNL A   1      43.837  28.372  34.894  1.00  0.00     0.064 A 
ATOM     96  C   UNL A   1      45.184  28.738  34.770  1.00  0.00     0.173 A 
ATOM     97  C   UNL A   1      43.533  27.206  35.613  1.00  0.00     0.173 A 
ATOM     98  F   UNL A   1      45.524  29.838  34.082  1.00  0.00    -0.203 F 
ATOM     99  C   UNL A   1      46.191  27.948  35.317  1.00  0.00     0.198 A 
ATOM    100  C   UNL A   1      44.539  26.434  36.183  1.00  0.00     0.198 A 
ATOM    101  F   UNL A   1      42.257  26.819  35.767  1.00  0.00    -0.203 F 
ATOM    102  F   UNL A   1      47.475  28.286  35.140  1.00  0.00    -0.200 F 
ATOM    103  C   UNL A   1      45.867  26.800  36.026  1.00  0.00     0.200 A 
ATOM    104  F   UNL A   1      44.225  25.333  36.878  1.00  0.00    -0.200 F 
ATOM    105  F   UNL A   1      46.839  26.040  36.550  1.00  0.00    -0.200 F 
ENDBRANCH  72  95
ENDBRANCH  46  47
ENDBRANCH  39  41
ENDBRANCH  38  39
ENDBRANCH  37  38
ENDBRANCH  36  37
ENDBRANCH  35  36
ENDBRANCH   1  35
TORSDOF 18
ENDMDL
MODEL 3
REMARK VINA RESULT:     -12.9      1.499      6.978
REMARK SMILES C[C@@H](Oc1ccc(/C=C2\C(=O)[NH+]=C(OCCOCCOC(=O)c3ccc(-c4c5nc(c(-c6c(F)c(F)c(F)c(F)c6F)c6ccc([nH]6)c(-c6c(F)c(F)c(F)c(F)c6F)c6nc(c(-c7c(F)c(F)c(F)c(F)c7F)c7ccc4[nH]7)C=C6)C=C5)cc3)N(c3ccc4c(c3)OCO4)C2=O)cc1)C(=O)[O-]
REMARK SMILES IDX 16 1 15 2 14 3 13 4 8 5 9 6 10 7 96 8 11 9 12 10 86 11 97 12
REMARK SMILES IDX 7 14 4 15 5 16 99 17 6 18 98 19 3 20 2 21 1 22 100 23 101 24
REMARK SMILES IDX 102 25 87 26 88 27 92 28 89 29 91 30 90 31 93 32 95 33 94 34
REMARK SMILES IDX 17 35 18 36 19 37 20 38 21 39 22 40 23 41 24 42 85 43 25 44
REMARK SMILES IDX 84 45 26 46 27 47 28 48 78 49 29 50 83 51 77 52 79 53 30 54
REMARK SMILES IDX 82 55 76 56 75 57 31 59 63 60 43 61 62 62 44 63 47 64 61 65
REMARK SMILES IDX 80 66 45 67 46 68 60 70 81 71 48 72 32 73 33 74 41 75 34 76
REMARK SMILES IDX 35 77 39 78 42 79 36 80 37 81 40 82 38 83 64 84 65 85 73 86
REMARK SMILES IDX 66 87 67 88 71 89 74 90 68 91 69 92 72 93 70 94 49 95 50 96
REMARK SMILES IDX 58 97 51 98 52 99 56 100 59 101 53 102 54 103 57 104 55 105
REMARK H PARENT 12 13 79 58 47 69
REMARK Flexibility Score: inf
ROOT
ATOM      1  C   UNL A   1      31.910  29.377  26.735  1.00  0.00     0.202 C 
ENDROOT
BRANCH   1   2
ATOM      2  C   UNL A   1      31.461  28.000  27.246  1.00  0.00     0.266 C 
BRANCH   2   3
ATOM      3  O   UNL A   1      30.712  27.189  26.311  1.00  0.00    -0.428 OA
BRANCH   3   4
ATOM      4  C   UNL A   1      31.411  26.283  25.581  1.00  0.00     0.465 C 
ATOM      5  C   UNL A   1      32.682  23.135  23.483  1.00  0.00     0.032 C 
ATOM      6  C   UNL A   1      32.534  24.298  24.147  1.00  0.00     0.155 C 
ATOM      7  C   UNL A   1      32.888  24.551  25.553  1.00  0.00     0.349 C 
ATOM      8  C   UNL A   1      31.983  25.460  23.398  1.00  0.00     0.357 C 
ATOM      9  O   UNL A   1      33.941  24.159  26.037  1.00  0.00    -0.240 OA
ATOM     10  N   UNL A   1      32.020  25.354  26.232  1.00  0.00    -0.171 N 
ATOM     11  N   UNL A   1      31.423  26.437  24.205  1.00  0.00    -0.123 N 
ATOM     12  O   UNL A   1      31.995  25.483  22.168  1.00  0.00    -0.240 OA
ATOM     13  H   UNL A   1      31.865  25.227  27.195  1.00  0.00     0.319 HD
BRANCH   5  14
ATOM     14  C   UNL A   1      33.147  21.794  23.899  1.00  0.00    -0.024 A 
ATOM     15  C   UNL A   1      33.794  19.174  24.742  1.00  0.00     0.120 A 
ATOM     16  C   UNL A   1      34.723  20.199  24.866  1.00  0.00     0.047 A 
ATOM     17  C   UNL A   1      32.532  19.450  24.234  1.00  0.00     0.047 A 
ATOM     18  C   UNL A   1      34.394  21.500  24.463  1.00  0.00     0.012 A 
ATOM     19  C   UNL A   1      32.220  20.742  23.800  1.00  0.00     0.012 A 
BRANCH  15  20
ATOM     20  O   UNL A   1      34.112  17.957  25.272  1.00  0.00    -0.485 OA
BRANCH  20  21
ATOM     21  C   UNL A   1      34.676  17.034  24.332  1.00  0.00     0.216 C 
ATOM     22  C   UNL A   1      33.806  16.904  23.085  1.00  0.00     0.059 C 
BRANCH  21  23
ATOM     23  C   UNL A   1      34.752  15.660  24.991  1.00  0.00     0.082 C 
ATOM     24  O   UNL A   1      35.770  15.120  25.397  1.00  0.00    -0.546 OA
ATOM     25  O   UNL A   1      33.576  14.999  25.033  1.00  0.00    -0.546 OA
ENDBRANCH  21  23
ENDBRANCH  20  21
ENDBRANCH  15  20
ENDBRANCH   5  14
BRANCH  11  26
ATOM     26  C   UNL A   1      30.809  27.549  23.572  1.00  0.00     0.144 A 
ATOM     27  C   UNL A   1      31.623  28.560  23.007  1.00  0.00     0.056 A 
ATOM     28  C   UNL A   1      29.413  27.654  23.529  1.00  0.00     0.103 A 
ATOM     29  C   UNL A   1      31.049  29.687  22.413  1.00  0.00     0.055 A 
ATOM     30  C   UNL A   1      28.882  28.751  22.887  1.00  0.00     0.170 A 
ATOM     31  C   UNL A   1      29.675  29.742  22.351  1.00  0.00     0.166 A 
ATOM     32  O   UNL A   1      27.557  28.992  22.692  1.00  0.00    -0.453 OA
ATOM     33  O   UNL A   1      28.945  30.729  21.768  1.00  0.00    -0.454 OA
ATOM     34  C   UNL A   1      27.622  30.161  21.848  1.00  0.00     0.468 C 
ENDBRANCH  11  26
ENDBRANCH   3   4
ENDBRANCH   2   3
ENDBRANCH   1   2
BRANCH   1  35
ATOM     35  O   UNL A   1      32.959  29.923  27.545  1.00  0.00    -0.374 OA
BRANCH  35  36
ATOM     36  C   UNL A   1      33.491  31.170  27.073  1.00  0.00     0.202 C 
BRANCH  36  37
ATOM     37  C   UNL A   1      32.624  32.381  27.395  1.00  0.00     0.261 C 
BRANCH  37  38
ATOM     38  O   UNL A   1      33.416  33.565  27.287  1.00  0.00    -0.460 OA
BRANCH  38  39
ATOM     39  C   UNL A   1      33.379  34.364  28.375  1.00  0.00     0.338 C 
ATOM     40  O   UNL A   1      32.542  35.209  28.647  1.00  0.00    -0.246 OA
BRANCH  39  41
ATOM     41  C   UNL A   1      34.437  33.933  29.314  1.00  0.00     0.060 A 
ATOM     42  C   UNL A   1      35.765  34.188  28.946  1.00  0.00     0.016 A 
ATOM     43  C   UNL A   1      34.143  33.343  30.550  1.00  0.00     0.016 A 
ATOM     44  C   UNL A   1      36.802  33.801  29.785  1.00  0.00     0.010 A 
ATOM     45  C   UNL A   1      35.182  32.958  31.393  1.00  0.00     0.010 A 
ATOM     46  C   UNL A   1      36.513  33.147  30.989  1.00  0.00    -0.014 A 
BRANCH  46  47
ATOM     47  C   UNL A   1      37.600  32.464  31.716  1.00  0.00     0.031 A 
ATOM     48  C   UNL A   1      38.267  31.299  31.042  1.00  0.00     0.074 A 
ATOM     49  C   UNL A   1      37.998  32.895  32.923  1.00  0.00     0.049 A 
ATOM     50  N   UNL A   1      39.239  30.539  31.468  1.00  0.00    -0.248 NA
ATOM     51  C   UNL A   1      37.762  30.941  29.703  1.00  0.00     0.031 C 
ATOM     52  C   UNL A   1      37.424  34.026  33.651  1.00  0.00     0.029 A 
ATOM     53  N   UNL A   1      38.980  32.422  33.752  1.00  0.00    -0.354 N 
ATOM     54  C   UNL A   1      39.468  29.622  30.449  1.00  0.00     0.074 A 
ATOM     55  C   UNL A   1      38.508  29.890  29.403  1.00  0.00     0.031 C 
ATOM     56  C   UNL A   1      38.062  34.154  34.828  1.00  0.00     0.029 A 
ATOM     57  C   UNL A   1      39.074  33.106  34.938  1.00  0.00     0.049 A 
ATOM     58  H   UNL A   1      39.565  31.664  33.519  1.00  0.00     0.167 HD
ATOM     59  C   UNL A   1      40.412  28.656  30.387  1.00  0.00     0.037 A 
ATOM     60  C   UNL A   1      39.886  32.892  35.990  1.00  0.00     0.037 A 
ATOM     61  C   UNL A   1      41.355  28.390  31.438  1.00  0.00     0.049 A 
ATOM     62  C   UNL A   1      40.900  31.779  35.910  1.00  0.00     0.074 A 
ATOM     63  C   UNL A   1      42.341  27.423  31.494  1.00  0.00     0.029 A 
ATOM     64  N   UNL A   1      41.424  29.106  32.625  1.00  0.00    -0.354 N 
ATOM     65  N   UNL A   1      41.127  30.932  34.935  1.00  0.00    -0.248 NA
ATOM     66  C   UNL A   1      41.780  31.604  37.073  1.00  0.00     0.031 C 
ATOM     67  C   UNL A   1      42.988  27.534  32.729  1.00  0.00     0.029 A 
ATOM     68  C   UNL A   1      42.433  28.598  33.423  1.00  0.00     0.049 A 
ATOM     69  H   UNL A   1      40.840  29.862  32.864  1.00  0.00     0.167 HD
ATOM     70  C   UNL A   1      42.194  30.147  35.352  1.00  0.00     0.074 A 
ATOM     71  C   UNL A   1      42.578  30.630  36.662  1.00  0.00     0.031 C 
ATOM     72  C   UNL A   1      42.802  29.115  34.715  1.00  0.00     0.037 A 
BRANCH  59  73
ATOM     73  C   UNL A   1      40.459  27.817  29.146  1.00  0.00     0.064 A 
ATOM     74  C   UNL A   1      41.310  28.141  28.078  1.00  0.00     0.173 A 
ATOM     75  C   UNL A   1      39.664  26.668  29.030  1.00  0.00     0.173 A 
ATOM     76  F   UNL A   1      42.071  29.245  28.134  1.00  0.00    -0.203 F 
ATOM     77  C   UNL A   1      41.353  27.352  26.933  1.00  0.00     0.198 A 
ATOM     78  C   UNL A   1      39.729  25.867  27.892  1.00  0.00     0.198 A 
ATOM     79  F   UNL A   1      38.830  26.320  30.020  1.00  0.00    -0.203 F 
ATOM     80  F   UNL A   1      42.144  27.702  25.909  1.00  0.00    -0.200 F 
ATOM     81  C   UNL A   1      40.570  26.212  26.844  1.00  0.00     0.200 A 
ATOM     82  F   UNL A   1      38.974  24.763  27.810  1.00  0.00    -0.200 F 
ATOM     83  F   UNL A   1      40.618  25.447  25.744  1.00  0.00    -0.200 F 
ENDBRANCH  59  73
BRANCH  60  84
ATOM     84  C   UNL A   1      39.783  33.743  37.203  1.00  0.00     0.064 A 
ATOM     85  C   UNL A   1      38.902  33.417  38.244  1.00  0.00     0.173 A 
ATOM     86  C   UNL A   1      40.533  34.921  37.329  1.00  0.00     0.173 A 
ATOM     87  F   UNL A   1      38.147  32.312  38.161  1.00  0.00    -0.203 F 
ATOM     88  C   UNL A   1      38.752  34.253  39.350  1.00  0.00     0.198 A 
ATOM     89  C   UNL A   1      40.403  35.742  38.448  1.00  0.00     0.198 A 
ATOM     90  F   UNL A   1      41.391  35.278  36.363  1.00  0.00    -0.203 F 
ATOM     91  F   UNL A   1      37.861  33.947  40.302  1.00  0.00    -0.200 F 
ATOM     92  C   UNL A   1      39.504  35.413  39.451  1.00  0.00     0.200 A 
ATOM     93  F   UNL A   1      41.140  36.857  38.548  1.00  0.00    -0.200 F 
ATOM     94  F   UNL A   1      39.355  36.220  40.511  1.00  0.00    -0.200 F 
ENDBRANCH  60  84
BRANCH  72  95
ATOM     95  C   UNL A   1      43.970  28.480  35.408  1.00  0.00     0.064 A 
ATOM     96  C   UNL A   1      43.812  27.372  36.252  1.00  0.00     0.173 A 
ATOM     97  C   UNL A   1      45.267  28.975  35.205  1.00  0.00     0.173 A 
ATOM     98  F   UNL A   1      42.589  26.871  36.486  1.00  0.00    -0.203 F 
ATOM     99  C   UNL A   1      44.907  26.802  36.894  1.00  0.00     0.198 A 
ATOM    100  C   UNL A   1      46.363  28.384  35.824  1.00  0.00     0.198 A 
ATOM    101  F   UNL A   1      45.470  30.028  34.398  1.00  0.00    -0.203 F 
ATOM    102  F   UNL A   1      44.727  25.778  37.739  1.00  0.00    -0.200 F 
ATOM    103  C   UNL A   1      46.181  27.306  36.676  1.00  0.00     0.200 A 
ATOM    104  F   UNL A   1      47.595  28.863  35.603  1.00  0.00    -0.200 F 
ATOM    105  F   UNL A   1      47.234  26.755  37.296  1.00  0.00    -0.200 F 
ENDBRANCH  72  95
ENDBRANCH  46  47
ENDBRANCH  39  41
ENDBRANCH  38  39
ENDBRANCH  37  38
ENDBRANCH  36  37
ENDBRANCH  35  36
ENDBRANCH   1  35
TORSDOF 18
ENDMDL
