MODEL 1
REMARK VINA RESULT:     -11.8      0.000      0.000
REMARK SMILES O=C(OCCOCCOC(=O)[C@H]1C[N@H+](Cc2ccc(Cl)c(Cl)c2)CC12CCCCC2)c1ccc(-c2c3nc(c(-c4c(F)c(F)c(F)c(F)c4F)c4ccc([nH]4)c(-c4c(F)c(F)c(F)c(F)c4F)c4nc(c(-c5c(F)c(F)c(F)c(F)c5F)c5ccc2[nH]5)C=C4)C=C3)cc1
REMARK SMILES IDX 6 1 5 2 4 3 3 4 2 5 1 6 31 7 32 8 93 9 33 10 92 11 34 12
REMARK SMILES IDX 35 13 36 14 86 15 37 16 91 17 85 18 87 19 38 20 90 21 84 22
REMARK SMILES IDX 83 23 39 25 71 26 51 27 70 28 52 29 55 30 69 31 88 32 53 33
REMARK SMILES IDX 54 34 68 36 89 37 56 38 40 39 41 40 49 41 42 42 43 43 47 44
REMARK SMILES IDX 50 45 44 46 45 47 48 48 46 49 72 50 73 51 81 52 74 53 75 54
REMARK SMILES IDX 79 55 82 56 76 57 77 58 80 59 78 60 57 61 58 62 66 63 59 64
REMARK SMILES IDX 60 65 64 66 67 67 61 68 62 69 65 70 63 71 7 72 8 73 9 74
REMARK SMILES IDX 10 75 11 76 12 77 13 78 25 79 14 80 24 81 26 82 30 83 27 85
REMARK SMILES IDX 29 86 28 87 15 88 16 89 17 90 23 91 18 92 21 93 19 94 22 95
REMARK SMILES IDX 20 96
REMARK H PARENT 87 24 55 35 14 84
REMARK Flexibility Score: inf
ROOT
ATOM      1  O   UNL A   1      34.335  20.625  25.473  1.00  0.00    -0.374 OA
ENDROOT
BRANCH   1   2
ATOM      2  C   UNL A   1      35.431  21.111  24.684  1.00  0.00     0.202 C 
BRANCH   2   3
ATOM      3  C   UNL A   1      36.916  20.767  24.978  1.00  0.00     0.261 C 
BRANCH   3   4
ATOM      4  O   UNL A   1      37.634  21.761  25.739  1.00  0.00    -0.460 OA
BRANCH   4   5
ATOM      5  C   UNL A   1      38.940  21.696  26.126  1.00  0.00     0.338 C 
ATOM      6  O   UNL A   1      39.575  20.657  26.048  1.00  0.00    -0.246 OA
BRANCH   5   7
ATOM      7  C   UNL A   1      39.590  22.915  26.662  1.00  0.00     0.060 A 
ATOM      8  C   UNL A   1      39.200  24.168  26.224  1.00  0.00     0.016 A 
ATOM      9  C   UNL A   1      40.592  22.835  27.625  1.00  0.00     0.016 A 
ATOM     10  C   UNL A   1      39.890  25.300  26.501  1.00  0.00     0.010 A 
ATOM     11  C   UNL A   1      41.213  24.012  28.057  1.00  0.00     0.010 A 
ATOM     12  C   UNL A   1      40.868  25.237  27.467  1.00  0.00    -0.014 A 
BRANCH  12  13
ATOM     13  C   UNL A   1      41.547  26.508  27.687  1.00  0.00     0.031 A 
ATOM     14  C   UNL A   1      40.884  27.479  28.597  1.00  0.00     0.074 A 
ATOM     15  C   UNL A   1      42.831  26.616  27.294  1.00  0.00     0.049 A 
ATOM     16  N   UNL A   1      41.236  28.694  28.890  1.00  0.00    -0.248 NA
ATOM     17  C   UNL A   1      39.662  27.015  29.282  1.00  0.00     0.031 C 
ATOM     18  C   UNL A   1      43.602  25.564  26.609  1.00  0.00     0.029 A 
ATOM     19  N   UNL A   1      43.736  27.617  27.471  1.00  0.00    -0.354 N 
ATOM     20  C   UNL A   1      40.240  29.171  29.726  1.00  0.00     0.074 A 
ATOM     21  C   UNL A   1      39.282  28.108  29.924  1.00  0.00     0.031 C 
ATOM     22  C   UNL A   1      44.871  25.969  26.464  1.00  0.00     0.029 A 
ATOM     23  C   UNL A   1      44.960  27.347  26.913  1.00  0.00     0.049 A 
ATOM     24  H   UNL A   1      43.532  28.453  27.953  1.00  0.00     0.167 HD
ATOM     25  C   UNL A   1      40.147  30.414  30.240  1.00  0.00     0.037 A 
ATOM     26  C   UNL A   1      46.003  28.172  26.722  1.00  0.00     0.037 A 
ATOM     27  C   UNL A   1      41.157  31.409  30.005  1.00  0.00     0.049 A 
ATOM     28  C   UNL A   1      45.822  29.586  27.195  1.00  0.00     0.074 A 
ATOM     29  C   UNL A   1      41.173  32.738  30.369  1.00  0.00     0.029 A 
ATOM     30  N   UNL A   1      42.352  31.155  29.332  1.00  0.00    -0.354 N 
ATOM     31  N   UNL A   1      44.814  30.109  27.856  1.00  0.00    -0.248 NA
ATOM     32  C   UNL A   1      46.892  30.530  26.873  1.00  0.00     0.031 C 
ATOM     33  C   UNL A   1      42.353  33.301  29.870  1.00  0.00     0.029 A 
ATOM     34  C   UNL A   1      43.107  32.309  29.254  1.00  0.00     0.049 A 
ATOM     35  H   UNL A   1      42.618  30.280  28.967  1.00  0.00     0.167 HD
ATOM     36  C   UNL A   1      45.131  31.442  28.046  1.00  0.00     0.074 A 
ATOM     37  C   UNL A   1      46.440  31.637  27.446  1.00  0.00     0.031 C 
ATOM     38  C   UNL A   1      44.413  32.424  28.650  1.00  0.00     0.037 A 
BRANCH  25  39
ATOM     39  C   UNL A   1      38.883  30.759  30.966  1.00  0.00     0.064 A 
ATOM     40  C   UNL A   1      37.750  31.264  30.311  1.00  0.00     0.173 A 
ATOM     41  C   UNL A   1      38.834  30.648  32.364  1.00  0.00     0.173 A 
ATOM     42  F   UNL A   1      37.759  31.436  28.980  1.00  0.00    -0.203 F 
ATOM     43  C   UNL A   1      36.629  31.672  31.031  1.00  0.00     0.198 A 
ATOM     44  C   UNL A   1      37.701  31.028  33.078  1.00  0.00     0.198 A 
ATOM     45  F   UNL A   1      39.898  30.194  33.044  1.00  0.00    -0.203 F 
ATOM     46  F   UNL A   1      35.586  32.221  30.391  1.00  0.00    -0.200 F 
ATOM     47  C   UNL A   1      36.603  31.549  32.412  1.00  0.00     0.200 A 
ATOM     48  F   UNL A   1      37.683  30.911  34.413  1.00  0.00    -0.200 F 
ATOM     49  F   UNL A   1      35.529  31.953  33.104  1.00  0.00    -0.200 F 
ENDBRANCH  25  39
BRANCH  26  50
ATOM     50  C   UNL A   1      47.207  27.715  25.977  1.00  0.00     0.064 A 
ATOM     51  C   UNL A   1      47.256  27.755  24.578  1.00  0.00     0.173 A 
ATOM     52  C   UNL A   1      48.340  27.223  26.650  1.00  0.00     0.173 A 
ATOM     53  F   UNL A   1      46.200  28.202  23.884  1.00  0.00    -0.203 F 
ATOM     54  C   UNL A   1      48.378  27.304  23.882  1.00  0.00     0.198 A 
ATOM     55  C   UNL A   1      49.474  26.807  25.955  1.00  0.00     0.198 A 
ATOM     56  F   UNL A   1      48.354  27.159  27.990  1.00  0.00    -0.203 F 
ATOM     57  F   UNL A   1      48.378  27.308  22.542  1.00  0.00    -0.200 F 
ATOM     58  C   UNL A   1      49.488  26.837  24.571  1.00  0.00     0.200 A 
ATOM     59  F   UNL A   1      50.549  26.377  26.629  1.00  0.00    -0.200 F 
ATOM     60  F   UNL A   1      50.566  26.407  23.901  1.00  0.00    -0.200 F 
ENDBRANCH  26  50
BRANCH  38  61
ATOM     61  C   UNL A   1      45.069  33.766  28.728  1.00  0.00     0.064 A 
ATOM     62  C   UNL A   1      45.930  34.104  29.780  1.00  0.00     0.173 A 
ATOM     63  C   UNL A   1      44.867  34.699  27.702  1.00  0.00     0.173 A 
ATOM     64  F   UNL A   1      46.134  33.244  30.791  1.00  0.00    -0.203 F 
ATOM     65  C   UNL A   1      46.549  35.347  29.815  1.00  0.00     0.198 A 
ATOM     66  C   UNL A   1      45.517  35.926  27.721  1.00  0.00     0.198 A 
ATOM     67  F   UNL A   1      44.056  34.410  26.673  1.00  0.00    -0.203 F 
ATOM     68  F   UNL A   1      47.326  35.676  30.855  1.00  0.00    -0.200 F 
ATOM     69  C   UNL A   1      46.351  36.252  28.781  1.00  0.00     0.200 A 
ATOM     70  F   UNL A   1      45.340  36.790  26.714  1.00  0.00    -0.200 F 
ATOM     71  F   UNL A   1      46.960  37.444  28.810  1.00  0.00    -0.200 F 
ENDBRANCH  38  61
ENDBRANCH  12  13
ENDBRANCH   5   7
ENDBRANCH   4   5
ENDBRANCH   3   4
ENDBRANCH   2   3
ENDBRANCH   1   2
BRANCH   1  72
ATOM     72  C   UNL A   1      33.407  21.497  26.131  1.00  0.00     0.202 C 
BRANCH  72  73
ATOM     73  C   UNL A   1      34.138  22.528  26.991  1.00  0.00     0.261 C 
BRANCH  73  74
ATOM     74  O   UNL A   1      33.413  23.752  26.868  1.00  0.00    -0.463 OA
BRANCH  74  75
ATOM     75  C   UNL A   1      33.893  24.518  25.863  1.00  0.00     0.315 C 
ATOM     76  O   UNL A   1      35.065  24.533  25.501  1.00  0.00    -0.252 OA
BRANCH  75  77
ATOM     77  C   UNL A   1      32.841  25.427  25.301  1.00  0.00     0.166 C 
ATOM     78  C   UNL A   1      31.489  24.737  25.501  1.00  0.00     0.278 C 
ATOM     79  C   UNL A   1      32.616  26.936  25.677  1.00  0.00     0.038 C 
ATOM     80  N   UNL A   1      30.490  25.753  25.209  1.00  0.00    -0.330 N 
ATOM     81  C   UNL A   1      31.055  27.019  25.700  1.00  0.00     0.270 C 
ATOM     82  C   UNL A   1      33.248  27.485  26.975  1.00  0.00     0.014 C 
ATOM     83  C   UNL A   1      33.245  27.833  24.587  1.00  0.00     0.014 C 
ATOM     84  H   UNL A   1      29.613  25.589  25.704  1.00  0.00     0.348 HD
ATOM     85  C   UNL A   1      33.019  28.972  27.248  1.00  0.00     0.001 C 
ATOM     86  C   UNL A   1      32.999  29.331  24.778  1.00  0.00     0.001 C 
ATOM     87  C   UNL A   1      33.547  29.820  26.107  1.00  0.00     0.000 C 
BRANCH  80  88
ATOM     88  C   UNL A   1      29.933  25.705  23.845  1.00  0.00     0.299 C 
BRANCH  88  89
ATOM     89  C   UNL A   1      29.671  27.028  23.147  1.00  0.00     0.008 A 
ATOM     90  C   UNL A   1      30.663  27.655  22.375  1.00  0.00     0.011 A 
ATOM     91  C   UNL A   1      28.470  27.715  23.378  1.00  0.00     0.031 A 
ATOM     92  C   UNL A   1      30.565  29.016  22.067  1.00  0.00     0.022 A 
ATOM     93  C   UNL A   1      28.347  29.067  23.023  1.00  0.00     0.060 A 
ATOM     94  C   UNL A   1      29.425  29.734  22.430  1.00  0.00     0.059 A 
ATOM     95  Cl  UNL A   1      26.903  29.886  23.501  1.00  0.00    -0.083 Cl
ATOM     96  Cl  UNL A   1      29.456  31.448  22.222  1.00  0.00    -0.083 Cl
ENDBRANCH  88  89
ENDBRANCH  80  88
ENDBRANCH  75  77
ENDBRANCH  74  75
ENDBRANCH  73  74
ENDBRANCH  72  73
ENDBRANCH   1  72
TORSDOF 16
ENDMDL
MODEL 2
REMARK VINA RESULT:     -11.7      5.370      9.262
REMARK SMILES O=C(OCCOCCOC(=O)[C@H]1C[N@H+](Cc2ccc(Cl)c(Cl)c2)CC12CCCCC2)c1ccc(-c2c3nc(c(-c4c(F)c(F)c(F)c(F)c4F)c4ccc([nH]4)c(-c4c(F)c(F)c(F)c(F)c4F)c4nc(c(-c5c(F)c(F)c(F)c(F)c5F)c5ccc2[nH]5)C=C4)C=C3)cc1
REMARK SMILES IDX 6 1 5 2 4 3 3 4 2 5 1 6 31 7 32 8 93 9 33 10 92 11 34 12
REMARK SMILES IDX 35 13 36 14 86 15 37 16 91 17 85 18 87 19 38 20 90 21 84 22
REMARK SMILES IDX 83 23 39 25 71 26 51 27 70 28 52 29 55 30 69 31 88 32 53 33
REMARK SMILES IDX 54 34 68 36 89 37 56 38 40 39 41 40 49 41 42 42 43 43 47 44
REMARK SMILES IDX 50 45 44 46 45 47 48 48 46 49 72 50 73 51 81 52 74 53 75 54
REMARK SMILES IDX 79 55 82 56 76 57 77 58 80 59 78 60 57 61 58 62 66 63 59 64
REMARK SMILES IDX 60 65 64 66 67 67 61 68 62 69 65 70 63 71 7 72 8 73 9 74
REMARK SMILES IDX 10 75 11 76 12 77 13 78 25 79 14 80 24 81 26 82 30 83 27 85
REMARK SMILES IDX 29 86 28 87 15 88 16 89 17 90 23 91 18 92 21 93 19 94 22 95
REMARK SMILES IDX 20 96
REMARK H PARENT 87 24 55 35 14 84
REMARK Flexibility Score: inf
ROOT
ATOM      1  O   UNL A   1      34.063  33.035  29.399  1.00  0.00    -0.374 OA
ENDROOT
BRANCH   1   2
ATOM      2  C   UNL A   1      33.533  34.180  28.714  1.00  0.00     0.202 C 
BRANCH   2   3
ATOM      3  C   UNL A   1      33.343  35.566  29.387  1.00  0.00     0.261 C 
BRANCH   3   4
ATOM      4  O   UNL A   1      32.375  35.599  30.456  1.00  0.00    -0.460 OA
BRANCH   4   5
ATOM      5  C   UNL A   1      32.639  35.772  31.783  1.00  0.00     0.338 C 
ATOM      6  O   UNL A   1      31.995  36.555  32.462  1.00  0.00    -0.246 OA
BRANCH   5   7
ATOM      7  C   UNL A   1      33.740  34.998  32.402  1.00  0.00     0.060 A 
ATOM      8  C   UNL A   1      34.988  35.571  32.574  1.00  0.00     0.016 A 
ATOM      9  C   UNL A   1      33.548  33.691  32.839  1.00  0.00     0.016 A 
ATOM     10  C   UNL A   1      36.088  34.862  32.925  1.00  0.00     0.010 A 
ATOM     11  C   UNL A   1      34.635  32.984  33.365  1.00  0.00     0.010 A 
ATOM     12  C   UNL A   1      35.908  33.576  33.379  1.00  0.00    -0.014 A 
BRANCH  12  13
ATOM     13  C   UNL A   1      37.153  32.905  33.730  1.00  0.00     0.031 A 
ATOM     14  C   UNL A   1      37.654  33.094  35.116  1.00  0.00     0.074 A 
ATOM     15  C   UNL A   1      37.617  31.954  32.896  1.00  0.00     0.049 A 
ATOM     16  N   UNL A   1      38.764  32.677  35.647  1.00  0.00    -0.248 NA
ATOM     17  C   UNL A   1      36.782  33.846  36.038  1.00  0.00     0.031 C 
ATOM     18  C   UNL A   1      36.991  31.562  31.621  1.00  0.00     0.029 A 
ATOM     19  N   UNL A   1      38.667  31.097  33.018  1.00  0.00    -0.354 N 
ATOM     20  C   UNL A   1      38.764  33.183  36.936  1.00  0.00     0.074 A 
ATOM     21  C   UNL A   1      37.532  33.912  37.126  1.00  0.00     0.031 C 
ATOM     22  C   UNL A   1      37.653  30.518  31.106  1.00  0.00     0.029 A 
ATOM     23  C   UNL A   1      38.817  30.265  31.936  1.00  0.00     0.049 A 
ATOM     24  H   UNL A   1      39.260  31.075  33.805  1.00  0.00     0.167 HD
ATOM     25  C   UNL A   1      39.749  33.058  37.850  1.00  0.00     0.037 A 
ATOM     26  C   UNL A   1      39.841  29.452  31.630  1.00  0.00     0.037 A 
ATOM     27  C   UNL A   1      40.939  32.299  37.582  1.00  0.00     0.049 A 
ATOM     28  C   UNL A   1      40.981  29.429  32.608  1.00  0.00     0.074 A 
ATOM     29  C   UNL A   1      42.070  32.150  38.355  1.00  0.00     0.029 A 
ATOM     30  N   UNL A   1      41.134  31.548  36.424  1.00  0.00    -0.354 N 
ATOM     31  N   UNL A   1      41.076  30.028  33.774  1.00  0.00    -0.248 NA
ATOM     32  C   UNL A   1      42.162  28.656  32.225  1.00  0.00     0.031 C 
ATOM     33  C   UNL A   1      42.971  31.352  37.641  1.00  0.00     0.029 A 
ATOM     34  C   UNL A   1      42.377  30.946  36.453  1.00  0.00     0.049 A 
ATOM     35  H   UNL A   1      40.481  31.460  35.693  1.00  0.00     0.167 HD
ATOM     36  C   UNL A   1      42.320  29.693  34.276  1.00  0.00     0.074 A 
ATOM     37  C   UNL A   1      42.934  28.818  33.291  1.00  0.00     0.031 C 
ATOM     38  C   UNL A   1      42.916  30.073  35.436  1.00  0.00     0.037 A 
BRANCH  25  39
ATOM     39  C   UNL A   1      39.609  33.849  39.114  1.00  0.00     0.064 A 
ATOM     40  C   UNL A   1      40.183  35.119  39.278  1.00  0.00     0.173 A 
ATOM     41  C   UNL A   1      38.944  33.285  40.214  1.00  0.00     0.173 A 
ATOM     42  F   UNL A   1      40.872  35.684  38.275  1.00  0.00    -0.203 F 
ATOM     43  C   UNL A   1      40.122  35.779  40.504  1.00  0.00     0.198 A 
ATOM     44  C   UNL A   1      38.858  33.961  41.428  1.00  0.00     0.198 A 
ATOM     45  F   UNL A   1      38.398  32.064  40.121  1.00  0.00    -0.203 F 
ATOM     46  F   UNL A   1      40.741  36.958  40.660  1.00  0.00    -0.200 F 
ATOM     47  C   UNL A   1      39.455  35.203  41.575  1.00  0.00     0.200 A 
ATOM     48  F   UNL A   1      38.217  33.399  42.462  1.00  0.00    -0.200 F 
ATOM     49  F   UNL A   1      39.408  35.835  42.756  1.00  0.00    -0.200 F 
ENDBRANCH  25  39
BRANCH  26  50
ATOM     50  C   UNL A   1      39.871  28.721  30.335  1.00  0.00     0.064 A 
ATOM     51  C   UNL A   1      39.340  27.431  30.214  1.00  0.00     0.173 A 
ATOM     52  C   UNL A   1      40.436  29.298  29.183  1.00  0.00     0.173 A 
ATOM     53  F   UNL A   1      38.800  26.828  31.283  1.00  0.00    -0.203 F 
ATOM     54  C   UNL A   1      39.391  26.740  29.004  1.00  0.00     0.198 A 
ATOM     55  C   UNL A   1      40.454  28.621  27.966  1.00  0.00     0.198 A 
ATOM     56  F   UNL A   1      40.962  30.531  29.234  1.00  0.00    -0.203 F 
ATOM     57  F   UNL A   1      38.920  25.488  28.930  1.00  0.00    -0.200 F 
ATOM     58  C   UNL A   1      39.942  27.337  27.879  1.00  0.00     0.200 A 
ATOM     59  F   UNL A   1      40.969  29.213  26.879  1.00  0.00    -0.200 F 
ATOM     60  F   UNL A   1      39.987  26.673  26.716  1.00  0.00    -0.200 F 
ENDBRANCH  26  50
BRANCH  38  61
ATOM     61  C   UNL A   1      44.267  29.491  35.704  1.00  0.00     0.064 A 
ATOM     62  C   UNL A   1      45.441  30.140  35.301  1.00  0.00     0.173 A 
ATOM     63  C   UNL A   1      44.377  28.291  36.422  1.00  0.00     0.173 A 
ATOM     64  F   UNL A   1      45.376  31.280  34.596  1.00  0.00    -0.203 F 
ATOM     65  C   UNL A   1      46.685  29.591  35.587  1.00  0.00     0.198 A 
ATOM     66  C   UNL A   1      45.623  27.766  36.738  1.00  0.00     0.198 A 
ATOM     67  F   UNL A   1      43.277  27.643  36.832  1.00  0.00    -0.203 F 
ATOM     68  F   UNL A   1      47.797  30.196  35.148  1.00  0.00    -0.200 F 
ATOM     69  C   UNL A   1      46.775  28.412  36.314  1.00  0.00     0.200 A 
ATOM     70  F   UNL A   1      45.709  26.640  37.456  1.00  0.00    -0.200 F 
ATOM     71  F   UNL A   1      47.977  27.894  36.600  1.00  0.00    -0.200 F 
ENDBRANCH  38  61
ENDBRANCH  12  13
ENDBRANCH   5   7
ENDBRANCH   4   5
ENDBRANCH   3   4
ENDBRANCH   2   3
ENDBRANCH   1   2
BRANCH   1  72
ATOM     72  C   UNL A   1      34.522  31.864  28.710  1.00  0.00     0.202 C 
BRANCH  72  73
ATOM     73  C   UNL A   1      33.667  31.585  27.474  1.00  0.00     0.261 C 
BRANCH  73  74
ATOM     74  O   UNL A   1      33.130  30.272  27.636  1.00  0.00    -0.463 OA
BRANCH  74  75
ATOM     75  C   UNL A   1      33.647  29.405  26.738  1.00  0.00     0.315 C 
ATOM     76  O   UNL A   1      34.841  29.316  26.467  1.00  0.00    -0.252 OA
BRANCH  75  77
ATOM     77  C   UNL A   1      32.578  28.626  26.031  1.00  0.00     0.166 C 
ATOM     78  C   UNL A   1      32.119  29.466  24.835  1.00  0.00     0.278 C 
ATOM     79  C   UNL A   1      32.694  27.151  25.503  1.00  0.00     0.038 C 
ATOM     80  N   UNL A   1      31.303  28.574  24.028  1.00  0.00    -0.330 N 
ATOM     81  C   UNL A   1      31.929  27.248  24.143  1.00  0.00     0.270 C 
ATOM     82  C   UNL A   1      34.097  26.525  25.338  1.00  0.00     0.014 C 
ATOM     83  C   UNL A   1      32.011  26.194  26.506  1.00  0.00     0.014 C 
ATOM     84  H   UNL A   1      31.303  28.835  23.041  1.00  0.00     0.348 HD
ATOM     85  C   UNL A   1      34.124  25.072  24.861  1.00  0.00     0.001 C 
ATOM     86  C   UNL A   1      31.957  24.734  26.054  1.00  0.00     0.001 C 
ATOM     87  C   UNL A   1      33.349  24.177  25.807  1.00  0.00     0.000 C 
BRANCH  80  88
ATOM     88  C   UNL A   1      29.849  28.695  24.242  1.00  0.00     0.299 C 
BRANCH  88  89
ATOM     89  C   UNL A   1      29.100  29.716  23.405  1.00  0.00     0.008 A 
ATOM     90  C   UNL A   1      28.427  29.344  22.229  1.00  0.00     0.011 A 
ATOM     91  C   UNL A   1      29.183  31.079  23.724  1.00  0.00     0.031 A 
ATOM     92  C   UNL A   1      28.081  30.308  21.276  1.00  0.00     0.022 A 
ATOM     93  C   UNL A   1      28.789  32.052  22.792  1.00  0.00     0.060 A 
ATOM     94  C   UNL A   1      28.303  31.660  21.539  1.00  0.00     0.059 A 
ATOM     95  Cl  UNL A   1      29.089  33.705  23.191  1.00  0.00    -0.083 Cl
ATOM     96  Cl  UNL A   1      28.064  32.779  20.244  1.00  0.00    -0.083 Cl
ENDBRANCH  88  89
ENDBRANCH  80  88
ENDBRANCH  75  77
ENDBRANCH  74  75
ENDBRANCH  73  74
ENDBRANCH  72  73
ENDBRANCH   1  72
TORSDOF 16
ENDMDL
MODEL 3
REMARK VINA RESULT:     -11.6      4.673      7.661
REMARK SMILES O=C(OCCOCCOC(=O)[C@H]1C[N@H+](Cc2ccc(Cl)c(Cl)c2)CC12CCCCC2)c1ccc(-c2c3nc(c(-c4c(F)c(F)c(F)c(F)c4F)c4ccc([nH]4)c(-c4c(F)c(F)c(F)c(F)c4F)c4nc(c(-c5c(F)c(F)c(F)c(F)c5F)c5ccc2[nH]5)C=C4)C=C3)cc1
REMARK SMILES IDX 6 1 5 2 4 3 3 4 2 5 1 6 31 7 32 8 93 9 33 10 92 11 34 12
REMARK SMILES IDX 35 13 36 14 86 15 37 16 91 17 85 18 87 19 38 20 90 21 84 22
REMARK SMILES IDX 83 23 39 25 71 26 51 27 70 28 52 29 55 30 69 31 88 32 53 33
REMARK SMILES IDX 54 34 68 36 89 37 56 38 40 39 41 40 49 41 42 42 43 43 47 44
REMARK SMILES IDX 50 45 44 46 45 47 48 48 46 49 72 50 73 51 81 52 74 53 75 54
REMARK SMILES IDX 79 55 82 56 76 57 77 58 80 59 78 60 57 61 58 62 66 63 59 64
REMARK SMILES IDX 60 65 64 66 67 67 61 68 62 69 65 70 63 71 7 72 8 73 9 74
REMARK SMILES IDX 10 75 11 76 12 77 13 78 25 79 14 80 24 81 26 82 30 83 27 85
REMARK SMILES IDX 29 86 28 87 15 88 16 89 17 90 23 91 18 92 21 93 19 94 22 95
REMARK SMILES IDX 20 96
REMARK H PARENT 87 24 55 35 14 84
REMARK Flexibility Score: inf
ROOT
ATOM      1  O   UNL A   1      33.010  29.671  26.628  1.00  0.00    -0.374 OA
ENDROOT
BRANCH   1   2
ATOM      2  C   UNL A   1      31.911  30.594  26.655  1.00  0.00     0.202 C 
BRANCH   2   3
ATOM      3  C   UNL A   1      32.088  32.131  26.774  1.00  0.00     0.261 C 
BRANCH   3   4
ATOM      4  O   UNL A   1      32.902  32.569  27.883  1.00  0.00    -0.460 OA
BRANCH   4   5
ATOM      5  C   UNL A   1      34.048  33.303  27.805  1.00  0.00     0.338 C 
ATOM      6  O   UNL A   1      34.054  34.422  27.318  1.00  0.00    -0.246 OA
BRANCH   5   7
ATOM      7  C   UNL A   1      35.311  32.718  28.313  1.00  0.00     0.060 A 
ATOM      8  C   UNL A   1      35.367  31.384  28.679  1.00  0.00     0.016 A 
ATOM      9  C   UNL A   1      36.470  33.480  28.418  1.00  0.00     0.016 A 
ATOM     10  C   UNL A   1      36.411  30.842  29.350  1.00  0.00     0.010 A 
ATOM     11  C   UNL A   1      37.621  32.895  28.957  1.00  0.00     0.010 A 
ATOM     12  C   UNL A   1      37.569  31.579  29.442  1.00  0.00    -0.014 A 
BRANCH  12  13
ATOM     13  C   UNL A   1      38.629  30.904  30.182  1.00  0.00     0.031 A 
ATOM     14  C   UNL A   1      38.675  31.129  31.651  1.00  0.00     0.074 A 
ATOM     15  C   UNL A   1      39.311  29.925  29.559  1.00  0.00     0.049 A 
ATOM     16  N   UNL A   1      39.554  30.715  32.513  1.00  0.00    -0.248 NA
ATOM     17  C   UNL A   1      37.573  31.917  32.235  1.00  0.00     0.031 C 
ATOM     18  C   UNL A   1      39.108  29.502  28.162  1.00  0.00     0.029 A 
ATOM     19  N   UNL A   1      40.253  29.059  30.025  1.00  0.00    -0.354 N 
ATOM     20  C   UNL A   1      39.161  31.259  33.724  1.00  0.00     0.074 A 
ATOM     21  C   UNL A   1      37.946  32.006  33.501  1.00  0.00     0.031 C 
ATOM     22  C   UNL A   1      39.877  28.436  27.906  1.00  0.00     0.029 A 
ATOM     23  C   UNL A   1      40.718  28.195  29.065  1.00  0.00     0.049 A 
ATOM     24  H   UNL A   1      40.569  29.054  30.958  1.00  0.00     0.167 HD
ATOM     25  C   UNL A   1      39.808  31.150  34.903  1.00  0.00     0.037 A 
ATOM     26  C   UNL A   1      41.770  27.362  29.115  1.00  0.00     0.037 A 
ATOM     27  C   UNL A   1      41.007  30.370  35.040  1.00  0.00     0.049 A 
ATOM     28  C   UNL A   1      42.545  27.354  30.402  1.00  0.00     0.074 A 
ATOM     29  C   UNL A   1      41.836  30.231  36.132  1.00  0.00     0.029 A 
ATOM     30  N   UNL A   1      41.540  29.583  34.020  1.00  0.00    -0.354 N 
ATOM     31  N   UNL A   1      42.283  27.986  31.524  1.00  0.00    -0.248 NA
ATOM     32  C   UNL A   1      43.771  26.558  30.427  1.00  0.00     0.031 C 
ATOM     33  C   UNL A   1      42.899  29.402  35.756  1.00  0.00     0.029 A 
ATOM     34  C   UNL A   1      42.699  28.968  34.451  1.00  0.00     0.049 A 
ATOM     35  H   UNL A   1      41.146  29.480  33.123  1.00  0.00     0.167 HD
ATOM     36  C   UNL A   1      43.301  27.653  32.398  1.00  0.00     0.074 A 
ATOM     37  C   UNL A   1      44.174  26.742  31.677  1.00  0.00     0.031 C 
ATOM     38  C   UNL A   1      43.511  28.060  33.677  1.00  0.00     0.037 A 
BRANCH  25  39
ATOM     39  C   UNL A   1      39.296  31.979  36.040  1.00  0.00     0.064 A 
ATOM     40  C   UNL A   1      39.835  33.234  36.364  1.00  0.00     0.173 A 
ATOM     41  C   UNL A   1      38.287  31.468  36.871  1.00  0.00     0.173 A 
ATOM     42  F   UNL A   1      40.834  33.748  35.631  1.00  0.00    -0.203 F 
ATOM     43  C   UNL A   1      39.404  33.929  37.492  1.00  0.00     0.198 A 
ATOM     44  C   UNL A   1      37.837  32.179  37.980  1.00  0.00     0.198 A 
ATOM     45  F   UNL A   1      37.753  30.262  36.623  1.00  0.00    -0.203 F 
ATOM     46  F   UNL A   1      39.985  35.091  37.823  1.00  0.00    -0.200 F 
ATOM     47  C   UNL A   1      38.402  33.404  38.295  1.00  0.00     0.200 A 
ATOM     48  F   UNL A   1      36.872  31.666  38.756  1.00  0.00    -0.200 F 
ATOM     49  F   UNL A   1      37.998  34.069  39.386  1.00  0.00    -0.200 F 
ENDBRANCH  25  39
BRANCH  26  50
ATOM     50  C   UNL A   1      42.189  26.593  27.913  1.00  0.00     0.064 A 
ATOM     51  C   UNL A   1      41.679  25.315  27.651  1.00  0.00     0.173 A 
ATOM     52  C   UNL A   1      43.116  27.119  26.995  1.00  0.00     0.173 A 
ATOM     53  F   UNL A   1      40.802  24.759  28.499  1.00  0.00    -0.203 F 
ATOM     54  C   UNL A   1      42.092  24.588  26.535  1.00  0.00     0.198 A 
ATOM     55  C   UNL A   1      43.500  26.407  25.861  1.00  0.00     0.198 A 
ATOM     56  F   UNL A   1      43.641  28.338  27.190  1.00  0.00    -0.203 F 
ATOM     57  F   UNL A   1      41.624  23.348  26.336  1.00  0.00    -0.200 F 
ATOM     58  C   UNL A   1      42.997  25.136  25.638  1.00  0.00     0.200 A 
ATOM     59  F   UNL A   1      44.359  26.952  24.989  1.00  0.00    -0.200 F 
ATOM     60  F   UNL A   1      43.391  24.437  24.565  1.00  0.00    -0.200 F 
ENDBRANCH  26  50
BRANCH  38  61
ATOM     61  C   UNL A   1      44.699  27.470  34.369  1.00  0.00     0.064 A 
ATOM     62  C   UNL A   1      45.946  28.108  34.360  1.00  0.00     0.173 A 
ATOM     63  C   UNL A   1      44.561  26.276  35.091  1.00  0.00     0.173 A 
ATOM     64  F   UNL A   1      46.122  29.242  33.665  1.00  0.00    -0.203 F 
ATOM     65  C   UNL A   1      47.027  27.553  35.035  1.00  0.00     0.198 A 
ATOM     66  C   UNL A   1      45.634  25.746  35.795  1.00  0.00     0.198 A 
ATOM     67  F   UNL A   1      43.381  25.640  35.130  1.00  0.00    -0.203 F 
ATOM     68  F   UNL A   1      48.227  28.146  34.973  1.00  0.00    -0.200 F 
ATOM     69  C   UNL A   1      46.868  26.380  35.759  1.00  0.00     0.200 A 
ATOM     70  F   UNL A   1      45.474  24.625  36.509  1.00  0.00    -0.200 F 
ATOM     71  F   UNL A   1      47.908  25.856  36.420  1.00  0.00    -0.200 F 
ENDBRANCH  38  61
ENDBRANCH  12  13
ENDBRANCH   5   7
ENDBRANCH   4   5
ENDBRANCH   3   4
ENDBRANCH   2   3
ENDBRANCH   1   2
BRANCH   1  72
ATOM     72  C   UNL A   1      32.911  28.332  27.132  1.00  0.00     0.202 C 
BRANCH  72  73
ATOM     73  C   UNL A   1      31.468  27.834  27.085  1.00  0.00     0.261 C 
BRANCH  73  74
ATOM     74  O   UNL A   1      31.528  26.407  27.060  1.00  0.00    -0.463 OA
BRANCH  74  75
ATOM     75  C   UNL A   1      30.668  25.886  26.157  1.00  0.00     0.315 C 
ATOM     76  O   UNL A   1      29.557  25.443  26.430  1.00  0.00    -0.252 OA
BRANCH  75  77
ATOM     77  C   UNL A   1      31.270  25.820  24.784  1.00  0.00     0.166 C 
ATOM     78  C   UNL A   1      30.952  24.435  24.214  1.00  0.00     0.278 C 
ATOM     79  C   UNL A   1      31.029  26.836  23.610  1.00  0.00     0.038 C 
ATOM     80  N   UNL A   1      31.298  24.509  22.804  1.00  0.00    -0.330 N 
ATOM     81  C   UNL A   1      30.951  25.873  22.380  1.00  0.00     0.270 C 
ATOM     82  C   UNL A   1      29.814  27.788  23.684  1.00  0.00     0.014 C 
ATOM     83  C   UNL A   1      32.223  27.815  23.528  1.00  0.00     0.014 C 
ATOM     84  H   UNL A   1      30.755  23.858  22.237  1.00  0.00     0.348 HD
ATOM     85  C   UNL A   1      29.673  28.775  22.524  1.00  0.00     0.001 C 
ATOM     86  C   UNL A   1      32.163  28.790  22.351  1.00  0.00     0.001 C 
ATOM     87  C   UNL A   1      30.908  29.645  22.400  1.00  0.00     0.000 C 
BRANCH  80  88
ATOM     88  C   UNL A   1      32.629  23.974  22.460  1.00  0.00     0.299 C 
BRANCH  88  89
ATOM     89  C   UNL A   1      32.979  22.587  22.968  1.00  0.00     0.008 A 
ATOM     90  C   UNL A   1      32.227  21.461  22.594  1.00  0.00     0.011 A 
ATOM     91  C   UNL A   1      33.984  22.428  23.933  1.00  0.00     0.031 A 
ATOM     92  C   UNL A   1      32.298  20.282  23.342  1.00  0.00     0.022 A 
ATOM     93  C   UNL A   1      34.094  21.228  24.653  1.00  0.00     0.060 A 
ATOM     94  C   UNL A   1      33.201  20.180  24.402  1.00  0.00     0.059 A 
ATOM     95  Cl  UNL A   1      35.239  21.177  25.945  1.00  0.00    -0.083 Cl
ATOM     96  Cl  UNL A   1      33.087  18.792  25.423  1.00  0.00    -0.083 Cl
ENDBRANCH  88  89
ENDBRANCH  80  88
ENDBRANCH  75  77
ENDBRANCH  74  75
ENDBRANCH  73  74
ENDBRANCH  72  73
ENDBRANCH   1  72
TORSDOF 16
ENDMDL
