MODEL 1
REMARK VINA RESULT:     -12.2      0.000      0.000
REMARK SMILES Cc1cc(C(=O)NNC(=O)[C@H]2[C@@H](C(=O)OCCOCCOC(=O)c3ccc(-c4c5nc(c(-c6c(F)c(F)c(F)c(F)c6F)c6ccc([nH]6)c(-c6c(F)c(F)c(F)c(F)c6F)c6nc(c(-c7c(F)c(F)c(F)c(F)c7F)c7ccc4[nH]7)C=C6)C=C5)cc3)[C@@H]3C=C[C@H]2C3)cs1
REMARK SMILES IDX 17 1 16 2 15 3 13 4 14 5 12 6 11 7 90 8 87 9 89 10 91 11
REMARK SMILES IDX 88 12 9 13 8 14 10 16 7 17 5 18 6 19 4 21 1 22 2 23 3 24
REMARK SMILES IDX 93 25 92 26 18 27 19 28 20 29 21 30 22 31 23 32 24 33 25 34
REMARK SMILES IDX 86 35 26 36 85 37 27 38 28 39 29 40 79 41 30 42 84 43 78 44
REMARK SMILES IDX 80 45 31 46 83 47 77 48 76 49 32 51 64 52 44 53 63 54 45 55
REMARK SMILES IDX 48 56 62 57 81 58 46 59 47 60 61 62 82 63 49 64 33 65 34 66
REMARK SMILES IDX 42 67 35 68 36 69 40 70 43 71 37 72 38 73 41 74 39 75 65 76
REMARK SMILES IDX 66 77 74 78 67 79 68 80 72 81 75 82 69 83 70 84 73 85 71 86
REMARK SMILES IDX 50 87 51 88 59 89 52 90 53 91 57 92 60 93 54 94 55 95 58 96
REMARK SMILES IDX 56 97
REMARK H PARENT 8 15 7 20 80 50 48 61
REMARK Flexibility Score: inf
ROOT
ATOM      1  C   UNL A   1      32.889  30.082  25.846  1.00  0.00     0.202 C 
ENDROOT
BRANCH   1   2
ATOM      2  C   UNL A   1      33.442  28.677  26.091  1.00  0.00     0.261 C 
BRANCH   2   3
ATOM      3  O   UNL A   1      32.639  27.658  25.467  1.00  0.00    -0.463 OA
BRANCH   3   4
ATOM      4  C   UNL A   1      33.195  27.098  24.359  1.00  0.00     0.310 C 
ATOM      5  O   UNL A   1      34.003  27.661  23.632  1.00  0.00    -0.252 OA
BRANCH   4   6
ATOM      6  C   UNL A   1      32.658  25.693  24.124  1.00  0.00     0.119 C 
ATOM      7  C   UNL A   1      31.203  25.650  23.520  1.00  0.00     0.102 C 
ATOM      8  C   UNL A   1      30.369  25.173  24.742  1.00  0.00     0.025 C 
ATOM      9  C   UNL A   1      32.474  25.011  25.497  1.00  0.00     0.027 C 
ATOM     10  C   UNL A   1      30.684  23.695  24.889  1.00  0.00    -0.027 C 
ATOM     11  C   UNL A   1      31.161  25.655  25.962  1.00  0.00     0.017 C 
ATOM     12  C   UNL A   1      31.959  23.600  25.302  1.00  0.00    -0.027 C 
BRANCH   7  13
ATOM     13  C   UNL A   1      30.846  26.919  22.757  1.00  0.00     0.242 C 
ATOM     14  N   UNL A   1      30.133  27.903  23.386  1.00  0.00    -0.267 N 
ATOM     15  H   UNL A   1      30.577  28.692  23.774  1.00  0.00     0.191 HD
ATOM     16  O   UNL A   1      31.268  27.091  21.611  1.00  0.00    -0.273 OA
BRANCH  14  17
ATOM     17  N   UNL A   1      28.751  27.735  23.454  1.00  0.00    -0.263 N 
ATOM     18  C   UNL A   1      27.766  28.677  23.218  1.00  0.00     0.270 C 
ATOM     19  O   UNL A   1      26.606  28.303  23.409  1.00  0.00    -0.267 OA
ATOM     20  H   UNL A   1      28.436  26.836  23.701  1.00  0.00     0.191 HD
BRANCH  18  21
ATOM     21  C   UNL A   1      28.051  30.064  22.818  1.00  0.00     0.052 A 
ATOM     22  C   UNL A   1      29.022  33.738  23.185  1.00  0.00     0.056 C 
ATOM     23  C   UNL A   1      28.626  32.355  22.785  1.00  0.00     0.002 A 
ATOM     24  C   UNL A   1      28.495  31.216  23.562  1.00  0.00     0.029 A 
ATOM     25  S   UNL A   1      28.292  32.037  21.141  1.00  0.00    -0.148 S 
ATOM     26  C   UNL A   1      27.954  30.403  21.474  1.00  0.00     0.079 A 
ENDBRANCH  18  21
ENDBRANCH  14  17
ENDBRANCH   7  13
ENDBRANCH   4   6
ENDBRANCH   3   4
ENDBRANCH   2   3
ENDBRANCH   1   2
BRANCH   1  27
ATOM     27  O   UNL A   1      32.067  30.651  26.864  1.00  0.00    -0.374 OA
BRANCH  27  28
ATOM     28  C   UNL A   1      31.397  31.874  26.561  1.00  0.00     0.202 C 
BRANCH  28  29
ATOM     29  C   UNL A   1      32.084  33.179  26.974  1.00  0.00     0.261 C 
BRANCH  29  30
ATOM     30  O   UNL A   1      33.039  32.976  28.027  1.00  0.00    -0.460 OA
BRANCH  30  31
ATOM     31  C   UNL A   1      34.130  33.769  27.950  1.00  0.00     0.338 C 
ATOM     32  O   UNL A   1      34.164  34.982  27.786  1.00  0.00    -0.246 OA
BRANCH  31  33
ATOM     33  C   UNL A   1      35.332  32.987  28.278  1.00  0.00     0.060 A 
ATOM     34  C   UNL A   1      35.170  31.611  28.492  1.00  0.00     0.016 A 
ATOM     35  C   UNL A   1      36.581  33.593  28.436  1.00  0.00     0.016 A 
ATOM     36  C   UNL A   1      36.245  30.842  28.924  1.00  0.00     0.010 A 
ATOM     37  C   UNL A   1      37.655  32.824  28.886  1.00  0.00     0.010 A 
ATOM     38  C   UNL A   1      37.478  31.457  29.171  1.00  0.00    -0.014 A 
BRANCH  38  39
ATOM     39  C   UNL A   1      38.517  30.719  29.923  1.00  0.00     0.031 A 
ATOM     40  C   UNL A   1      38.716  31.051  31.374  1.00  0.00     0.074 A 
ATOM     41  C   UNL A   1      39.253  29.764  29.331  1.00  0.00     0.049 A 
ATOM     42  N   UNL A   1      39.603  30.594  32.219  1.00  0.00    -0.248 NA
ATOM     43  C   UNL A   1      37.787  32.038  31.951  1.00  0.00     0.031 C 
ATOM     44  C   UNL A   1      39.110  29.326  27.945  1.00  0.00     0.029 A 
ATOM     45  N   UNL A   1      40.276  28.997  29.826  1.00  0.00    -0.354 N 
ATOM     46  C   UNL A   1      39.345  31.242  33.420  1.00  0.00     0.074 A 
ATOM     47  C   UNL A   1      38.237  32.143  33.191  1.00  0.00     0.031 C 
ATOM     48  C   UNL A   1      40.028  28.377  27.693  1.00  0.00     0.029 A 
ATOM     49  C   UNL A   1      40.840  28.167  28.890  1.00  0.00     0.049 A 
ATOM     50  H   UNL A   1      40.576  29.039  30.762  1.00  0.00     0.167 HD
ATOM     51  C   UNL A   1      39.975  31.094  34.609  1.00  0.00     0.037 A 
ATOM     52  C   UNL A   1      41.907  27.352  28.990  1.00  0.00     0.037 A 
ATOM     53  C   UNL A   1      41.078  30.196  34.828  1.00  0.00     0.049 A 
ATOM     54  C   UNL A   1      42.636  27.255  30.305  1.00  0.00     0.074 A 
ATOM     55  C   UNL A   1      41.785  29.965  35.993  1.00  0.00     0.029 A 
ATOM     56  N   UNL A   1      41.637  29.385  33.850  1.00  0.00    -0.354 N 
ATOM     57  N   UNL A   1      42.383  27.861  31.441  1.00  0.00    -0.248 NA
ATOM     58  C   UNL A   1      43.801  26.359  30.353  1.00  0.00     0.031 C 
ATOM     59  C   UNL A   1      42.802  29.045  35.710  1.00  0.00     0.029 A 
ATOM     60  C   UNL A   1      42.693  28.666  34.381  1.00  0.00     0.049 A 
ATOM     61  H   UNL A   1      41.326  29.330  32.918  1.00  0.00     0.167 HD
ATOM     62  C   UNL A   1      43.331  27.398  32.343  1.00  0.00     0.074 A 
ATOM     63  C   UNL A   1      44.163  26.455  31.624  1.00  0.00     0.031 C 
ATOM     64  C   UNL A   1      43.498  27.721  33.649  1.00  0.00     0.037 A 
BRANCH  51  65
ATOM     65  C   UNL A   1      39.506  31.945  35.750  1.00  0.00     0.064 A 
ATOM     66  C   UNL A   1      40.042  33.219  35.990  1.00  0.00     0.173 A 
ATOM     67  C   UNL A   1      38.494  31.487  36.607  1.00  0.00     0.173 A 
ATOM     68  F   UNL A   1      41.024  33.696  35.210  1.00  0.00    -0.203 F 
ATOM     69  C   UNL A   1      39.601  33.992  37.062  1.00  0.00     0.198 A 
ATOM     70  C   UNL A   1      38.036  32.273  37.660  1.00  0.00     0.198 A 
ATOM     71  F   UNL A   1      37.948  30.276  36.422  1.00  0.00    -0.203 F 
ATOM     72  F   UNL A   1      40.161  35.186  37.301  1.00  0.00    -0.200 F 
ATOM     73  C   UNL A   1      38.595  33.521  37.892  1.00  0.00     0.200 A 
ATOM     74  F   UNL A   1      37.058  31.820  38.456  1.00  0.00    -0.200 F 
ATOM     75  F   UNL A   1      38.168  34.267  38.921  1.00  0.00    -0.200 F 
ENDBRANCH  51  65
BRANCH  52  76
ATOM     76  C   UNL A   1      42.358  26.572  27.809  1.00  0.00     0.064 A 
ATOM     77  C   UNL A   1      43.320  27.084  26.928  1.00  0.00     0.173 A 
ATOM     78  C   UNL A   1      41.828  25.304  27.531  1.00  0.00     0.173 A 
ATOM     79  F   UNL A   1      43.839  28.303  27.138  1.00  0.00    -0.203 F 
ATOM     80  C   UNL A   1      43.725  26.364  25.806  1.00  0.00     0.198 A 
ATOM     81  C   UNL A   1      42.253  24.573  26.423  1.00  0.00     0.198 A 
ATOM     82  F   UNL A   1      40.903  24.769  28.341  1.00  0.00    -0.203 F 
ATOM     83  F   UNL A   1      44.615  26.895  24.957  1.00  0.00    -0.200 F 
ATOM     84  C   UNL A   1      43.194  25.107  25.557  1.00  0.00     0.200 A 
ATOM     85  F   UNL A   1      41.747  23.354  26.193  1.00  0.00    -0.200 F 
ATOM     86  F   UNL A   1      43.587  24.413  24.479  1.00  0.00    -0.200 F 
ENDBRANCH  52  76
BRANCH  64  87
ATOM     87  C   UNL A   1      44.590  27.017  34.400  1.00  0.00     0.064 A 
ATOM     88  C   UNL A   1      45.871  27.570  34.530  1.00  0.00     0.173 A 
ATOM     89  C   UNL A   1      44.330  25.797  35.045  1.00  0.00     0.173 A 
ATOM     90  F   UNL A   1      46.172  28.727  33.920  1.00  0.00    -0.203 F 
ATOM     91  C   UNL A   1      46.861  26.916  35.260  1.00  0.00     0.198 A 
ATOM     92  C   UNL A   1      45.313  25.161  35.797  1.00  0.00     0.198 A 
ATOM     93  F   UNL A   1      43.117  25.231  34.957  1.00  0.00    -0.203 F 
ATOM     94  F   UNL A   1      48.091  27.442  35.336  1.00  0.00    -0.200 F 
ATOM     95  C   UNL A   1      46.579  25.718  35.899  1.00  0.00     0.200 A 
ATOM     96  F   UNL A   1      45.034  24.010  36.425  1.00  0.00    -0.200 F 
ATOM     97  F   UNL A   1      47.530  25.096  36.610  1.00  0.00    -0.200 F 
ENDBRANCH  64  87
ENDBRANCH  38  39
ENDBRANCH  31  33
ENDBRANCH  30  31
ENDBRANCH  29  30
ENDBRANCH  28  29
ENDBRANCH  27  28
ENDBRANCH   1  27
TORSDOF 17
ENDMDL
MODEL 2
REMARK VINA RESULT:     -12.1      5.119     10.674
REMARK SMILES Cc1cc(C(=O)NNC(=O)[C@H]2[C@@H](C(=O)OCCOCCOC(=O)c3ccc(-c4c5nc(c(-c6c(F)c(F)c(F)c(F)c6F)c6ccc([nH]6)c(-c6c(F)c(F)c(F)c(F)c6F)c6nc(c(-c7c(F)c(F)c(F)c(F)c7F)c7ccc4[nH]7)C=C6)C=C5)cc3)[C@@H]3C=C[C@H]2C3)cs1
REMARK SMILES IDX 17 1 16 2 15 3 13 4 14 5 12 6 11 7 90 8 87 9 89 10 91 11
REMARK SMILES IDX 88 12 9 13 8 14 10 16 7 17 5 18 6 19 4 21 1 22 2 23 3 24
REMARK SMILES IDX 93 25 92 26 18 27 19 28 20 29 21 30 22 31 23 32 24 33 25 34
REMARK SMILES IDX 86 35 26 36 85 37 27 38 28 39 29 40 79 41 30 42 84 43 78 44
REMARK SMILES IDX 80 45 31 46 83 47 77 48 76 49 32 51 64 52 44 53 63 54 45 55
REMARK SMILES IDX 48 56 62 57 81 58 46 59 47 60 61 62 82 63 49 64 33 65 34 66
REMARK SMILES IDX 42 67 35 68 36 69 40 70 43 71 37 72 38 73 41 74 39 75 65 76
REMARK SMILES IDX 66 77 74 78 67 79 68 80 72 81 75 82 69 83 70 84 73 85 71 86
REMARK SMILES IDX 50 87 51 88 59 89 52 90 53 91 57 92 60 93 54 94 55 95 58 96
REMARK SMILES IDX 56 97
REMARK H PARENT 8 15 7 20 80 50 48 61
REMARK Flexibility Score: inf
ROOT
ATOM      1  C   UNL A   1      36.984  21.973  24.291  1.00  0.00     0.202 C 
ENDROOT
BRANCH   1   2
ATOM      2  C   UNL A   1      36.656  23.420  24.661  1.00  0.00     0.261 C 
BRANCH   2   3
ATOM      3  O   UNL A   1      35.240  23.643  24.789  1.00  0.00    -0.463 OA
BRANCH   3   4
ATOM      4  C   UNL A   1      34.626  24.055  23.648  1.00  0.00     0.310 C 
ATOM      5  O   UNL A   1      34.987  23.748  22.520  1.00  0.00    -0.252 OA
BRANCH   4   6
ATOM      6  C   UNL A   1      33.450  24.973  23.955  1.00  0.00     0.119 C 
ATOM      7  C   UNL A   1      32.038  24.313  23.723  1.00  0.00     0.102 C 
ATOM      8  C   UNL A   1      31.559  25.037  22.433  1.00  0.00     0.025 C 
ATOM      9  C   UNL A   1      33.456  26.125  22.926  1.00  0.00     0.027 C 
ATOM     10  C   UNL A   1      31.175  26.436  22.880  1.00  0.00    -0.027 C 
ATOM     11  C   UNL A   1      32.851  25.421  21.705  1.00  0.00     0.017 C 
ATOM     12  C   UNL A   1      32.310  27.072  23.213  1.00  0.00    -0.027 C 
BRANCH   7  13
ATOM     13  C   UNL A   1      32.078  22.793  23.817  1.00  0.00     0.242 C 
ATOM     14  N   UNL A   1      31.805  22.188  25.014  1.00  0.00    -0.267 N 
ATOM     15  H   UNL A   1      30.915  21.817  25.213  1.00  0.00     0.191 HD
ATOM     16  O   UNL A   1      32.272  22.115  22.807  1.00  0.00    -0.273 OA
BRANCH  14  17
ATOM     17  N   UNL A   1      32.846  22.123  25.940  1.00  0.00    -0.263 N 
ATOM     18  C   UNL A   1      33.644  21.036  26.250  1.00  0.00     0.270 C 
ATOM     19  O   UNL A   1      34.460  21.209  27.159  1.00  0.00    -0.267 OA
ATOM     20  H   UNL A   1      33.037  22.952  26.434  1.00  0.00     0.191 HD
BRANCH  18  21
ATOM     21  C   UNL A   1      33.515  19.725  25.596  1.00  0.00     0.052 A 
ATOM     22  C   UNL A   1      34.101  16.965  23.024  1.00  0.00     0.056 C 
ATOM     23  C   UNL A   1      33.718  17.868  24.149  1.00  0.00     0.002 A 
ATOM     24  C   UNL A   1      34.145  19.155  24.431  1.00  0.00     0.029 A 
ATOM     25  S   UNL A   1      32.613  17.301  25.320  1.00  0.00    -0.148 S 
ATOM     26  C   UNL A   1      32.690  18.769  26.177  1.00  0.00     0.079 A 
ENDBRANCH  18  21
ENDBRANCH  14  17
ENDBRANCH   7  13
ENDBRANCH   4   6
ENDBRANCH   3   4
ENDBRANCH   2   3
ENDBRANCH   1   2
BRANCH   1  27
ATOM     27  O   UNL A   1      37.304  21.079  25.355  1.00  0.00    -0.374 OA
BRANCH  27  28
ATOM     28  C   UNL A   1      37.834  19.801  25.003  1.00  0.00     0.202 C 
BRANCH  28  29
ATOM     29  C   UNL A   1      39.177  19.398  25.619  1.00  0.00     0.261 C 
BRANCH  29  30
ATOM     30  O   UNL A   1      40.053  20.523  25.787  1.00  0.00    -0.460 OA
BRANCH  30  31
ATOM     31  C   UNL A   1      40.745  20.521  26.947  1.00  0.00     0.338 C 
ATOM     32  O   UNL A   1      41.295  19.571  27.490  1.00  0.00    -0.246 OA
BRANCH  31  33
ATOM     33  C   UNL A   1      40.919  21.903  27.421  1.00  0.00     0.060 A 
ATOM     34  C   UNL A   1      40.155  22.900  26.797  1.00  0.00     0.016 A 
ATOM     35  C   UNL A   1      41.852  22.229  28.407  1.00  0.00     0.016 A 
ATOM     36  C   UNL A   1      40.364  24.238  27.115  1.00  0.00     0.010 A 
ATOM     37  C   UNL A   1      42.073  23.573  28.713  1.00  0.00     0.010 A 
ATOM     38  C   UNL A   1      41.360  24.581  28.037  1.00  0.00    -0.014 A 
BRANCH  38  39
ATOM     39  C   UNL A   1      41.797  25.990  28.139  1.00  0.00     0.031 A 
ATOM     40  C   UNL A   1      43.134  26.364  27.565  1.00  0.00     0.074 A 
ATOM     41  C   UNL A   1      41.015  26.918  28.714  1.00  0.00     0.049 A 
ATOM     42  N   UNL A   1      43.762  27.510  27.592  1.00  0.00    -0.248 NA
ATOM     43  C   UNL A   1      43.865  25.293  26.866  1.00  0.00     0.031 C 
ATOM     44  C   UNL A   1      39.680  26.678  29.257  1.00  0.00     0.029 A 
ATOM     45  N   UNL A   1      41.240  28.252  28.941  1.00  0.00    -0.354 N 
ATOM     46  C   UNL A   1      44.960  27.297  26.925  1.00  0.00     0.074 A 
ATOM     47  C   UNL A   1      44.987  25.907  26.526  1.00  0.00     0.031 C 
ATOM     48  C   UNL A   1      39.209  27.826  29.774  1.00  0.00     0.029 A 
ATOM     49  C   UNL A   1      40.223  28.869  29.626  1.00  0.00     0.049 A 
ATOM     50  H   UNL A   1      42.052  28.720  28.642  1.00  0.00     0.167 HD
ATOM     51  C   UNL A   1      45.949  28.184  26.665  1.00  0.00     0.037 A 
ATOM     52  C   UNL A   1      40.139  30.127  30.097  1.00  0.00     0.037 A 
ATOM     53  C   UNL A   1      45.916  29.566  27.068  1.00  0.00     0.049 A 
ATOM     54  C   UNL A   1      41.282  31.080  29.856  1.00  0.00     0.074 A 
ATOM     55  C   UNL A   1      46.861  30.552  26.852  1.00  0.00     0.029 A 
ATOM     56  N   UNL A   1      44.878  30.152  27.778  1.00  0.00    -0.354 N 
ATOM     57  N   UNL A   1      42.409  30.878  29.215  1.00  0.00    -0.248 NA
ATOM     58  C   UNL A   1      41.142  32.437  30.403  1.00  0.00     0.031 C 
ATOM     59  C   UNL A   1      46.414  31.725  27.470  1.00  0.00     0.029 A 
ATOM     60  C   UNL A   1      45.168  31.482  28.027  1.00  0.00     0.049 A 
ATOM     61  H   UNL A   1      44.057  29.689  28.063  1.00  0.00     0.167 HD
ATOM     62  C   UNL A   1      43.095  32.084  29.254  1.00  0.00     0.074 A 
ATOM     63  C   UNL A   1      42.254  33.016  29.976  1.00  0.00     0.031 C 
ATOM     64  C   UNL A   1      44.308  32.395  28.736  1.00  0.00     0.037 A 
BRANCH  51  65
ATOM     65  C   UNL A   1      47.160  27.678  25.941  1.00  0.00     0.064 A 
ATOM     66  C   UNL A   1      48.269  27.163  26.628  1.00  0.00     0.173 A 
ATOM     67  C   UNL A   1      47.205  27.692  24.539  1.00  0.00     0.173 A 
ATOM     68  F   UNL A   1      48.283  27.144  27.969  1.00  0.00    -0.203 F 
ATOM     69  C   UNL A   1      49.391  26.707  25.938  1.00  0.00     0.198 A 
ATOM     70  C   UNL A   1      48.315  27.210  23.852  1.00  0.00     0.198 A 
ATOM     71  F   UNL A   1      46.171  28.174  23.834  1.00  0.00    -0.203 F 
ATOM     72  F   UNL A   1      50.458  26.263  26.616  1.00  0.00    -0.200 F 
ATOM     73  C   UNL A   1      49.410  26.724  24.552  1.00  0.00     0.200 A 
ATOM     74  F   UNL A   1      48.329  27.220  22.512  1.00  0.00    -0.200 F 
ATOM     75  F   UNL A   1      50.487  26.281  23.889  1.00  0.00    -0.200 F 
ENDBRANCH  51  65
BRANCH  52  76
ATOM     76  C   UNL A   1      38.936  30.557  30.854  1.00  0.00     0.064 A 
ATOM     77  C   UNL A   1      37.820  31.092  30.196  1.00  0.00     0.173 A 
ATOM     78  C   UNL A   1      38.881  30.452  32.252  1.00  0.00     0.173 A 
ATOM     79  F   UNL A   1      37.834  31.235  28.863  1.00  0.00    -0.203 F 
ATOM     80  C   UNL A   1      36.701  31.519  30.909  1.00  0.00     0.198 A 
ATOM     81  C   UNL A   1      37.752  30.855  32.960  1.00  0.00     0.198 A 
ATOM     82  F   UNL A   1      39.923  29.948  32.929  1.00  0.00    -0.203 F 
ATOM     83  F   UNL A   1      35.665  32.067  30.259  1.00  0.00    -0.200 F 
ATOM     84  C   UNL A   1      36.666  31.396  32.290  1.00  0.00     0.200 A 
ATOM     85  F   UNL A   1      37.716  30.723  34.294  1.00  0.00    -0.200 F 
ATOM     86  F   UNL A   1      35.588  31.804  32.974  1.00  0.00    -0.200 F 
ENDBRANCH  52  76
BRANCH  64  87
ATOM     87  C   UNL A   1      44.782  33.811  28.889  1.00  0.00     0.064 A 
ATOM     88  C   UNL A   1      45.582  34.208  29.969  1.00  0.00     0.173 A 
ATOM     89  C   UNL A   1      44.475  34.768  27.909  1.00  0.00     0.173 A 
ATOM     90  F   UNL A   1      45.891  33.333  30.938  1.00  0.00    -0.203 F 
ATOM     91  C   UNL A   1      46.039  35.519  30.075  1.00  0.00     0.198 A 
ATOM     92  C   UNL A   1      44.957  36.069  28.004  1.00  0.00     0.198 A 
ATOM     93  F   UNL A   1      43.719  34.434  26.852  1.00  0.00    -0.203 F 
ATOM     94  F   UNL A   1      46.768  35.888  31.137  1.00  0.00    -0.200 F 
ATOM     95  C   UNL A   1      45.734  36.446  29.089  1.00  0.00     0.200 A 
ATOM     96  F   UNL A   1      44.672  36.960  27.043  1.00  0.00    -0.200 F 
ATOM     97  F   UNL A   1      46.184  37.704  29.187  1.00  0.00    -0.200 F 
ENDBRANCH  64  87
ENDBRANCH  38  39
ENDBRANCH  31  33
ENDBRANCH  30  31
ENDBRANCH  29  30
ENDBRANCH  28  29
ENDBRANCH  27  28
ENDBRANCH   1  27
TORSDOF 17
ENDMDL
MODEL 3
REMARK VINA RESULT:     -12.0      4.685      7.035
REMARK SMILES Cc1cc(C(=O)NNC(=O)[C@H]2[C@@H](C(=O)OCCOCCOC(=O)c3ccc(-c4c5nc(c(-c6c(F)c(F)c(F)c(F)c6F)c6ccc([nH]6)c(-c6c(F)c(F)c(F)c(F)c6F)c6nc(c(-c7c(F)c(F)c(F)c(F)c7F)c7ccc4[nH]7)C=C6)C=C5)cc3)[C@@H]3C=C[C@H]2C3)cs1
REMARK SMILES IDX 17 1 16 2 15 3 13 4 14 5 12 6 11 7 90 8 87 9 89 10 91 11
REMARK SMILES IDX 88 12 9 13 8 14 10 16 7 17 5 18 6 19 4 21 1 22 2 23 3 24
REMARK SMILES IDX 93 25 92 26 18 27 19 28 20 29 21 30 22 31 23 32 24 33 25 34
REMARK SMILES IDX 86 35 26 36 85 37 27 38 28 39 29 40 79 41 30 42 84 43 78 44
REMARK SMILES IDX 80 45 31 46 83 47 77 48 76 49 32 51 64 52 44 53 63 54 45 55
REMARK SMILES IDX 48 56 62 57 81 58 46 59 47 60 61 62 82 63 49 64 33 65 34 66
REMARK SMILES IDX 42 67 35 68 36 69 40 70 43 71 37 72 38 73 41 74 39 75 65 76
REMARK SMILES IDX 66 77 74 78 67 79 68 80 72 81 75 82 69 83 70 84 73 85 71 86
REMARK SMILES IDX 50 87 51 88 59 89 52 90 53 91 57 92 60 93 54 94 55 95 58 96
REMARK SMILES IDX 56 97
REMARK H PARENT 8 15 7 20 80 50 48 61
REMARK Flexibility Score: inf
ROOT
ATOM      1  C   UNL A   1      33.428  31.480  27.635  1.00  0.00     0.202 C 
ENDROOT
BRANCH   1   2
ATOM      2  C   UNL A   1      33.762  30.104  27.057  1.00  0.00     0.261 C 
BRANCH   2   3
ATOM      3  O   UNL A   1      33.436  30.006  25.659  1.00  0.00    -0.463 OA
BRANCH   3   4
ATOM      4  C   UNL A   1      33.047  28.766  25.254  1.00  0.00     0.310 C 
ATOM      5  O   UNL A   1      33.784  27.790  25.215  1.00  0.00    -0.252 OA
BRANCH   4   6
ATOM      6  C   UNL A   1      31.586  28.759  24.825  1.00  0.00     0.119 C 
ATOM      7  C   UNL A   1      30.748  27.560  25.412  1.00  0.00     0.102 C 
ATOM      8  C   UNL A   1      30.552  26.667  24.155  1.00  0.00     0.025 C 
ATOM      9  C   UNL A   1      31.531  28.496  23.304  1.00  0.00     0.027 C 
ATOM     10  C   UNL A   1      29.514  27.385  23.312  1.00  0.00    -0.027 C 
ATOM     11  C   UNL A   1      31.762  26.980  23.268  1.00  0.00     0.017 C 
ATOM     12  C   UNL A   1      30.091  28.502  22.837  1.00  0.00    -0.027 C 
BRANCH   7  13
ATOM     13  C   UNL A   1      31.339  27.005  26.701  1.00  0.00     0.242 C 
ATOM     14  N   UNL A   1      31.973  25.792  26.681  1.00  0.00    -0.267 N 
ATOM     15  H   UNL A   1      32.954  25.725  26.627  1.00  0.00     0.191 HD
ATOM     16  O   UNL A   1      31.319  27.680  27.732  1.00  0.00    -0.273 OA
BRANCH  14  17
ATOM     17  N   UNL A   1      31.165  24.657  26.740  1.00  0.00    -0.263 N 
ATOM     18  C   UNL A   1      31.477  23.369  26.346  1.00  0.00     0.270 C 
ATOM     19  O   UNL A   1      30.566  22.542  26.434  1.00  0.00    -0.267 OA
ATOM     20  H   UNL A   1      30.262  24.788  27.107  1.00  0.00     0.191 HD
BRANCH  18  21
ATOM     21  C   UNL A   1      32.787  22.985  25.796  1.00  0.00     0.052 A 
ATOM     22  C   UNL A   1      35.808  23.021  23.462  1.00  0.00     0.056 C 
ATOM     23  C   UNL A   1      34.759  22.821  24.504  1.00  0.00     0.002 A 
ATOM     24  C   UNL A   1      33.562  23.493  24.691  1.00  0.00     0.029 A 
ATOM     25  S   UNL A   1      35.000  21.623  25.696  1.00  0.00    -0.148 S 
ATOM     26  C   UNL A   1      33.512  21.987  26.436  1.00  0.00     0.079 A 
ENDBRANCH  18  21
ENDBRANCH  14  17
ENDBRANCH   7  13
ENDBRANCH   4   6
ENDBRANCH   3   4
ENDBRANCH   2   3
ENDBRANCH   1   2
BRANCH   1  27
ATOM     27  O   UNL A   1      34.520  32.329  27.985  1.00  0.00    -0.374 OA
BRANCH  27  28
ATOM     28  C   UNL A   1      34.217  33.534  28.686  1.00  0.00     0.202 C 
BRANCH  28  29
ATOM     29  C   UNL A   1      34.449  33.550  30.200  1.00  0.00     0.261 C 
BRANCH  29  30
ATOM     30  O   UNL A   1      34.430  32.229  30.762  1.00  0.00    -0.460 OA
BRANCH  30  31
ATOM     31  C   UNL A   1      35.356  32.020  31.723  1.00  0.00     0.338 C 
ATOM     32  O   UNL A   1      35.300  32.347  32.902  1.00  0.00    -0.246 OA
BRANCH  31  33
ATOM     33  C   UNL A   1      36.424  31.153  31.201  1.00  0.00     0.060 A 
ATOM     34  C   UNL A   1      37.495  30.859  32.056  1.00  0.00     0.016 A 
ATOM     35  C   UNL A   1      36.412  30.688  29.884  1.00  0.00     0.016 A 
ATOM     36  C   UNL A   1      38.591  30.149  31.580  1.00  0.00     0.010 A 
ATOM     37  C   UNL A   1      37.521  29.989  29.402  1.00  0.00     0.010 A 
ATOM     38  C   UNL A   1      38.629  29.755  30.237  1.00  0.00    -0.014 A 
BRANCH  38  39
ATOM     39  C   UNL A   1      39.906  29.289  29.655  1.00  0.00     0.031 A 
ATOM     40  C   UNL A   1      41.041  30.268  29.550  1.00  0.00     0.074 A 
ATOM     41  C   UNL A   1      40.058  28.019  29.246  1.00  0.00     0.049 A 
ATOM     42  N   UNL A   1      42.225  30.117  29.018  1.00  0.00    -0.248 NA
ATOM     43  C   UNL A   1      40.803  31.605  30.123  1.00  0.00     0.031 C 
ATOM     44  C   UNL A   1      39.043  26.973  29.348  1.00  0.00     0.029 A 
ATOM     45  N   UNL A   1      41.128  27.398  28.654  1.00  0.00    -0.354 N 
ATOM     46  C   UNL A   1      42.868  31.337  29.183  1.00  0.00     0.074 A 
ATOM     47  C   UNL A   1      41.936  32.227  29.840  1.00  0.00     0.031 C 
ATOM     48  C   UNL A   1      39.534  25.839  28.817  1.00  0.00     0.029 A 
ATOM     49  C   UNL A   1      40.882  26.092  28.311  1.00  0.00     0.049 A 
ATOM     50  H   UNL A   1      41.989  27.847  28.492  1.00  0.00     0.167 HD
ATOM     51  C   UNL A   1      44.126  31.682  28.821  1.00  0.00     0.037 A 
ATOM     52  C   UNL A   1      41.654  25.216  27.642  1.00  0.00     0.037 A 
ATOM     53  C   UNL A   1      45.046  30.790  28.165  1.00  0.00     0.049 A 
ATOM     54  C   UNL A   1      43.026  25.643  27.187  1.00  0.00     0.074 A 
ATOM     55  C   UNL A   1      46.345  31.035  27.760  1.00  0.00     0.029 A 
ATOM     56  N   UNL A   1      44.755  29.480  27.814  1.00  0.00    -0.354 N 
ATOM     57  N   UNL A   1      43.634  26.793  27.355  1.00  0.00    -0.248 NA
ATOM     58  C   UNL A   1      43.820  24.649  26.451  1.00  0.00     0.031 C 
ATOM     59  C   UNL A   1      46.826  29.885  27.123  1.00  0.00     0.029 A 
ATOM     60  C   UNL A   1      45.844  28.909  27.179  1.00  0.00     0.049 A 
ATOM     61  H   UNL A   1      43.901  29.024  27.992  1.00  0.00     0.167 HD
ATOM     62  C   UNL A   1      44.888  26.653  26.776  1.00  0.00     0.074 A 
ATOM     63  C   UNL A   1      44.957  25.302  26.258  1.00  0.00     0.031 C 
ATOM     64  C   UNL A   1      45.894  27.557  26.684  1.00  0.00     0.037 A 
BRANCH  51  65
ATOM     65  C   UNL A   1      44.564  33.088  29.098  1.00  0.00     0.064 A 
ATOM     66  C   UNL A   1      44.354  34.122  28.173  1.00  0.00     0.173 A 
ATOM     67  C   UNL A   1      45.188  33.411  30.313  1.00  0.00     0.173 A 
ATOM     68  F   UNL A   1      43.778  33.862  26.990  1.00  0.00    -0.203 F 
ATOM     69  C   UNL A   1      44.778  35.422  28.443  1.00  0.00     0.198 A 
ATOM     70  C   UNL A   1      45.585  34.715  30.591  1.00  0.00     0.198 A 
ATOM     71  F   UNL A   1      45.412  32.459  31.231  1.00  0.00    -0.203 F 
ATOM     72  F   UNL A   1      44.611  36.384  27.526  1.00  0.00    -0.200 F 
ATOM     73  C   UNL A   1      45.386  35.718  29.653  1.00  0.00     0.200 A 
ATOM     74  F   UNL A   1      46.165  35.002  31.764  1.00  0.00    -0.200 F 
ATOM     75  F   UNL A   1      45.790  36.970  29.914  1.00  0.00    -0.200 F 
ENDBRANCH  51  65
BRANCH  52  76
ATOM     76  C   UNL A   1      41.145  23.851  27.350  1.00  0.00     0.064 A 
ATOM     77  C   UNL A   1      41.733  22.720  27.932  1.00  0.00     0.173 A 
ATOM     78  C   UNL A   1      40.068  23.649  26.475  1.00  0.00     0.173 A 
ATOM     79  F   UNL A   1      42.782  22.860  28.756  1.00  0.00    -0.203 F 
ATOM     80  C   UNL A   1      41.273  21.437  27.638  1.00  0.00     0.198 A 
ATOM     81  C   UNL A   1      39.591  22.369  26.203  1.00  0.00     0.198 A 
ATOM     82  F   UNL A   1      39.470  24.698  25.891  1.00  0.00    -0.203 F 
ATOM     83  F   UNL A   1      41.881  20.371  28.175  1.00  0.00    -0.200 F 
ATOM     84  C   UNL A   1      40.199  21.264  26.778  1.00  0.00     0.200 A 
ATOM     85  F   UNL A   1      38.545  22.205  25.381  1.00  0.00    -0.200 F 
ATOM     86  F   UNL A   1      39.754  20.030  26.499  1.00  0.00    -0.200 F 
ENDBRANCH  52  76
BRANCH  64  87
ATOM     87  C   UNL A   1      47.173  27.104  26.041  1.00  0.00     0.064 A 
ATOM     88  C   UNL A   1      47.435  27.331  24.683  1.00  0.00     0.173 A 
ATOM     89  C   UNL A   1      48.170  26.484  26.810  1.00  0.00     0.173 A 
ATOM     90  F   UNL A   1      46.508  27.908  23.903  1.00  0.00    -0.203 F 
ATOM     91  C   UNL A   1      48.642  26.934  24.113  1.00  0.00     0.198 A 
ATOM     92  C   UNL A   1      49.385  26.114  26.244  1.00  0.00     0.198 A 
ATOM     93  F   UNL A   1      47.968  26.252  28.117  1.00  0.00    -0.203 F 
ATOM     94  F   UNL A   1      48.857  27.123  22.804  1.00  0.00    -0.200 F 
ATOM     95  C   UNL A   1      49.619  26.334  24.895  1.00  0.00     0.200 A 
ATOM     96  F   UNL A   1      50.332  25.546  27.005  1.00  0.00    -0.200 F 
ATOM     97  F   UNL A   1      50.783  25.962  24.346  1.00  0.00    -0.200 F 
ENDBRANCH  64  87
ENDBRANCH  38  39
ENDBRANCH  31  33
ENDBRANCH  30  31
ENDBRANCH  29  30
ENDBRANCH  28  29
ENDBRANCH  27  28
ENDBRANCH   1  27
TORSDOF 17
ENDMDL
