MODEL 1
REMARK VINA RESULT:     -11.4      0.000      0.000
REMARK SMILES CC(C)(C)C(=O)NCC(=O)Nc1cc(Cl)ccc1C(=O)OCCOCCOC(=O)c1ccc(-c2c3nc(c(-c4c(F)c(F)c(F)c(F)c4F)c4ccc([nH]4)c(-c4c(F)c(F)c(F)c(F)c4F)c4nc(c(-c5c(F)c(F)c(F)c(F)c5F)c5ccc2[nH]5)C=C4)C=C3)cc1
REMARK SMILES IDX 23 1 22 2 21 3 19 4 20 5 18 6 12 7 13 8 14 9 17 10 15 11
REMARK SMILES IDX 16 12 11 13 9 14 10 15 8 17 7 18 5 19 6 20 2 22 1 23 3 24
REMARK SMILES IDX 4 25 24 26 25 27 26 28 27 29 28 30 29 31 30 32 31 33 92 34
REMARK SMILES IDX 32 35 91 36 33 37 34 38 35 39 85 40 36 41 90 42 84 43 86 44
REMARK SMILES IDX 37 45 89 46 83 47 82 48 38 50 70 51 50 52 69 53 51 54 54 55
REMARK SMILES IDX 68 56 87 57 52 58 53 59 67 61 88 62 55 63 39 64 40 65 48 66
REMARK SMILES IDX 41 67 42 68 46 69 49 70 43 71 44 72 47 73 45 74 71 75 72 76
REMARK SMILES IDX 80 77 73 78 74 79 78 80 81 81 75 82 76 83 79 84 77 85 56 86
REMARK SMILES IDX 57 87 65 88 58 89 59 90 63 91 66 92 60 93 61 94 64 95 62 96
REMARK H PARENT 11 16 7 21 86 49 54 60
REMARK Flexibility Score: inf
ROOT
ATOM      1  C   UNL A   1      40.477  20.926  26.667  1.00  0.00     0.202 C 
ENDROOT
BRANCH   1   2
ATOM      2  C   UNL A   1      39.472  21.992  26.228  1.00  0.00     0.261 C 
BRANCH   2   3
ATOM      3  O   UNL A   1      38.316  21.407  25.601  1.00  0.00    -0.460 OA
BRANCH   3   4
ATOM      4  C   UNL A   1      37.297  22.278  25.401  1.00  0.00     0.340 C 
ATOM      5  O   UNL A   1      37.413  23.492  25.313  1.00  0.00    -0.246 OA
BRANCH   4   6
ATOM      6  C   UNL A   1      35.971  21.608  25.265  1.00  0.00     0.083 A 
ATOM      7  C   UNL A   1      34.699  22.218  25.370  1.00  0.00     0.057 A 
ATOM      8  C   UNL A   1      33.590  21.481  24.946  1.00  0.00     0.047 A 
ATOM      9  C   UNL A   1      33.697  20.122  24.635  1.00  0.00     0.043 A 
ATOM     10  C   UNL A   1      36.056  20.225  25.002  1.00  0.00     0.019 A 
ATOM     11  Cl  UNL A   1      32.313  19.238  24.127  1.00  0.00    -0.084 Cl
ATOM     12  C   UNL A   1      34.919  19.476  24.720  1.00  0.00     0.021 A 
BRANCH   7  13
ATOM     13  N   UNL A   1      34.565  23.545  25.814  1.00  0.00    -0.324 N 
ATOM     14  C   UNL A   1      34.271  24.740  25.221  1.00  0.00     0.243 C 
ATOM     15  O   UNL A   1      34.339  25.729  25.970  1.00  0.00    -0.273 OA
ATOM     16  H   UNL A   1      34.721  23.636  26.782  1.00  0.00     0.170 HD
BRANCH  14  17
ATOM     17  C   UNL A   1      33.572  24.930  23.850  1.00  0.00     0.216 C 
BRANCH  17  18
ATOM     18  N   UNL A   1      33.299  26.231  23.283  1.00  0.00    -0.347 N 
ATOM     19  C   UNL A   1      32.235  27.068  23.296  1.00  0.00     0.225 C 
ATOM     20  O   UNL A   1      32.433  28.151  22.733  1.00  0.00    -0.275 OA
ATOM     21  H   UNL A   1      34.060  26.589  22.771  1.00  0.00     0.164 HD
BRANCH  19  22
ATOM     22  C   UNL A   1      30.901  26.785  24.015  1.00  0.00     0.041 C 
ATOM     23  C   UNL A   1      29.859  27.803  23.489  1.00  0.00     0.021 C 
ATOM     24  C   UNL A   1      31.105  27.035  25.514  1.00  0.00     0.021 C 
ATOM     25  C   UNL A   1      30.297  25.396  23.778  1.00  0.00     0.021 C 
ENDBRANCH  19  22
ENDBRANCH  17  18
ENDBRANCH  14  17
ENDBRANCH   7  13
ENDBRANCH   4   6
ENDBRANCH   3   4
ENDBRANCH   2   3
ENDBRANCH   1   2
BRANCH   1  26
ATOM     26  O   UNL A   1      41.501  20.615  25.726  1.00  0.00    -0.374 OA
BRANCH  26  27
ATOM     27  C   UNL A   1      42.852  20.792  26.161  1.00  0.00     0.202 C 
BRANCH  27  28
ATOM     28  C   UNL A   1      43.729  21.657  25.248  1.00  0.00     0.261 C 
BRANCH  28  29
ATOM     29  O   UNL A   1      43.041  22.863  24.861  1.00  0.00    -0.460 OA
BRANCH  29  30
ATOM     30  C   UNL A   1      43.756  24.004  24.999  1.00  0.00     0.338 C 
ATOM     31  O   UNL A   1      44.723  24.357  24.336  1.00  0.00    -0.246 OA
BRANCH  30  32
ATOM     32  C   UNL A   1      43.086  24.904  25.956  1.00  0.00     0.060 A 
ATOM     33  C   UNL A   1      43.576  26.213  26.065  1.00  0.00     0.016 A 
ATOM     34  C   UNL A   1      42.031  24.474  26.763  1.00  0.00     0.016 A 
ATOM     35  C   UNL A   1      43.042  27.084  27.012  1.00  0.00     0.010 A 
ATOM     36  C   UNL A   1      41.504  25.346  27.722  1.00  0.00     0.010 A 
ATOM     37  C   UNL A   1      42.026  26.644  27.871  1.00  0.00    -0.014 A 
BRANCH  37  38
ATOM     38  C   UNL A   1      41.599  27.500  29.004  1.00  0.00     0.031 A 
ATOM     39  C   UNL A   1      42.362  27.437  30.296  1.00  0.00     0.074 A 
ATOM     40  C   UNL A   1      40.556  28.338  28.875  1.00  0.00     0.049 A 
ATOM     41  N   UNL A   1      42.136  28.056  31.427  1.00  0.00    -0.248 NA
ATOM     42  C   UNL A   1      43.541  26.556  30.317  1.00  0.00     0.031 C 
ATOM     43  C   UNL A   1      39.762  28.515  27.662  1.00  0.00     0.029 A 
ATOM     44  N   UNL A   1      39.981  29.191  29.784  1.00  0.00    -0.354 N 
ATOM     45  C   UNL A   1      43.138  27.637  32.294  1.00  0.00     0.074 A 
ATOM     46  C   UNL A   1      43.957  26.691  31.568  1.00  0.00     0.031 C 
ATOM     47  C   UNL A   1      38.790  29.411  27.905  1.00  0.00     0.029 A 
ATOM     48  C   UNL A   1      38.874  29.841  29.300  1.00  0.00     0.049 A 
ATOM     49  H   UNL A   1      40.329  29.322  30.695  1.00  0.00     0.167 HD
ATOM     50  C   UNL A   1      43.356  28.014  33.577  1.00  0.00     0.037 A 
ATOM     51  C   UNL A   1      38.011  30.668  29.922  1.00  0.00     0.037 A 
ATOM     52  C   UNL A   1      42.537  28.954  34.297  1.00  0.00     0.049 A 
ATOM     53  C   UNL A   1      38.232  31.014  31.373  1.00  0.00     0.074 A 
ATOM     54  C   UNL A   1      42.688  29.415  35.593  1.00  0.00     0.029 A 
ATOM     55  N   UNL A   1      41.405  29.570  33.783  1.00  0.00    -0.354 N 
ATOM     56  N   UNL A   1      39.195  30.633  32.178  1.00  0.00    -0.248 NA
ATOM     57  C   UNL A   1      37.246  31.905  31.999  1.00  0.00     0.031 C 
ATOM     58  C   UNL A   1      41.620  30.271  35.881  1.00  0.00     0.029 A 
ATOM     59  C   UNL A   1      40.833  30.386  34.746  1.00  0.00     0.049 A 
ATOM     60  H   UNL A   1      41.061  29.447  32.868  1.00  0.00     0.167 HD
ATOM     61  C   UNL A   1      38.945  31.256  33.394  1.00  0.00     0.074 A 
ATOM     62  C   UNL A   1      37.748  32.052  33.217  1.00  0.00     0.031 C 
ATOM     63  C   UNL A   1      39.643  31.176  34.553  1.00  0.00     0.037 A 
BRANCH  50  64
ATOM     64  C   UNL A   1      44.516  27.390  34.294  1.00  0.00     0.064 A 
ATOM     65  C   UNL A   1      44.384  26.182  34.997  1.00  0.00     0.173 A 
ATOM     66  C   UNL A   1      45.785  27.985  34.244  1.00  0.00     0.173 A 
ATOM     67  F   UNL A   1      43.190  25.579  35.086  1.00  0.00    -0.203 F 
ATOM     68  C   UNL A   1      45.477  25.607  35.643  1.00  0.00     0.198 A 
ATOM     69  C   UNL A   1      46.881  27.393  34.868  1.00  0.00     0.198 A 
ATOM     70  F   UNL A   1      45.966  29.138  33.583  1.00  0.00    -0.203 F 
ATOM     71  F   UNL A   1      45.320  24.476  36.344  1.00  0.00    -0.200 F 
ATOM     72  C   UNL A   1      46.724  26.208  35.571  1.00  0.00     0.200 A 
ATOM     73  F   UNL A   1      48.088  27.970  34.787  1.00  0.00    -0.200 F 
ATOM     74  F   UNL A   1      47.776  25.650  36.186  1.00  0.00    -0.200 F 
ENDBRANCH  50  64
BRANCH  51  75
ATOM     75  C   UNL A   1      36.840  31.212  29.184  1.00  0.00     0.064 A 
ATOM     76  C   UNL A   1      36.792  32.555  28.789  1.00  0.00     0.173 A 
ATOM     77  C   UNL A   1      35.736  30.401  28.877  1.00  0.00     0.173 A 
ATOM     78  F   UNL A   1      37.811  33.376  29.085  1.00  0.00    -0.203 F 
ATOM     79  C   UNL A   1      35.678  33.072  28.131  1.00  0.00     0.198 A 
ATOM     80  C   UNL A   1      34.636  30.912  28.194  1.00  0.00     0.198 A 
ATOM     81  F   UNL A   1      35.731  29.109  29.238  1.00  0.00    -0.203 F 
ATOM     82  F   UNL A   1      35.638  34.372  27.809  1.00  0.00    -0.200 F 
ATOM     83  C   UNL A   1      34.605  32.249  27.828  1.00  0.00     0.200 A 
ATOM     84  F   UNL A   1      33.606  30.110  27.893  1.00  0.00    -0.200 F 
ATOM     85  F   UNL A   1      33.534  32.746  27.193  1.00  0.00    -0.200 F 
ENDBRANCH  51  75
BRANCH  63  86
ATOM     86  C   UNL A   1      39.151  31.994  35.712  1.00  0.00     0.064 A 
ATOM     87  C   UNL A   1      38.258  31.469  36.658  1.00  0.00     0.173 A 
ATOM     88  C   UNL A   1      39.610  33.307  35.900  1.00  0.00     0.173 A 
ATOM     89  F   UNL A   1      37.778  30.224  36.516  1.00  0.00    -0.203 F 
ATOM     90  C   UNL A   1      37.823  32.238  37.735  1.00  0.00     0.198 A 
ATOM     91  C   UNL A   1      39.196  34.062  36.994  1.00  0.00     0.198 A 
ATOM     92  F   UNL A   1      40.472  33.854  35.029  1.00  0.00    -0.203 F 
ATOM     93  F   UNL A   1      36.932  31.732  38.600  1.00  0.00    -0.200 F 
ATOM     94  C   UNL A   1      38.297  33.529  37.906  1.00  0.00     0.200 A 
ATOM     95  F   UNL A   1      39.666  35.305  37.165  1.00  0.00    -0.200 F 
ATOM     96  F   UNL A   1      37.881  34.265  38.946  1.00  0.00    -0.200 F 
ENDBRANCH  63  86
ENDBRANCH  37  38
ENDBRANCH  30  32
ENDBRANCH  29  30
ENDBRANCH  28  29
ENDBRANCH  27  28
ENDBRANCH  26  27
ENDBRANCH   1  26
TORSDOF 18
ENDMDL
MODEL 2
REMARK VINA RESULT:     -11.4      3.199      8.535
REMARK SMILES CC(C)(C)C(=O)NCC(=O)Nc1cc(Cl)ccc1C(=O)OCCOCCOC(=O)c1ccc(-c2c3nc(c(-c4c(F)c(F)c(F)c(F)c4F)c4ccc([nH]4)c(-c4c(F)c(F)c(F)c(F)c4F)c4nc(c(-c5c(F)c(F)c(F)c(F)c5F)c5ccc2[nH]5)C=C4)C=C3)cc1
REMARK SMILES IDX 23 1 22 2 21 3 19 4 20 5 18 6 12 7 13 8 14 9 17 10 15 11
REMARK SMILES IDX 16 12 11 13 9 14 10 15 8 17 7 18 5 19 6 20 2 22 1 23 3 24
REMARK SMILES IDX 4 25 24 26 25 27 26 28 27 29 28 30 29 31 30 32 31 33 92 34
REMARK SMILES IDX 32 35 91 36 33 37 34 38 35 39 85 40 36 41 90 42 84 43 86 44
REMARK SMILES IDX 37 45 89 46 83 47 82 48 38 50 70 51 50 52 69 53 51 54 54 55
REMARK SMILES IDX 68 56 87 57 52 58 53 59 67 61 88 62 55 63 39 64 40 65 48 66
REMARK SMILES IDX 41 67 42 68 46 69 49 70 43 71 44 72 47 73 45 74 71 75 72 76
REMARK SMILES IDX 80 77 73 78 74 79 78 80 81 81 75 82 76 83 79 84 77 85 56 86
REMARK SMILES IDX 57 87 65 88 58 89 59 90 63 91 66 92 60 93 61 94 64 95 62 96
REMARK H PARENT 11 16 7 21 86 49 54 60
REMARK Flexibility Score: inf
ROOT
ATOM      1  C   UNL A   1      31.650  27.296  26.154  1.00  0.00     0.202 C 
ENDROOT
BRANCH   1   2
ATOM      2  C   UNL A   1      31.994  25.814  26.001  1.00  0.00     0.261 C 
BRANCH   2   3
ATOM      3  O   UNL A   1      33.287  25.627  25.398  1.00  0.00    -0.460 OA
BRANCH   3   4
ATOM      4  C   UNL A   1      33.371  24.535  24.599  1.00  0.00     0.340 C 
ATOM      5  O   UNL A   1      32.595  24.262  23.694  1.00  0.00    -0.246 OA
BRANCH   4   6
ATOM      6  C   UNL A   1      34.550  23.673  24.905  1.00  0.00     0.083 A 
ATOM      7  C   UNL A   1      34.722  22.316  24.547  1.00  0.00     0.057 A 
ATOM      8  C   UNL A   1      35.999  21.766  24.686  1.00  0.00     0.047 A 
ATOM      9  C   UNL A   1      37.016  22.454  25.355  1.00  0.00     0.043 A 
ATOM     10  C   UNL A   1      35.568  24.334  25.625  1.00  0.00     0.019 A 
ATOM     11  Cl  UNL A   1      38.574  21.747  25.522  1.00  0.00    -0.084 Cl
ATOM     12  C   UNL A   1      36.785  23.715  25.878  1.00  0.00     0.021 A 
BRANCH   7  13
ATOM     13  N   UNL A   1      33.664  21.571  23.998  1.00  0.00    -0.324 N 
ATOM     14  C   UNL A   1      33.031  20.405  24.321  1.00  0.00     0.243 C 
ATOM     15  O   UNL A   1      32.172  20.029  23.505  1.00  0.00    -0.273 OA
ATOM     16  H   UNL A   1      33.289  21.988  23.189  1.00  0.00     0.170 HD
BRANCH  14  17
ATOM     17  C   UNL A   1      33.050  19.710  25.707  1.00  0.00     0.216 C 
BRANCH  17  18
ATOM     18  N   UNL A   1      32.659  18.332  25.898  1.00  0.00    -0.347 N 
ATOM     19  C   UNL A   1      33.168  17.139  25.511  1.00  0.00     0.225 C 
ATOM     20  O   UNL A   1      32.558  16.158  25.952  1.00  0.00    -0.275 OA
ATOM     21  H   UNL A   1      31.836  18.241  26.430  1.00  0.00     0.164 HD
BRANCH  19  22
ATOM     22  C   UNL A   1      34.448  16.958  24.671  1.00  0.00     0.041 C 
ATOM     23  C   UNL A   1      34.022  16.826  23.188  1.00  0.00     0.021 C 
ATOM     24  C   UNL A   1      35.119  15.648  25.099  1.00  0.00     0.021 C 
ATOM     25  C   UNL A   1      35.450  18.118  24.725  1.00  0.00     0.021 C 
ENDBRANCH  19  22
ENDBRANCH  17  18
ENDBRANCH  14  17
ENDBRANCH   7  13
ENDBRANCH   4   6
ENDBRANCH   3   4
ENDBRANCH   2   3
ENDBRANCH   1   2
BRANCH   1  26
ATOM     26  O   UNL A   1      31.350  27.989  24.945  1.00  0.00    -0.374 OA
BRANCH  26  27
ATOM     27  C   UNL A   1      31.359  29.418  25.003  1.00  0.00     0.202 C 
BRANCH  27  28
ATOM     28  C   UNL A   1      32.675  30.049  25.474  1.00  0.00     0.261 C 
BRANCH  28  29
ATOM     29  O   UNL A   1      32.618  30.376  26.876  1.00  0.00    -0.460 OA
BRANCH  29  30
ATOM     30  C   UNL A   1      33.269  31.509  27.231  1.00  0.00     0.338 C 
ATOM     31  O   UNL A   1      32.812  32.644  27.271  1.00  0.00    -0.246 OA
BRANCH  30  32
ATOM     32  C   UNL A   1      34.599  31.175  27.774  1.00  0.00     0.060 A 
ATOM     33  C   UNL A   1      34.825  29.848  28.162  1.00  0.00     0.016 A 
ATOM     34  C   UNL A   1      35.593  32.141  27.944  1.00  0.00     0.016 A 
ATOM     35  C   UNL A   1      36.030  29.489  28.762  1.00  0.00     0.010 A 
ATOM     36  C   UNL A   1      36.798  31.782  28.557  1.00  0.00     0.010 A 
ATOM     37  C   UNL A   1      37.010  30.463  28.996  1.00  0.00    -0.014 A 
BRANCH  37  38
ATOM     38  C   UNL A   1      38.203  30.125  29.809  1.00  0.00     0.031 A 
ATOM     39  C   UNL A   1      39.216  29.162  29.258  1.00  0.00     0.074 A 
ATOM     40  C   UNL A   1      38.391  30.685  31.017  1.00  0.00     0.049 A 
ATOM     41  N   UNL A   1      40.302  28.688  29.814  1.00  0.00    -0.248 NA
ATOM     42  C   UNL A   1      38.971  28.666  27.894  1.00  0.00     0.031 C 
ATOM     43  C   UNL A   1      37.499  31.659  31.642  1.00  0.00     0.029 A 
ATOM     44  N   UNL A   1      39.393  30.504  31.938  1.00  0.00    -0.354 N 
ATOM     45  C   UNL A   1      40.866  27.836  28.873  1.00  0.00     0.074 A 
ATOM     46  C   UNL A   1      39.990  27.836  27.722  1.00  0.00     0.031 C 
ATOM     47  C   UNL A   1      37.987  31.980  32.853  1.00  0.00     0.029 A 
ATOM     48  C   UNL A   1      39.202  31.207  33.100  1.00  0.00     0.049 A 
ATOM     49  H   UNL A   1      40.173  29.924  31.779  1.00  0.00     0.167 HD
ATOM     50  C   UNL A   1      42.015  27.124  28.961  1.00  0.00     0.037 A 
ATOM     51  C   UNL A   1      39.914  31.205  34.244  1.00  0.00     0.037 A 
ATOM     52  C   UNL A   1      42.884  27.123  30.109  1.00  0.00     0.049 A 
ATOM     53  C   UNL A   1      41.149  30.345  34.345  1.00  0.00     0.074 A 
ATOM     54  C   UNL A   1      44.080  26.450  30.287  1.00  0.00     0.029 A 
ATOM     55  N   UNL A   1      42.642  27.825  31.282  1.00  0.00    -0.354 N 
ATOM     56  N   UNL A   1      41.690  29.561  33.443  1.00  0.00    -0.248 NA
ATOM     57  C   UNL A   1      41.872  30.371  35.624  1.00  0.00     0.031 C 
ATOM     58  C   UNL A   1      44.536  26.704  31.585  1.00  0.00     0.029 A 
ATOM     59  C   UNL A   1      43.653  27.579  32.196  1.00  0.00     0.049 A 
ATOM     60  H   UNL A   1      41.867  28.412  31.439  1.00  0.00     0.167 HD
ATOM     61  C   UNL A   1      42.825  29.023  34.035  1.00  0.00     0.074 A 
ATOM     62  C   UNL A   1      42.904  29.581  35.369  1.00  0.00     0.031 C 
ATOM     63  C   UNL A   1      43.721  28.146  33.520  1.00  0.00     0.037 A 
BRANCH  50  64
ATOM     64  C   UNL A   1      42.389  26.264  27.790  1.00  0.00     0.064 A 
ATOM     65  C   UNL A   1      43.302  26.699  26.817  1.00  0.00     0.173 A 
ATOM     66  C   UNL A   1      41.858  24.971  27.661  1.00  0.00     0.173 A 
ATOM     67  F   UNL A   1      43.828  27.930  26.887  1.00  0.00    -0.203 F 
ATOM     68  C   UNL A   1      43.650  25.880  25.746  1.00  0.00     0.198 A 
ATOM     69  C   UNL A   1      42.229  24.146  26.603  1.00  0.00     0.198 A 
ATOM     70  F   UNL A   1      40.984  24.506  28.565  1.00  0.00    -0.203 F 
ATOM     71  F   UNL A   1      44.491  26.331  24.805  1.00  0.00    -0.200 F 
ATOM     72  C   UNL A   1      43.120  24.602  25.644  1.00  0.00     0.200 A 
ATOM     73  F   UNL A   1      41.725  22.907  26.513  1.00  0.00    -0.200 F 
ATOM     74  F   UNL A   1      43.463  23.813  24.616  1.00  0.00    -0.200 F 
ENDBRANCH  50  64
BRANCH  51  75
ATOM     75  C   UNL A   1      39.468  32.026  35.399  1.00  0.00     0.064 A 
ATOM     76  C   UNL A   1      38.594  31.506  36.364  1.00  0.00     0.173 A 
ATOM     77  C   UNL A   1      39.891  33.356  35.550  1.00  0.00     0.173 A 
ATOM     78  F   UNL A   1      38.140  30.250  36.247  1.00  0.00    -0.203 F 
ATOM     79  C   UNL A   1      38.147  32.290  37.426  1.00  0.00     0.198 A 
ATOM     80  C   UNL A   1      39.466  34.129  36.628  1.00  0.00     0.198 A 
ATOM     81  F   UNL A   1      40.723  33.902  34.651  1.00  0.00    -0.203 F 
ATOM     82  F   UNL A   1      37.273  31.784  38.306  1.00  0.00    -0.200 F 
ATOM     83  C   UNL A   1      38.588  33.598  37.560  1.00  0.00     0.200 A 
ATOM     84  F   UNL A   1      39.903  35.388  36.760  1.00  0.00    -0.200 F 
ATOM     85  F   UNL A   1      38.159  34.350  38.583  1.00  0.00    -0.200 F 
ENDBRANCH  51  75
BRANCH  63  86
ATOM     86  C   UNL A   1      44.883  27.758  34.388  1.00  0.00     0.064 A 
ATOM     87  C   UNL A   1      46.068  28.508  34.412  1.00  0.00     0.173 A 
ATOM     88  C   UNL A   1      44.794  26.643  35.236  1.00  0.00     0.173 A 
ATOM     89  F   UNL A   1      46.209  29.574  33.609  1.00  0.00    -0.203 F 
ATOM     90  C   UNL A   1      47.131  28.141  35.233  1.00  0.00     0.198 A 
ATOM     91  C   UNL A   1      45.848  26.296  36.079  1.00  0.00     0.198 A 
ATOM     92  F   UNL A   1      43.680  25.896  35.259  1.00  0.00    -0.203 F 
ATOM     93  F   UNL A   1      48.272  28.844  35.204  1.00  0.00    -0.200 F 
ATOM     94  C   UNL A   1      47.018  27.041  36.071  1.00  0.00     0.200 A 
ATOM     95  F   UNL A   1      45.731  25.242  36.896  1.00  0.00    -0.200 F 
ATOM     96  F   UNL A   1      48.040  26.694  36.865  1.00  0.00    -0.200 F 
ENDBRANCH  63  86
ENDBRANCH  37  38
ENDBRANCH  30  32
ENDBRANCH  29  30
ENDBRANCH  28  29
ENDBRANCH  27  28
ENDBRANCH  26  27
ENDBRANCH   1  26
TORSDOF 18
ENDMDL
MODEL 3
REMARK VINA RESULT:     -11.2      4.497      6.747
REMARK SMILES CC(C)(C)C(=O)NCC(=O)Nc1cc(Cl)ccc1C(=O)OCCOCCOC(=O)c1ccc(-c2c3nc(c(-c4c(F)c(F)c(F)c(F)c4F)c4ccc([nH]4)c(-c4c(F)c(F)c(F)c(F)c4F)c4nc(c(-c5c(F)c(F)c(F)c(F)c5F)c5ccc2[nH]5)C=C4)C=C3)cc1
REMARK SMILES IDX 23 1 22 2 21 3 19 4 20 5 18 6 12 7 13 8 14 9 17 10 15 11
REMARK SMILES IDX 16 12 11 13 9 14 10 15 8 17 7 18 5 19 6 20 2 22 1 23 3 24
REMARK SMILES IDX 4 25 24 26 25 27 26 28 27 29 28 30 29 31 30 32 31 33 92 34
REMARK SMILES IDX 32 35 91 36 33 37 34 38 35 39 85 40 36 41 90 42 84 43 86 44
REMARK SMILES IDX 37 45 89 46 83 47 82 48 38 50 70 51 50 52 69 53 51 54 54 55
REMARK SMILES IDX 68 56 87 57 52 58 53 59 67 61 88 62 55 63 39 64 40 65 48 66
REMARK SMILES IDX 41 67 42 68 46 69 49 70 43 71 44 72 47 73 45 74 71 75 72 76
REMARK SMILES IDX 80 77 73 78 74 79 78 80 81 81 75 82 76 83 79 84 77 85 56 86
REMARK SMILES IDX 57 87 65 88 58 89 59 90 63 91 66 92 60 93 61 94 64 95 62 96
REMARK H PARENT 11 16 7 21 86 49 54 60
REMARK Flexibility Score: inf
ROOT
ATOM      1  C   UNL A   1      36.699  21.614  24.695  1.00  0.00     0.202 C 
ENDROOT
BRANCH   1   2
ATOM      2  C   UNL A   1      36.587  22.658  23.583  1.00  0.00     0.261 C 
BRANCH   2   3
ATOM      3  O   UNL A   1      35.329  23.355  23.633  1.00  0.00    -0.460 OA
BRANCH   3   4
ATOM      4  C   UNL A   1      35.059  23.920  24.836  1.00  0.00     0.340 C 
ATOM      5  O   UNL A   1      35.866  24.519  25.530  1.00  0.00    -0.246 OA
BRANCH   4   6
ATOM      6  C   UNL A   1      33.633  23.769  25.247  1.00  0.00     0.083 A 
ATOM      7  C   UNL A   1      32.494  23.891  24.418  1.00  0.00     0.057 A 
ATOM      8  C   UNL A   1      31.271  23.450  24.927  1.00  0.00     0.047 A 
ATOM      9  C   UNL A   1      31.127  23.106  26.275  1.00  0.00     0.043 A 
ATOM     10  C   UNL A   1      33.463  23.472  26.616  1.00  0.00     0.019 A 
ATOM     11  Cl  UNL A   1      29.606  22.579  26.877  1.00  0.00    -0.084 Cl
ATOM     12  C   UNL A   1      32.210  23.174  27.136  1.00  0.00     0.021 A 
BRANCH   7  13
ATOM     13  N   UNL A   1      32.605  24.367  23.099  1.00  0.00    -0.324 N 
ATOM     14  C   UNL A   1      32.720  25.599  22.521  1.00  0.00     0.243 C 
ATOM     15  O   UNL A   1      32.703  25.600  21.278  1.00  0.00    -0.273 OA
ATOM     16  H   UNL A   1      32.600  23.641  22.435  1.00  0.00     0.170 HD
BRANCH  14  17
ATOM     17  C   UNL A   1      33.176  26.900  23.229  1.00  0.00     0.216 C 
BRANCH  17  18
ATOM     18  N   UNL A   1      32.264  27.968  23.571  1.00  0.00    -0.347 N 
ATOM     19  C   UNL A   1      31.807  28.490  24.734  1.00  0.00     0.225 C 
ATOM     20  O   UNL A   1      31.069  29.472  24.595  1.00  0.00    -0.275 OA
ATOM     21  H   UNL A   1      31.890  28.416  22.779  1.00  0.00     0.164 HD
BRANCH  19  22
ATOM     22  C   UNL A   1      32.212  28.000  26.139  1.00  0.00     0.041 C 
ATOM     23  C   UNL A   1      31.308  26.795  26.495  1.00  0.00     0.021 C 
ATOM     24  C   UNL A   1      31.928  29.128  27.137  1.00  0.00     0.021 C 
ATOM     25  C   UNL A   1      33.657  27.506  26.281  1.00  0.00     0.021 C 
ENDBRANCH  19  22
ENDBRANCH  17  18
ENDBRANCH  14  17
ENDBRANCH   7  13
ENDBRANCH   4   6
ENDBRANCH   3   4
ENDBRANCH   2   3
ENDBRANCH   1   2
BRANCH   1  26
ATOM     26  O   UNL A   1      38.017  21.150  24.977  1.00  0.00    -0.374 OA
BRANCH  26  27
ATOM     27  C   UNL A   1      38.202  19.734  25.041  1.00  0.00     0.202 C 
BRANCH  27  28
ATOM     28  C   UNL A   1      39.493  19.268  25.726  1.00  0.00     0.261 C 
BRANCH  28  29
ATOM     29  O   UNL A   1      40.386  20.377  25.951  1.00  0.00    -0.460 OA
BRANCH  29  30
ATOM     30  C   UNL A   1      40.885  20.468  27.206  1.00  0.00     0.338 C 
ATOM     31  O   UNL A   1      41.252  19.548  27.926  1.00  0.00    -0.246 OA
BRANCH  30  32
ATOM     32  C   UNL A   1      41.129  21.882  27.548  1.00  0.00     0.060 A 
ATOM     33  C   UNL A   1      40.499  22.856  26.761  1.00  0.00     0.016 A 
ATOM     34  C   UNL A   1      41.986  22.256  28.585  1.00  0.00     0.016 A 
ATOM     35  C   UNL A   1      40.757  24.208  26.980  1.00  0.00     0.010 A 
ATOM     36  C   UNL A   1      42.253  23.613  28.796  1.00  0.00     0.010 A 
ATOM     37  C   UNL A   1      41.664  24.592  27.976  1.00  0.00    -0.014 A 
BRANCH  37  38
ATOM     38  C   UNL A   1      42.089  26.010  28.076  1.00  0.00     0.031 A 
ATOM     39  C   UNL A   1      43.409  26.421  27.487  1.00  0.00     0.074 A 
ATOM     40  C   UNL A   1      41.299  26.923  28.666  1.00  0.00     0.049 A 
ATOM     41  N   UNL A   1      44.000  27.589  27.503  1.00  0.00    -0.248 NA
ATOM     42  C   UNL A   1      44.167  25.372  26.786  1.00  0.00     0.031 C 
ATOM     43  C   UNL A   1      39.983  26.653  29.240  1.00  0.00     0.029 A 
ATOM     44  N   UNL A   1      41.497  28.263  28.888  1.00  0.00    -0.354 N 
ATOM     45  C   UNL A   1      45.197  27.416  26.821  1.00  0.00     0.074 A 
ATOM     46  C   UNL A   1      45.263  26.025  26.427  1.00  0.00     0.031 C 
ATOM     47  C   UNL A   1      39.496  27.792  29.764  1.00  0.00     0.029 A 
ATOM     48  C   UNL A   1      40.481  28.857  29.593  1.00  0.00     0.049 A 
ATOM     49  H   UNL A   1      42.292  28.750  28.572  1.00  0.00     0.167 HD
ATOM     50  C   UNL A   1      46.151  28.337  26.543  1.00  0.00     0.037 A 
ATOM     51  C   UNL A   1      40.373  30.113  30.070  1.00  0.00     0.037 A 
ATOM     52  C   UNL A   1      46.084  29.719  26.938  1.00  0.00     0.049 A 
ATOM     53  C   UNL A   1      41.484  31.100  29.812  1.00  0.00     0.074 A 
ATOM     54  C   UNL A   1      46.991  30.734  26.688  1.00  0.00     0.029 A 
ATOM     55  N   UNL A   1      45.052  30.279  27.678  1.00  0.00    -0.354 N 
ATOM     56  N   UNL A   1      42.601  30.936  29.146  1.00  0.00    -0.248 NA
ATOM     57  C   UNL A   1      41.315  32.447  30.374  1.00  0.00     0.031 C 
ATOM     58  C   UNL A   1      46.533  31.896  27.319  1.00  0.00     0.029 A 
ATOM     59  C   UNL A   1      45.314  31.618  27.916  1.00  0.00     0.049 A 
ATOM     60  H   UNL A   1      44.252  29.795  27.987  1.00  0.00     0.167 HD
ATOM     61  C   UNL A   1      43.255  32.161  29.186  1.00  0.00     0.074 A 
ATOM     62  C   UNL A   1      42.402  33.064  29.931  1.00  0.00     0.031 C 
ATOM     63  C   UNL A   1      44.453  32.507  28.656  1.00  0.00     0.037 A 
BRANCH  50  64
ATOM     64  C   UNL A   1      47.365  27.872  25.793  1.00  0.00     0.064 A 
ATOM     65  C   UNL A   1      48.537  27.481  26.458  1.00  0.00     0.173 A 
ATOM     66  C   UNL A   1      47.341  27.778  24.394  1.00  0.00     0.173 A 
ATOM     67  F   UNL A   1      48.615  27.564  27.794  1.00  0.00    -0.203 F 
ATOM     68  C   UNL A   1      49.649  27.036  25.746  1.00  0.00     0.198 A 
ATOM     69  C   UNL A   1      48.445  27.307  23.688  1.00  0.00     0.198 A 
ATOM     70  F   UNL A   1      46.244  28.136  23.710  1.00  0.00    -0.203 F 
ATOM     71  F   UNL A   1      50.772  26.708  26.399  1.00  0.00    -0.200 F 
ATOM     72  C   UNL A   1      49.599  26.941  24.364  1.00  0.00     0.200 A 
ATOM     73  F   UNL A   1      48.391  27.206  22.352  1.00  0.00    -0.200 F 
ATOM     74  F   UNL A   1      50.667  26.505  23.682  1.00  0.00    -0.200 F 
ENDBRANCH  50  64
BRANCH  51  75
ATOM     75  C   UNL A   1      39.179  30.507  30.862  1.00  0.00     0.064 A 
ATOM     76  C   UNL A   1      38.062  31.090  30.247  1.00  0.00     0.173 A 
ATOM     77  C   UNL A   1      39.139  30.325  32.253  1.00  0.00     0.173 A 
ATOM     78  F   UNL A   1      38.065  31.309  28.925  1.00  0.00    -0.203 F 
ATOM     79  C   UNL A   1      36.958  31.493  30.996  1.00  0.00     0.198 A 
ATOM     80  C   UNL A   1      38.023  30.702  32.996  1.00  0.00     0.198 A 
ATOM     81  F   UNL A   1      40.184  29.777  32.889  1.00  0.00    -0.203 F 
ATOM     82  F   UNL A   1      35.924  32.092  30.390  1.00  0.00    -0.200 F 
ATOM     83  C   UNL A   1      36.936  31.293  32.368  1.00  0.00     0.200 A 
ATOM     84  F   UNL A   1      38.002  30.497  34.319  1.00  0.00    -0.200 F 
ATOM     85  F   UNL A   1      35.874  31.679  33.087  1.00  0.00    -0.200 F 
ENDBRANCH  51  75
BRANCH  63  86
ATOM     86  C   UNL A   1      44.900  33.929  28.832  1.00  0.00     0.064 A 
ATOM     87  C   UNL A   1      45.725  34.316  29.899  1.00  0.00     0.173 A 
ATOM     88  C   UNL A   1      44.530  34.910  27.899  1.00  0.00     0.173 A 
ATOM     89  F   UNL A   1      46.095  33.419  30.826  1.00  0.00    -0.203 F 
ATOM     90  C   UNL A   1      46.141  35.637  30.039  1.00  0.00     0.198 A 
ATOM     91  C   UNL A   1      44.973  36.224  28.026  1.00  0.00     0.198 A 
ATOM     92  F   UNL A   1      43.749  34.592  26.856  1.00  0.00    -0.203 F 
ATOM     93  F   UNL A   1      46.890  35.994  31.092  1.00  0.00    -0.200 F 
ATOM     94  C   UNL A   1      45.772  36.588  29.100  1.00  0.00     0.200 A 
ATOM     95  F   UNL A   1      44.626  37.138  27.110  1.00  0.00    -0.200 F 
ATOM     96  F   UNL A   1      46.179  37.858  29.233  1.00  0.00    -0.200 F 
ENDBRANCH  63  86
ENDBRANCH  37  38
ENDBRANCH  30  32
ENDBRANCH  29  30
ENDBRANCH  28  29
ENDBRANCH  27  28
ENDBRANCH  26  27
ENDBRANCH   1  26
TORSDOF 18
ENDMDL
