MODEL 1
REMARK VINA RESULT:     -11.0      0.000      0.000
REMARK SMILES CSc1cccc(N2C[C@@H](C(=O)OCCOCCOC(=O)c3ccc(-c4c5nc(c(-c6c(F)c(F)c(F)c(F)c6F)c6ccc([nH]6)c(-c6c(F)c(F)c(F)c(F)c6F)c6nc(c(-c7c(F)c(F)c(F)c(F)c7F)c7ccc4[nH]7)C=C6)C=C5)cc3)CC2=O)c1
REMARK SMILES IDX 16 1 15 2 14 3 13 4 11 5 12 6 10 7 8 8 9 9 86 10 85 11 87 12
REMARK SMILES IDX 7 13 3 14 4 15 88 16 5 17 6 18 2 19 1 20 17 21 18 22 19 23
REMARK SMILES IDX 20 24 21 25 22 26 23 27 84 28 24 29 83 30 25 31 26 32 27 33
REMARK SMILES IDX 77 34 28 35 82 36 76 37 78 38 29 39 81 40 75 41 74 42 30 44
REMARK SMILES IDX 62 45 42 46 61 47 43 48 46 49 60 50 79 51 44 52 45 53 59 55
REMARK SMILES IDX 80 56 47 57 31 58 32 59 40 60 33 61 34 62 38 63 41 64 35 65
REMARK SMILES IDX 36 66 39 67 37 68 63 69 64 70 72 71 65 72 66 73 70 74 73 75
REMARK SMILES IDX 67 76 68 77 71 78 69 79 48 80 49 81 57 82 50 83 51 84 55 85
REMARK SMILES IDX 58 86 52 87 53 88 56 89 54 90
REMARK H PARENT 78 43 46 54
REMARK Flexibility Score: inf
ROOT
ATOM      1  O   UNL A   1      32.348  30.715  26.889  1.00  0.00    -0.374 OA
ENDROOT
BRANCH   1   2
ATOM      2  C   UNL A   1      31.813  29.396  26.791  1.00  0.00     0.202 C 
BRANCH   2   3
ATOM      3  C   UNL A   1      31.778  28.797  25.383  1.00  0.00     0.261 C 
BRANCH   3   4
ATOM      4  O   UNL A   1      33.072  28.281  25.034  1.00  0.00    -0.463 OA
BRANCH   4   5
ATOM      5  C   UNL A   1      33.262  27.978  23.728  1.00  0.00     0.311 C 
ATOM      6  O   UNL A   1      33.777  28.718  22.899  1.00  0.00    -0.252 OA
BRANCH   5   7
ATOM      7  C   UNL A   1      32.794  26.589  23.380  1.00  0.00     0.128 C 
ATOM      8  N   UNL A   1      33.662  24.414  23.368  1.00  0.00    -0.311 N 
ATOM      9  C   UNL A   1      33.625  25.608  24.173  1.00  0.00     0.141 C 
ATOM     10  C   UNL A   1      33.308  24.671  22.046  1.00  0.00     0.227 C 
ATOM     11  C   UNL A   1      32.939  26.128  21.934  1.00  0.00     0.117 C 
ATOM     12  O   UNL A   1      33.276  23.900  21.099  1.00  0.00    -0.274 OA
BRANCH   8  13
ATOM     13  C   UNL A   1      34.220  23.212  23.860  1.00  0.00     0.045 A 
ATOM     14  C   UNL A   1      36.094  21.974  24.794  1.00  0.00     0.009 A 
ATOM     15  C   UNL A   1      35.267  20.870  24.999  1.00  0.00     0.015 A 
ATOM     16  C   UNL A   1      35.576  23.132  24.199  1.00  0.00     0.041 A 
ATOM     17  C   UNL A   1      33.926  20.923  24.626  1.00  0.00     0.003 A 
ATOM     18  C   UNL A   1      33.404  22.093  24.079  1.00  0.00     0.026 A 
BRANCH  14  19
ATOM     19  S   UNL A   1      37.776  21.932  25.384  1.00  0.00    -0.130 SA
ATOM     20  C   UNL A   1      37.871  23.594  26.089  1.00  0.00     0.091 C 
ENDBRANCH  14  19
ENDBRANCH   8  13
ENDBRANCH   5   7
ENDBRANCH   4   5
ENDBRANCH   3   4
ENDBRANCH   2   3
ENDBRANCH   1   2
BRANCH   1  21
ATOM     21  C   UNL A   1      31.469  31.815  26.652  1.00  0.00     0.202 C 
BRANCH  21  22
ATOM     22  C   UNL A   1      32.044  33.219  26.876  1.00  0.00     0.261 C 
BRANCH  22  23
ATOM     23  O   UNL A   1      32.711  33.341  28.146  1.00  0.00    -0.460 OA
BRANCH  23  24
ATOM     24  C   UNL A   1      33.841  34.084  28.120  1.00  0.00     0.338 C 
ATOM     25  O   UNL A   1      33.927  35.300  28.005  1.00  0.00    -0.246 OA
BRANCH  24  26
ATOM     26  C   UNL A   1      35.015  33.250  28.425  1.00  0.00     0.060 A 
ATOM     27  C   UNL A   1      34.779  31.965  28.933  1.00  0.00     0.016 A 
ATOM     28  C   UNL A   1      36.317  33.743  28.319  1.00  0.00     0.016 A 
ATOM     29  C   UNL A   1      35.841  31.189  29.392  1.00  0.00     0.010 A 
ATOM     30  C   UNL A   1      37.383  32.966  28.789  1.00  0.00     0.010 A 
ATOM     31  C   UNL A   1      37.143  31.703  29.364  1.00  0.00    -0.014 A 
BRANCH  31  32
ATOM     32  C   UNL A   1      38.222  30.983  30.082  1.00  0.00     0.031 A 
ATOM     33  C   UNL A   1      38.467  31.296  31.532  1.00  0.00     0.074 A 
ATOM     34  C   UNL A   1      38.947  30.035  29.465  1.00  0.00     0.049 A 
ATOM     35  N   UNL A   1      39.359  30.801  32.352  1.00  0.00    -0.248 NA
ATOM     36  C   UNL A   1      37.584  32.304  32.140  1.00  0.00     0.031 C 
ATOM     37  C   UNL A   1      38.775  29.610  28.079  1.00  0.00     0.029 A 
ATOM     38  N   UNL A   1      39.978  29.257  29.933  1.00  0.00    -0.354 N 
ATOM     39  C   UNL A   1      39.146  31.435  33.569  1.00  0.00     0.074 A 
ATOM     40  C   UNL A   1      38.063  32.375  33.373  1.00  0.00     0.031 C 
ATOM     41  C   UNL A   1      39.676  28.652  27.803  1.00  0.00     0.029 A 
ATOM     42  C   UNL A   1      40.504  28.416  28.985  1.00  0.00     0.049 A 
ATOM     43  H   UNL A   1      40.307  29.300  30.860  1.00  0.00     0.167 HD
ATOM     44  C   UNL A   1      39.790  31.247  34.745  1.00  0.00     0.037 A 
ATOM     45  C   UNL A   1      41.546  27.567  29.061  1.00  0.00     0.037 A 
ATOM     46  C   UNL A   1      40.870  30.315  34.939  1.00  0.00     0.049 A 
ATOM     47  C   UNL A   1      42.299  27.431  30.359  1.00  0.00     0.074 A 
ATOM     48  C   UNL A   1      41.576  30.039  36.096  1.00  0.00     0.029 A 
ATOM     49  N   UNL A   1      41.405  29.512  33.943  1.00  0.00    -0.354 N 
ATOM     50  N   UNL A   1      42.077  28.019  31.510  1.00  0.00    -0.248 NA
ATOM     51  C   UNL A   1      43.445  26.512  30.367  1.00  0.00     0.031 C 
ATOM     52  C   UNL A   1      42.570  29.102  35.790  1.00  0.00     0.029 A 
ATOM     53  C   UNL A   1      42.451  28.758  34.452  1.00  0.00     0.049 A 
ATOM     54  H   UNL A   1      41.088  29.480  33.011  1.00  0.00     0.167 HD
ATOM     55  C   UNL A   1      43.037  27.522  32.384  1.00  0.00     0.074 A 
ATOM     56  C   UNL A   1      43.836  26.577  31.632  1.00  0.00     0.031 C 
ATOM     57  C   UNL A   1      43.234  27.818  33.693  1.00  0.00     0.037 A 
BRANCH  44  58
ATOM     58  C   UNL A   1      39.358  32.090  35.909  1.00  0.00     0.064 A 
ATOM     59  C   UNL A   1      39.923  33.350  36.156  1.00  0.00     0.173 A 
ATOM     60  C   UNL A   1      38.357  31.636  36.781  1.00  0.00     0.173 A 
ATOM     61  F   UNL A   1      40.895  33.821  35.361  1.00  0.00    -0.203 F 
ATOM     62  C   UNL A   1      39.521  34.112  37.250  1.00  0.00     0.198 A 
ATOM     63  C   UNL A   1      37.937  32.413  37.857  1.00  0.00     0.198 A 
ATOM     64  F   UNL A   1      37.782  30.440  36.586  1.00  0.00    -0.203 F 
ATOM     65  F   UNL A   1      40.110  35.291  37.496  1.00  0.00    -0.200 F 
ATOM     66  C   UNL A   1      38.526  33.646  38.096  1.00  0.00     0.200 A 
ATOM     67  F   UNL A   1      36.969  31.966  38.668  1.00  0.00    -0.200 F 
ATOM     68  F   UNL A   1      38.141  34.381  39.148  1.00  0.00    -0.200 F 
ENDBRANCH  44  58
BRANCH  45  69
ATOM     69  C   UNL A   1      41.943  26.778  27.867  1.00  0.00     0.064 A 
ATOM     70  C   UNL A   1      41.358  25.533  27.598  1.00  0.00     0.173 A 
ATOM     71  C   UNL A   1      42.916  27.250  26.975  1.00  0.00     0.173 A 
ATOM     72  F   UNL A   1      40.443  25.029  28.438  1.00  0.00    -0.203 F 
ATOM     73  C   UNL A   1      41.739  24.787  26.486  1.00  0.00     0.198 A 
ATOM     74  C   UNL A   1      43.278  26.514  25.850  1.00  0.00     0.198 A 
ATOM     75  F   UNL A   1      43.507  28.434  27.191  1.00  0.00    -0.203 F 
ATOM     76  F   UNL A   1      41.191  23.583  26.270  1.00  0.00    -0.200 F 
ATOM     77  C   UNL A   1      42.693  25.280  25.609  1.00  0.00     0.200 A 
ATOM     78  F   UNL A   1      44.193  26.999  24.999  1.00  0.00    -0.200 F 
ATOM     79  F   UNL A   1      43.054  24.564  24.535  1.00  0.00    -0.200 F 
ENDBRANCH  45  69
BRANCH  57  80
ATOM     80  C   UNL A   1      44.335  27.090  34.406  1.00  0.00     0.064 A 
ATOM     81  C   UNL A   1      45.624  27.632  34.519  1.00  0.00     0.173 A 
ATOM     82  C   UNL A   1      44.084  25.856  35.026  1.00  0.00     0.173 A 
ATOM     83  F   UNL A   1      45.918  28.801  33.932  1.00  0.00    -0.203 F 
ATOM     84  C   UNL A   1      46.627  26.953  35.207  1.00  0.00     0.198 A 
ATOM     85  C   UNL A   1      45.081  25.194  35.736  1.00  0.00     0.198 A 
ATOM     86  F   UNL A   1      42.866  25.299  34.953  1.00  0.00    -0.203 F 
ATOM     87  F   UNL A   1      47.863  27.469  35.266  1.00  0.00    -0.200 F 
ATOM     88  C   UNL A   1      46.354  25.739  35.820  1.00  0.00     0.200 A 
ATOM     89  F   UNL A   1      44.812  24.027  36.337  1.00  0.00    -0.200 F 
ATOM     90  F   UNL A   1      47.319  25.092  36.488  1.00  0.00    -0.200 F 
ENDBRANCH  57  80
ENDBRANCH  31  32
ENDBRANCH  24  26
ENDBRANCH  23  24
ENDBRANCH  22  23
ENDBRANCH  21  22
ENDBRANCH   1  21
TORSDOF 16
ENDMDL
MODEL 2
REMARK VINA RESULT:     -11.0      4.708     10.532
REMARK SMILES CSc1cccc(N2C[C@@H](C(=O)OCCOCCOC(=O)c3ccc(-c4c5nc(c(-c6c(F)c(F)c(F)c(F)c6F)c6ccc([nH]6)c(-c6c(F)c(F)c(F)c(F)c6F)c6nc(c(-c7c(F)c(F)c(F)c(F)c7F)c7ccc4[nH]7)C=C6)C=C5)cc3)CC2=O)c1
REMARK SMILES IDX 16 1 15 2 14 3 13 4 11 5 12 6 10 7 8 8 9 9 86 10 85 11 87 12
REMARK SMILES IDX 7 13 3 14 4 15 88 16 5 17 6 18 2 19 1 20 17 21 18 22 19 23
REMARK SMILES IDX 20 24 21 25 22 26 23 27 84 28 24 29 83 30 25 31 26 32 27 33
REMARK SMILES IDX 77 34 28 35 82 36 76 37 78 38 29 39 81 40 75 41 74 42 30 44
REMARK SMILES IDX 62 45 42 46 61 47 43 48 46 49 60 50 79 51 44 52 45 53 59 55
REMARK SMILES IDX 80 56 47 57 31 58 32 59 40 60 33 61 34 62 38 63 41 64 35 65
REMARK SMILES IDX 36 66 39 67 37 68 63 69 64 70 72 71 65 72 66 73 70 74 73 75
REMARK SMILES IDX 67 76 68 77 71 78 69 79 48 80 49 81 57 82 50 83 51 84 55 85
REMARK SMILES IDX 58 86 52 87 53 88 56 89 54 90
REMARK H PARENT 78 43 46 54
REMARK Flexibility Score: inf
ROOT
ATOM      1  O   UNL A   1      37.413  20.980  24.692  1.00  0.00    -0.374 OA
ENDROOT
BRANCH   1   2
ATOM      2  C   UNL A   1      36.290  21.460  25.430  1.00  0.00     0.202 C 
BRANCH   2   3
ATOM      3  C   UNL A   1      34.964  20.744  25.164  1.00  0.00     0.261 C 
BRANCH   3   4
ATOM      4  O   UNL A   1      34.152  21.524  24.273  1.00  0.00    -0.463 OA
BRANCH   4   5
ATOM      5  C   UNL A   1      32.866  21.126  24.134  1.00  0.00     0.311 C 
ATOM      6  O   UNL A   1      32.505  19.996  23.828  1.00  0.00    -0.252 OA
BRANCH   5   7
ATOM      7  C   UNL A   1      31.881  22.228  24.429  1.00  0.00     0.128 C 
ATOM      8  N   UNL A   1      31.922  24.423  25.245  1.00  0.00    -0.311 N 
ATOM      9  C   UNL A   1      32.620  23.543  24.342  1.00  0.00     0.141 C 
ATOM     10  C   UNL A   1      31.125  23.716  26.143  1.00  0.00     0.227 C 
ATOM     11  C   UNL A   1      31.225  22.251  25.804  1.00  0.00     0.117 C 
ATOM     12  O   UNL A   1      30.441  24.145  27.059  1.00  0.00    -0.274 OA
BRANCH   8  13
ATOM     13  C   UNL A   1      32.229  25.801  25.313  1.00  0.00     0.045 A 
ATOM     14  C   UNL A   1      31.725  28.114  24.754  1.00  0.00     0.009 A 
ATOM     15  C   UNL A   1      32.745  28.545  25.602  1.00  0.00     0.015 A 
ATOM     16  C   UNL A   1      31.488  26.743  24.590  1.00  0.00     0.041 A 
ATOM     17  C   UNL A   1      33.517  27.616  26.294  1.00  0.00     0.003 A 
ATOM     18  C   UNL A   1      33.248  26.254  26.164  1.00  0.00     0.026 A 
BRANCH  14  19
ATOM     19  S   UNL A   1      30.669  29.318  23.969  1.00  0.00    -0.130 SA
ATOM     20  C   UNL A   1      30.268  28.403  22.462  1.00  0.00     0.091 C 
ENDBRANCH  14  19
ENDBRANCH   8  13
ENDBRANCH   5   7
ENDBRANCH   4   5
ENDBRANCH   3   4
ENDBRANCH   2   3
ENDBRANCH   1   2
BRANCH   1  21
ATOM     21  C   UNL A   1      37.781  19.609  24.847  1.00  0.00     0.202 C 
BRANCH  21  22
ATOM     22  C   UNL A   1      39.106  19.327  25.565  1.00  0.00     0.261 C 
BRANCH  22  23
ATOM     23  O   UNL A   1      39.882  20.522  25.770  1.00  0.00    -0.460 OA
BRANCH  23  24
ATOM     24  C   UNL A   1      40.647  20.512  26.886  1.00  0.00     0.338 C 
ATOM     25  O   UNL A   1      41.229  19.554  27.379  1.00  0.00    -0.246 OA
BRANCH  24  26
ATOM     26  C   UNL A   1      40.853  21.883  27.384  1.00  0.00     0.060 A 
ATOM     27  C   UNL A   1      40.159  22.914  26.738  1.00  0.00     0.016 A 
ATOM     28  C   UNL A   1      41.781  22.171  28.386  1.00  0.00     0.016 A 
ATOM     29  C   UNL A   1      40.432  24.244  27.051  1.00  0.00     0.010 A 
ATOM     30  C   UNL A   1      42.062  23.507  28.695  1.00  0.00     0.010 A 
ATOM     31  C   UNL A   1      41.417  24.548  28.000  1.00  0.00    -0.014 A 
BRANCH  31  32
ATOM     32  C   UNL A   1      41.878  25.950  28.142  1.00  0.00     0.031 A 
ATOM     33  C   UNL A   1      43.212  26.339  27.568  1.00  0.00     0.074 A 
ATOM     34  C   UNL A   1      41.104  26.874  28.736  1.00  0.00     0.049 A 
ATOM     35  N   UNL A   1      43.819  27.499  27.583  1.00  0.00    -0.248 NA
ATOM     36  C   UNL A   1      43.963  25.276  26.882  1.00  0.00     0.031 C 
ATOM     37  C   UNL A   1      39.775  26.631  29.290  1.00  0.00     0.029 A 
ATOM     38  N   UNL A   1      41.331  28.207  28.971  1.00  0.00    -0.354 N 
ATOM     39  C   UNL A   1      45.020  27.305  26.913  1.00  0.00     0.074 A 
ATOM     40  C   UNL A   1      45.071  25.910  26.531  1.00  0.00     0.031 C 
ATOM     41  C   UNL A   1      39.304  27.778  29.809  1.00  0.00     0.029 A 
ATOM     42  C   UNL A   1      40.310  28.826  29.647  1.00  0.00     0.049 A 
ATOM     43  H   UNL A   1      42.148  28.674  28.681  1.00  0.00     0.167 HD
ATOM     44  C   UNL A   1      45.988  28.209  26.634  1.00  0.00     0.037 A 
ATOM     45  C   UNL A   1      40.210  30.091  30.099  1.00  0.00     0.037 A 
ATOM     46  C   UNL A   1      45.939  29.596  27.017  1.00  0.00     0.049 A 
ATOM     47  C   UNL A   1      41.335  31.060  29.846  1.00  0.00     0.074 A 
ATOM     48  C   UNL A   1      46.862  30.595  26.767  1.00  0.00     0.029 A 
ATOM     49  N   UNL A   1      44.908  30.176  27.741  1.00  0.00    -0.354 N 
ATOM     50  N   UNL A   1      42.457  30.875  29.192  1.00  0.00    -0.248 NA
ATOM     51  C   UNL A   1      41.178  32.415  30.392  1.00  0.00     0.031 C 
ATOM     52  C   UNL A   1      46.412  31.770  27.381  1.00  0.00     0.029 A 
ATOM     53  C   UNL A   1      45.185  31.515  27.970  1.00  0.00     0.049 A 
ATOM     54  H   UNL A   1      44.098  29.707  28.047  1.00  0.00     0.167 HD
ATOM     55  C   UNL A   1      43.125  32.092  29.226  1.00  0.00     0.074 A 
ATOM     56  C   UNL A   1      42.278  33.013  29.956  1.00  0.00     0.031 C 
ATOM     57  C   UNL A   1      44.330  32.419  28.694  1.00  0.00     0.037 A 
BRANCH  44  58
ATOM     58  C   UNL A   1      47.200  27.715  25.900  1.00  0.00     0.064 A 
ATOM     59  C   UNL A   1      48.330  27.238  26.580  1.00  0.00     0.173 A 
ATOM     60  C   UNL A   1      47.226  27.708  24.497  1.00  0.00     0.173 A 
ATOM     61  F   UNL A   1      48.360  27.238  27.921  1.00  0.00    -0.203 F 
ATOM     62  C   UNL A   1      49.453  26.797  25.883  1.00  0.00     0.198 A 
ATOM     63  C   UNL A   1      48.339  27.241  23.803  1.00  0.00     0.198 A 
ATOM     64  F   UNL A   1      46.170  28.151  23.799  1.00  0.00    -0.203 F 
ATOM     65  F   UNL A   1      50.540  26.392  26.554  1.00  0.00    -0.200 F 
ATOM     66  C   UNL A   1      49.454  26.795  24.496  1.00  0.00     0.200 A 
ATOM     67  F   UNL A   1      48.336  27.230  22.463  1.00  0.00    -0.200 F 
ATOM     68  F   UNL A   1      50.535  26.371  23.827  1.00  0.00    -0.200 F 
ENDBRANCH  44  58
BRANCH  45  69
ATOM     69  C   UNL A   1      38.997  30.514  30.842  1.00  0.00     0.064 A 
ATOM     70  C   UNL A   1      37.870  31.003  30.166  1.00  0.00     0.173 A 
ATOM     71  C   UNL A   1      38.939  30.443  32.242  1.00  0.00     0.173 A 
ATOM     72  F   UNL A   1      37.889  31.115  28.831  1.00  0.00    -0.203 F 
ATOM     73  C   UNL A   1      36.736  31.412  30.863  1.00  0.00     0.198 A 
ATOM     74  C   UNL A   1      37.796  30.829  32.935  1.00  0.00     0.198 A 
ATOM     75  F   UNL A   1      39.993  29.986  32.934  1.00  0.00    -0.203 F 
ATOM     76  F   UNL A   1      35.686  31.910  30.196  1.00  0.00    -0.200 F 
ATOM     77  C   UNL A   1      36.697  31.319  32.247  1.00  0.00     0.200 A 
ATOM     78  F   UNL A   1      37.758  30.728  34.271  1.00  0.00    -0.200 F 
ATOM     79  F   UNL A   1      35.602  31.707  32.916  1.00  0.00    -0.200 F 
ENDBRANCH  45  69
BRANCH  57  80
ATOM     80  C   UNL A   1      44.790  33.839  28.852  1.00  0.00     0.064 A 
ATOM     81  C   UNL A   1      45.594  34.237  29.931  1.00  0.00     0.173 A 
ATOM     82  C   UNL A   1      44.461  34.802  27.887  1.00  0.00     0.173 A 
ATOM     83  F   UNL A   1      45.923  33.357  30.888  1.00  0.00    -0.203 F 
ATOM     84  C   UNL A   1      46.033  35.553  30.048  1.00  0.00     0.198 A 
ATOM     85  C   UNL A   1      44.925  36.111  27.992  1.00  0.00     0.198 A 
ATOM     86  F   UNL A   1      43.701  34.471  26.832  1.00  0.00    -0.203 F 
ATOM     87  F   UNL A   1      46.765  35.922  31.108  1.00  0.00    -0.200 F 
ATOM     88  C   UNL A   1      45.705  36.487  29.076  1.00  0.00     0.200 A 
ATOM     89  F   UNL A   1      44.616  37.009  27.046  1.00  0.00    -0.200 F 
ATOM     90  F   UNL A   1      46.135  37.751  29.186  1.00  0.00    -0.200 F 
ENDBRANCH  57  80
ENDBRANCH  31  32
ENDBRANCH  24  26
ENDBRANCH  23  24
ENDBRANCH  22  23
ENDBRANCH  21  22
ENDBRANCH   1  21
TORSDOF 16
ENDMDL
MODEL 3
REMARK VINA RESULT:     -11.0      1.376      7.605
REMARK SMILES CSc1cccc(N2C[C@@H](C(=O)OCCOCCOC(=O)c3ccc(-c4c5nc(c(-c6c(F)c(F)c(F)c(F)c6F)c6ccc([nH]6)c(-c6c(F)c(F)c(F)c(F)c6F)c6nc(c(-c7c(F)c(F)c(F)c(F)c7F)c7ccc4[nH]7)C=C6)C=C5)cc3)CC2=O)c1
REMARK SMILES IDX 16 1 15 2 14 3 13 4 11 5 12 6 10 7 8 8 9 9 86 10 85 11 87 12
REMARK SMILES IDX 7 13 3 14 4 15 88 16 5 17 6 18 2 19 1 20 17 21 18 22 19 23
REMARK SMILES IDX 20 24 21 25 22 26 23 27 84 28 24 29 83 30 25 31 26 32 27 33
REMARK SMILES IDX 77 34 28 35 82 36 76 37 78 38 29 39 81 40 75 41 74 42 30 44
REMARK SMILES IDX 62 45 42 46 61 47 43 48 46 49 60 50 79 51 44 52 45 53 59 55
REMARK SMILES IDX 80 56 47 57 31 58 32 59 40 60 33 61 34 62 38 63 41 64 35 65
REMARK SMILES IDX 36 66 39 67 37 68 63 69 64 70 72 71 65 72 66 73 70 74 73 75
REMARK SMILES IDX 67 76 68 77 71 78 69 79 48 80 49 81 57 82 50 83 51 84 55 85
REMARK SMILES IDX 58 86 52 87 53 88 56 89 54 90
REMARK H PARENT 78 43 46 54
REMARK Flexibility Score: inf
ROOT
ATOM      1  O   UNL A   1      31.052  28.432  24.902  1.00  0.00    -0.374 OA
ENDROOT
BRANCH   1   2
ATOM      2  C   UNL A   1      30.636  28.417  23.536  1.00  0.00     0.202 C 
BRANCH   2   3
ATOM      3  C   UNL A   1      31.682  27.939  22.528  1.00  0.00     0.261 C 
BRANCH   3   4
ATOM      4  O   UNL A   1      31.716  26.504  22.495  1.00  0.00    -0.463 OA
BRANCH   4   5
ATOM      5  C   UNL A   1      32.888  25.942  22.116  1.00  0.00     0.311 C 
ATOM      6  O   UNL A   1      33.299  25.873  20.964  1.00  0.00    -0.252 OA
BRANCH   5   7
ATOM      7  C   UNL A   1      33.685  25.416  23.282  1.00  0.00     0.128 C 
ATOM      8  N   UNL A   1      34.003  23.380  24.394  1.00  0.00    -0.311 N 
ATOM      9  C   UNL A   1      33.895  23.936  23.069  1.00  0.00     0.141 C 
ATOM     10  C   UNL A   1      33.499  24.247  25.361  1.00  0.00     0.227 C 
ATOM     11  C   UNL A   1      33.068  25.517  24.672  1.00  0.00     0.117 C 
ATOM     12  O   UNL A   1      33.399  24.074  26.565  1.00  0.00    -0.274 OA
BRANCH   8  13
ATOM     13  C   UNL A   1      34.367  22.029  24.598  1.00  0.00     0.045 A 
ATOM     14  C   UNL A   1      33.794  19.666  24.639  1.00  0.00     0.009 A 
ATOM     15  C   UNL A   1      35.137  19.340  24.830  1.00  0.00     0.015 A 
ATOM     16  C   UNL A   1      33.409  21.010  24.551  1.00  0.00     0.041 A 
ATOM     17  C   UNL A   1      36.093  20.348  24.922  1.00  0.00     0.003 A 
ATOM     18  C   UNL A   1      35.712  21.682  24.787  1.00  0.00     0.026 A 
BRANCH  14  19
ATOM     19  S   UNL A   1      32.600  18.362  24.406  1.00  0.00    -0.130 SA
ATOM     20  C   UNL A   1      33.498  17.369  23.191  1.00  0.00     0.091 C 
ENDBRANCH  14  19
ENDBRANCH   8  13
ENDBRANCH   5   7
ENDBRANCH   4   5
ENDBRANCH   3   4
ENDBRANCH   2   3
ENDBRANCH   1   2
BRANCH   1  21
ATOM     21  C   UNL A   1      32.151  29.271  25.259  1.00  0.00     0.202 C 
BRANCH  21  22
ATOM     22  C   UNL A   1      31.813  30.582  25.978  1.00  0.00     0.261 C 
BRANCH  22  23
ATOM     23  O   UNL A   1      32.475  30.691  27.253  1.00  0.00    -0.460 OA
BRANCH  23  24
ATOM     24  C   UNL A   1      33.264  31.783  27.385  1.00  0.00     0.338 C 
ATOM     25  O   UNL A   1      32.929  32.957  27.296  1.00  0.00    -0.246 OA
BRANCH  24  26
ATOM     26  C   UNL A   1      34.611  31.394  27.836  1.00  0.00     0.060 A 
ATOM     27  C   UNL A   1      34.823  30.044  28.146  1.00  0.00     0.016 A 
ATOM     28  C   UNL A   1      35.616  32.338  28.053  1.00  0.00     0.016 A 
ATOM     29  C   UNL A   1      36.022  29.641  28.729  1.00  0.00     0.010 A 
ATOM     30  C   UNL A   1      36.817  31.934  28.648  1.00  0.00     0.010 A 
ATOM     31  C   UNL A   1      37.008  30.590  29.024  1.00  0.00    -0.014 A 
BRANCH  31  32
ATOM     32  C   UNL A   1      38.162  30.199  29.869  1.00  0.00     0.031 A 
ATOM     33  C   UNL A   1      39.171  29.229  29.320  1.00  0.00     0.074 A 
ATOM     34  C   UNL A   1      38.332  30.729  31.091  1.00  0.00     0.049 A 
ATOM     35  N   UNL A   1      40.247  28.740  29.882  1.00  0.00    -0.248 NA
ATOM     36  C   UNL A   1      38.936  28.748  27.950  1.00  0.00     0.031 C 
ATOM     37  C   UNL A   1      37.449  31.711  31.715  1.00  0.00     0.029 A 
ATOM     38  N   UNL A   1      39.312  30.512  32.027  1.00  0.00    -0.354 N 
ATOM     39  C   UNL A   1      40.814  27.894  28.938  1.00  0.00     0.074 A 
ATOM     40  C   UNL A   1      39.948  27.911  27.778  1.00  0.00     0.031 C 
ATOM     41  C   UNL A   1      37.924  32.008  32.937  1.00  0.00     0.029 A 
ATOM     42  C   UNL A   1      39.127  31.217  33.190  1.00  0.00     0.049 A 
ATOM     43  H   UNL A   1      40.076  29.908  31.878  1.00  0.00     0.167 HD
ATOM     44  C   UNL A   1      41.957  27.174  29.025  1.00  0.00     0.037 A 
ATOM     45  C   UNL A   1      39.839  31.208  34.333  1.00  0.00     0.037 A 
ATOM     46  C   UNL A   1      42.818  27.154  30.180  1.00  0.00     0.049 A 
ATOM     47  C   UNL A   1      41.064  30.338  34.437  1.00  0.00     0.074 A 
ATOM     48  C   UNL A   1      44.006  26.469  30.360  1.00  0.00     0.029 A 
ATOM     49  N   UNL A   1      42.572  27.846  31.356  1.00  0.00    -0.354 N 
ATOM     50  N   UNL A   1      41.606  29.559  33.531  1.00  0.00    -0.248 NA
ATOM     51  C   UNL A   1      41.779  30.350  35.721  1.00  0.00     0.031 C 
ATOM     52  C   UNL A   1      44.457  26.711  31.663  1.00  0.00     0.029 A 
ATOM     53  C   UNL A   1      43.574  27.585  32.277  1.00  0.00     0.049 A 
ATOM     54  H   UNL A   1      41.801  28.437  31.513  1.00  0.00     0.167 HD
ATOM     55  C   UNL A   1      42.735  29.010  34.126  1.00  0.00     0.074 A 
ATOM     56  C   UNL A   1      42.807  29.553  35.466  1.00  0.00     0.031 C 
ATOM     57  C   UNL A   1      43.635  28.138  33.606  1.00  0.00     0.037 A 
BRANCH  44  58
ATOM     58  C   UNL A   1      42.328  26.325  27.845  1.00  0.00     0.064 A 
ATOM     59  C   UNL A   1      43.245  26.766  26.879  1.00  0.00     0.173 A 
ATOM     60  C   UNL A   1      41.768  25.048  27.685  1.00  0.00     0.173 A 
ATOM     61  F   UNL A   1      43.796  27.984  26.978  1.00  0.00    -0.203 F 
ATOM     62  C   UNL A   1      43.566  25.970  25.781  1.00  0.00     0.198 A 
ATOM     63  C   UNL A   1      42.112  24.245  26.602  1.00  0.00     0.198 A 
ATOM     64  F   UNL A   1      40.889  24.579  28.583  1.00  0.00    -0.203 F 
ATOM     65  F   UNL A   1      44.406  26.432  24.844  1.00  0.00    -0.200 F 
ATOM     66  C   UNL A   1      43.003  24.710  25.646  1.00  0.00     0.200 A 
ATOM     67  F   UNL A   1      41.575  23.023  26.477  1.00  0.00    -0.200 F 
ATOM     68  F   UNL A   1      43.313  23.947  24.589  1.00  0.00    -0.200 F 
ENDBRANCH  44  58
BRANCH  45  69
ATOM     69  C   UNL A   1      39.407  32.050  35.477  1.00  0.00     0.064 A 
ATOM     70  C   UNL A   1      38.575  31.535  36.480  1.00  0.00     0.173 A 
ATOM     71  C   UNL A   1      39.813  33.388  35.588  1.00  0.00     0.173 A 
ATOM     72  F   UNL A   1      38.139  30.269  36.401  1.00  0.00    -0.203 F 
ATOM     73  C   UNL A   1      38.158  32.328  37.546  1.00  0.00     0.198 A 
ATOM     74  C   UNL A   1      39.417  34.173  36.667  1.00  0.00     0.198 A 
ATOM     75  F   UNL A   1      40.607  33.929  34.652  1.00  0.00    -0.203 F 
ATOM     76  F   UNL A   1      37.333  31.822  38.473  1.00  0.00    -0.200 F 
ATOM     77  C   UNL A   1      38.585  33.645  37.643  1.00  0.00     0.200 A 
ATOM     78  F   UNL A   1      39.839  35.441  36.763  1.00  0.00    -0.200 F 
ATOM     79  F   UNL A   1      38.189  34.405  38.673  1.00  0.00    -0.200 F 
ENDBRANCH  45  69
BRANCH  57  80
ATOM     80  C   UNL A   1      44.793  27.742  34.474  1.00  0.00     0.064 A 
ATOM     81  C   UNL A   1      44.745  26.603  35.291  1.00  0.00     0.173 A 
ATOM     82  C   UNL A   1      45.983  28.486  34.451  1.00  0.00     0.173 A 
ATOM     83  F   UNL A   1      43.626  25.867  35.359  1.00  0.00    -0.203 F 
ATOM     84  C   UNL A   1      45.839  26.236  36.071  1.00  0.00     0.198 A 
ATOM     85  C   UNL A   1      47.084  28.101  35.212  1.00  0.00     0.198 A 
ATOM     86  F   UNL A   1      46.082  29.579  33.681  1.00  0.00    -0.203 F 
ATOM     87  F   UNL A   1      45.757  25.169  36.877  1.00  0.00    -0.200 F 
ATOM     88  C   UNL A   1      47.009  26.980  36.026  1.00  0.00     0.200 A 
ATOM     89  F   UNL A   1      48.217  28.814  35.157  1.00  0.00    -0.200 F 
ATOM     90  F   UNL A   1      48.063  26.621  36.772  1.00  0.00    -0.200 F 
ENDBRANCH  57  80
ENDBRANCH  31  32
ENDBRANCH  24  26
ENDBRANCH  23  24
ENDBRANCH  22  23
ENDBRANCH  21  22
ENDBRANCH   1  21
TORSDOF 16
ENDMDL
