MODEL 1
REMARK VINA RESULT:     -11.6      0.000      0.000
REMARK SMILES NC(=O)c1ccc(N[C@H]2C=C[C@@H](C(=O)OCCOCCOC(=O)c3ccc(-c4c5nc(c(-c6c(F)c(F)c(F)c(F)c6F)c6ccc([nH]6)c(-c6c(F)c(F)c(F)c(F)c6F)c6nc(c(-c7c(F)c(F)c(F)c(F)c7F)c7ccc4[nH]7)C=C6)C=C5)cc3)C2)cc1Cl
REMARK SMILES IDX 17 1 16 2 15 3 13 4 14 5 12 6 9 7 10 8 87 9 11 10 8 11 7 13
REMARK SMILES IDX 4 14 5 15 89 16 6 17 88 18 90 19 2 20 1 21 3 24 18 25 19 26
REMARK SMILES IDX 20 27 21 28 22 29 23 30 24 31 25 32 86 33 26 34 85 35 27 36
REMARK SMILES IDX 28 37 29 38 79 39 30 40 84 41 78 42 80 43 31 44 83 45 77 46
REMARK SMILES IDX 76 47 32 49 64 50 44 51 63 52 45 53 48 54 62 55 81 56 46 57
REMARK SMILES IDX 47 58 61 60 82 61 49 62 33 63 34 64 42 65 35 66 36 67 40 68
REMARK SMILES IDX 43 69 37 70 38 71 41 72 39 73 65 74 66 75 74 76 67 77 68 78
REMARK SMILES IDX 72 79 75 80 69 81 70 82 73 83 71 84 50 85 51 86 59 87 52 88
REMARK SMILES IDX 53 89 57 90 60 91 54 92 55 93 58 94 56 95
REMARK H PARENT 8 12 1 22 1 23 80 48 48 59
REMARK Flexibility Score: inf
ROOT
ATOM      1  C   UNL A   1      34.693  33.407  28.515  1.00  0.00     0.202 C 
ENDROOT
BRANCH   1   2
ATOM      2  C   UNL A   1      34.197  31.972  28.699  1.00  0.00     0.261 C 
BRANCH   2   3
ATOM      3  O   UNL A   1      34.118  31.324  27.417  1.00  0.00    -0.463 OA
BRANCH   3   4
ATOM      4  C   UNL A   1      32.942  30.716  27.121  1.00  0.00     0.312 C 
ATOM      5  O   UNL A   1      31.927  31.306  26.768  1.00  0.00    -0.252 OA
BRANCH   4   6
ATOM      6  C   UNL A   1      33.011  29.195  27.248  1.00  0.00     0.124 C 
ATOM      7  C   UNL A   1      32.307  27.241  25.941  1.00  0.00     0.103 C 
ATOM      8  C   UNL A   1      33.715  27.620  25.643  1.00  0.00    -0.006 C 
ATOM      9  C   UNL A   1      31.775  28.374  26.824  1.00  0.00     0.048 C 
ATOM     10  C   UNL A   1      34.109  28.671  26.371  1.00  0.00    -0.014 C 
BRANCH   7  11
ATOM     11  N   UNL A   1      31.537  26.996  24.737  1.00  0.00    -0.379 N 
ATOM     12  H   UNL A   1      31.482  26.050  24.466  1.00  0.00     0.161 HD
BRANCH  11  13
ATOM     13  C   UNL A   1      30.872  27.873  23.909  1.00  0.00     0.036 A 
ATOM     14  C   UNL A   1      29.356  29.682  22.300  1.00  0.00     0.058 A 
ATOM     15  C   UNL A   1      30.758  29.698  22.297  1.00  0.00     0.017 A 
ATOM     16  C   UNL A   1      28.712  28.751  23.118  1.00  0.00     0.055 A 
ATOM     17  C   UNL A   1      31.494  28.808  23.086  1.00  0.00     0.026 A 
ATOM     18  C   UNL A   1      29.469  27.868  23.911  1.00  0.00     0.047 A 
ATOM     19  Cl  UNL A   1      26.994  28.576  23.219  1.00  0.00    -0.083 Cl
BRANCH  14  20
ATOM     20  C   UNL A   1      28.701  30.671  21.403  1.00  0.00     0.250 C 
ATOM     21  N   UNL A   1      28.900  32.000  21.624  1.00  0.00    -0.366 N 
ATOM     22  H   UNL A   1      28.474  32.666  21.038  1.00  0.00     0.159 HD
ATOM     23  H   UNL A   1      29.472  32.295  22.369  1.00  0.00     0.159 HD
ATOM     24  O   UNL A   1      28.028  30.296  20.446  1.00  0.00    -0.269 OA
ENDBRANCH  14  20
ENDBRANCH  11  13
ENDBRANCH   7  11
ENDBRANCH   4   6
ENDBRANCH   3   4
ENDBRANCH   2   3
ENDBRANCH   1   2
BRANCH   1  25
ATOM     25  O   UNL A   1      35.216  34.027  29.693  1.00  0.00    -0.374 OA
BRANCH  25  26
ATOM     26  C   UNL A   1      34.288  34.377  30.718  1.00  0.00     0.202 C 
BRANCH  26  27
ATOM     27  C   UNL A   1      34.651  33.935  32.141  1.00  0.00     0.261 C 
BRANCH  27  28
ATOM     28  O   UNL A   1      34.866  32.517  32.246  1.00  0.00    -0.460 OA
BRANCH  28  29
ATOM     29  C   UNL A   1      35.958  32.175  32.969  1.00  0.00     0.338 C 
ATOM     30  O   UNL A   1      36.165  32.410  34.153  1.00  0.00    -0.246 OA
BRANCH  29  31
ATOM     31  C   UNL A   1      36.875  31.331  32.182  1.00  0.00     0.060 A 
ATOM     32  C   UNL A   1      37.997  30.822  32.847  1.00  0.00     0.016 A 
ATOM     33  C   UNL A   1      36.722  31.147  30.806  1.00  0.00     0.016 A 
ATOM     34  C   UNL A   1      39.011  30.193  32.128  1.00  0.00     0.010 A 
ATOM     35  C   UNL A   1      37.746  30.518  30.085  1.00  0.00     0.010 A 
ATOM     36  C   UNL A   1      38.916  30.081  30.736  1.00  0.00    -0.014 A 
BRANCH  36  37
ATOM     37  C   UNL A   1      40.111  29.656  29.963  1.00  0.00     0.031 A 
ATOM     38  C   UNL A   1      41.216  30.646  29.714  1.00  0.00     0.074 A 
ATOM     39  C   UNL A   1      40.243  28.391  29.527  1.00  0.00     0.049 A 
ATOM     40  N   UNL A   1      42.354  30.481  29.084  1.00  0.00    -0.248 NA
ATOM     41  C   UNL A   1      41.017  32.002  30.248  1.00  0.00     0.031 C 
ATOM     42  C   UNL A   1      39.267  27.326  29.727  1.00  0.00     0.029 A 
ATOM     43  N   UNL A   1      41.244  27.798  28.798  1.00  0.00    -0.354 N 
ATOM     44  C   UNL A   1      43.011  31.701  29.167  1.00  0.00     0.074 A 
ATOM     45  C   UNL A   1      42.122  32.615  29.851  1.00  0.00     0.031 C 
ATOM     46  C   UNL A   1      39.688  26.221  29.088  1.00  0.00     0.029 A 
ATOM     47  C   UNL A   1      40.971  26.499  28.450  1.00  0.00     0.049 A 
ATOM     48  H   UNL A   1      42.077  28.261  28.549  1.00  0.00     0.167 HD
ATOM     49  C   UNL A   1      44.256  32.023  28.741  1.00  0.00     0.037 A 
ATOM     50  C   UNL A   1      41.671  25.635  27.692  1.00  0.00     0.037 A 
ATOM     51  C   UNL A   1      45.148  31.117  28.067  1.00  0.00     0.049 A 
ATOM     52  C   UNL A   1      43.020  26.036  27.161  1.00  0.00     0.074 A 
ATOM     53  C   UNL A   1      46.445  31.340  27.636  1.00  0.00     0.029 A 
ATOM     54  N   UNL A   1      44.832  29.813  27.719  1.00  0.00    -0.354 N 
ATOM     55  N   UNL A   1      43.656  27.174  27.294  1.00  0.00    -0.248 NA
ATOM     56  C   UNL A   1      43.761  25.019  26.399  1.00  0.00     0.031 C 
ATOM     57  C   UNL A   1      46.897  30.185  26.989  1.00  0.00     0.029 A 
ATOM     58  C   UNL A   1      45.898  29.227  27.056  1.00  0.00     0.049 A 
ATOM     59  H   UNL A   1      43.975  29.368  27.913  1.00  0.00     0.167 HD
ATOM     60  C   UNL A   1      44.886  26.998  26.673  1.00  0.00     0.074 A 
ATOM     61  C   UNL A   1      44.905  25.644  26.159  1.00  0.00     0.031 C 
ATOM     62  C   UNL A   1      45.911  27.876  26.553  1.00  0.00     0.037 A 
BRANCH  49  63
ATOM     63  C   UNL A   1      44.730  33.423  28.998  1.00  0.00     0.064 A 
ATOM     64  C   UNL A   1      45.496  33.740  30.130  1.00  0.00     0.173 A 
ATOM     65  C   UNL A   1      44.441  34.452  28.090  1.00  0.00     0.173 A 
ATOM     66  F   UNL A   1      45.788  32.793  31.035  1.00  0.00    -0.203 F 
ATOM     67  C   UNL A   1      45.934  35.042  30.356  1.00  0.00     0.198 A 
ATOM     68  C   UNL A   1      44.903  35.747  28.306  1.00  0.00     0.198 A 
ATOM     69  F   UNL A   1      43.714  34.199  26.991  1.00  0.00    -0.203 F 
ATOM     70  F   UNL A   1      46.627  35.331  31.466  1.00  0.00    -0.200 F 
ATOM     71  C   UNL A   1      45.643  36.043  29.441  1.00  0.00     0.200 A 
ATOM     72  F   UNL A   1      44.627  36.711  27.417  1.00  0.00    -0.200 F 
ATOM     73  F   UNL A   1      46.067  37.296  29.659  1.00  0.00    -0.200 F 
ENDBRANCH  49  63
BRANCH  50  74
ATOM     74  C   UNL A   1      41.108  24.295  27.397  1.00  0.00     0.064 A 
ATOM     75  C   UNL A   1      40.043  24.135  26.501  1.00  0.00     0.173 A 
ATOM     76  C   UNL A   1      41.619  23.148  28.021  1.00  0.00     0.173 A 
ATOM     77  F   UNL A   1      39.503  25.208  25.905  1.00  0.00    -0.203 F 
ATOM     78  C   UNL A   1      39.499  22.877  26.251  1.00  0.00     0.198 A 
ATOM     79  C   UNL A   1      41.088  21.888  27.754  1.00  0.00     0.198 A 
ATOM     80  F   UNL A   1      42.629  23.255  28.898  1.00  0.00    -0.203 F 
ATOM     81  F   UNL A   1      38.450  22.757  25.426  1.00  0.00    -0.200 F 
ATOM     82  C   UNL A   1      40.024  21.755  26.875  1.00  0.00     0.200 A 
ATOM     83  F   UNL A   1      41.595  20.806  28.361  1.00  0.00    -0.200 F 
ATOM     84  F   UNL A   1      39.494  20.546  26.638  1.00  0.00    -0.200 F 
ENDBRANCH  50  74
BRANCH  62  85
ATOM     85  C   UNL A   1      47.160  27.387  25.880  1.00  0.00     0.064 A 
ATOM     86  C   UNL A   1      47.362  27.537  24.501  1.00  0.00     0.173 A 
ATOM     87  C   UNL A   1      48.178  26.779  26.632  1.00  0.00     0.173 A 
ATOM     88  F   UNL A   1      46.413  28.098  23.737  1.00  0.00    -0.203 F 
ATOM     89  C   UNL A   1      48.525  27.070  23.894  1.00  0.00     0.198 A 
ATOM     90  C   UNL A   1      49.351  26.339  26.026  1.00  0.00     0.198 A 
ATOM     91  F   UNL A   1      48.036  26.618  27.956  1.00  0.00    -0.203 F 
ATOM     92  F   UNL A   1      48.676  27.180  22.567  1.00  0.00    -0.200 F 
ATOM     93  C   UNL A   1      49.520  26.477  24.657  1.00  0.00     0.200 A 
ATOM     94  F   UNL A   1      50.316  25.776  26.767  1.00  0.00    -0.200 F 
ATOM     95  F   UNL A   1      50.639  26.030  24.071  1.00  0.00    -0.200 F 
ENDBRANCH  62  85
ENDBRANCH  36  37
ENDBRANCH  29  31
ENDBRANCH  28  29
ENDBRANCH  27  28
ENDBRANCH  26  27
ENDBRANCH  25  26
ENDBRANCH   1  25
TORSDOF 17
ENDMDL
MODEL 2
REMARK VINA RESULT:     -11.3      5.094      7.523
REMARK SMILES NC(=O)c1ccc(N[C@H]2C=C[C@@H](C(=O)OCCOCCOC(=O)c3ccc(-c4c5nc(c(-c6c(F)c(F)c(F)c(F)c6F)c6ccc([nH]6)c(-c6c(F)c(F)c(F)c(F)c6F)c6nc(c(-c7c(F)c(F)c(F)c(F)c7F)c7ccc4[nH]7)C=C6)C=C5)cc3)C2)cc1Cl
REMARK SMILES IDX 17 1 16 2 15 3 13 4 14 5 12 6 9 7 10 8 87 9 11 10 8 11 7 13
REMARK SMILES IDX 4 14 5 15 89 16 6 17 88 18 90 19 2 20 1 21 3 24 18 25 19 26
REMARK SMILES IDX 20 27 21 28 22 29 23 30 24 31 25 32 86 33 26 34 85 35 27 36
REMARK SMILES IDX 28 37 29 38 79 39 30 40 84 41 78 42 80 43 31 44 83 45 77 46
REMARK SMILES IDX 76 47 32 49 64 50 44 51 63 52 45 53 48 54 62 55 81 56 46 57
REMARK SMILES IDX 47 58 61 60 82 61 49 62 33 63 34 64 42 65 35 66 36 67 40 68
REMARK SMILES IDX 43 69 37 70 38 71 41 72 39 73 65 74 66 75 74 76 67 77 68 78
REMARK SMILES IDX 72 79 75 80 69 81 70 82 73 83 71 84 50 85 51 86 59 87 52 88
REMARK SMILES IDX 53 89 57 90 60 91 54 92 55 93 58 94 56 95
REMARK H PARENT 8 12 1 22 1 23 80 48 48 59
REMARK Flexibility Score: inf
ROOT
ATOM      1  C   UNL A   1      34.611  32.219  29.118  1.00  0.00     0.202 C 
ENDROOT
BRANCH   1   2
ATOM      2  C   UNL A   1      34.023  31.855  27.753  1.00  0.00     0.261 C 
BRANCH   2   3
ATOM      3  O   UNL A   1      34.006  30.425  27.603  1.00  0.00    -0.463 OA
BRANCH   3   4
ATOM      4  C   UNL A   1      32.829  29.873  27.218  1.00  0.00     0.312 C 
ATOM      5  O   UNL A   1      31.812  30.512  26.971  1.00  0.00    -0.252 OA
BRANCH   4   6
ATOM      6  C   UNL A   1      32.897  28.352  27.097  1.00  0.00     0.124 C 
ATOM      7  C   UNL A   1      32.195  26.635  25.490  1.00  0.00     0.103 C 
ATOM      8  C   UNL A   1      33.603  27.057  25.260  1.00  0.00    -0.006 C 
ATOM      9  C   UNL A   1      31.662  27.610  26.544  1.00  0.00     0.048 C 
ATOM     10  C   UNL A   1      33.997  27.976  26.149  1.00  0.00    -0.014 C 
BRANCH   7  11
ATOM     11  N   UNL A   1      31.427  26.588  24.261  1.00  0.00    -0.379 N 
ATOM     12  H   UNL A   1      31.518  25.753  23.747  1.00  0.00     0.161 HD
BRANCH  11  13
ATOM     13  C   UNL A   1      30.591  27.526  23.695  1.00  0.00     0.036 A 
ATOM     14  C   UNL A   1      28.738  29.426  22.640  1.00  0.00     0.058 A 
ATOM     15  C   UNL A   1      30.121  29.588  22.484  1.00  0.00     0.017 A 
ATOM     16  C   UNL A   1      28.283  28.302  23.333  1.00  0.00     0.055 A 
ATOM     17  C   UNL A   1      31.024  28.653  23.001  1.00  0.00     0.026 A 
ATOM     18  C   UNL A   1      29.206  27.375  23.853  1.00  0.00     0.047 A 
ATOM     19  Cl  UNL A   1      26.612  27.933  23.590  1.00  0.00    -0.083 Cl
BRANCH  14  20
ATOM     20  C   UNL A   1      27.894  30.486  22.027  1.00  0.00     0.250 C 
ATOM     21  N   UNL A   1      27.815  30.567  20.669  1.00  0.00    -0.366 N 
ATOM     22  H   UNL A   1      27.260  31.263  20.249  1.00  0.00     0.159 HD
ATOM     23  H   UNL A   1      28.312  29.928  20.108  1.00  0.00     0.159 HD
ATOM     24  O   UNL A   1      27.238  31.249  22.732  1.00  0.00    -0.269 OA
ENDBRANCH  14  20
ENDBRANCH  11  13
ENDBRANCH   7  11
ENDBRANCH   4   6
ENDBRANCH   3   4
ENDBRANCH   2   3
ENDBRANCH   1   2
BRANCH   1  25
ATOM     25  O   UNL A   1      34.891  33.608  29.311  1.00  0.00    -0.374 OA
BRANCH  25  26
ATOM     26  C   UNL A   1      34.149  34.542  28.529  1.00  0.00     0.202 C 
BRANCH  26  27
ATOM     27  C   UNL A   1      33.256  35.517  29.306  1.00  0.00     0.261 C 
BRANCH  27  28
ATOM     28  O   UNL A   1      32.617  34.906  30.441  1.00  0.00    -0.460 OA
BRANCH  28  29
ATOM     29  C   UNL A   1      32.845  35.541  31.614  1.00  0.00     0.338 C 
ATOM     30  O   UNL A   1      32.187  36.449  32.104  1.00  0.00    -0.246 OA
BRANCH  29  31
ATOM     31  C   UNL A   1      33.958  34.915  32.351  1.00  0.00     0.060 A 
ATOM     32  C   UNL A   1      35.187  35.587  32.336  1.00  0.00     0.016 A 
ATOM     33  C   UNL A   1      33.850  33.649  32.929  1.00  0.00     0.016 A 
ATOM     34  C   UNL A   1      36.330  34.964  32.831  1.00  0.00     0.010 A 
ATOM     35  C   UNL A   1      35.003  33.023  33.421  1.00  0.00     0.010 A 
ATOM     36  C   UNL A   1      36.256  33.659  33.331  1.00  0.00    -0.014 A 
BRANCH  36  37
ATOM     37  C   UNL A   1      37.515  32.917  33.600  1.00  0.00     0.031 A 
ATOM     38  C   UNL A   1      38.302  33.231  34.843  1.00  0.00     0.074 A 
ATOM     39  C   UNL A   1      37.934  31.939  32.778  1.00  0.00     0.049 A 
ATOM     40  N   UNL A   1      39.413  32.691  35.282  1.00  0.00    -0.248 NA
ATOM     41  C   UNL A   1      37.767  34.290  35.710  1.00  0.00     0.031 C 
ATOM     42  C   UNL A   1      37.252  31.512  31.562  1.00  0.00     0.029 A 
ATOM     43  N   UNL A   1      39.054  31.147  32.833  1.00  0.00    -0.354 N 
ATOM     44  C   UNL A   1      39.694  33.329  36.482  1.00  0.00     0.074 A 
ATOM     45  C   UNL A   1      38.674  34.338  36.674  1.00  0.00     0.031 C 
ATOM     46  C   UNL A   1      37.994  30.572  30.951  1.00  0.00     0.029 A 
ATOM     47  C   UNL A   1      39.193  30.322  31.745  1.00  0.00     0.049 A 
ATOM     48  H   UNL A   1      39.695  31.169  33.580  1.00  0.00     0.167 HD
ATOM     49  C   UNL A   1      40.692  33.075  37.363  1.00  0.00     0.037 A 
ATOM     50  C   UNL A   1      40.183  29.470  31.419  1.00  0.00     0.037 A 
ATOM     51  C   UNL A   1      41.703  32.068  37.182  1.00  0.00     0.049 A 
ATOM     52  C   UNL A   1      41.325  29.257  32.374  1.00  0.00     0.074 A 
ATOM     53  C   UNL A   1      42.729  31.709  38.040  1.00  0.00     0.029 A 
ATOM     54  N   UNL A   1      41.821  31.261  36.061  1.00  0.00    -0.354 N 
ATOM     55  N   UNL A   1      41.550  29.824  33.533  1.00  0.00    -0.248 NA
ATOM     56  C   UNL A   1      42.336  28.261  31.987  1.00  0.00     0.031 C 
ATOM     57  C   UNL A   1      43.493  30.715  37.418  1.00  0.00     0.029 A 
ATOM     58  C   UNL A   1      42.917  30.423  36.193  1.00  0.00     0.049 A 
ATOM     59  H   UNL A   1      41.216  31.281  35.284  1.00  0.00     0.167 HD
ATOM     60  C   UNL A   1      42.699  29.227  34.034  1.00  0.00     0.074 A 
ATOM     61  C   UNL A   1      43.128  28.254  33.049  1.00  0.00     0.031 C 
ATOM     62  C   UNL A   1      43.332  29.454  35.210  1.00  0.00     0.037 A 
BRANCH  49  63
ATOM     63  C   UNL A   1      40.733  33.904  38.612  1.00  0.00     0.064 A 
ATOM     64  C   UNL A   1      41.516  35.065  38.695  1.00  0.00     0.173 A 
ATOM     65  C   UNL A   1      39.958  33.553  39.727  1.00  0.00     0.173 A 
ATOM     66  F   UNL A   1      42.285  35.437  37.660  1.00  0.00    -0.203 F 
ATOM     67  C   UNL A   1      41.543  35.829  39.859  1.00  0.00     0.198 A 
ATOM     68  C   UNL A   1      39.968  34.334  40.880  1.00  0.00     0.198 A 
ATOM     69  F   UNL A   1      39.190  32.453  39.697  1.00  0.00    -0.203 F 
ATOM     70  F   UNL A   1      42.333  36.910  39.931  1.00  0.00    -0.200 F 
ATOM     71  C   UNL A   1      40.764  35.467  40.947  1.00  0.00     0.200 A 
ATOM     72  F   UNL A   1      39.208  33.986  41.928  1.00  0.00    -0.200 F 
ATOM     73  F   UNL A   1      40.788  36.205  42.066  1.00  0.00    -0.200 F 
ENDBRANCH  49  63
BRANCH  50  74
ATOM     74  C   UNL A   1      40.131  28.745  30.126  1.00  0.00     0.064 A 
ATOM     75  C   UNL A   1      39.499  27.500  30.015  1.00  0.00     0.173 A 
ATOM     76  C   UNL A   1      40.728  29.284  28.976  1.00  0.00     0.173 A 
ATOM     77  F   UNL A   1      38.942  26.934  31.095  1.00  0.00    -0.203 F 
ATOM     78  C   UNL A   1      39.480  26.811  28.804  1.00  0.00     0.198 A 
ATOM     79  C   UNL A   1      40.689  28.604  27.761  1.00  0.00     0.198 A 
ATOM     80  F   UNL A   1      41.357  30.467  29.040  1.00  0.00    -0.203 F 
ATOM     81  F   UNL A   1      38.910  25.600  28.735  1.00  0.00    -0.200 F 
ATOM     82  C   UNL A   1      40.071  27.365  27.678  1.00  0.00     0.200 A 
ATOM     83  F   UNL A   1      41.264  29.140  26.676  1.00  0.00    -0.200 F 
ATOM     84  F   UNL A   1      40.056  26.697  26.516  1.00  0.00    -0.200 F 
ENDBRANCH  50  74
BRANCH  62  85
ATOM     85  C   UNL A   1      44.530  28.605  35.521  1.00  0.00     0.064 A 
ATOM     86  C   UNL A   1      44.412  27.376  36.185  1.00  0.00     0.173 A 
ATOM     87  C   UNL A   1      45.813  29.019  35.128  1.00  0.00     0.173 A 
ATOM     88  F   UNL A   1      43.210  26.944  36.595  1.00  0.00    -0.203 F 
ATOM     89  C   UNL A   1      45.536  26.606  36.471  1.00  0.00     0.198 A 
ATOM     90  C   UNL A   1      46.932  28.234  35.390  1.00  0.00     0.198 A 
ATOM     91  F   UNL A   1      45.979  30.184  34.484  1.00  0.00    -0.203 F 
ATOM     92  F   UNL A   1      45.405  25.459  37.150  1.00  0.00    -0.200 F 
ATOM     93  C   UNL A   1      46.793  27.033  36.068  1.00  0.00     0.200 A 
ATOM     94  F   UNL A   1      48.144  28.642  34.991  1.00  0.00    -0.200 F 
ATOM     95  F   UNL A   1      47.875  26.289  36.343  1.00  0.00    -0.200 F 
ENDBRANCH  62  85
ENDBRANCH  36  37
ENDBRANCH  29  31
ENDBRANCH  28  29
ENDBRANCH  27  28
ENDBRANCH  26  27
ENDBRANCH  25  26
ENDBRANCH   1  25
TORSDOF 17
ENDMDL
MODEL 3
REMARK VINA RESULT:     -11.3      5.540     10.708
REMARK SMILES NC(=O)c1ccc(N[C@H]2C=C[C@@H](C(=O)OCCOCCOC(=O)c3ccc(-c4c5nc(c(-c6c(F)c(F)c(F)c(F)c6F)c6ccc([nH]6)c(-c6c(F)c(F)c(F)c(F)c6F)c6nc(c(-c7c(F)c(F)c(F)c(F)c7F)c7ccc4[nH]7)C=C6)C=C5)cc3)C2)cc1Cl
REMARK SMILES IDX 17 1 16 2 15 3 13 4 14 5 12 6 9 7 10 8 87 9 11 10 8 11 7 13
REMARK SMILES IDX 4 14 5 15 89 16 6 17 88 18 90 19 2 20 1 21 3 24 18 25 19 26
REMARK SMILES IDX 20 27 21 28 22 29 23 30 24 31 25 32 86 33 26 34 85 35 27 36
REMARK SMILES IDX 28 37 29 38 79 39 30 40 84 41 78 42 80 43 31 44 83 45 77 46
REMARK SMILES IDX 76 47 32 49 64 50 44 51 63 52 45 53 48 54 62 55 81 56 46 57
REMARK SMILES IDX 47 58 61 60 82 61 49 62 33 63 34 64 42 65 35 66 36 67 40 68
REMARK SMILES IDX 43 69 37 70 38 71 41 72 39 73 65 74 66 75 74 76 67 77 68 78
REMARK SMILES IDX 72 79 75 80 69 81 70 82 73 83 71 84 50 85 51 86 59 87 52 88
REMARK SMILES IDX 53 89 57 90 60 91 54 92 55 93 58 94 56 95
REMARK H PARENT 8 12 1 22 1 23 80 48 48 59
REMARK Flexibility Score: inf
ROOT
ATOM      1  C   UNL A   1      40.589  22.065  27.355  1.00  0.00     0.202 C 
ENDROOT
BRANCH   1   2
ATOM      2  C   UNL A   1      39.949  21.915  25.973  1.00  0.00     0.261 C 
BRANCH   2   3
ATOM      3  O   UNL A   1      38.594  21.457  26.120  1.00  0.00    -0.463 OA
BRANCH   3   4
ATOM      4  C   UNL A   1      37.620  22.331  25.761  1.00  0.00     0.312 C 
ATOM      5  O   UNL A   1      37.520  23.473  26.196  1.00  0.00    -0.252 OA
BRANCH   4   6
ATOM      6  C   UNL A   1      36.655  21.754  24.728  1.00  0.00     0.124 C 
ATOM      7  C   UNL A   1      34.383  22.217  23.923  1.00  0.00     0.103 C 
ATOM      8  C   UNL A   1      35.409  22.898  23.087  1.00  0.00    -0.006 C 
ATOM      9  C   UNL A   1      35.163  21.641  25.109  1.00  0.00     0.048 C 
ATOM     10  C   UNL A   1      36.649  22.628  23.508  1.00  0.00    -0.014 C 
BRANCH   7  11
ATOM     11  N   UNL A   1      33.293  23.103  24.285  1.00  0.00    -0.379 N 
ATOM     12  H   UNL A   1      32.406  22.677  24.314  1.00  0.00     0.161 HD
BRANCH  11  13
ATOM     13  C   UNL A   1      33.300  24.446  24.592  1.00  0.00     0.036 A 
ATOM     14  C   UNL A   1      33.223  27.258  25.083  1.00  0.00     0.058 A 
ATOM     15  C   UNL A   1      33.375  26.337  26.128  1.00  0.00     0.017 A 
ATOM     16  C   UNL A   1      33.108  26.763  23.782  1.00  0.00     0.055 A 
ATOM     17  C   UNL A   1      33.414  24.960  25.881  1.00  0.00     0.026 A 
ATOM     18  C   UNL A   1      33.142  25.374  23.553  1.00  0.00     0.047 A 
ATOM     19  Cl  UNL A   1      32.945  27.759  22.377  1.00  0.00    -0.083 Cl
BRANCH  14  20
ATOM     20  C   UNL A   1      33.215  28.691  25.485  1.00  0.00     0.250 C 
ATOM     21  N   UNL A   1      34.401  29.327  25.692  1.00  0.00    -0.366 N 
ATOM     22  H   UNL A   1      34.411  30.275  25.958  1.00  0.00     0.159 HD
ATOM     23  H   UNL A   1      35.249  28.840  25.574  1.00  0.00     0.159 HD
ATOM     24  O   UNL A   1      32.156  29.305  25.584  1.00  0.00    -0.269 OA
ENDBRANCH  14  20
ENDBRANCH  11  13
ENDBRANCH   7  11
ENDBRANCH   4   6
ENDBRANCH   3   4
ENDBRANCH   2   3
ENDBRANCH   1   2
BRANCH   1  25
ATOM     25  O   UNL A   1      42.019  22.027  27.373  1.00  0.00    -0.374 OA
BRANCH  25  26
ATOM     26  C   UNL A   1      42.676  21.525  26.210  1.00  0.00     0.202 C 
BRANCH  26  27
ATOM     27  C   UNL A   1      43.687  22.466  25.544  1.00  0.00     0.261 C 
BRANCH  27  28
ATOM     28  O   UNL A   1      43.066  23.610  24.933  1.00  0.00    -0.460 OA
BRANCH  28  29
ATOM     29  C   UNL A   1      43.725  24.774  25.140  1.00  0.00     0.338 C 
ATOM     30  O   UNL A   1      44.778  25.129  24.627  1.00  0.00    -0.246 OA
BRANCH  29  31
ATOM     31  C   UNL A   1      42.944  25.683  25.998  1.00  0.00     0.060 A 
ATOM     32  C   UNL A   1      43.566  26.875  26.391  1.00  0.00     0.016 A 
ATOM     33  C   UNL A   1      41.695  25.332  26.514  1.00  0.00     0.016 A 
ATOM     34  C   UNL A   1      42.978  27.684  27.360  1.00  0.00     0.010 A 
ATOM     35  C   UNL A   1      41.108  26.146  27.493  1.00  0.00     0.010 A 
ATOM     36  C   UNL A   1      41.769  27.300  27.954  1.00  0.00    -0.014 A 
BRANCH  36  37
ATOM     37  C   UNL A   1      41.298  28.023  29.163  1.00  0.00     0.031 A 
ATOM     38  C   UNL A   1      41.992  27.792  30.477  1.00  0.00     0.074 A 
ATOM     39  C   UNL A   1      40.294  28.916  29.091  1.00  0.00     0.049 A 
ATOM     40  N   UNL A   1      41.758  28.333  31.648  1.00  0.00    -0.248 NA
ATOM     41  C   UNL A   1      43.101  26.826  30.474  1.00  0.00     0.031 C 
ATOM     42  C   UNL A   1      39.559  29.259  27.879  1.00  0.00     0.029 A 
ATOM     43  N   UNL A   1      39.704  29.676  30.070  1.00  0.00    -0.354 N 
ATOM     44  C   UNL A   1      42.702  27.792  32.509  1.00  0.00     0.074 A 
ATOM     45  C   UNL A   1      43.472  26.833  31.745  1.00  0.00     0.031 C 
ATOM     46  C   UNL A   1      38.577  30.121  28.192  1.00  0.00     0.029 A 
ATOM     47  C   UNL A   1      38.628  30.401  29.624  1.00  0.00     0.049 A 
ATOM     48  H   UNL A   1      40.021  29.697  31.002  1.00  0.00     0.167 HD
ATOM     49  C   UNL A   1      42.929  28.089  33.812  1.00  0.00     0.037 A 
ATOM     50  C   UNL A   1      37.771  31.192  30.297  1.00  0.00     0.037 A 
ATOM     51  C   UNL A   1      42.173  29.047  34.574  1.00  0.00     0.049 A 
ATOM     52  C   UNL A   1      37.993  31.451  31.762  1.00  0.00     0.074 A 
ATOM     53  C   UNL A   1      42.358  29.445  35.888  1.00  0.00     0.029 A 
ATOM     54  N   UNL A   1      41.081  29.751  34.094  1.00  0.00    -0.354 N 
ATOM     55  N   UNL A   1      38.924  30.977  32.554  1.00  0.00    -0.248 NA
ATOM     56  C   UNL A   1      37.061  32.380  32.419  1.00  0.00     0.031 C 
ATOM     57  C   UNL A   1      41.350  30.360  36.214  1.00  0.00     0.029 A 
ATOM     58  C   UNL A   1      40.565  30.564  35.090  1.00  0.00     0.049 A 
ATOM     59  H   UNL A   1      40.723  29.684  33.178  1.00  0.00     0.167 HD
ATOM     60  C   UNL A   1      38.719  31.580  33.788  1.00  0.00     0.074 A 
ATOM     61  C   UNL A   1      37.571  32.452  33.641  1.00  0.00     0.031 C 
ATOM     62  C   UNL A   1      39.427  31.434  34.933  1.00  0.00     0.037 A 
BRANCH  49  63
ATOM     63  C   UNL A   1      44.053  27.367  34.495  1.00  0.00     0.064 A 
ATOM     64  C   UNL A   1      45.351  27.897  34.527  1.00  0.00     0.173 A 
ATOM     65  C   UNL A   1      43.824  26.148  35.150  1.00  0.00     0.173 A 
ATOM     66  F   UNL A   1      45.624  29.055  33.905  1.00  0.00    -0.203 F 
ATOM     67  C   UNL A   1      46.385  27.220  35.168  1.00  0.00     0.198 A 
ATOM     68  C   UNL A   1      44.855  25.487  35.811  1.00  0.00     0.198 A 
ATOM     69  F   UNL A   1      42.599  25.600  35.150  1.00  0.00    -0.203 F 
ATOM     70  F   UNL A   1      47.628  27.724  35.149  1.00  0.00    -0.200 F 
ATOM     71  C   UNL A   1      46.135  26.020  35.815  1.00  0.00     0.200 A 
ATOM     72  F   UNL A   1      44.609  24.330  36.443  1.00  0.00    -0.200 F 
ATOM     73  F   UNL A   1      47.131  25.370  36.435  1.00  0.00    -0.200 F 
ENDBRANCH  49  63
BRANCH  50  74
ATOM     74  C   UNL A   1      36.625  31.806  29.584  1.00  0.00     0.064 A 
ATOM     75  C   UNL A   1      35.538  31.034  29.154  1.00  0.00     0.173 A 
ATOM     76  C   UNL A   1      36.605  33.181  29.307  1.00  0.00     0.173 A 
ATOM     77  F   UNL A   1      35.531  29.711  29.370  1.00  0.00    -0.203 F 
ATOM     78  C   UNL A   1      34.479  31.612  28.457  1.00  0.00     0.198 A 
ATOM     79  C   UNL A   1      35.534  33.762  28.630  1.00  0.00     0.198 A 
ATOM     80  F   UNL A   1      37.632  33.957  29.687  1.00  0.00    -0.203 F 
ATOM     81  F   UNL A   1      33.474  30.844  28.015  1.00  0.00    -0.200 F 
ATOM     82  C   UNL A   1      34.476  32.976  28.200  1.00  0.00     0.200 A 
ATOM     83  F   UNL A   1      35.536  35.078  28.379  1.00  0.00    -0.200 F 
ATOM     84  F   UNL A   1      33.459  33.528  27.524  1.00  0.00    -0.200 F 
ENDBRANCH  50  74
BRANCH  62  85
ATOM     85  C   UNL A   1      39.012  32.270  36.109  1.00  0.00     0.064 A 
ATOM     86  C   UNL A   1      38.152  31.775  37.099  1.00  0.00     0.173 A 
ATOM     87  C   UNL A   1      39.501  33.577  36.256  1.00  0.00     0.173 A 
ATOM     88  F   UNL A   1      37.646  30.537  36.997  1.00  0.00    -0.203 F 
ATOM     89  C   UNL A   1      37.773  32.568  38.179  1.00  0.00     0.198 A 
ATOM     90  C   UNL A   1      39.142  34.358  37.351  1.00  0.00     0.198 A 
ATOM     91  F   UNL A   1      40.332  34.095  35.339  1.00  0.00    -0.203 F 
ATOM     92  F   UNL A   1      36.911  32.093  39.088  1.00  0.00    -0.200 F 
ATOM     93  C   UNL A   1      38.273  33.856  38.307  1.00  0.00     0.200 A 
ATOM     94  F   UNL A   1      39.635  35.598  37.478  1.00  0.00    -0.200 F 
ATOM     95  F   UNL A   1      37.908  34.618  39.348  1.00  0.00    -0.200 F 
ENDBRANCH  62  85
ENDBRANCH  36  37
ENDBRANCH  29  31
ENDBRANCH  28  29
ENDBRANCH  27  28
ENDBRANCH  26  27
ENDBRANCH  25  26
ENDBRANCH   1  25
TORSDOF 17
ENDMDL
