MODEL 1
REMARK VINA RESULT:     -12.4      0.000      0.000
REMARK SMILES O=C(CC[N@@H+]1C[C@@H](c2ccccc2)[C@@H]2[C@H]1[C@H]1CC[N@H+]2CC1)OCCOCCOC(=O)c1ccc(-c2c3nc(c(-c4c(F)c(F)c(F)c(F)c4F)c4ccc([nH]4)c(-c4c(F)c(F)c(F)c(F)c4F)c4nc(c(-c5c(F)c(F)c(F)c(F)c5F)c5ccc2[nH]5)C=C4)C=C3)cc1
REMARK SMILES IDX 24 1 23 2 22 3 2 4 1 5 3 6 4 7 5 8 6 9 15 10 7 12 14 13
REMARK SMILES IDX 16 14 19 15 17 16 21 17 18 18 20 19 8 21 9 22 13 23 10 24
REMARK SMILES IDX 12 25 11 26 25 27 26 28 27 29 28 30 29 31 30 32 31 33 32 34
REMARK SMILES IDX 93 35 33 36 92 37 34 38 35 39 36 40 86 41 37 42 91 43 85 44
REMARK SMILES IDX 87 45 38 46 90 47 84 48 83 49 39 51 71 52 51 53 70 54 52 55
REMARK SMILES IDX 55 56 69 57 88 58 53 59 54 60 68 62 89 63 56 64 40 65 41 66
REMARK SMILES IDX 49 67 42 68 43 69 47 70 50 71 44 72 45 73 48 74 46 75 72 76
REMARK SMILES IDX 73 77 81 78 74 79 75 80 79 81 82 82 76 83 77 84 80 85 78 86
REMARK SMILES IDX 57 87 58 88 66 89 59 90 60 91 64 92 67 93 61 94 62 95 65 96
REMARK SMILES IDX 63 97
REMARK H PARENT 5 11 19 20 87 50 55 61
REMARK Flexibility Score: inf
ROOT
ATOM      1  C   UNL A   1      33.533  20.547  25.681  1.00  0.00     0.202 C 
ENDROOT
BRANCH   1   2
ATOM      2  C   UNL A   1      33.811  21.475  26.846  1.00  0.00     0.261 C 
BRANCH   2   3
ATOM      3  O   UNL A   1      32.928  22.596  26.926  1.00  0.00    -0.463 OA
BRANCH   3   4
ATOM      4  C   UNL A   1      32.416  23.275  25.883  1.00  0.00     0.311 C 
ATOM      5  O   UNL A   1      31.194  23.439  25.842  1.00  0.00    -0.252 OA
BRANCH   4   6
ATOM      6  C   UNL A   1      33.286  23.840  24.775  1.00  0.00     0.184 C 
BRANCH   6   7
ATOM      7  C   UNL A   1      32.570  24.493  23.606  1.00  0.00     0.274 C 
BRANCH   7   8
ATOM      8  N   UNL A   1      31.902  25.778  23.887  1.00  0.00    -0.326 N 
ATOM      9  C   UNL A   1      31.471  26.384  22.585  1.00  0.00     0.277 C 
ATOM     10  C   UNL A   1      32.679  26.764  24.703  1.00  0.00     0.247 C 
ATOM     11  H   UNL A   1      31.106  25.554  24.485  1.00  0.00     0.348 HD
ATOM     12  C   UNL A   1      31.455  27.927  22.561  1.00  0.00     0.139 C 
ATOM     13  C   UNL A   1      32.512  28.285  23.622  1.00  0.00     0.256 C 
ATOM     14  C   UNL A   1      32.110  27.248  26.417  1.00  0.00     0.065 C 
ATOM     15  N   UNL A   1      32.535  29.686  24.404  1.00  0.00    -0.327 N 
ATOM     16  C   UNL A   1      31.370  28.042  25.548  1.00  0.00     0.071 C 
ATOM     17  C   UNL A   1      31.850  28.923  27.149  1.00  0.00     0.071 C 
ATOM     18  C   UNL A   1      33.105  28.889  25.373  1.00  0.00     0.263 C 
ATOM     19  C   UNL A   1      31.706  30.184  25.713  1.00  0.00     0.263 C 
ATOM     20  H   UNL A   1      32.610  30.446  23.727  1.00  0.00     0.348 HD
BRANCH  12  21
ATOM     21  C   UNL A   1      30.115  28.653  22.600  1.00  0.00    -0.033 A 
ATOM     22  C   UNL A   1      29.878  29.936  22.081  1.00  0.00     0.004 A 
ATOM     23  C   UNL A   1      29.024  27.974  23.169  1.00  0.00     0.004 A 
ATOM     24  C   UNL A   1      28.588  30.473  22.038  1.00  0.00     0.000 A 
ATOM     25  C   UNL A   1      27.745  28.534  23.180  1.00  0.00     0.000 A 
ATOM     26  C   UNL A   1      27.521  29.773  22.590  1.00  0.00     0.000 A 
ENDBRANCH  12  21
ENDBRANCH   7   8
ENDBRANCH   6   7
ENDBRANCH   4   6
ENDBRANCH   3   4
ENDBRANCH   2   3
ENDBRANCH   1   2
BRANCH   1  27
ATOM     27  O   UNL A   1      34.683  20.113  24.966  1.00  0.00    -0.374 OA
BRANCH  27  28
ATOM     28  C   UNL A   1      35.693  21.113  24.818  1.00  0.00     0.202 C 
BRANCH  28  29
ATOM     29  C   UNL A   1      37.122  20.575  24.985  1.00  0.00     0.261 C 
BRANCH  29  30
ATOM     30  O   UNL A   1      38.060  21.628  25.260  1.00  0.00    -0.460 OA
BRANCH  30  31
ATOM     31  C   UNL A   1      39.138  21.262  26.008  1.00  0.00     0.338 C 
ATOM     32  O   UNL A   1      39.653  20.166  26.069  1.00  0.00    -0.246 OA
BRANCH  31  33
ATOM     33  C   UNL A   1      39.744  22.482  26.602  1.00  0.00     0.060 A 
ATOM     34  C   UNL A   1      39.244  23.734  26.203  1.00  0.00     0.016 A 
ATOM     35  C   UNL A   1      40.747  22.405  27.570  1.00  0.00     0.016 A 
ATOM     36  C   UNL A   1      39.763  24.909  26.746  1.00  0.00     0.010 A 
ATOM     37  C   UNL A   1      41.277  23.580  28.101  1.00  0.00     0.010 A 
ATOM     38  C   UNL A   1      40.811  24.836  27.669  1.00  0.00    -0.014 A 
BRANCH  38  39
ATOM     39  C   UNL A   1      41.590  26.039  28.043  1.00  0.00     0.031 A 
ATOM     40  C   UNL A   1      40.867  27.142  28.760  1.00  0.00     0.074 A 
ATOM     41  C   UNL A   1      42.877  26.187  27.692  1.00  0.00     0.049 A 
ATOM     42  N   UNL A   1      41.239  28.373  28.995  1.00  0.00    -0.248 NA
ATOM     43  C   UNL A   1      39.522  26.810  29.256  1.00  0.00     0.031 C 
ATOM     44  C   UNL A   1      43.697  25.174  27.034  1.00  0.00     0.029 A 
ATOM     45  N   UNL A   1      43.705  27.278  27.802  1.00  0.00    -0.354 N 
ATOM     46  C   UNL A   1      40.160  28.972  29.633  1.00  0.00     0.074 A 
ATOM     47  C   UNL A   1      39.116  27.976  29.730  1.00  0.00     0.031 C 
ATOM     48  C   UNL A   1      44.901  25.706  26.758  1.00  0.00     0.029 A 
ATOM     49  C   UNL A   1      44.913  27.108  27.173  1.00  0.00     0.049 A 
ATOM     50  H   UNL A   1      43.457  28.099  28.286  1.00  0.00     0.167 HD
ATOM     51  C   UNL A   1      40.053  30.241  30.089  1.00  0.00     0.037 A 
ATOM     52  C   UNL A   1      45.890  28.001  26.915  1.00  0.00     0.037 A 
ATOM     53  C   UNL A   1      41.101  31.222  29.983  1.00  0.00     0.049 A 
ATOM     54  C   UNL A   1      45.734  29.428  27.377  1.00  0.00     0.074 A 
ATOM     55  C   UNL A   1      41.114  32.524  30.448  1.00  0.00     0.029 A 
ATOM     56  N   UNL A   1      42.319  31.008  29.353  1.00  0.00    -0.354 N 
ATOM     57  N   UNL A   1      44.726  29.990  28.000  1.00  0.00    -0.248 NA
ATOM     58  C   UNL A   1      46.849  30.345  27.098  1.00  0.00     0.031 C 
ATOM     59  C   UNL A   1      42.311  33.120  30.038  1.00  0.00     0.029 A 
ATOM     60  C   UNL A   1      43.078  32.166  29.385  1.00  0.00     0.049 A 
ATOM     61  H   UNL A   1      42.602  30.158  28.945  1.00  0.00     0.167 HD
ATOM     62  C   UNL A   1      45.096  31.313  28.217  1.00  0.00     0.074 A 
ATOM     63  C   UNL A   1      46.422  31.470  27.657  1.00  0.00     0.031 C 
ATOM     64  C   UNL A   1      44.403  32.304  28.832  1.00  0.00     0.037 A 
BRANCH  51  65
ATOM     65  C   UNL A   1      38.736  30.651  30.685  1.00  0.00     0.064 A 
ATOM     66  C   UNL A   1      37.665  31.094  29.895  1.00  0.00     0.173 A 
ATOM     67  C   UNL A   1      38.550  30.610  32.076  1.00  0.00     0.173 A 
ATOM     68  F   UNL A   1      37.792  31.167  28.562  1.00  0.00    -0.203 F 
ATOM     69  C   UNL A   1      36.475  31.527  30.478  1.00  0.00     0.198 A 
ATOM     70  C   UNL A   1      37.347  31.006  32.652  1.00  0.00     0.198 A 
ATOM     71  F   UNL A   1      39.540  30.191  32.878  1.00  0.00    -0.203 F 
ATOM     72  F   UNL A   1      35.494  32.018  29.709  1.00  0.00    -0.200 F 
ATOM     73  C   UNL A   1      36.316  31.478  31.855  1.00  0.00     0.200 A 
ATOM     74  F   UNL A   1      37.191  30.944  33.981  1.00  0.00    -0.200 F 
ATOM     75  F   UNL A   1      35.174  31.898  32.415  1.00  0.00    -0.200 F 
ENDBRANCH  51  65
BRANCH  52  76
ATOM     76  C   UNL A   1      47.088  27.567  26.150  1.00  0.00     0.064 A 
ATOM     77  C   UNL A   1      47.113  27.619  24.750  1.00  0.00     0.173 A 
ATOM     78  C   UNL A   1      48.245  27.118  26.806  1.00  0.00     0.173 A 
ATOM     79  F   UNL A   1      46.023  28.014  24.076  1.00  0.00    -0.203 F 
ATOM     80  C   UNL A   1      48.247  27.236  24.035  1.00  0.00     0.198 A 
ATOM     81  C   UNL A   1      49.388  26.764  26.092  1.00  0.00     0.198 A 
ATOM     82  F   UNL A   1      48.272  27.048  28.145  1.00  0.00    -0.203 F 
ATOM     83  F   UNL A   1      48.233  27.265  22.696  1.00  0.00    -0.200 F 
ATOM     84  C   UNL A   1      49.386  26.818  24.708  1.00  0.00     0.200 A 
ATOM     85  F   UNL A   1      50.491  26.375  26.748  1.00  0.00    -0.200 F 
ATOM     86  F   UNL A   1      50.482  26.468  24.021  1.00  0.00    -0.200 F 
ENDBRANCH  52  76
BRANCH  64  87
ATOM     87  C   UNL A   1      45.074  33.639  28.987  1.00  0.00     0.064 A 
ATOM     88  C   UNL A   1      45.917  33.928  30.068  1.00  0.00     0.173 A 
ATOM     89  C   UNL A   1      44.935  34.615  27.984  1.00  0.00     0.173 A 
ATOM     90  F   UNL A   1      46.075  33.037  31.058  1.00  0.00    -0.203 F 
ATOM     91  C   UNL A   1      46.587  35.147  30.148  1.00  0.00     0.198 A 
ATOM     92  C   UNL A   1      45.632  35.818  28.051  1.00  0.00     0.198 A 
ATOM     93  F   UNL A   1      44.146  34.386  26.924  1.00  0.00    -0.203 F 
ATOM     94  F   UNL A   1      47.364  35.415  31.208  1.00  0.00    -0.200 F 
ATOM     95  C   UNL A   1      46.454  36.085  29.134  1.00  0.00     0.200 A 
ATOM     96  F   UNL A   1      45.515  36.714  27.060  1.00  0.00    -0.200 F 
ATOM     97  F   UNL A   1      47.118  37.247  29.202  1.00  0.00    -0.200 F 
ENDBRANCH  64  87
ENDBRANCH  38  39
ENDBRANCH  31  33
ENDBRANCH  30  31
ENDBRANCH  29  30
ENDBRANCH  28  29
ENDBRANCH  27  28
ENDBRANCH   1  27
TORSDOF 17
ENDMDL
MODEL 2
REMARK VINA RESULT:     -12.2      1.705      2.934
REMARK SMILES O=C(CC[N@@H+]1C[C@@H](c2ccccc2)[C@@H]2[C@H]1[C@H]1CC[N@H+]2CC1)OCCOCCOC(=O)c1ccc(-c2c3nc(c(-c4c(F)c(F)c(F)c(F)c4F)c4ccc([nH]4)c(-c4c(F)c(F)c(F)c(F)c4F)c4nc(c(-c5c(F)c(F)c(F)c(F)c5F)c5ccc2[nH]5)C=C4)C=C3)cc1
REMARK SMILES IDX 24 1 23 2 22 3 2 4 1 5 3 6 4 7 5 8 6 9 15 10 7 12 14 13
REMARK SMILES IDX 16 14 19 15 17 16 21 17 18 18 20 19 8 21 9 22 13 23 10 24
REMARK SMILES IDX 12 25 11 26 25 27 26 28 27 29 28 30 29 31 30 32 31 33 32 34
REMARK SMILES IDX 93 35 33 36 92 37 34 38 35 39 36 40 86 41 37 42 91 43 85 44
REMARK SMILES IDX 87 45 38 46 90 47 84 48 83 49 39 51 71 52 51 53 70 54 52 55
REMARK SMILES IDX 55 56 69 57 88 58 53 59 54 60 68 62 89 63 56 64 40 65 41 66
REMARK SMILES IDX 49 67 42 68 43 69 47 70 50 71 44 72 45 73 48 74 46 75 72 76
REMARK SMILES IDX 73 77 81 78 74 79 75 80 79 81 82 82 76 83 77 84 80 85 78 86
REMARK SMILES IDX 57 87 58 88 66 89 59 90 60 91 64 92 67 93 61 94 62 95 65 96
REMARK SMILES IDX 63 97
REMARK H PARENT 5 11 19 20 87 50 55 61
REMARK Flexibility Score: inf
ROOT
ATOM      1  C   UNL A   1      36.706  22.590  24.940  1.00  0.00     0.202 C 
ENDROOT
BRANCH   1   2
ATOM      2  C   UNL A   1      36.630  22.968  23.474  1.00  0.00     0.261 C 
BRANCH   2   3
ATOM      3  O   UNL A   1      35.304  22.991  22.943  1.00  0.00    -0.463 OA
BRANCH   3   4
ATOM      4  C   UNL A   1      34.380  23.944  23.164  1.00  0.00     0.311 C 
ATOM      5  O   UNL A   1      34.317  24.885  22.369  1.00  0.00    -0.252 OA
BRANCH   4   6
ATOM      6  C   UNL A   1      33.426  23.894  24.343  1.00  0.00     0.184 C 
BRANCH   6   7
ATOM      7  C   UNL A   1      31.955  24.130  24.045  1.00  0.00     0.274 C 
BRANCH   7   8
ATOM      8  N   UNL A   1      31.475  25.517  24.189  1.00  0.00    -0.326 N 
ATOM      9  C   UNL A   1      31.101  26.033  22.833  1.00  0.00     0.277 C 
ATOM     10  C   UNL A   1      32.398  26.468  24.886  1.00  0.00     0.247 C 
ATOM     11  H   UNL A   1      30.671  25.470  24.815  1.00  0.00     0.348 HD
ATOM     12  C   UNL A   1      31.293  27.553  22.641  1.00  0.00     0.139 C 
ATOM     13  C   UNL A   1      32.415  27.873  23.648  1.00  0.00     0.256 C 
ATOM     14  C   UNL A   1      31.941  27.206  26.542  1.00  0.00     0.065 C 
ATOM     15  N   UNL A   1      32.647  29.333  24.271  1.00  0.00    -0.327 N 
ATOM     16  C   UNL A   1      31.295  27.997  25.598  1.00  0.00     0.071 C 
ATOM     17  C   UNL A   1      31.928  28.969  27.090  1.00  0.00     0.071 C 
ATOM     18  C   UNL A   1      33.125  28.573  25.317  1.00  0.00     0.263 C 
ATOM     19  C   UNL A   1      31.923  30.077  25.526  1.00  0.00     0.263 C 
ATOM     20  H   UNL A   1      32.808  29.998  23.515  1.00  0.00     0.348 HD
BRANCH  12  21
ATOM     21  C   UNL A   1      30.066  28.456  22.612  1.00  0.00    -0.033 A 
ATOM     22  C   UNL A   1      30.021  29.736  22.037  1.00  0.00     0.004 A 
ATOM     23  C   UNL A   1      28.878  27.958  23.174  1.00  0.00     0.004 A 
ATOM     24  C   UNL A   1      28.819  30.443  21.935  1.00  0.00     0.000 A 
ATOM     25  C   UNL A   1      27.689  28.687  23.126  1.00  0.00     0.000 A 
ATOM     26  C   UNL A   1      27.652  29.919  22.482  1.00  0.00     0.000 A 
ENDBRANCH  12  21
ENDBRANCH   7   8
ENDBRANCH   6   7
ENDBRANCH   4   6
ENDBRANCH   3   4
ENDBRANCH   2   3
ENDBRANCH   1   2
BRANCH   1  27
ATOM     27  O   UNL A   1      37.807  21.763  25.295  1.00  0.00    -0.374 OA
BRANCH  27  28
ATOM     28  C   UNL A   1      37.655  20.392  24.921  1.00  0.00     0.202 C 
BRANCH  28  29
ATOM     29  C   UNL A   1      38.817  19.497  25.375  1.00  0.00     0.261 C 
BRANCH  29  30
ATOM     30  O   UNL A   1      39.668  20.166  26.320  1.00  0.00    -0.460 OA
BRANCH  30  31
ATOM     31  C   UNL A   1      40.996  19.885  26.202  1.00  0.00     0.338 C 
ATOM     32  O   UNL A   1      41.498  18.875  25.757  1.00  0.00    -0.246 OA
BRANCH  31  33
ATOM     33  C   UNL A   1      41.774  21.112  26.515  1.00  0.00     0.060 A 
ATOM     34  C   UNL A   1      42.259  21.274  27.825  1.00  0.00     0.016 A 
ATOM     35  C   UNL A   1      42.068  22.063  25.537  1.00  0.00     0.016 A 
ATOM     36  C   UNL A   1      43.013  22.398  28.167  1.00  0.00     0.010 A 
ATOM     37  C   UNL A   1      42.808  23.194  25.882  1.00  0.00     0.010 A 
ATOM     38  C   UNL A   1      43.255  23.382  27.204  1.00  0.00    -0.014 A 
BRANCH  38  39
ATOM     39  C   UNL A   1      43.781  24.714  27.583  1.00  0.00     0.031 A 
ATOM     40  C   UNL A   1      42.804  25.727  28.102  1.00  0.00     0.074 A 
ATOM     41  C   UNL A   1      45.070  25.044  27.401  1.00  0.00     0.049 A 
ATOM     42  N   UNL A   1      42.949  27.014  28.285  1.00  0.00    -0.248 NA
ATOM     43  C   UNL A   1      41.465  25.216  28.434  1.00  0.00     0.031 C 
ATOM     44  C   UNL A   1      46.120  24.137  26.947  1.00  0.00     0.029 A 
ATOM     45  N   UNL A   1      45.701  26.256  27.536  1.00  0.00    -0.354 N 
ATOM     46  C   UNL A   1      41.711  27.470  28.718  1.00  0.00     0.074 A 
ATOM     47  C   UNL A   1      40.824  26.328  28.751  1.00  0.00     0.031 C 
ATOM     48  C   UNL A   1      47.259  24.836  26.797  1.00  0.00     0.029 A 
ATOM     49  C   UNL A   1      47.000  26.244  27.095  1.00  0.00     0.049 A 
ATOM     50  H   UNL A   1      45.264  27.054  27.913  1.00  0.00     0.167 HD
ATOM     51  C   UNL A   1      41.350  28.731  29.050  1.00  0.00     0.037 A 
ATOM     52  C   UNL A   1      47.861  27.264  26.902  1.00  0.00     0.037 A 
ATOM     53  C   UNL A   1      42.244  29.858  29.011  1.00  0.00     0.049 A 
ATOM     54  C   UNL A   1      47.427  28.673  27.221  1.00  0.00     0.074 A 
ATOM     55  C   UNL A   1      41.994  31.170  29.366  1.00  0.00     0.029 A 
ATOM     56  N   UNL A   1      43.560  29.803  28.574  1.00  0.00    -0.354 N 
ATOM     57  N   UNL A   1      46.266  29.104  27.652  1.00  0.00    -0.248 NA
ATOM     58  C   UNL A   1      48.422  29.737  27.025  1.00  0.00     0.031 C 
ATOM     59  C   UNL A   1      43.136  31.924  29.078  1.00  0.00     0.029 A 
ATOM     60  C   UNL A   1      44.125  31.067  28.616  1.00  0.00     0.049 A 
ATOM     61  H   UNL A   1      44.024  28.986  28.278  1.00  0.00     0.167 HD
ATOM     62  C   UNL A   1      46.398  30.478  27.809  1.00  0.00     0.074 A 
ATOM     63  C   UNL A   1      47.754  30.811  27.427  1.00  0.00     0.031 C 
ATOM     64  C   UNL A   1      45.481  31.381  28.241  1.00  0.00     0.037 A 
BRANCH  51  65
ATOM     65  C   UNL A   1      39.913  28.960  29.425  1.00  0.00     0.064 A 
ATOM     66  C   UNL A   1      39.459  28.848  30.748  1.00  0.00     0.173 A 
ATOM     67  C   UNL A   1      38.971  29.284  28.436  1.00  0.00     0.173 A 
ATOM     68  F   UNL A   1      40.313  28.526  31.731  1.00  0.00    -0.203 F 
ATOM     69  C   UNL A   1      38.110  29.003  31.059  1.00  0.00     0.198 A 
ATOM     70  C   UNL A   1      37.630  29.477  28.757  1.00  0.00     0.198 A 
ATOM     71  F   UNL A   1      39.349  29.407  27.156  1.00  0.00    -0.203 F 
ATOM     72  F   UNL A   1      37.689  28.816  32.318  1.00  0.00    -0.200 F 
ATOM     73  C   UNL A   1      37.198  29.323  30.064  1.00  0.00     0.200 A 
ATOM     74  F   UNL A   1      36.754  29.800  27.796  1.00  0.00    -0.200 F 
ATOM     75  F   UNL A   1      35.900  29.469  30.364  1.00  0.00    -0.200 F 
ENDBRANCH  51  65
BRANCH  52  76
ATOM     76  C   UNL A   1      49.210  26.982  26.347  1.00  0.00     0.064 A 
ATOM     77  C   UNL A   1      50.285  26.653  27.182  1.00  0.00     0.173 A 
ATOM     78  C   UNL A   1      49.445  27.010  24.963  1.00  0.00     0.173 A 
ATOM     79  F   UNL A   1      50.118  26.641  28.512  1.00  0.00    -0.203 F 
ATOM     80  C   UNL A   1      51.544  26.364  26.656  1.00  0.00     0.198 A 
ATOM     81  C   UNL A   1      50.695  26.692  24.437  1.00  0.00     0.198 A 
ATOM     82  F   UNL A   1      48.450  27.321  24.119  1.00  0.00    -0.203 F 
ATOM     83  F   UNL A   1      52.562  26.083  27.480  1.00  0.00    -0.200 F 
ATOM     84  C   UNL A   1      51.745  26.374  25.284  1.00  0.00     0.200 A 
ATOM     85  F   UNL A   1      50.880  26.689  23.109  1.00  0.00    -0.200 F 
ATOM     86  F   UNL A   1      52.950  26.078  24.779  1.00  0.00    -0.200 F 
ENDBRANCH  52  76
BRANCH  64  87
ATOM     87  C   UNL A   1      45.916  32.813  28.378  1.00  0.00     0.064 A 
ATOM     88  C   UNL A   1      45.741  33.746  27.347  1.00  0.00     0.173 A 
ATOM     89  C   UNL A   1      46.436  33.275  29.599  1.00  0.00     0.173 A 
ATOM     90  F   UNL A   1      45.260  33.355  26.157  1.00  0.00    -0.203 F 
ATOM     91  C   UNL A   1      46.082  35.085  27.527  1.00  0.00     0.198 A 
ATOM     92  C   UNL A   1      46.745  34.619  29.786  1.00  0.00     0.198 A 
ATOM     93  F   UNL A   1      46.615  32.425  30.621  1.00  0.00    -0.203 F 
ATOM     94  F   UNL A   1      45.937  35.953  26.516  1.00  0.00    -0.200 F 
ATOM     95  C   UNL A   1      46.572  35.522  28.749  1.00  0.00     0.200 A 
ATOM     96  F   UNL A   1      47.200  35.041  30.975  1.00  0.00    -0.200 F 
ATOM     97  F   UNL A   1      46.878  36.815  28.928  1.00  0.00    -0.200 F 
ENDBRANCH  64  87
ENDBRANCH  38  39
ENDBRANCH  31  33
ENDBRANCH  30  31
ENDBRANCH  29  30
ENDBRANCH  28  29
ENDBRANCH  27  28
ENDBRANCH   1  27
TORSDOF 17
ENDMDL
MODEL 3
REMARK VINA RESULT:     -12.1      1.148      2.530
REMARK SMILES O=C(CC[N@@H+]1C[C@@H](c2ccccc2)[C@@H]2[C@H]1[C@H]1CC[N@H+]2CC1)OCCOCCOC(=O)c1ccc(-c2c3nc(c(-c4c(F)c(F)c(F)c(F)c4F)c4ccc([nH]4)c(-c4c(F)c(F)c(F)c(F)c4F)c4nc(c(-c5c(F)c(F)c(F)c(F)c5F)c5ccc2[nH]5)C=C4)C=C3)cc1
REMARK SMILES IDX 24 1 23 2 22 3 2 4 1 5 3 6 4 7 5 8 6 9 15 10 7 12 14 13
REMARK SMILES IDX 16 14 19 15 17 16 21 17 18 18 20 19 8 21 9 22 13 23 10 24
REMARK SMILES IDX 12 25 11 26 25 27 26 28 27 29 28 30 29 31 30 32 31 33 32 34
REMARK SMILES IDX 93 35 33 36 92 37 34 38 35 39 36 40 86 41 37 42 91 43 85 44
REMARK SMILES IDX 87 45 38 46 90 47 84 48 83 49 39 51 71 52 51 53 70 54 52 55
REMARK SMILES IDX 55 56 69 57 88 58 53 59 54 60 68 62 89 63 56 64 40 65 41 66
REMARK SMILES IDX 49 67 42 68 43 69 47 70 50 71 44 72 45 73 48 74 46 75 72 76
REMARK SMILES IDX 73 77 81 78 74 79 75 80 79 81 82 82 76 83 77 84 80 85 78 86
REMARK SMILES IDX 57 87 58 88 66 89 59 90 60 91 64 92 67 93 61 94 62 95 65 96
REMARK SMILES IDX 63 97
REMARK H PARENT 5 11 19 20 87 50 55 61
REMARK Flexibility Score: inf
ROOT
ATOM      1  C   UNL A   1      34.567  22.536  24.096  1.00  0.00     0.202 C 
ENDROOT
BRANCH   1   2
ATOM      2  C   UNL A   1      33.153  22.234  24.551  1.00  0.00     0.261 C 
BRANCH   2   3
ATOM      3  O   UNL A   1      32.951  22.365  25.960  1.00  0.00    -0.463 OA
BRANCH   3   4
ATOM      4  C   UNL A   1      31.993  23.098  26.556  1.00  0.00     0.311 C 
ATOM      5  O   UNL A   1      32.191  23.478  27.712  1.00  0.00    -0.252 OA
BRANCH   4   6
ATOM      6  C   UNL A   1      30.699  23.469  25.856  1.00  0.00     0.184 C 
BRANCH   6   7
ATOM      7  C   UNL A   1      30.241  24.912  25.979  1.00  0.00     0.274 C 
BRANCH   7   8
ATOM      8  N   UNL A   1      31.266  25.944  25.731  1.00  0.00    -0.326 N 
ATOM      9  C   UNL A   1      31.098  27.033  26.748  1.00  0.00     0.277 C 
ATOM     10  C   UNL A   1      31.313  26.511  24.346  1.00  0.00     0.247 C 
ATOM     11  H   UNL A   1      32.165  25.472  25.822  1.00  0.00     0.348 HD
ATOM     12  C   UNL A   1      31.501  28.441  26.262  1.00  0.00     0.139 C 
ATOM     13  C   UNL A   1      31.284  28.341  24.740  1.00  0.00     0.256 C 
ATOM     14  C   UNL A   1      32.792  26.214  23.240  1.00  0.00     0.065 C 
ATOM     15  N   UNL A   1      32.036  29.282  23.680  1.00  0.00    -0.327 N 
ATOM     16  C   UNL A   1      33.150  27.285  24.052  1.00  0.00     0.071 C 
ATOM     17  C   UNL A   1      33.820  27.418  22.290  1.00  0.00     0.071 C 
ATOM     18  C   UNL A   1      31.867  28.162  22.894  1.00  0.00     0.263 C 
ATOM     19  C   UNL A   1      33.520  29.164  23.023  1.00  0.00     0.263 C 
ATOM     20  H   UNL A   1      31.822  30.258  23.888  1.00  0.00     0.348 HD
BRANCH  12  21
ATOM     21  C   UNL A   1      32.801  29.055  26.770  1.00  0.00    -0.033 A 
ATOM     22  C   UNL A   1      34.016  28.367  26.912  1.00  0.00     0.004 A 
ATOM     23  C   UNL A   1      32.791  30.424  27.090  1.00  0.00     0.004 A 
ATOM     24  C   UNL A   1      35.193  29.039  27.258  1.00  0.00     0.000 A 
ATOM     25  C   UNL A   1      33.953  31.085  27.492  1.00  0.00     0.000 A 
ATOM     26  C   UNL A   1      35.161  30.398  27.550  1.00  0.00     0.000 A 
ENDBRANCH  12  21
ENDBRANCH   7   8
ENDBRANCH   6   7
ENDBRANCH   4   6
ENDBRANCH   3   4
ENDBRANCH   2   3
ENDBRANCH   1   2
BRANCH   1  27
ATOM     27  O   UNL A   1      35.586  22.208  25.032  1.00  0.00    -0.374 OA
BRANCH  27  28
ATOM     28  C   UNL A   1      35.952  20.827  25.040  1.00  0.00     0.202 C 
BRANCH  28  29
ATOM     29  C   UNL A   1      37.464  20.590  24.907  1.00  0.00     0.261 C 
BRANCH  29  30
ATOM     30  O   UNL A   1      38.225  21.689  25.433  1.00  0.00    -0.460 OA
BRANCH  30  31
ATOM     31  C   UNL A   1      39.315  21.338  26.170  1.00  0.00     0.338 C 
ATOM     32  O   UNL A   1      39.832  20.244  26.243  1.00  0.00    -0.246 OA
BRANCH  31  33
ATOM     33  C   UNL A   1      39.928  22.568  26.734  1.00  0.00     0.060 A 
ATOM     34  C   UNL A   1      39.453  23.813  26.283  1.00  0.00     0.016 A 
ATOM     35  C   UNL A   1      40.913  22.511  27.721  1.00  0.00     0.016 A 
ATOM     36  C   UNL A   1      39.979  24.999  26.796  1.00  0.00     0.010 A 
ATOM     37  C   UNL A   1      41.451  23.696  28.221  1.00  0.00     0.010 A 
ATOM     38  C   UNL A   1      41.010  24.943  27.739  1.00  0.00    -0.014 A 
BRANCH  38  39
ATOM     39  C   UNL A   1      41.800  26.148  28.086  1.00  0.00     0.031 A 
ATOM     40  C   UNL A   1      41.102  27.246  28.833  1.00  0.00     0.074 A 
ATOM     41  C   UNL A   1      43.072  26.301  27.685  1.00  0.00     0.049 A 
ATOM     42  N   UNL A   1      41.479  28.477  29.057  1.00  0.00    -0.248 NA
ATOM     43  C   UNL A   1      39.779  26.909  29.381  1.00  0.00     0.031 C 
ATOM     44  C   UNL A   1      43.868  25.292  26.993  1.00  0.00     0.029 A 
ATOM     45  N   UNL A   1      43.900  27.393  27.766  1.00  0.00    -0.354 N 
ATOM     46  C   UNL A   1      40.425  29.071  29.739  1.00  0.00     0.074 A 
ATOM     47  C   UNL A   1      39.388  28.072  29.874  1.00  0.00     0.031 C 
ATOM     48  C   UNL A   1      45.058  25.828  26.671  1.00  0.00     0.029 A 
ATOM     49  C   UNL A   1      45.082  27.229  27.090  1.00  0.00     0.049 A 
ATOM     50  H   UNL A   1      43.668  28.212  28.262  1.00  0.00     0.167 HD
ATOM     51  C   UNL A   1      40.332  30.339  30.203  1.00  0.00     0.037 A 
ATOM     52  C   UNL A   1      46.046  28.125  26.796  1.00  0.00     0.037 A 
ATOM     53  C   UNL A   1      41.372  31.323  30.059  1.00  0.00     0.049 A 
ATOM     54  C   UNL A   1      45.904  29.551  27.268  1.00  0.00     0.074 A 
ATOM     55  C   UNL A   1      41.399  32.624  30.527  1.00  0.00     0.029 A 
ATOM     56  N   UNL A   1      42.565  31.114  29.381  1.00  0.00    -0.354 N 
ATOM     57  N   UNL A   1      44.920  30.108  27.932  1.00  0.00    -0.248 NA
ATOM     58  C   UNL A   1      47.005  30.471  26.948  1.00  0.00     0.031 C 
ATOM     59  C   UNL A   1      42.578  33.225  30.072  1.00  0.00     0.029 A 
ATOM     60  C   UNL A   1      43.321  32.275  29.387  1.00  0.00     0.049 A 
ATOM     61  H   UNL A   1      42.834  30.267  28.959  1.00  0.00     0.167 HD
ATOM     62  C   UNL A   1      45.294  31.431  28.138  1.00  0.00     0.074 A 
ATOM     63  C   UNL A   1      46.597  31.594  27.527  1.00  0.00     0.031 C 
ATOM     64  C   UNL A   1      44.623  32.418  28.783  1.00  0.00     0.037 A 
BRANCH  51  65
ATOM     65  C   UNL A   1      39.038  30.743  30.852  1.00  0.00     0.064 A 
ATOM     66  C   UNL A   1      37.975  31.291  30.119  1.00  0.00     0.173 A 
ATOM     67  C   UNL A   1      38.867  30.589  32.236  1.00  0.00     0.173 A 
ATOM     68  F   UNL A   1      38.089  31.475  28.795  1.00  0.00    -0.203 F 
ATOM     69  C   UNL A   1      36.809  31.715  30.754  1.00  0.00     0.198 A 
ATOM     70  C   UNL A   1      37.686  30.977  32.862  1.00  0.00     0.198 A 
ATOM     71  F   UNL A   1      39.849  30.066  32.985  1.00  0.00    -0.203 F 
ATOM     72  F   UNL A   1      35.839  32.306  30.044  1.00  0.00    -0.200 F 
ATOM     73  C   UNL A   1      36.665  31.553  32.124  1.00  0.00     0.200 A 
ATOM     74  F   UNL A   1      37.543  30.805  34.183  1.00  0.00    -0.200 F 
ATOM     75  F   UNL A   1      35.545  31.964  32.734  1.00  0.00    -0.200 F 
ENDBRANCH  51  65
BRANCH  52  76
ATOM     76  C   UNL A   1      47.215  27.698  25.983  1.00  0.00     0.064 A 
ATOM     77  C   UNL A   1      47.179  27.738  24.583  1.00  0.00     0.173 A 
ATOM     78  C   UNL A   1      48.403  27.266  26.592  1.00  0.00     0.173 A 
ATOM     79  F   UNL A   1      46.057  28.116  23.954  1.00  0.00    -0.203 F 
ATOM     80  C   UNL A   1      48.285  27.360  23.823  1.00  0.00     0.198 A 
ATOM     81  C   UNL A   1      49.518  26.917  25.833  1.00  0.00     0.198 A 
ATOM     82  F   UNL A   1      48.489  27.208  27.930  1.00  0.00    -0.203 F 
ATOM     83  F   UNL A   1      48.213  27.378  22.486  1.00  0.00    -0.200 F 
ATOM     84  C   UNL A   1      49.457  26.960  24.449  1.00  0.00     0.200 A 
ATOM     85  F   UNL A   1      50.652  26.545  26.443  1.00  0.00    -0.200 F 
ATOM     86  F   UNL A   1      50.526  26.615  23.718  1.00  0.00    -0.200 F 
ENDBRANCH  52  76
BRANCH  64  87
ATOM     87  C   UNL A   1      45.295  33.755  28.915  1.00  0.00     0.064 A 
ATOM     88  C   UNL A   1      45.064  34.798  28.008  1.00  0.00     0.173 A 
ATOM     89  C   UNL A   1      46.120  34.020  30.022  1.00  0.00     0.173 A 
ATOM     90  F   UNL A   1      44.295  34.595  26.928  1.00  0.00    -0.203 F 
ATOM     91  C   UNL A   1      45.640  36.052  28.197  1.00  0.00     0.198 A 
ATOM     92  C   UNL A   1      46.667  35.283  30.225  1.00  0.00     0.198 A 
ATOM     93  F   UNL A   1      46.367  33.059  30.925  1.00  0.00    -0.203 F 
ATOM     94  F   UNL A   1      45.432  37.026  27.299  1.00  0.00    -0.200 F 
ATOM     95  C   UNL A   1      46.431  36.298  29.311  1.00  0.00     0.200 A 
ATOM     96  F   UNL A   1      47.415  35.521  31.312  1.00  0.00    -0.200 F 
ATOM     97  F   UNL A   1      46.967  37.511  29.502  1.00  0.00    -0.200 F 
ENDBRANCH  64  87
ENDBRANCH  38  39
ENDBRANCH  31  33
ENDBRANCH  30  31
ENDBRANCH  29  30
ENDBRANCH  28  29
ENDBRANCH  27  28
ENDBRANCH   1  27
TORSDOF 17
ENDMDL
