MODEL 1
REMARK VINA RESULT:     -10.9      0.000      0.000
REMARK SMILES O=C(OCCOCCOC(=O)[C@@H]1CCCC[C@@H]1Sc1ccncc1)c1ccc(-c2c3nc(c(-c4c(F)c(F)c(F)c(F)c4F)c4ccc([nH]4)c(-c4c(F)c(F)c(F)c(F)c4F)c4nc(c(-c5c(F)c(F)c(F)c(F)c5F)c5ccc2[nH]5)C=C4)C=C3)cc1
REMARK SMILES IDX 6 1 5 2 4 3 3 4 2 5 1 6 25 7 26 8 87 9 27 10 86 11 28 12
REMARK SMILES IDX 29 13 30 14 80 15 31 16 85 17 79 18 81 19 32 20 84 21 78 22
REMARK SMILES IDX 77 23 33 25 65 26 45 27 64 28 46 29 49 30 63 31 82 32 47 33
REMARK SMILES IDX 48 34 62 36 83 37 50 38 34 39 35 40 43 41 36 42 37 43 41 44
REMARK SMILES IDX 44 45 38 46 39 47 42 48 40 49 66 50 67 51 75 52 68 53 69 54
REMARK SMILES IDX 73 55 76 56 70 57 71 58 74 59 72 60 51 61 52 62 60 63 53 64
REMARK SMILES IDX 54 65 58 66 61 67 55 68 56 69 59 70 57 71 7 72 8 73 9 74
REMARK SMILES IDX 10 75 11 76 12 77 13 78 17 79 14 80 16 81 15 82 18 83 19 84
REMARK SMILES IDX 20 85 24 86 21 87 23 88 22 89
REMARK H PARENT 81 24 49 35
REMARK Flexibility Score: inf
ROOT
ATOM      1  O   UNL A   1      30.747  29.725  23.840  1.00  0.00    -0.374 OA
ENDROOT
BRANCH   1   2
ATOM      2  C   UNL A   1      31.373  29.046  24.929  1.00  0.00     0.202 C 
BRANCH   2   3
ATOM      3  C   UNL A   1      31.685  29.858  26.197  1.00  0.00     0.261 C 
BRANCH   3   4
ATOM      4  O   UNL A   1      32.995  30.446  26.152  1.00  0.00    -0.460 OA
BRANCH   4   5
ATOM      5  C   UNL A   1      33.539  31.298  27.057  1.00  0.00     0.338 C 
ATOM      6  O   UNL A   1      33.017  32.394  27.246  1.00  0.00    -0.246 OA
BRANCH   5   7
ATOM      7  C   UNL A   1      34.766  30.960  27.834  1.00  0.00     0.060 A 
ATOM      8  C   UNL A   1      35.026  29.692  28.347  1.00  0.00     0.016 A 
ATOM      9  C   UNL A   1      35.753  31.941  28.001  1.00  0.00     0.016 A 
ATOM     10  C   UNL A   1      36.168  29.385  29.033  1.00  0.00     0.010 A 
ATOM     11  C   UNL A   1      36.947  31.638  28.669  1.00  0.00     0.010 A 
ATOM     12  C   UNL A   1      37.144  30.351  29.180  1.00  0.00    -0.014 A 
BRANCH  12  13
ATOM     13  C   UNL A   1      38.274  29.943  30.012  1.00  0.00     0.031 A 
ATOM     14  C   UNL A   1      39.351  29.142  29.362  1.00  0.00     0.074 A 
ATOM     15  C   UNL A   1      38.431  30.532  31.211  1.00  0.00     0.049 A 
ATOM     16  N   UNL A   1      40.438  28.651  29.879  1.00  0.00    -0.248 NA
ATOM     17  C   UNL A   1      39.194  28.883  27.918  1.00  0.00     0.031 C 
ATOM     18  C   UNL A   1      37.515  31.525  31.789  1.00  0.00     0.029 A 
ATOM     19  N   UNL A   1      39.440  30.443  32.125  1.00  0.00    -0.354 N 
ATOM     20  C   UNL A   1      41.070  27.983  28.841  1.00  0.00     0.074 A 
ATOM     21  C   UNL A   1      40.261  28.147  27.657  1.00  0.00     0.031 C 
ATOM     22  C   UNL A   1      38.021  31.967  32.950  1.00  0.00     0.029 A 
ATOM     23  C   UNL A   1      39.236  31.218  33.239  1.00  0.00     0.049 A 
ATOM     24  H   UNL A   1      40.236  29.877  31.998  1.00  0.00     0.167 HD
ATOM     25  C   UNL A   1      42.218  27.275  28.907  1.00  0.00     0.037 A 
ATOM     26  C   UNL A   1      39.936  31.258  34.385  1.00  0.00     0.037 A 
ATOM     27  C   UNL A   1      42.978  27.153  30.119  1.00  0.00     0.049 A 
ATOM     28  C   UNL A   1      41.130  30.348  34.480  1.00  0.00     0.074 A 
ATOM     29  C   UNL A   1      44.094  26.384  30.376  1.00  0.00     0.029 A 
ATOM     30  N   UNL A   1      42.682  27.844  31.292  1.00  0.00    -0.354 N 
ATOM     31  N   UNL A   1      41.661  29.584  33.552  1.00  0.00    -0.248 NA
ATOM     32  C   UNL A   1      41.804  30.275  35.779  1.00  0.00     0.031 C 
ATOM     33  C   UNL A   1      44.445  26.573  31.717  1.00  0.00     0.029 A 
ATOM     34  C   UNL A   1      43.585  27.506  32.282  1.00  0.00     0.049 A 
ATOM     35  H   UNL A   1      41.939  28.480  31.400  1.00  0.00     0.167 HD
ATOM     36  C   UNL A   1      42.738  28.949  34.146  1.00  0.00     0.074 A 
ATOM     37  C   UNL A   1      42.797  29.438  35.512  1.00  0.00     0.031 C 
ATOM     38  C   UNL A   1      43.598  28.039  33.624  1.00  0.00     0.037 A 
BRANCH  25  39
ATOM     39  C   UNL A   1      42.618  26.515  27.680  1.00  0.00     0.064 A 
ATOM     40  C   UNL A   1      42.161  25.215  27.419  1.00  0.00     0.173 A 
ATOM     41  C   UNL A   1      43.539  27.078  26.782  1.00  0.00     0.173 A 
ATOM     42  F   UNL A   1      41.314  24.614  28.267  1.00  0.00    -0.203 F 
ATOM     43  C   UNL A   1      42.631  24.497  26.320  1.00  0.00     0.198 A 
ATOM     44  C   UNL A   1      43.985  26.369  25.670  1.00  0.00     0.198 A 
ATOM     45  F   UNL A   1      44.023  28.311  26.995  1.00  0.00    -0.203 F 
ATOM     46  F   UNL A   1      42.234  23.232  26.128  1.00  0.00    -0.200 F 
ATOM     47  C   UNL A   1      43.540  25.076  25.446  1.00  0.00     0.200 A 
ATOM     48  F   UNL A   1      44.865  26.929  24.829  1.00  0.00    -0.200 F 
ATOM     49  F   UNL A   1      44.001  24.380  24.398  1.00  0.00    -0.200 F 
ENDBRANCH  25  39
BRANCH  26  50
ATOM     50  C   UNL A   1      39.479  32.094  35.527  1.00  0.00     0.064 A 
ATOM     51  C   UNL A   1      39.941  33.405  35.705  1.00  0.00     0.173 A 
ATOM     52  C   UNL A   1      38.575  31.593  36.480  1.00  0.00     0.173 A 
ATOM     53  F   UNL A   1      40.820  33.928  34.839  1.00  0.00    -0.203 F 
ATOM     54  C   UNL A   1      39.532  34.173  36.795  1.00  0.00     0.198 A 
ATOM     55  C   UNL A   1      38.141  32.372  37.550  1.00  0.00     0.198 A 
ATOM     56  F   UNL A   1      38.102  30.343  36.367  1.00  0.00    -0.203 F 
ATOM     57  F   UNL A   1      40.028  35.406  36.968  1.00  0.00    -0.200 F 
ATOM     58  C   UNL A   1      38.627  33.659  37.714  1.00  0.00     0.200 A 
ATOM     59  F   UNL A   1      37.255  31.874  38.423  1.00  0.00    -0.200 F 
ATOM     60  F   UNL A   1      38.234  34.398  38.759  1.00  0.00    -0.200 F 
ENDBRANCH  26  50
BRANCH  38  61
ATOM     61  C   UNL A   1      44.691  27.560  34.526  1.00  0.00     0.064 A 
ATOM     62  C   UNL A   1      44.530  26.431  35.340  1.00  0.00     0.173 A 
ATOM     63  C   UNL A   1      45.933  28.212  34.531  1.00  0.00     0.173 A 
ATOM     64  F   UNL A   1      43.352  25.788  35.379  1.00  0.00    -0.203 F 
ATOM     65  C   UNL A   1      45.570  25.983  36.146  1.00  0.00     0.198 A 
ATOM     66  C   UNL A   1      46.980  27.741  35.311  1.00  0.00     0.198 A 
ATOM     67  F   UNL A   1      46.132  29.293  33.761  1.00  0.00    -0.203 F 
ATOM     68  F   UNL A   1      45.383  24.928  36.952  1.00  0.00    -0.200 F 
ATOM     69  C   UNL A   1      46.797  26.631  36.122  1.00  0.00     0.200 A 
ATOM     70  F   UNL A   1      48.170  28.358  35.275  1.00  0.00    -0.200 F 
ATOM     71  F   UNL A   1      47.802  26.189  36.889  1.00  0.00    -0.200 F 
ENDBRANCH  38  61
ENDBRANCH  12  13
ENDBRANCH   5   7
ENDBRANCH   4   5
ENDBRANCH   3   4
ENDBRANCH   2   3
ENDBRANCH   1   2
BRANCH   1  72
ATOM     72  C   UNL A   1      30.762  29.061  22.575  1.00  0.00     0.202 C 
BRANCH  72  73
ATOM     73  C   UNL A   1      30.534  27.562  22.762  1.00  0.00     0.261 C 
BRANCH  73  74
ATOM     74  O   UNL A   1      31.285  26.853  21.763  1.00  0.00    -0.463 OA
BRANCH  74  75
ATOM     75  C   UNL A   1      32.540  26.483  22.111  1.00  0.00     0.310 C 
ATOM     76  O   UNL A   1      33.520  26.524  21.372  1.00  0.00    -0.252 OA
BRANCH  75  77
ATOM     77  C   UNL A   1      32.616  25.981  23.539  1.00  0.00     0.112 C 
ATOM     78  C   UNL A   1      33.890  26.526  24.182  1.00  0.00     0.016 C 
ATOM     79  C   UNL A   1      32.385  24.461  23.807  1.00  0.00     0.066 C 
ATOM     80  C   UNL A   1      33.894  26.243  25.677  1.00  0.00     0.001 C 
ATOM     81  C   UNL A   1      32.459  24.205  25.320  1.00  0.00     0.016 C 
ATOM     82  C   UNL A   1      33.726  24.757  25.961  1.00  0.00     0.001 C 
BRANCH  79  83
ATOM     83  S   UNL A   1      33.554  23.344  22.896  1.00  0.00    -0.122 SA
BRANCH  83  84
ATOM     84  C   UNL A   1      33.598  21.784  23.775  1.00  0.00     0.011 A 
ATOM     85  C   UNL A   1      34.662  21.285  24.520  1.00  0.00     0.035 A 
ATOM     86  C   UNL A   1      32.455  20.984  23.652  1.00  0.00     0.035 A 
ATOM     87  C   UNL A   1      34.569  19.998  25.039  1.00  0.00     0.112 A 
ATOM     88  C   UNL A   1      32.449  19.719  24.220  1.00  0.00     0.112 A 
ATOM     89  N   UNL A   1      33.491  19.202  24.898  1.00  0.00    -0.265 NA
ENDBRANCH  83  84
ENDBRANCH  79  83
ENDBRANCH  75  77
ENDBRANCH  74  75
ENDBRANCH  73  74
ENDBRANCH  72  73
ENDBRANCH   1  72
TORSDOF 16
ENDMDL
MODEL 2
REMARK VINA RESULT:     -10.9      4.535      7.318
REMARK SMILES O=C(OCCOCCOC(=O)[C@@H]1CCCC[C@@H]1Sc1ccncc1)c1ccc(-c2c3nc(c(-c4c(F)c(F)c(F)c(F)c4F)c4ccc([nH]4)c(-c4c(F)c(F)c(F)c(F)c4F)c4nc(c(-c5c(F)c(F)c(F)c(F)c5F)c5ccc2[nH]5)C=C4)C=C3)cc1
REMARK SMILES IDX 6 1 5 2 4 3 3 4 2 5 1 6 25 7 26 8 87 9 27 10 86 11 28 12
REMARK SMILES IDX 29 13 30 14 80 15 31 16 85 17 79 18 81 19 32 20 84 21 78 22
REMARK SMILES IDX 77 23 33 25 65 26 45 27 64 28 46 29 49 30 63 31 82 32 47 33
REMARK SMILES IDX 48 34 62 36 83 37 50 38 34 39 35 40 43 41 36 42 37 43 41 44
REMARK SMILES IDX 44 45 38 46 39 47 42 48 40 49 66 50 67 51 75 52 68 53 69 54
REMARK SMILES IDX 73 55 76 56 70 57 71 58 74 59 72 60 51 61 52 62 60 63 53 64
REMARK SMILES IDX 54 65 58 66 61 67 55 68 56 69 59 70 57 71 7 72 8 73 9 74
REMARK SMILES IDX 10 75 11 76 12 77 13 78 17 79 14 80 16 81 15 82 18 83 19 84
REMARK SMILES IDX 20 85 24 86 21 87 23 88 22 89
REMARK H PARENT 81 24 49 35
REMARK Flexibility Score: inf
ROOT
ATOM      1  O   UNL A   1      37.018  21.624  25.966  1.00  0.00    -0.374 OA
ENDROOT
BRANCH   1   2
ATOM      2  C   UNL A   1      37.358  20.753  24.886  1.00  0.00     0.202 C 
BRANCH   2   3
ATOM      3  C   UNL A   1      38.598  19.858  25.050  1.00  0.00     0.261 C 
BRANCH   3   4
ATOM      4  O   UNL A   1      39.229  20.039  26.328  1.00  0.00    -0.460 OA
BRANCH   4   5
ATOM      5  C   UNL A   1      40.535  20.323  26.560  1.00  0.00     0.338 C 
ATOM      6  O   UNL A   1      41.371  19.425  26.489  1.00  0.00    -0.246 OA
BRANCH   5   7
ATOM      7  C   UNL A   1      41.003  21.695  26.913  1.00  0.00     0.060 A 
ATOM      8  C   UNL A   1      40.654  22.834  26.194  1.00  0.00     0.016 A 
ATOM      9  C   UNL A   1      41.774  21.870  28.070  1.00  0.00     0.016 A 
ATOM     10  C   UNL A   1      41.065  24.090  26.542  1.00  0.00     0.010 A 
ATOM     11  C   UNL A   1      42.175  23.152  28.467  1.00  0.00     0.010 A 
ATOM     12  C   UNL A   1      41.810  24.259  27.693  1.00  0.00    -0.014 A 
BRANCH  12  13
ATOM     13  C   UNL A   1      42.275  25.627  27.915  1.00  0.00     0.031 A 
ATOM     14  C   UNL A   1      43.531  26.044  27.230  1.00  0.00     0.074 A 
ATOM     15  C   UNL A   1      41.424  26.508  28.473  1.00  0.00     0.049 A 
ATOM     16  N   UNL A   1      44.153  27.185  27.274  1.00  0.00    -0.248 NA
ATOM     17  C   UNL A   1      44.159  25.043  26.346  1.00  0.00     0.031 C 
ATOM     18  C   UNL A   1      40.068  26.191  28.940  1.00  0.00     0.029 A 
ATOM     19  N   UNL A   1      41.539  27.852  28.679  1.00  0.00    -0.354 N 
ATOM     20  C   UNL A   1      45.271  27.026  26.470  1.00  0.00     0.074 A 
ATOM     21  C   UNL A   1      45.235  25.688  25.928  1.00  0.00     0.031 C 
ATOM     22  C   UNL A   1      39.472  27.319  29.356  1.00  0.00     0.029 A 
ATOM     23  C   UNL A   1      40.436  28.407  29.278  1.00  0.00     0.049 A 
ATOM     24  H   UNL A   1      42.337  28.371  28.425  1.00  0.00     0.167 HD
ATOM     25  C   UNL A   1      46.246  27.931  26.240  1.00  0.00     0.037 A 
ATOM     26  C   UNL A   1      40.267  29.650  29.758  1.00  0.00     0.037 A 
ATOM     27  C   UNL A   1      46.220  29.250  26.810  1.00  0.00     0.049 A 
ATOM     28  C   UNL A   1      41.428  30.594  29.615  1.00  0.00     0.074 A 
ATOM     29  C   UNL A   1      47.182  30.238  26.765  1.00  0.00     0.029 A 
ATOM     30  N   UNL A   1      45.146  29.760  27.535  1.00  0.00    -0.354 N 
ATOM     31  N   UNL A   1      42.567  30.412  28.985  1.00  0.00    -0.248 NA
ATOM     32  C   UNL A   1      41.306  31.899  30.271  1.00  0.00     0.031 C 
ATOM     33  C   UNL A   1      46.709  31.328  27.505  1.00  0.00     0.029 A 
ATOM     34  C   UNL A   1      45.428  31.045  27.959  1.00  0.00     0.049 A 
ATOM     35  H   UNL A   1      44.308  29.276  27.718  1.00  0.00     0.167 HD
ATOM     36  C   UNL A   1      43.292  31.580  29.154  1.00  0.00     0.074 A 
ATOM     37  C   UNL A   1      42.450  32.473  29.929  1.00  0.00     0.031 C 
ATOM     38  C   UNL A   1      44.539  31.891  28.721  1.00  0.00     0.037 A 
BRANCH  25  39
ATOM     39  C   UNL A   1      47.433  27.468  25.452  1.00  0.00     0.064 A 
ATOM     40  C   UNL A   1      48.554  26.882  26.057  1.00  0.00     0.173 A 
ATOM     41  C   UNL A   1      47.473  27.682  24.065  1.00  0.00     0.173 A 
ATOM     42  F   UNL A   1      48.585  26.695  27.384  1.00  0.00    -0.203 F 
ATOM     43  C   UNL A   1      49.683  26.555  25.307  1.00  0.00     0.198 A 
ATOM     44  C   UNL A   1      48.590  27.327  23.315  1.00  0.00     0.198 A 
ATOM     45  F   UNL A   1      46.434  28.256  23.439  1.00  0.00    -0.203 F 
ATOM     46  F   UNL A   1      50.769  26.060  25.916  1.00  0.00    -0.200 F 
ATOM     47  C   UNL A   1      49.698  26.774  23.937  1.00  0.00     0.200 A 
ATOM     48  F   UNL A   1      48.603  27.543  21.992  1.00  0.00    -0.200 F 
ATOM     49  F   UNL A   1      50.789  26.470  23.220  1.00  0.00    -0.200 F 
ENDBRANCH  25  39
BRANCH  26  50
ATOM     50  C   UNL A   1      39.021  30.024  30.479  1.00  0.00     0.064 A 
ATOM     51  C   UNL A   1      37.928  30.588  29.808  1.00  0.00     0.173 A 
ATOM     52  C   UNL A   1      38.899  29.837  31.867  1.00  0.00     0.173 A 
ATOM     53  F   UNL A   1      37.995  30.808  28.487  1.00  0.00    -0.203 F 
ATOM     54  C   UNL A   1      36.774  30.964  30.495  1.00  0.00     0.198 A 
ATOM     55  C   UNL A   1      37.733  30.182  32.548  1.00  0.00     0.198 A 
ATOM     56  F   UNL A   1      39.914  29.307  32.567  1.00  0.00    -0.203 F 
ATOM     57  F   UNL A   1      35.763  31.548  29.835  1.00  0.00    -0.200 F 
ATOM     58  C   UNL A   1      36.675  30.756  31.863  1.00  0.00     0.200 A 
ATOM     59  F   UNL A   1      37.640  29.962  33.866  1.00  0.00    -0.200 F 
ATOM     60  F   UNL A   1      35.565  31.116  32.522  1.00  0.00    -0.200 F 
ENDBRANCH  26  50
BRANCH  38  61
ATOM     61  C   UNL A   1      45.034  33.265  29.045  1.00  0.00     0.064 A 
ATOM     62  C   UNL A   1      44.807  34.349  28.188  1.00  0.00     0.173 A 
ATOM     63  C   UNL A   1      45.697  33.503  30.258  1.00  0.00     0.173 A 
ATOM     64  F   UNL A   1      44.193  34.162  27.009  1.00  0.00    -0.203 F 
ATOM     65  C   UNL A   1      45.247  35.624  28.524  1.00  0.00     0.198 A 
ATOM     66  C   UNL A   1      46.104  34.784  30.607  1.00  0.00     0.198 A 
ATOM     67  F   UNL A   1      45.929  32.493  31.111  1.00  0.00    -0.203 F 
ATOM     68  F   UNL A   1      45.061  36.641  27.671  1.00  0.00    -0.200 F 
ATOM     69  C   UNL A   1      45.884  35.842  29.738  1.00  0.00     0.200 A 
ATOM     70  F   UNL A   1      46.705  34.995  31.786  1.00  0.00    -0.200 F 
ATOM     71  F   UNL A   1      46.294  37.074  30.067  1.00  0.00    -0.200 F 
ENDBRANCH  38  61
ENDBRANCH  12  13
ENDBRANCH   5   7
ENDBRANCH   4   5
ENDBRANCH   3   4
ENDBRANCH   2   3
ENDBRANCH   1   2
BRANCH   1  72
ATOM     72  C   UNL A   1      37.041  23.027  25.691  1.00  0.00     0.202 C 
BRANCH  72  73
ATOM     73  C   UNL A   1      36.639  23.288  24.240  1.00  0.00     0.261 C 
BRANCH  73  74
ATOM     74  O   UNL A   1      35.432  24.067  24.230  1.00  0.00    -0.463 OA
BRANCH  74  75
ATOM     75  C   UNL A   1      34.374  23.521  23.586  1.00  0.00     0.310 C 
ATOM     76  O   UNL A   1      34.380  23.128  22.422  1.00  0.00    -0.252 OA
BRANCH  75  77
ATOM     77  C   UNL A   1      33.139  23.457  24.462  1.00  0.00     0.112 C 
ATOM     78  C   UNL A   1      33.411  24.235  25.748  1.00  0.00     0.016 C 
ATOM     79  C   UNL A   1      32.469  22.067  24.704  1.00  0.00     0.066 C 
ATOM     80  C   UNL A   1      32.130  24.395  26.553  1.00  0.00     0.001 C 
ATOM     81  C   UNL A   1      31.216  22.264  25.572  1.00  0.00     0.016 C 
ATOM     82  C   UNL A   1      31.488  23.047  26.850  1.00  0.00     0.001 C 
BRANCH  79  83
ATOM     83  S   UNL A   1      33.599  20.803  25.459  1.00  0.00    -0.122 SA
BRANCH  83  84
ATOM     84  C   UNL A   1      33.494  19.324  24.453  1.00  0.00     0.011 A 
ATOM     85  C   UNL A   1      34.370  18.243  24.479  1.00  0.00     0.035 A 
ATOM     86  C   UNL A   1      32.446  19.293  23.525  1.00  0.00     0.035 A 
ATOM     87  C   UNL A   1      34.207  17.229  23.542  1.00  0.00     0.112 A 
ATOM     88  C   UNL A   1      32.355  18.229  22.640  1.00  0.00     0.112 A 
ATOM     89  N   UNL A   1      33.226  17.203  22.618  1.00  0.00    -0.265 NA
ENDBRANCH  83  84
ENDBRANCH  79  83
ENDBRANCH  75  77
ENDBRANCH  74  75
ENDBRANCH  73  74
ENDBRANCH  72  73
ENDBRANCH   1  72
TORSDOF 16
ENDMDL
MODEL 3
REMARK VINA RESULT:     -10.9      2.477      8.351
REMARK SMILES O=C(OCCOCCOC(=O)[C@@H]1CCCC[C@@H]1Sc1ccncc1)c1ccc(-c2c3nc(c(-c4c(F)c(F)c(F)c(F)c4F)c4ccc([nH]4)c(-c4c(F)c(F)c(F)c(F)c4F)c4nc(c(-c5c(F)c(F)c(F)c(F)c5F)c5ccc2[nH]5)C=C4)C=C3)cc1
REMARK SMILES IDX 6 1 5 2 4 3 3 4 2 5 1 6 25 7 26 8 87 9 27 10 86 11 28 12
REMARK SMILES IDX 29 13 30 14 80 15 31 16 85 17 79 18 81 19 32 20 84 21 78 22
REMARK SMILES IDX 77 23 33 25 65 26 45 27 64 28 46 29 49 30 63 31 82 32 47 33
REMARK SMILES IDX 48 34 62 36 83 37 50 38 34 39 35 40 43 41 36 42 37 43 41 44
REMARK SMILES IDX 44 45 38 46 39 47 42 48 40 49 66 50 67 51 75 52 68 53 69 54
REMARK SMILES IDX 73 55 76 56 70 57 71 58 74 59 72 60 51 61 52 62 60 63 53 64
REMARK SMILES IDX 54 65 58 66 61 67 55 68 56 69 59 70 57 71 7 72 8 73 9 74
REMARK SMILES IDX 10 75 11 76 12 77 13 78 17 79 14 80 16 81 15 82 18 83 19 84
REMARK SMILES IDX 20 85 24 86 21 87 23 88 22 89
REMARK H PARENT 81 24 49 35
REMARK Flexibility Score: inf
ROOT
ATOM      1  O   UNL A   1      31.461  31.170  25.951  1.00  0.00    -0.374 OA
ENDROOT
BRANCH   1   2
ATOM      2  C   UNL A   1      31.392  32.257  26.876  1.00  0.00     0.202 C 
BRANCH   2   3
ATOM      3  C   UNL A   1      32.690  33.023  27.181  1.00  0.00     0.261 C 
BRANCH   3   4
ATOM      4  O   UNL A   1      32.449  34.197  27.973  1.00  0.00    -0.460 OA
BRANCH   4   5
ATOM      5  C   UNL A   1      33.263  34.722  28.923  1.00  0.00     0.338 C 
ATOM      6  O   UNL A   1      33.015  35.834  29.385  1.00  0.00    -0.246 OA
BRANCH   5   7
ATOM      7  C   UNL A   1      34.467  34.003  29.428  1.00  0.00     0.060 A 
ATOM      8  C   UNL A   1      34.403  32.858  30.217  1.00  0.00     0.016 A 
ATOM      9  C   UNL A   1      35.737  34.448  29.035  1.00  0.00     0.016 A 
ATOM     10  C   UNL A   1      35.514  32.188  30.651  1.00  0.00     0.010 A 
ATOM     11  C   UNL A   1      36.887  33.757  29.437  1.00  0.00     0.010 A 
ATOM     12  C   UNL A   1      36.761  32.622  30.246  1.00  0.00    -0.014 A 
BRANCH  12  13
ATOM     13  C   UNL A   1      37.876  31.893  30.848  1.00  0.00     0.031 A 
ATOM     14  C   UNL A   1      38.088  32.052  32.314  1.00  0.00     0.074 A 
ATOM     15  C   UNL A   1      38.463  30.918  30.130  1.00  0.00     0.049 A 
ATOM     16  N   UNL A   1      39.005  31.530  33.075  1.00  0.00    -0.248 NA
ATOM     17  C   UNL A   1      37.111  32.895  33.030  1.00  0.00     0.031 C 
ATOM     18  C   UNL A   1      38.111  30.557  28.750  1.00  0.00     0.029 A 
ATOM     19  N   UNL A   1      39.421  30.009  30.475  1.00  0.00    -0.354 N 
ATOM     20  C   UNL A   1      38.749  32.020  34.347  1.00  0.00     0.074 A 
ATOM     21  C   UNL A   1      37.579  32.862  34.266  1.00  0.00     0.031 C 
ATOM     22  C   UNL A   1      38.831  29.488  28.378  1.00  0.00     0.029 A 
ATOM     23  C   UNL A   1      39.756  29.157  29.452  1.00  0.00     0.049 A 
ATOM     24  H   UNL A   1      39.832  29.970  31.369  1.00  0.00     0.167 HD
ATOM     25  C   UNL A   1      39.465  31.789  35.468  1.00  0.00     0.037 A 
ATOM     26  C   UNL A   1      40.750  28.255  29.391  1.00  0.00     0.037 A 
ATOM     27  C   UNL A   1      40.620  30.936  35.481  1.00  0.00     0.049 A 
ATOM     28  C   UNL A   1      41.622  28.125  30.609  1.00  0.00     0.074 A 
ATOM     29  C   UNL A   1      41.514  30.692  36.504  1.00  0.00     0.029 A 
ATOM     30  N   UNL A   1      41.034  30.175  34.390  1.00  0.00    -0.354 N 
ATOM     31  N   UNL A   1      41.488  28.698  31.784  1.00  0.00    -0.248 NA
ATOM     32  C   UNL A   1      42.796  27.256  30.494  1.00  0.00     0.031 C 
ATOM     33  C   UNL A   1      42.494  29.821  36.016  1.00  0.00     0.029 A 
ATOM     34  C   UNL A   1      42.181  29.473  34.709  1.00  0.00     0.049 A 
ATOM     35  H   UNL A   1      40.576  30.142  33.519  1.00  0.00     0.167 HD
ATOM     36  C   UNL A   1      42.550  28.252  32.554  1.00  0.00     0.074 A 
ATOM     37  C   UNL A   1      43.305  27.340  31.714  1.00  0.00     0.031 C 
ATOM     38  C   UNL A   1      42.882  28.567  33.830  1.00  0.00     0.037 A 
BRANCH  25  39
ATOM     39  C   UNL A   1      39.074  32.557  36.694  1.00  0.00     0.064 A 
ATOM     40  C   UNL A   1      39.648  33.794  37.021  1.00  0.00     0.173 A 
ATOM     41  C   UNL A   1      38.154  32.002  37.598  1.00  0.00     0.173 A 
ATOM     42  F   UNL A   1      40.564  34.348  36.213  1.00  0.00    -0.203 F 
ATOM     43  C   UNL A   1      39.337  34.434  38.219  1.00  0.00     0.198 A 
ATOM     44  C   UNL A   1      37.824  32.658  38.781  1.00  0.00     0.198 A 
ATOM     45  F   UNL A   1      37.590  30.812  37.344  1.00  0.00    -0.203 F 
ATOM     46  F   UNL A   1      39.948  35.582  38.543  1.00  0.00    -0.200 F 
ATOM     47  C   UNL A   1      38.423  33.867  39.096  1.00  0.00     0.200 A 
ATOM     48  F   UNL A   1      36.943  32.106  39.627  1.00  0.00    -0.200 F 
ATOM     49  F   UNL A   1      38.134  34.478  40.254  1.00  0.00    -0.200 F 
ENDBRANCH  25  39
BRANCH  26  50
ATOM     50  C   UNL A   1      41.018  27.503  28.137  1.00  0.00     0.064 A 
ATOM     51  C   UNL A   1      40.468  26.234  27.912  1.00  0.00     0.173 A 
ATOM     52  C   UNL A   1      41.847  28.034  27.132  1.00  0.00     0.173 A 
ATOM     53  F   UNL A   1      39.686  25.669  28.844  1.00  0.00    -0.203 F 
ATOM     54  C   UNL A   1      40.748  25.521  26.746  1.00  0.00     0.198 A 
ATOM     55  C   UNL A   1      42.099  27.335  25.953  1.00  0.00     0.198 A 
ATOM     56  F   UNL A   1      42.408  29.242  27.291  1.00  0.00    -0.203 F 
ATOM     57  F   UNL A   1      40.248  24.288  26.581  1.00  0.00    -0.200 F 
ATOM     58  C   UNL A   1      41.558  26.074  25.765  1.00  0.00     0.200 A 
ATOM     59  F   UNL A   1      42.869  27.884  25.004  1.00  0.00    -0.200 F 
ATOM     60  F   UNL A   1      41.825  25.389  24.645  1.00  0.00    -0.200 F 
ENDBRANCH  26  50
BRANCH  38  61
ATOM     61  C   UNL A   1      44.087  27.883  34.394  1.00  0.00     0.064 A 
ATOM     62  C   UNL A   1      43.999  26.624  35.003  1.00  0.00     0.173 A 
ATOM     63  C   UNL A   1      45.352  28.476  34.270  1.00  0.00     0.173 A 
ATOM     64  F   UNL A   1      42.807  26.029  35.159  1.00  0.00    -0.203 F 
ATOM     65  C   UNL A   1      45.137  25.992  35.490  1.00  0.00     0.198 A 
ATOM     66  C   UNL A   1      46.490  27.825  34.726  1.00  0.00     0.198 A 
ATOM     67  F   UNL A   1      45.481  29.678  33.686  1.00  0.00    -0.203 F 
ATOM     68  F   UNL A   1      45.029  24.809  36.112  1.00  0.00    -0.200 F 
ATOM     69  C   UNL A   1      46.382  26.587  35.341  1.00  0.00     0.200 A 
ATOM     70  F   UNL A   1      47.693  28.394  34.567  1.00  0.00    -0.200 F 
ATOM     71  F   UNL A   1      47.479  25.969  35.798  1.00  0.00    -0.200 F 
ENDBRANCH  38  61
ENDBRANCH  12  13
ENDBRANCH   5   7
ENDBRANCH   4   5
ENDBRANCH   3   4
ENDBRANCH   2   3
ENDBRANCH   1   2
BRANCH   1  72
ATOM     72  C   UNL A   1      32.515  30.225  26.149  1.00  0.00     0.202 C 
BRANCH  72  73
ATOM     73  C   UNL A   1      32.043  29.090  27.055  1.00  0.00     0.261 C 
BRANCH  73  74
ATOM     74  O   UNL A   1      32.575  27.851  26.556  1.00  0.00    -0.463 OA
BRANCH  74  75
ATOM     75  C   UNL A   1      31.669  26.899  26.234  1.00  0.00     0.310 C 
ATOM     76  O   UNL A   1      30.652  26.645  26.873  1.00  0.00    -0.252 OA
BRANCH  75  77
ATOM     77  C   UNL A   1      32.054  26.141  24.979  1.00  0.00     0.112 C 
ATOM     78  C   UNL A   1      33.572  26.206  24.815  1.00  0.00     0.016 C 
ATOM     79  C   UNL A   1      31.272  26.437  23.661  1.00  0.00     0.066 C 
ATOM     80  C   UNL A   1      34.027  25.271  23.705  1.00  0.00     0.001 C 
ATOM     81  C   UNL A   1      31.803  25.518  22.550  1.00  0.00     0.016 C 
ATOM     82  C   UNL A   1      33.318  25.578  22.393  1.00  0.00     0.001 C 
BRANCH  79  83
ATOM     83  S   UNL A   1      31.333  28.213  23.127  1.00  0.00    -0.122 SA
BRANCH  83  84
ATOM     84  C   UNL A   1      29.662  28.856  23.219  1.00  0.00     0.011 A 
ATOM     85  C   UNL A   1      28.487  28.114  23.160  1.00  0.00     0.035 A 
ATOM     86  C   UNL A   1      29.551  30.249  23.316  1.00  0.00     0.035 A 
ATOM     87  C   UNL A   1      27.272  28.790  23.125  1.00  0.00     0.112 A 
ATOM     88  C   UNL A   1      28.294  30.832  23.291  1.00  0.00     0.112 A 
ATOM     89  N   UNL A   1      27.150  30.131  23.181  1.00  0.00    -0.265 NA
ENDBRANCH  83  84
ENDBRANCH  79  83
ENDBRANCH  75  77
ENDBRANCH  74  75
ENDBRANCH  73  74
ENDBRANCH  72  73
ENDBRANCH   1  72
TORSDOF 16
ENDMDL
