MODEL 1
REMARK VINA RESULT:     -12.4      0.000      0.000
REMARK SMILES O=C(OCCOCCOC(=O)[C@@H]1CCn2c(C(=O)c3ccccc3)ccc21)c1ccc(-c2c3nc(c(-c4c(F)c(F)c(F)c(F)c4F)c4ccc([nH]4)c(-c4c(F)c(F)c(F)c(F)c4F)c4nc(c(-c5c(F)c(F)c(F)c(F)c5F)c5ccc2[nH]5)C=C4)C=C3)cc1
REMARK SMILES IDX 6 1 5 2 4 3 3 4 2 5 1 6 28 7 29 8 90 9 30 10 89 11 31 12
REMARK SMILES IDX 32 13 33 14 83 15 34 16 88 17 82 18 84 19 35 20 87 21 81 22
REMARK SMILES IDX 80 23 36 25 68 26 48 27 67 28 49 29 52 30 66 31 85 32 50 33
REMARK SMILES IDX 51 34 65 36 86 37 53 38 37 39 38 40 46 41 39 42 40 43 44 44
REMARK SMILES IDX 47 45 41 46 42 47 45 48 43 49 69 50 70 51 78 52 71 53 72 54
REMARK SMILES IDX 76 55 79 56 73 57 74 58 77 59 75 60 54 61 55 62 63 63 56 64
REMARK SMILES IDX 57 65 61 66 64 67 58 68 59 69 62 70 60 71 7 72 8 73 9 74
REMARK SMILES IDX 10 75 11 76 12 77 13 78 27 79 14 80 15 81 26 82 16 83 25 84
REMARK SMILES IDX 17 85 18 86 19 87 20 88 24 89 21 90 23 91 22 92
REMARK H PARENT 84 24 52 35
REMARK Flexibility Score: inf
ROOT
ATOM      1  O   UNL A   1      45.911  20.634  38.120  1.00  0.00    -0.374 OA
ENDROOT
BRANCH   1   2
ATOM      2  C   UNL A   1      46.580  21.827  37.698  1.00  0.00     0.202 C 
BRANCH   2   3
ATOM      3  C   UNL A   1      46.200  22.433  36.334  1.00  0.00     0.261 C 
BRANCH   3   4
ATOM      4  O   UNL A   1      46.830  23.700  36.086  1.00  0.00    -0.460 OA
BRANCH   4   5
ATOM      5  C   UNL A   1      46.417  24.922  36.507  1.00  0.00     0.338 C 
ATOM      6  O   UNL A   1      46.883  25.380  37.547  1.00  0.00    -0.246 OA
BRANCH   5   7
ATOM      7  C   UNL A   1      45.384  25.727  35.786  1.00  0.00     0.060 A 
ATOM      8  C   UNL A   1      44.033  25.391  35.706  1.00  0.00     0.016 A 
ATOM      9  C   UNL A   1      45.785  26.948  35.219  1.00  0.00     0.016 A 
ATOM     10  C   UNL A   1      43.110  26.181  35.058  1.00  0.00     0.010 A 
ATOM     11  C   UNL A   1      44.861  27.771  34.570  1.00  0.00     0.010 A 
ATOM     12  C   UNL A   1      43.524  27.369  34.481  1.00  0.00    -0.014 A 
BRANCH  12  13
ATOM     13  C   UNL A   1      42.533  28.064  33.659  1.00  0.00     0.031 A 
ATOM     14  C   UNL A   1      41.710  29.118  34.316  1.00  0.00     0.074 A 
ATOM     15  C   UNL A   1      42.534  27.868  32.332  1.00  0.00     0.049 A 
ATOM     16  N   UNL A   1      40.735  29.830  33.827  1.00  0.00    -0.248 NA
ATOM     17  C   UNL A   1      42.047  29.429  35.717  1.00  0.00     0.031 C 
ATOM     18  C   UNL A   1      43.454  26.983  31.613  1.00  0.00     0.029 A 
ATOM     19  N   UNL A   1      41.758  28.419  31.353  1.00  0.00    -0.354 N 
ATOM     20  C   UNL A   1      40.310  30.638  34.871  1.00  0.00     0.074 A 
ATOM     21  C   UNL A   1      41.146  30.351  36.014  1.00  0.00     0.031 C 
ATOM     22  C   UNL A   1      43.178  27.043  30.300  1.00  0.00     0.029 A 
ATOM     23  C   UNL A   1      42.021  27.909  30.106  1.00  0.00     0.049 A 
ATOM     24  H   UNL A   1      41.080  29.111  31.523  1.00  0.00     0.167 HD
ATOM     25  C   UNL A   1      39.285  31.518  34.861  1.00  0.00     0.037 A 
ATOM     26  C   UNL A   1      41.347  28.086  28.957  1.00  0.00     0.037 A 
ATOM     27  C   UNL A   1      38.482  31.757  33.696  1.00  0.00     0.049 A 
ATOM     28  C   UNL A   1      40.150  28.994  28.988  1.00  0.00     0.074 A 
ATOM     29  C   UNL A   1      37.366  32.558  33.556  1.00  0.00     0.029 A 
ATOM     30  N   UNL A   1      38.723  31.176  32.455  1.00  0.00    -0.354 N 
ATOM     31  N   UNL A   1      39.672  29.690  29.995  1.00  0.00    -0.248 NA
ATOM     32  C   UNL A   1      39.384  29.130  27.746  1.00  0.00     0.031 C 
ATOM     33  C   UNL A   1      36.907  32.424  32.240  1.00  0.00     0.029 A 
ATOM     34  C   UNL A   1      37.764  31.581  31.546  1.00  0.00     0.049 A 
ATOM     35  H   UNL A   1      39.468  30.565  32.253  1.00  0.00     0.167 HD
ATOM     36  C   UNL A   1      38.556  30.353  29.511  1.00  0.00     0.074 A 
ATOM     37  C   UNL A   1      38.437  29.985  28.112  1.00  0.00     0.031 C 
ATOM     38  C   UNL A   1      37.701  31.184  30.160  1.00  0.00     0.037 A 
BRANCH  25  39
ATOM     39  C   UNL A   1      38.938  32.159  36.170  1.00  0.00     0.064 A 
ATOM     40  C   UNL A   1      38.107  31.536  37.114  1.00  0.00     0.173 A 
ATOM     41  C   UNL A   1      39.376  33.464  36.443  1.00  0.00     0.173 A 
ATOM     42  F   UNL A   1      37.628  30.305  36.883  1.00  0.00    -0.203 F 
ATOM     43  C   UNL A   1      37.696  32.212  38.262  1.00  0.00     0.198 A 
ATOM     44  C   UNL A   1      38.986  34.126  37.604  1.00  0.00     0.198 A 
ATOM     45  F   UNL A   1      40.160  34.111  35.568  1.00  0.00    -0.203 F 
ATOM     46  F   UNL A   1      36.840  31.626  39.112  1.00  0.00    -0.200 F 
ATOM     47  C   UNL A   1      38.136  33.504  38.506  1.00  0.00     0.200 A 
ATOM     48  F   UNL A   1      39.410  35.375  37.836  1.00  0.00    -0.200 F 
ATOM     49  F   UNL A   1      37.721  34.160  39.599  1.00  0.00    -0.200 F 
ENDBRANCH  25  39
BRANCH  26  50
ATOM     50  C   UNL A   1      41.753  27.329  27.745  1.00  0.00     0.064 A 
ATOM     51  C   UNL A   1      42.704  27.831  26.849  1.00  0.00     0.173 A 
ATOM     52  C   UNL A   1      41.230  26.050  27.488  1.00  0.00     0.173 A 
ATOM     53  F   UNL A   1      43.222  29.054  27.038  1.00  0.00    -0.203 F 
ATOM     54  C   UNL A   1      43.119  27.084  25.746  1.00  0.00     0.198 A 
ATOM     55  C   UNL A   1      41.666  25.293  26.404  1.00  0.00     0.198 A 
ATOM     56  F   UNL A   1      40.316  25.519  28.315  1.00  0.00    -0.203 F 
ATOM     57  F   UNL A   1      44.015  27.596  24.892  1.00  0.00    -0.200 F 
ATOM     58  C   UNL A   1      42.609  25.812  25.531  1.00  0.00     0.200 A 
ATOM     59  F   UNL A   1      41.181  24.058  26.212  1.00  0.00    -0.200 F 
ATOM     60  F   UNL A   1      43.023  25.087  24.483  1.00  0.00    -0.200 F 
ENDBRANCH  26  50
BRANCH  38  61
ATOM     61  C   UNL A   1      36.583  31.763  29.351  1.00  0.00     0.064 A 
ATOM     62  C   UNL A   1      35.484  30.986  28.966  1.00  0.00     0.173 A 
ATOM     63  C   UNL A   1      36.574  33.132  29.046  1.00  0.00     0.173 A 
ATOM     64  F   UNL A   1      35.462  29.671  29.228  1.00  0.00    -0.203 F 
ATOM     65  C   UNL A   1      34.411  31.560  28.293  1.00  0.00     0.198 A 
ATOM     66  C   UNL A   1      35.488  33.707  28.396  1.00  0.00     0.198 A 
ATOM     67  F   UNL A   1      37.605  33.912  29.405  1.00  0.00    -0.203 F 
ATOM     68  F   UNL A   1      33.378  30.798  27.911  1.00  0.00    -0.200 F 
ATOM     69  C   UNL A   1      34.409  32.921  28.019  1.00  0.00     0.200 A 
ATOM     70  F   UNL A   1      35.480  35.023  28.145  1.00  0.00    -0.200 F 
ATOM     71  F   UNL A   1      33.364  33.476  27.390  1.00  0.00    -0.200 F 
ENDBRANCH  38  61
ENDBRANCH  12  13
ENDBRANCH   5   7
ENDBRANCH   4   5
ENDBRANCH   3   4
ENDBRANCH   2   3
ENDBRANCH   1   2
BRANCH   1  72
ATOM     72  C   UNL A   1      46.444  19.374  37.693  1.00  0.00     0.202 C 
BRANCH  72  73
ATOM     73  C   UNL A   1      46.669  18.451  38.891  1.00  0.00     0.261 C 
BRANCH  73  74
ATOM     74  O   UNL A   1      45.484  18.485  39.691  1.00  0.00    -0.463 OA
BRANCH  74  75
ATOM     75  C   UNL A   1      45.343  17.407  40.501  1.00  0.00     0.315 C 
ATOM     76  O   UNL A   1      46.100  16.442  40.519  1.00  0.00    -0.251 OA
BRANCH  75  77
ATOM     77  C   UNL A   1      44.125  17.506  41.389  1.00  0.00     0.148 C 
ATOM     78  C   UNL A   1      44.584  17.488  42.857  1.00  0.00     0.043 C 
ATOM     79  C   UNL A   1      43.158  16.365  41.307  1.00  0.00     0.033 A 
ATOM     80  C   UNL A   1      43.719  16.451  43.579  1.00  0.00     0.124 C 
ATOM     81  N   UNL A   1      42.955  15.799  42.532  1.00  0.00    -0.341 N 
ATOM     82  C   UNL A   1      42.364  15.698  40.408  1.00  0.00     0.025 A 
ATOM     83  C   UNL A   1      42.053  14.777  42.473  1.00  0.00     0.090 A 
ATOM     84  C   UNL A   1      41.666  14.709  41.140  1.00  0.00     0.032 A 
BRANCH  83  85
ATOM     85  C   UNL A   1      41.571  13.890  43.520  1.00  0.00     0.209 C 
ATOM     86  O   UNL A   1      40.559  14.083  44.170  1.00  0.00    -0.287 OA
BRANCH  85  87
ATOM     87  C   UNL A   1      42.316  12.649  43.777  1.00  0.00     0.024 A 
ATOM     88  C   UNL A   1      41.689  11.431  43.510  1.00  0.00     0.012 A 
ATOM     89  C   UNL A   1      43.652  12.710  44.183  1.00  0.00     0.012 A 
ATOM     90  C   UNL A   1      42.433  10.258  43.595  1.00  0.00     0.001 A 
ATOM     91  C   UNL A   1      44.393  11.533  44.246  1.00  0.00     0.001 A 
ATOM     92  C   UNL A   1      43.785  10.311  43.945  1.00  0.00     0.000 A 
ENDBRANCH  85  87
ENDBRANCH  83  85
ENDBRANCH  75  77
ENDBRANCH  74  75
ENDBRANCH  73  74
ENDBRANCH  72  73
ENDBRANCH   1  72
TORSDOF 16
ENDMDL
MODEL 2
REMARK VINA RESULT:     -12.4      8.532     17.181
REMARK SMILES O=C(OCCOCCOC(=O)[C@@H]1CCn2c(C(=O)c3ccccc3)ccc21)c1ccc(-c2c3nc(c(-c4c(F)c(F)c(F)c(F)c4F)c4ccc([nH]4)c(-c4c(F)c(F)c(F)c(F)c4F)c4nc(c(-c5c(F)c(F)c(F)c(F)c5F)c5ccc2[nH]5)C=C4)C=C3)cc1
REMARK SMILES IDX 6 1 5 2 4 3 3 4 2 5 1 6 28 7 29 8 90 9 30 10 89 11 31 12
REMARK SMILES IDX 32 13 33 14 83 15 34 16 88 17 82 18 84 19 35 20 87 21 81 22
REMARK SMILES IDX 80 23 36 25 68 26 48 27 67 28 49 29 52 30 66 31 85 32 50 33
REMARK SMILES IDX 51 34 65 36 86 37 53 38 37 39 38 40 46 41 39 42 40 43 44 44
REMARK SMILES IDX 47 45 41 46 42 47 45 48 43 49 69 50 70 51 78 52 71 53 72 54
REMARK SMILES IDX 76 55 79 56 73 57 74 58 77 59 75 60 54 61 55 62 63 63 56 64
REMARK SMILES IDX 57 65 61 66 64 67 58 68 59 69 62 70 60 71 7 72 8 73 9 74
REMARK SMILES IDX 10 75 11 76 12 77 13 78 27 79 14 80 15 81 26 82 16 83 25 84
REMARK SMILES IDX 17 85 18 86 19 87 20 88 24 89 21 90 23 91 22 92
REMARK H PARENT 84 24 52 35
REMARK Flexibility Score: inf
ROOT
ATOM      1  O   UNL A   1      31.730  30.037  26.180  1.00  0.00    -0.374 OA
ENDROOT
BRANCH   1   2
ATOM      2  C   UNL A   1      31.598  31.433  26.465  1.00  0.00     0.202 C 
BRANCH   2   3
ATOM      3  C   UNL A   1      32.742  32.135  27.221  1.00  0.00     0.261 C 
BRANCH   3   4
ATOM      4  O   UNL A   1      32.437  33.495  27.566  1.00  0.00    -0.460 OA
BRANCH   4   5
ATOM      5  C   UNL A   1      33.117  34.301  28.419  1.00  0.00     0.338 C 
ATOM      6  O   UNL A   1      32.790  35.482  28.509  1.00  0.00    -0.246 OA
BRANCH   5   7
ATOM      7  C   UNL A   1      34.283  33.832  29.230  1.00  0.00     0.060 A 
ATOM      8  C   UNL A   1      35.605  34.219  29.013  1.00  0.00     0.016 A 
ATOM      9  C   UNL A   1      34.019  33.011  30.339  1.00  0.00     0.016 A 
ATOM     10  C   UNL A   1      36.644  33.787  29.807  1.00  0.00     0.010 A 
ATOM     11  C   UNL A   1      35.058  32.574  31.166  1.00  0.00     0.010 A 
ATOM     12  C   UNL A   1      36.372  32.956  30.881  1.00  0.00    -0.014 A 
BRANCH  12  13
ATOM     13  C   UNL A   1      37.535  32.394  31.567  1.00  0.00     0.031 A 
ATOM     14  C   UNL A   1      38.349  31.385  30.833  1.00  0.00     0.074 A 
ATOM     15  C   UNL A   1      37.930  32.934  32.731  1.00  0.00     0.049 A 
ATOM     16  N   UNL A   1      39.382  30.703  31.237  1.00  0.00    -0.248 NA
ATOM     17  C   UNL A   1      37.957  31.124  29.435  1.00  0.00     0.031 C 
ATOM     18  C   UNL A   1      37.271  34.058  33.402  1.00  0.00     0.029 A 
ATOM     19  N   UNL A   1      38.990  32.632  33.536  1.00  0.00    -0.354 N 
ATOM     20  C   UNL A   1      39.733  29.897  30.164  1.00  0.00     0.074 A 
ATOM     21  C   UNL A   1      38.824  30.190  29.081  1.00  0.00     0.031 C 
ATOM     22  C   UNL A   1      37.941  34.343  34.530  1.00  0.00     0.029 A 
ATOM     23  C   UNL A   1      39.020  33.376  34.689  1.00  0.00     0.049 A 
ATOM     24  H   UNL A   1      39.663  31.950  33.312  1.00  0.00     0.167 HD
ATOM     25  C   UNL A   1      40.720  28.975  30.120  1.00  0.00     0.037 A 
ATOM     26  C   UNL A   1      39.803  33.231  35.772  1.00  0.00     0.037 A 
ATOM     27  C   UNL A   1      41.590  28.720  31.233  1.00  0.00     0.049 A 
ATOM     28  C   UNL A   1      40.831  32.135  35.743  1.00  0.00     0.074 A 
ATOM     29  C   UNL A   1      42.580  27.767  31.364  1.00  0.00     0.029 A 
ATOM     30  N   UNL A   1      41.560  29.441  32.423  1.00  0.00    -0.354 N 
ATOM     31  N   UNL A   1      41.111  31.295  34.772  1.00  0.00    -0.248 NA
ATOM     32  C   UNL A   1      41.636  31.944  36.953  1.00  0.00     0.031 C 
ATOM     33  C   UNL A   1      43.117  27.883  32.652  1.00  0.00     0.029 A 
ATOM     34  C   UNL A   1      42.499  28.941  33.306  1.00  0.00     0.049 A 
ATOM     35  H   UNL A   1      40.957  30.197  32.609  1.00  0.00     0.167 HD
ATOM     36  C   UNL A   1      42.126  30.481  35.246  1.00  0.00     0.074 A 
ATOM     37  C   UNL A   1      42.423  30.940  36.590  1.00  0.00     0.031 C 
ATOM     38  C   UNL A   1      42.754  29.445  34.634  1.00  0.00     0.037 A 
BRANCH  25  39
ATOM     39  C   UNL A   1      40.796  28.130  28.885  1.00  0.00     0.064 A 
ATOM     40  C   UNL A   1      41.567  28.497  27.772  1.00  0.00     0.173 A 
ATOM     41  C   UNL A   1      40.008  26.974  28.784  1.00  0.00     0.173 A 
ATOM     42  F   UNL A   1      42.308  29.615  27.803  1.00  0.00    -0.203 F 
ATOM     43  C   UNL A   1      41.514  27.759  26.590  1.00  0.00     0.198 A 
ATOM     44  C   UNL A   1      39.978  26.224  27.611  1.00  0.00     0.198 A 
ATOM     45  F   UNL A   1      39.241  26.586  29.814  1.00  0.00    -0.203 F 
ATOM     46  F   UNL A   1      42.199  28.171  25.514  1.00  0.00    -0.200 F 
ATOM     47  C   UNL A   1      40.721  26.625  26.511  1.00  0.00     0.200 A 
ATOM     48  F   UNL A   1      39.209  25.130  27.537  1.00  0.00    -0.200 F 
ATOM     49  F   UNL A   1      40.654  25.930  25.367  1.00  0.00    -0.200 F 
ENDBRANCH  25  39
BRANCH  26  50
ATOM     50  C   UNL A   1      39.572  34.089  36.962  1.00  0.00     0.064 A 
ATOM     51  C   UNL A   1      38.790  33.657  38.039  1.00  0.00     0.173 A 
ATOM     52  C   UNL A   1      40.184  35.351  37.068  1.00  0.00     0.173 A 
ATOM     53  F   UNL A   1      38.170  32.469  37.982  1.00  0.00    -0.203 F 
ATOM     54  C   UNL A   1      38.629  34.449  39.176  1.00  0.00     0.198 A 
ATOM     55  C   UNL A   1      40.047  36.128  38.214  1.00  0.00     0.198 A 
ATOM     56  F   UNL A   1      40.945  35.814  36.066  1.00  0.00    -0.203 F 
ATOM     57  F   UNL A   1      37.858  34.022  40.185  1.00  0.00    -0.200 F 
ATOM     58  C   UNL A   1      39.267  35.679  39.268  1.00  0.00     0.200 A 
ATOM     59  F   UNL A   1      40.680  37.307  38.303  1.00  0.00    -0.200 F 
ATOM     60  F   UNL A   1      39.129  36.429  40.369  1.00  0.00    -0.200 F 
ENDBRANCH  26  50
BRANCH  38  61
ATOM     61  C   UNL A   1      43.835  28.761  35.409  1.00  0.00     0.064 A 
ATOM     62  C   UNL A   1      43.551  27.689  36.265  1.00  0.00     0.173 A 
ATOM     63  C   UNL A   1      45.175  29.124  35.216  1.00  0.00     0.173 A 
ATOM     64  F   UNL A   1      42.280  27.320  36.486  1.00  0.00    -0.203 F 
ATOM     65  C   UNL A   1      44.576  27.005  36.909  1.00  0.00     0.198 A 
ATOM     66  C   UNL A   1      46.198  28.422  35.841  1.00  0.00     0.198 A 
ATOM     67  F   UNL A   1      45.489  30.140  34.397  1.00  0.00    -0.203 F 
ATOM     68  F   UNL A   1      44.286  25.998  37.743  1.00  0.00    -0.200 F 
ATOM     69  C   UNL A   1      45.899  27.365  36.688  1.00  0.00     0.200 A 
ATOM     70  F   UNL A   1      47.475  28.760  35.616  1.00  0.00    -0.200 F 
ATOM     71  F   UNL A   1      46.887  26.690  37.293  1.00  0.00    -0.200 F 
ENDBRANCH  38  61
ENDBRANCH  12  13
ENDBRANCH   5   7
ENDBRANCH   4   5
ENDBRANCH   3   4
ENDBRANCH   2   3
ENDBRANCH   1   2
BRANCH   1  72
ATOM     72  C   UNL A   1      32.234  29.181  27.214  1.00  0.00     0.202 C 
BRANCH  72  73
ATOM     73  C   UNL A   1      33.109  28.077  26.620  1.00  0.00     0.261 C 
BRANCH  73  74
ATOM     74  O   UNL A   1      33.207  28.314  25.213  1.00  0.00    -0.463 OA
BRANCH  74  75
ATOM     75  C   UNL A   1      33.128  27.187  24.464  1.00  0.00     0.315 C 
ATOM     76  O   UNL A   1      33.731  26.145  24.702  1.00  0.00    -0.251 OA
BRANCH  75  77
ATOM     77  C   UNL A   1      32.215  27.347  23.271  1.00  0.00     0.148 C 
ATOM     78  C   UNL A   1      32.237  28.820  22.828  1.00  0.00     0.043 C 
ATOM     79  C   UNL A   1      30.762  27.073  23.515  1.00  0.00     0.033 A 
ATOM     80  C   UNL A   1      30.778  29.257  22.670  1.00  0.00     0.124 C 
ATOM     81  N   UNL A   1      29.992  28.147  23.177  1.00  0.00    -0.341 N 
ATOM     82  C   UNL A   1      29.919  26.079  23.943  1.00  0.00     0.025 A 
ATOM     83  C   UNL A   1      28.665  27.898  23.367  1.00  0.00     0.090 A 
ATOM     84  C   UNL A   1      28.604  26.593  23.842  1.00  0.00     0.032 A 
BRANCH  83  85
ATOM     85  C   UNL A   1      27.510  28.760  23.169  1.00  0.00     0.209 C 
ATOM     86  O   UNL A   1      26.365  28.443  23.437  1.00  0.00    -0.287 OA
BRANCH  85  87
ATOM     87  C   UNL A   1      27.738  30.123  22.669  1.00  0.00     0.024 A 
ATOM     88  C   UNL A   1      27.893  31.153  23.598  1.00  0.00     0.012 A 
ATOM     89  C   UNL A   1      27.893  30.346  21.299  1.00  0.00     0.012 A 
ATOM     90  C   UNL A   1      28.267  32.416  23.149  1.00  0.00     0.001 A 
ATOM     91  C   UNL A   1      28.286  31.607  20.860  1.00  0.00     0.001 A 
ATOM     92  C   UNL A   1      28.480  32.636  21.785  1.00  0.00     0.000 A 
ENDBRANCH  85  87
ENDBRANCH  83  85
ENDBRANCH  75  77
ENDBRANCH  74  75
ENDBRANCH  73  74
ENDBRANCH  72  73
ENDBRANCH   1  72
TORSDOF 16
ENDMDL
MODEL 3
REMARK VINA RESULT:     -12.3      7.985     15.326
REMARK SMILES O=C(OCCOCCOC(=O)[C@@H]1CCn2c(C(=O)c3ccccc3)ccc21)c1ccc(-c2c3nc(c(-c4c(F)c(F)c(F)c(F)c4F)c4ccc([nH]4)c(-c4c(F)c(F)c(F)c(F)c4F)c4nc(c(-c5c(F)c(F)c(F)c(F)c5F)c5ccc2[nH]5)C=C4)C=C3)cc1
REMARK SMILES IDX 6 1 5 2 4 3 3 4 2 5 1 6 28 7 29 8 90 9 30 10 89 11 31 12
REMARK SMILES IDX 32 13 33 14 83 15 34 16 88 17 82 18 84 19 35 20 87 21 81 22
REMARK SMILES IDX 80 23 36 25 68 26 48 27 67 28 49 29 52 30 66 31 85 32 50 33
REMARK SMILES IDX 51 34 65 36 86 37 53 38 37 39 38 40 46 41 39 42 40 43 44 44
REMARK SMILES IDX 47 45 41 46 42 47 45 48 43 49 69 50 70 51 78 52 71 53 72 54
REMARK SMILES IDX 76 55 79 56 73 57 74 58 77 59 75 60 54 61 55 62 63 63 56 64
REMARK SMILES IDX 57 65 61 66 64 67 58 68 59 69 62 70 60 71 7 72 8 73 9 74
REMARK SMILES IDX 10 75 11 76 12 77 13 78 27 79 14 80 15 81 26 82 16 83 25 84
REMARK SMILES IDX 17 85 18 86 19 87 20 88 24 89 21 90 23 91 22 92
REMARK H PARENT 84 24 52 35
REMARK Flexibility Score: inf
ROOT
ATOM      1  O   UNL A   1      31.202  27.942  25.511  1.00  0.00    -0.374 OA
ENDROOT
BRANCH   1   2
ATOM      2  C   UNL A   1      31.900  28.536  26.610  1.00  0.00     0.202 C 
BRANCH   2   3
ATOM      3  C   UNL A   1      31.736  30.049  26.846  1.00  0.00     0.261 C 
BRANCH   3   4
ATOM      4  O   UNL A   1      32.909  30.803  26.505  1.00  0.00    -0.460 OA
BRANCH   4   5
ATOM      5  C   UNL A   1      33.626  31.623  27.314  1.00  0.00     0.338 C 
ATOM      6  O   UNL A   1      33.250  32.783  27.467  1.00  0.00    -0.246 OA
BRANCH   5   7
ATOM      7  C   UNL A   1      34.885  31.196  28.000  1.00  0.00     0.060 A 
ATOM      8  C   UNL A   1      35.140  29.902  28.452  1.00  0.00     0.016 A 
ATOM      9  C   UNL A   1      35.915  32.143  28.124  1.00  0.00     0.016 A 
ATOM     10  C   UNL A   1      36.329  29.546  29.049  1.00  0.00     0.010 A 
ATOM     11  C   UNL A   1      37.133  31.799  28.715  1.00  0.00     0.010 A 
ATOM     12  C   UNL A   1      37.325  30.497  29.189  1.00  0.00    -0.014 A 
BRANCH  12  13
ATOM     13  C   UNL A   1      38.483  30.100  29.990  1.00  0.00     0.031 A 
ATOM     14  C   UNL A   1      39.506  29.234  29.340  1.00  0.00     0.074 A 
ATOM     15  C   UNL A   1      38.674  30.672  31.189  1.00  0.00     0.049 A 
ATOM     16  N   UNL A   1      40.583  28.704  29.846  1.00  0.00    -0.248 NA
ATOM     17  C   UNL A   1      39.299  28.942  27.909  1.00  0.00     0.031 C 
ATOM     18  C   UNL A   1      37.793  31.676  31.792  1.00  0.00     0.029 A 
ATOM     19  N   UNL A   1      39.681  30.515  32.097  1.00  0.00    -0.354 N 
ATOM     20  C   UNL A   1      41.155  27.977  28.813  1.00  0.00     0.074 A 
ATOM     21  C   UNL A   1      40.326  28.152  27.644  1.00  0.00     0.031 C 
ATOM     22  C   UNL A   1      38.297  32.037  32.983  1.00  0.00     0.029 A 
ATOM     23  C   UNL A   1      39.485  31.235  33.249  1.00  0.00     0.049 A 
ATOM     24  H   UNL A   1      40.466  29.943  31.942  1.00  0.00     0.167 HD
ATOM     25  C   UNL A   1      42.266  27.210  28.868  1.00  0.00     0.037 A 
ATOM     26  C   UNL A   1      40.167  31.188  34.406  1.00  0.00     0.037 A 
ATOM     27  C   UNL A   1      43.048  27.066  30.064  1.00  0.00     0.049 A 
ATOM     28  C   UNL A   1      41.343  30.255  34.480  1.00  0.00     0.074 A 
ATOM     29  C   UNL A   1      44.150  26.267  30.292  1.00  0.00     0.029 A 
ATOM     30  N   UNL A   1      42.792  27.754  31.246  1.00  0.00    -0.354 N 
ATOM     31  N   UNL A   1      41.840  29.482  33.540  1.00  0.00    -0.248 NA
ATOM     32  C   UNL A   1      42.042  30.164  35.765  1.00  0.00     0.031 C 
ATOM     33  C   UNL A   1      44.531  26.438  31.629  1.00  0.00     0.029 A 
ATOM     34  C   UNL A   1      43.701  27.382  32.218  1.00  0.00     0.049 A 
ATOM     35  H   UNL A   1      42.069  28.410  31.371  1.00  0.00     0.167 HD
ATOM     36  C   UNL A   1      42.912  28.817  34.113  1.00  0.00     0.074 A 
ATOM     37  C   UNL A   1      43.002  29.291  35.482  1.00  0.00     0.031 C 
ATOM     38  C   UNL A   1      43.744  27.895  33.566  1.00  0.00     0.037 A 
BRANCH  25  39
ATOM     39  C   UNL A   1      42.590  26.407  27.646  1.00  0.00     0.064 A 
ATOM     40  C   UNL A   1      42.005  25.157  27.392  1.00  0.00     0.173 A 
ATOM     41  C   UNL A   1      43.574  26.863  26.755  1.00  0.00     0.173 A 
ATOM     42  F   UNL A   1      41.088  24.658  28.234  1.00  0.00    -0.203 F 
ATOM     43  C   UNL A   1      42.423  24.375  26.316  1.00  0.00     0.198 A 
ATOM     44  C   UNL A   1      43.970  26.091  25.665  1.00  0.00     0.198 A 
ATOM     45  F   UNL A   1      44.175  28.044  26.958  1.00  0.00    -0.203 F 
ATOM     46  F   UNL A   1      41.907  23.151  26.138  1.00  0.00    -0.200 F 
ATOM     47  C   UNL A   1      43.404  24.843  25.455  1.00  0.00     0.200 A 
ATOM     48  F   UNL A   1      44.919  26.544  24.836  1.00  0.00    -0.200 F 
ATOM     49  F   UNL A   1      43.821  24.081  24.434  1.00  0.00    -0.200 F 
ENDBRANCH  25  39
BRANCH  26  50
ATOM     50  C   UNL A   1      39.694  31.982  35.569  1.00  0.00     0.064 A 
ATOM     51  C   UNL A   1      40.189  33.263  35.835  1.00  0.00     0.173 A 
ATOM     52  C   UNL A   1      38.685  31.487  36.413  1.00  0.00     0.173 A 
ATOM     53  F   UNL A   1      41.165  33.776  35.071  1.00  0.00    -0.203 F 
ATOM     54  C   UNL A   1      39.694  34.021  36.896  1.00  0.00     0.198 A 
ATOM     55  C   UNL A   1      38.170  32.254  37.454  1.00  0.00     0.198 A 
ATOM     56  F   UNL A   1      38.173  30.265  36.203  1.00  0.00    -0.203 F 
ATOM     57  F   UNL A   1      40.200  35.236  37.143  1.00  0.00    -0.200 F 
ATOM     58  C   UNL A   1      38.677  33.521  37.698  1.00  0.00     0.200 A 
ATOM     59  F   UNL A   1      37.176  31.772  38.213  1.00  0.00    -0.200 F 
ATOM     60  F   UNL A   1      38.188  34.258  38.704  1.00  0.00    -0.200 F 
ENDBRANCH  26  50
BRANCH  38  61
ATOM     61  C   UNL A   1      44.830  27.363  34.447  1.00  0.00     0.064 A 
ATOM     62  C   UNL A   1      46.062  28.021  34.563  1.00  0.00     0.173 A 
ATOM     63  C   UNL A   1      44.595  26.238  35.250  1.00  0.00     0.173 A 
ATOM     64  F   UNL A   1      46.330  29.092  33.801  1.00  0.00    -0.203 F 
ATOM     65  C   UNL A   1      47.028  27.564  35.453  1.00  0.00     0.198 A 
ATOM     66  C   UNL A   1      45.553  25.801  36.157  1.00  0.00     0.198 A 
ATOM     67  F   UNL A   1      43.425  25.586  35.175  1.00  0.00    -0.203 F 
ATOM     68  F   UNL A   1      48.209  28.190  35.535  1.00  0.00    -0.200 F 
ATOM     69  C   UNL A   1      46.769  26.463  36.257  1.00  0.00     0.200 A 
ATOM     70  F   UNL A   1      45.296  24.747  36.943  1.00  0.00    -0.200 F 
ATOM     71  F   UNL A   1      47.693  26.038  37.130  1.00  0.00    -0.200 F 
ENDBRANCH  38  61
ENDBRANCH  12  13
ENDBRANCH   5   7
ENDBRANCH   4   5
ENDBRANCH   3   4
ENDBRANCH   2   3
ENDBRANCH   1   2
BRANCH   1  72
ATOM     72  C   UNL A   1      31.768  28.077  24.200  1.00  0.00     0.202 C 
BRANCH  72  73
ATOM     73  C   UNL A   1      33.266  27.774  24.226  1.00  0.00     0.261 C 
BRANCH  73  74
ATOM     74  O   UNL A   1      33.429  26.383  23.937  1.00  0.00    -0.463 OA
BRANCH  74  75
ATOM     75  C   UNL A   1      33.585  26.115  22.617  1.00  0.00     0.315 C 
ATOM     76  O   UNL A   1      33.871  26.949  21.764  1.00  0.00    -0.251 OA
BRANCH  75  77
ATOM     77  C   UNL A   1      33.352  24.659  22.290  1.00  0.00     0.148 C 
ATOM     78  C   UNL A   1      31.927  24.279  22.726  1.00  0.00     0.043 C 
ATOM     79  C   UNL A   1      34.218  23.676  23.017  1.00  0.00     0.033 A 
ATOM     80  C   UNL A   1      32.041  22.985  23.537  1.00  0.00     0.124 C 
ATOM     81  N   UNL A   1      33.466  22.765  23.700  1.00  0.00    -0.341 N 
ATOM     82  C   UNL A   1      35.537  23.352  23.212  1.00  0.00     0.025 A 
ATOM     83  C   UNL A   1      34.245  21.847  24.342  1.00  0.00     0.090 A 
ATOM     84  C   UNL A   1      35.554  22.201  24.034  1.00  0.00     0.032 A 
BRANCH  83  85
ATOM     85  C   UNL A   1      33.870  20.734  25.199  1.00  0.00     0.209 C 
ATOM     86  O   UNL A   1      33.645  20.833  26.392  1.00  0.00    -0.287 OA
BRANCH  85  87
ATOM     87  C   UNL A   1      33.692  19.411  24.583  1.00  0.00     0.024 A 
ATOM     88  C   UNL A   1      32.549  19.185  23.814  1.00  0.00     0.012 A 
ATOM     89  C   UNL A   1      34.700  18.450  24.693  1.00  0.00     0.012 A 
ATOM     90  C   UNL A   1      32.444  17.998  23.096  1.00  0.00     0.001 A 
ATOM     91  C   UNL A   1      34.596  17.274  23.956  1.00  0.00     0.001 A 
ATOM     92  C   UNL A   1      33.473  17.053  23.153  1.00  0.00     0.000 A 
ENDBRANCH  85  87
ENDBRANCH  83  85
ENDBRANCH  75  77
ENDBRANCH  74  75
ENDBRANCH  73  74
ENDBRANCH  72  73
ENDBRANCH   1  72
TORSDOF 16
ENDMDL
