MODEL 1
REMARK VINA RESULT:     -10.6      0.000      0.000
REMARK SMILES O=C(C[C@H]1C[N@@H+](CCSc2ccccc2F)CCO1)OCCOCCOC(=O)c1ccc(-c2c3nc(c(-c4c(F)c(F)c(F)c(F)c4F)c4ccc([nH]4)c(-c4c(F)c(F)c(F)c(F)c4F)c4nc(c(-c5c(F)c(F)c(F)c(F)c5F)c5ccc2[nH]5)C=C4)C=C3)cc1
REMARK SMILES IDX 21 1 20 2 2 3 1 4 3 5 4 6 5 7 19 8 6 9 18 10 17 11 7 13 8 14
REMARK SMILES IDX 9 15 10 16 11 17 15 18 12 19 14 20 16 21 13 22 22 23 23 24
REMARK SMILES IDX 24 25 25 26 26 27 27 28 28 29 29 30 30 31 91 32 31 33 90 34
REMARK SMILES IDX 32 35 33 36 34 37 84 38 35 39 89 40 83 41 85 42 36 43 88 44
REMARK SMILES IDX 82 45 81 46 37 48 69 49 49 50 68 51 50 52 53 53 67 54 86 55
REMARK SMILES IDX 51 56 52 57 66 59 87 60 54 61 38 62 39 63 47 64 40 65 41 66
REMARK SMILES IDX 45 67 48 68 42 69 43 70 46 71 44 72 70 73 71 74 79 75 72 76
REMARK SMILES IDX 73 77 77 78 80 79 74 80 75 81 78 82 76 83 55 84 56 85 64 86
REMARK SMILES IDX 57 87 58 88 62 89 65 90 59 91 60 92 63 93 61 94
REMARK H PARENT 6 12 85 47 53 58
REMARK Flexibility Score: inf
ROOT
ATOM      1  C   UNL A   1      32.038  28.438  27.419  1.00  0.00     0.261 C 
ENDROOT
BRANCH   1   2
ATOM      2  O   UNL A   1      31.068  27.412  27.221  1.00  0.00    -0.463 OA
BRANCH   2   3
ATOM      3  C   UNL A   1      31.049  26.445  26.290  1.00  0.00     0.308 C 
ATOM      4  O   UNL A   1      31.224  25.286  26.676  1.00  0.00    -0.252 OA
BRANCH   3   5
ATOM      5  C   UNL A   1      30.990  26.709  24.798  1.00  0.00     0.160 C 
BRANCH   5   6
ATOM      6  C   UNL A   1      32.266  26.962  23.996  1.00  0.00     0.184 C 
ATOM      7  C   UNL A   1      33.310  25.805  23.964  1.00  0.00     0.295 C 
ATOM      8  O   UNL A   1      31.946  27.380  22.660  1.00  0.00    -0.366 OA
ATOM      9  N   UNL A   1      33.036  24.682  23.064  1.00  0.00    -0.330 N 
ATOM     10  C   UNL A   1      31.591  26.267  21.850  1.00  0.00     0.222 C 
ATOM     11  C   UNL A   1      32.708  25.223  21.762  1.00  0.00     0.291 C 
ATOM     12  H   UNL A   1      33.894  24.136  22.988  1.00  0.00     0.348 HD
BRANCH   9  13
ATOM     13  C   UNL A   1      32.225  23.561  23.560  1.00  0.00     0.273 C 
BRANCH  13  14
ATOM     14  C   UNL A   1      32.546  22.045  23.349  1.00  0.00     0.136 C 
BRANCH  14  15
ATOM     15  S   UNL A   1      33.574  21.091  24.583  1.00  0.00    -0.117 SA
BRANCH  15  16
ATOM     16  C   UNL A   1      35.013  22.101  24.937  1.00  0.00     0.043 A 
ATOM     17  C   UNL A   1      36.218  21.728  24.320  1.00  0.00     0.018 A 
ATOM     18  C   UNL A   1      35.042  23.188  25.820  1.00  0.00     0.136 A 
ATOM     19  C   UNL A   1      37.438  22.279  24.724  1.00  0.00     0.001 A 
ATOM     20  C   UNL A   1      36.258  23.784  26.192  1.00  0.00     0.040 A 
ATOM     21  F   UNL A   1      33.920  23.613  26.421  1.00  0.00    -0.206 F 
ATOM     22  C   UNL A   1      37.462  23.298  25.676  1.00  0.00     0.003 A 
ENDBRANCH  15  16
ENDBRANCH  14  15
ENDBRANCH  13  14
ENDBRANCH   9  13
ENDBRANCH   5   6
ENDBRANCH   3   5
ENDBRANCH   2   3
ENDBRANCH   1   2
BRANCH   1  23
ATOM     23  C   UNL A   1      31.838  29.678  26.562  1.00  0.00     0.202 C 
BRANCH  23  24
ATOM     24  O   UNL A   1      32.301  30.930  27.032  1.00  0.00    -0.374 OA
BRANCH  24  25
ATOM     25  C   UNL A   1      31.513  32.087  26.726  1.00  0.00     0.202 C 
BRANCH  25  26
ATOM     26  C   UNL A   1      32.204  33.443  26.933  1.00  0.00     0.261 C 
BRANCH  26  27
ATOM     27  O   UNL A   1      32.140  33.848  28.313  1.00  0.00    -0.460 OA
BRANCH  27  28
ATOM     28  C   UNL A   1      32.937  34.883  28.679  1.00  0.00     0.338 C 
ATOM     29  O   UNL A   1      32.612  36.054  28.816  1.00  0.00    -0.246 OA
BRANCH  28  30
ATOM     30  C   UNL A   1      34.182  34.306  29.248  1.00  0.00     0.060 A 
ATOM     31  C   UNL A   1      34.057  33.288  30.212  1.00  0.00     0.016 A 
ATOM     32  C   UNL A   1      35.435  34.632  28.727  1.00  0.00     0.016 A 
ATOM     33  C   UNL A   1      35.181  32.592  30.651  1.00  0.00     0.010 A 
ATOM     34  C   UNL A   1      36.565  33.965  29.200  1.00  0.00     0.010 A 
ATOM     35  C   UNL A   1      36.442  32.957  30.173  1.00  0.00    -0.014 A 
BRANCH  35  36
ATOM     36  C   UNL A   1      37.664  32.449  30.830  1.00  0.00     0.031 A 
ATOM     37  C   UNL A   1      38.402  31.338  30.144  1.00  0.00     0.074 A 
ATOM     38  C   UNL A   1      38.074  32.928  32.018  1.00  0.00     0.049 A 
ATOM     39  N   UNL A   1      39.388  30.603  30.583  1.00  0.00    -0.248 NA
ATOM     40  C   UNL A   1      37.960  31.003  28.779  1.00  0.00     0.031 C 
ATOM     41  C   UNL A   1      37.458  34.037  32.742  1.00  0.00     0.029 A 
ATOM     42  N   UNL A   1      39.096  32.515  32.838  1.00  0.00    -0.354 N 
ATOM     43  C   UNL A   1      39.668  29.710  29.558  1.00  0.00     0.074 A 
ATOM     44  C   UNL A   1      38.748  29.981  28.479  1.00  0.00     0.031 C 
ATOM     45  C   UNL A   1      38.092  34.196  33.917  1.00  0.00     0.029 A 
ATOM     46  C   UNL A   1      39.125  33.169  34.047  1.00  0.00     0.049 A 
ATOM     47  H   UNL A   1      39.744  31.819  32.584  1.00  0.00     0.167 HD
ATOM     48  C   UNL A   1      40.616  28.748  29.531  1.00  0.00     0.037 A 
ATOM     49  C   UNL A   1      39.872  32.928  35.144  1.00  0.00     0.037 A 
ATOM     50  C   UNL A   1      41.531  28.500  30.609  1.00  0.00     0.049 A 
ATOM     51  C   UNL A   1      40.872  31.796  35.113  1.00  0.00     0.074 A 
ATOM     52  C   UNL A   1      42.556  27.576  30.665  1.00  0.00     0.029 A 
ATOM     53  N   UNL A   1      41.524  29.175  31.820  1.00  0.00    -0.354 N 
ATOM     54  N   UNL A   1      41.158  30.973  34.132  1.00  0.00    -0.248 NA
ATOM     55  C   UNL A   1      41.645  31.550  36.340  1.00  0.00     0.031 C 
ATOM     56  C   UNL A   1      43.130  27.645  31.935  1.00  0.00     0.029 A 
ATOM     57  C   UNL A   1      42.505  28.657  32.646  1.00  0.00     0.049 A 
ATOM     58  H   UNL A   1      40.913  29.909  32.056  1.00  0.00     0.167 HD
ATOM     59  C   UNL A   1      42.154  30.133  34.613  1.00  0.00     0.074 A 
ATOM     60  C   UNL A   1      42.435  30.550  35.969  1.00  0.00     0.031 C 
ATOM     61  C   UNL A   1      42.777  29.104  33.988  1.00  0.00     0.037 A 
BRANCH  48  62
ATOM     62  C   UNL A   1      40.719  27.880  28.317  1.00  0.00     0.064 A 
ATOM     63  C   UNL A   1      40.160  26.592  28.325  1.00  0.00     0.173 A 
ATOM     64  C   UNL A   1      41.476  28.264  27.203  1.00  0.00     0.173 A 
ATOM     65  F   UNL A   1      39.424  26.181  29.369  1.00  0.00    -0.203 F 
ATOM     66  C   UNL A   1      40.391  25.707  27.278  1.00  0.00     0.198 A 
ATOM     67  C   UNL A   1      41.684  27.384  26.145  1.00  0.00     0.198 A 
ATOM     68  F   UNL A   1      42.014  29.492  27.142  1.00  0.00    -0.203 F 
ATOM     69  F   UNL A   1      39.893  24.464  27.331  1.00  0.00    -0.200 F 
ATOM     70  C   UNL A   1      41.157  26.101  26.191  1.00  0.00     0.200 A 
ATOM     71  F   UNL A   1      42.408  27.772  25.086  1.00  0.00    -0.200 F 
ATOM     72  F   UNL A   1      41.392  25.242  25.190  1.00  0.00    -0.200 F 
ENDBRANCH  48  62
BRANCH  49  73
ATOM     73  C   UNL A   1      39.677  33.743  36.374  1.00  0.00     0.064 A 
ATOM     74  C   UNL A   1      38.844  33.304  37.415  1.00  0.00     0.173 A 
ATOM     75  C   UNL A   1      40.328  34.973  36.541  1.00  0.00     0.173 A 
ATOM     76  F   UNL A   1      38.202  32.130  37.312  1.00  0.00    -0.203 F 
ATOM     77  C   UNL A   1      38.653  34.071  38.562  1.00  0.00     0.198 A 
ATOM     78  C   UNL A   1      40.163  35.725  37.704  1.00  0.00     0.198 A 
ATOM     79  F   UNL A   1      41.157  35.425  35.590  1.00  0.00    -0.203 F 
ATOM     80  F   UNL A   1      37.828  33.640  39.526  1.00  0.00    -0.200 F 
ATOM     81  C   UNL A   1      39.319  35.278  38.710  1.00  0.00     0.200 A 
ATOM     82  F   UNL A   1      40.834  36.874  37.856  1.00  0.00    -0.200 F 
ATOM     83  F   UNL A   1      39.156  36.004  39.823  1.00  0.00    -0.200 F 
ENDBRANCH  49  73
BRANCH  61  84
ATOM     84  C   UNL A   1      43.843  28.360  34.737  1.00  0.00     0.064 A 
ATOM     85  C   UNL A   1      43.508  27.242  35.518  1.00  0.00     0.173 A 
ATOM     86  C   UNL A   1      45.158  28.839  34.801  1.00  0.00     0.173 A 
ATOM     87  F   UNL A   1      42.257  26.757  35.502  1.00  0.00    -0.203 F 
ATOM     88  C   UNL A   1      44.443  26.653  36.363  1.00  0.00     0.198 A 
ATOM     89  C   UNL A   1      46.100  28.228  35.624  1.00  0.00     0.198 A 
ATOM     90  F   UNL A   1      45.526  29.900  34.067  1.00  0.00    -0.203 F 
ATOM     91  F   UNL A   1      44.085  25.625  37.144  1.00  0.00    -0.200 F 
ATOM     92  C   UNL A   1      45.738  27.147  36.415  1.00  0.00     0.200 A 
ATOM     93  F   UNL A   1      47.356  28.694  35.661  1.00  0.00    -0.200 F 
ATOM     94  F   UNL A   1      46.636  26.585  37.236  1.00  0.00    -0.200 F 
ENDBRANCH  61  84
ENDBRANCH  35  36
ENDBRANCH  28  30
ENDBRANCH  27  28
ENDBRANCH  26  27
ENDBRANCH  25  26
ENDBRANCH  24  25
ENDBRANCH  23  24
ENDBRANCH   1  23
TORSDOF 19
ENDMDL
MODEL 2
REMARK VINA RESULT:     -10.5      0.631      2.079
REMARK SMILES O=C(C[C@H]1C[N@@H+](CCSc2ccccc2F)CCO1)OCCOCCOC(=O)c1ccc(-c2c3nc(c(-c4c(F)c(F)c(F)c(F)c4F)c4ccc([nH]4)c(-c4c(F)c(F)c(F)c(F)c4F)c4nc(c(-c5c(F)c(F)c(F)c(F)c5F)c5ccc2[nH]5)C=C4)C=C3)cc1
REMARK SMILES IDX 21 1 20 2 2 3 1 4 3 5 4 6 5 7 19 8 6 9 18 10 17 11 7 13 8 14
REMARK SMILES IDX 9 15 10 16 11 17 15 18 12 19 14 20 16 21 13 22 22 23 23 24
REMARK SMILES IDX 24 25 25 26 26 27 27 28 28 29 29 30 30 31 91 32 31 33 90 34
REMARK SMILES IDX 32 35 33 36 34 37 84 38 35 39 89 40 83 41 85 42 36 43 88 44
REMARK SMILES IDX 82 45 81 46 37 48 69 49 49 50 68 51 50 52 53 53 67 54 86 55
REMARK SMILES IDX 51 56 52 57 66 59 87 60 54 61 38 62 39 63 47 64 40 65 41 66
REMARK SMILES IDX 45 67 48 68 42 69 43 70 46 71 44 72 70 73 71 74 79 75 72 76
REMARK SMILES IDX 73 77 77 78 80 79 74 80 75 81 78 82 76 83 55 84 56 85 64 86
REMARK SMILES IDX 57 87 58 88 62 89 65 90 59 91 60 92 63 93 61 94
REMARK H PARENT 6 12 85 47 53 58
REMARK Flexibility Score: inf
ROOT
ATOM      1  C   UNL A   1      32.263  28.436  27.347  1.00  0.00     0.261 C 
ENDROOT
BRANCH   1   2
ATOM      2  O   UNL A   1      31.420  27.287  27.375  1.00  0.00    -0.463 OA
BRANCH   2   3
ATOM      3  C   UNL A   1      31.318  26.299  26.471  1.00  0.00     0.308 C 
ATOM      4  O   UNL A   1      31.474  25.144  26.876  1.00  0.00    -0.252 OA
BRANCH   3   5
ATOM      5  C   UNL A   1      31.187  26.531  24.979  1.00  0.00     0.160 C 
BRANCH   5   6
ATOM      6  C   UNL A   1      32.392  26.963  24.144  1.00  0.00     0.184 C 
ATOM      7  C   UNL A   1      33.428  25.853  23.788  1.00  0.00     0.295 C 
ATOM      8  O   UNL A   1      31.964  27.642  22.954  1.00  0.00    -0.366 OA
ATOM      9  N   UNL A   1      33.078  24.935  22.702  1.00  0.00    -0.330 N 
ATOM     10  C   UNL A   1      31.540  26.713  21.963  1.00  0.00     0.222 C 
ATOM     11  C   UNL A   1      32.643  25.727  21.571  1.00  0.00     0.291 C 
ATOM     12  H   UNL A   1      33.925  24.429  22.445  1.00  0.00     0.348 HD
BRANCH   9  13
ATOM     13  C   UNL A   1      32.309  23.724  23.021  1.00  0.00     0.273 C 
BRANCH  13  14
ATOM     14  C   UNL A   1      32.411  22.908  24.352  1.00  0.00     0.136 C 
BRANCH  14  15
ATOM     15  S   UNL A   1      33.342  21.291  24.428  1.00  0.00    -0.117 SA
BRANCH  15  16
ATOM     16  C   UNL A   1      35.012  21.688  24.948  1.00  0.00     0.043 A 
ATOM     17  C   UNL A   1      35.276  23.032  25.263  1.00  0.00     0.018 A 
ATOM     18  C   UNL A   1      36.079  20.783  25.008  1.00  0.00     0.136 A 
ATOM     19  C   UNL A   1      36.587  23.492  25.426  1.00  0.00     0.001 A 
ATOM     20  C   UNL A   1      37.393  21.229  25.223  1.00  0.00     0.040 A 
ATOM     21  F   UNL A   1      35.889  19.481  24.746  1.00  0.00    -0.206 F 
ATOM     22  C   UNL A   1      37.651  22.592  25.388  1.00  0.00     0.003 A 
ENDBRANCH  15  16
ENDBRANCH  14  15
ENDBRANCH  13  14
ENDBRANCH   9  13
ENDBRANCH   5   6
ENDBRANCH   3   5
ENDBRANCH   2   3
ENDBRANCH   1   2
BRANCH   1  23
ATOM     23  C   UNL A   1      31.650  29.661  26.687  1.00  0.00     0.202 C 
BRANCH  23  24
ATOM     24  O   UNL A   1      32.219  30.935  26.921  1.00  0.00    -0.374 OA
BRANCH  24  25
ATOM     25  C   UNL A   1      31.438  32.084  26.571  1.00  0.00     0.202 C 
BRANCH  25  26
ATOM     26  C   UNL A   1      32.078  33.447  26.875  1.00  0.00     0.261 C 
BRANCH  26  27
ATOM     27  O   UNL A   1      32.221  33.643  28.295  1.00  0.00    -0.460 OA
BRANCH  27  28
ATOM     28  C   UNL A   1      32.979  34.697  28.688  1.00  0.00     0.338 C 
ATOM     29  O   UNL A   1      32.617  35.858  28.824  1.00  0.00    -0.246 OA
BRANCH  28  30
ATOM     30  C   UNL A   1      34.224  34.152  29.286  1.00  0.00     0.060 A 
ATOM     31  C   UNL A   1      34.105  33.089  30.202  1.00  0.00     0.016 A 
ATOM     32  C   UNL A   1      35.481  34.553  28.833  1.00  0.00     0.016 A 
ATOM     33  C   UNL A   1      35.241  32.424  30.661  1.00  0.00     0.010 A 
ATOM     34  C   UNL A   1      36.619  33.916  29.326  1.00  0.00     0.010 A 
ATOM     35  C   UNL A   1      36.503  32.863  30.251  1.00  0.00    -0.014 A 
BRANCH  35  36
ATOM     36  C   UNL A   1      37.719  32.382  30.939  1.00  0.00     0.031 A 
ATOM     37  C   UNL A   1      38.483  31.269  30.285  1.00  0.00     0.074 A 
ATOM     38  C   UNL A   1      38.100  32.885  32.127  1.00  0.00     0.049 A 
ATOM     39  N   UNL A   1      39.469  30.554  30.754  1.00  0.00    -0.248 NA
ATOM     40  C   UNL A   1      38.070  30.907  28.917  1.00  0.00     0.031 C 
ATOM     41  C   UNL A   1      37.457  33.997  32.821  1.00  0.00     0.029 A 
ATOM     42  N   UNL A   1      39.111  32.498  32.972  1.00  0.00    -0.354 N 
ATOM     43  C   UNL A   1      39.780  29.649  29.749  1.00  0.00     0.074 A 
ATOM     44  C   UNL A   1      38.876  29.890  28.649  1.00  0.00     0.031 C 
ATOM     45  C   UNL A   1      38.066  34.182  34.005  1.00  0.00     0.029 A 
ATOM     46  C   UNL A   1      39.110  33.171  34.170  1.00  0.00     0.049 A 
ATOM     47  H   UNL A   1      39.773  31.807  32.742  1.00  0.00     0.167 HD
ATOM     48  C   UNL A   1      40.740  28.699  29.755  1.00  0.00     0.037 A 
ATOM     49  C   UNL A   1      39.839  32.957  35.285  1.00  0.00     0.037 A 
ATOM     50  C   UNL A   1      41.637  28.479  30.853  1.00  0.00     0.049 A 
ATOM     51  C   UNL A   1      40.854  31.838  35.291  1.00  0.00     0.074 A 
ATOM     52  C   UNL A   1      42.673  27.569  30.944  1.00  0.00     0.029 A 
ATOM     53  N   UNL A   1      41.600  29.174  32.053  1.00  0.00    -0.354 N 
ATOM     54  N   UNL A   1      41.169  31.003  34.329  1.00  0.00    -0.248 NA
ATOM     55  C   UNL A   1      41.607  31.621  36.535  1.00  0.00     0.031 C 
ATOM     56  C   UNL A   1      43.222  27.666  32.222  1.00  0.00     0.029 A 
ATOM     57  C   UNL A   1      42.572  28.681  32.906  1.00  0.00     0.049 A 
ATOM     58  H   UNL A   1      40.976  29.904  32.266  1.00  0.00     0.167 HD
ATOM     59  C   UNL A   1      42.166  30.184  34.841  1.00  0.00     0.074 A 
ATOM     60  C   UNL A   1      42.416  30.626  36.196  1.00  0.00     0.031 C 
ATOM     61  C   UNL A   1      42.813  29.153  34.244  1.00  0.00     0.037 A 
BRANCH  48  62
ATOM     62  C   UNL A   1      40.877  27.813  28.558  1.00  0.00     0.064 A 
ATOM     63  C   UNL A   1      41.631  28.237  27.452  1.00  0.00     0.173 A 
ATOM     64  C   UNL A   1      40.164  26.612  28.448  1.00  0.00     0.173 A 
ATOM     65  F   UNL A   1      42.333  29.379  27.511  1.00  0.00    -0.203 F 
ATOM     66  C   UNL A   1      41.632  27.510  26.267  1.00  0.00     0.198 A 
ATOM     67  C   UNL A   1      40.187  25.874  27.268  1.00  0.00     0.198 A 
ATOM     68  F   UNL A   1      39.446  26.156  29.486  1.00  0.00    -0.203 F 
ATOM     69  F   UNL A   1      42.314  27.962  25.205  1.00  0.00    -0.200 F 
ATOM     70  C   UNL A   1      40.906  26.332  26.174  1.00  0.00     0.200 A 
ATOM     71  F   UNL A   1      39.502  24.725  27.186  1.00  0.00    -0.200 F 
ATOM     72  F   UNL A   1      40.894  25.641  25.026  1.00  0.00    -0.200 F 
ENDBRANCH  48  62
BRANCH  49  73
ATOM     73  C   UNL A   1      39.611  33.789  36.498  1.00  0.00     0.064 A 
ATOM     74  C   UNL A   1      40.194  35.059  36.632  1.00  0.00     0.173 A 
ATOM     75  C   UNL A   1      38.795  33.338  37.544  1.00  0.00     0.173 A 
ATOM     76  F   UNL A   1      40.978  35.544  35.657  1.00  0.00    -0.203 F 
ATOM     77  C   UNL A   1      39.988  35.834  37.771  1.00  0.00     0.198 A 
ATOM     78  C   UNL A   1      38.562  34.128  38.670  1.00  0.00     0.198 A 
ATOM     79  F   UNL A   1      38.190  32.145  37.454  1.00  0.00    -0.203 F 
ATOM     80  F   UNL A   1      40.583  37.029  37.884  1.00  0.00    -0.200 F 
ATOM     81  C   UNL A   1      39.165  35.371  38.787  1.00  0.00     0.200 A 
ATOM     82  F   UNL A   1      37.740  33.691  39.634  1.00  0.00    -0.200 F 
ATOM     83  F   UNL A   1      38.947  36.126  39.872  1.00  0.00    -0.200 F 
ENDBRANCH  49  73
BRANCH  61  84
ATOM     84  C   UNL A   1      43.874  28.434  35.026  1.00  0.00     0.064 A 
ATOM     85  C   UNL A   1      45.220  28.807  34.898  1.00  0.00     0.173 A 
ATOM     86  C   UNL A   1      43.574  27.290  35.777  1.00  0.00     0.173 A 
ATOM     87  F   UNL A   1      45.558  29.886  34.175  1.00  0.00    -0.203 F 
ATOM     88  C   UNL A   1      46.232  28.040  35.467  1.00  0.00     0.198 A 
ATOM     89  C   UNL A   1      44.587  26.542  36.370  1.00  0.00     0.198 A 
ATOM     90  F   UNL A   1      42.300  26.899  35.933  1.00  0.00    -0.203 F 
ATOM     91  F   UNL A   1      47.515  28.381  35.281  1.00  0.00    -0.200 F 
ATOM     92  C   UNL A   1      45.914  26.907  36.202  1.00  0.00     0.200 A 
ATOM     93  F   UNL A   1      44.278  25.458  37.096  1.00  0.00    -0.200 F 
ATOM     94  F   UNL A   1      46.889  26.163  36.741  1.00  0.00    -0.200 F 
ENDBRANCH  61  84
ENDBRANCH  35  36
ENDBRANCH  28  30
ENDBRANCH  27  28
ENDBRANCH  26  27
ENDBRANCH  25  26
ENDBRANCH  24  25
ENDBRANCH  23  24
ENDBRANCH   1  23
TORSDOF 19
ENDMDL
MODEL 3
REMARK VINA RESULT:     -10.5      5.374     10.498
REMARK SMILES O=C(C[C@H]1C[N@@H+](CCSc2ccccc2F)CCO1)OCCOCCOC(=O)c1ccc(-c2c3nc(c(-c4c(F)c(F)c(F)c(F)c4F)c4ccc([nH]4)c(-c4c(F)c(F)c(F)c(F)c4F)c4nc(c(-c5c(F)c(F)c(F)c(F)c5F)c5ccc2[nH]5)C=C4)C=C3)cc1
REMARK SMILES IDX 21 1 20 2 2 3 1 4 3 5 4 6 5 7 19 8 6 9 18 10 17 11 7 13 8 14
REMARK SMILES IDX 9 15 10 16 11 17 15 18 12 19 14 20 16 21 13 22 22 23 23 24
REMARK SMILES IDX 24 25 25 26 26 27 27 28 28 29 29 30 30 31 91 32 31 33 90 34
REMARK SMILES IDX 32 35 33 36 34 37 84 38 35 39 89 40 83 41 85 42 36 43 88 44
REMARK SMILES IDX 82 45 81 46 37 48 69 49 49 50 68 51 50 52 53 53 67 54 86 55
REMARK SMILES IDX 51 56 52 57 66 59 87 60 54 61 38 62 39 63 47 64 40 65 41 66
REMARK SMILES IDX 45 67 48 68 42 69 43 70 46 71 44 72 70 73 71 74 79 75 72 76
REMARK SMILES IDX 73 77 77 78 80 79 74 80 75 81 78 82 76 83 55 84 56 85 64 86
REMARK SMILES IDX 57 87 58 88 62 89 65 90 59 91 60 92 63 93 61 94
REMARK H PARENT 6 12 85 47 53 58
REMARK Flexibility Score: inf
ROOT
ATOM      1  C   UNL A   1      35.245  21.217  25.859  1.00  0.00     0.261 C 
ENDROOT
BRANCH   1   2
ATOM      2  O   UNL A   1      34.136  21.045  24.980  1.00  0.00    -0.463 OA
BRANCH   2   3
ATOM      3  C   UNL A   1      32.826  21.053  25.273  1.00  0.00     0.308 C 
ATOM      4  O   UNL A   1      32.253  19.961  25.331  1.00  0.00    -0.252 OA
BRANCH   3   5
ATOM      5  C   UNL A   1      31.990  22.313  25.372  1.00  0.00     0.160 C 
BRANCH   5   6
ATOM      6  C   UNL A   1      32.239  23.333  26.483  1.00  0.00     0.184 C 
ATOM      7  C   UNL A   1      32.977  24.645  26.072  1.00  0.00     0.295 C 
ATOM      8  O   UNL A   1      31.016  23.644  27.166  1.00  0.00    -0.366 OA
ATOM      9  N   UNL A   1      32.184  25.670  25.388  1.00  0.00    -0.330 N 
ATOM     10  C   UNL A   1      30.235  24.568  26.417  1.00  0.00     0.222 C 
ATOM     11  C   UNL A   1      30.973  25.882  26.153  1.00  0.00     0.291 C 
ATOM     12  H   UNL A   1      32.732  26.530  25.391  1.00  0.00     0.348 HD
BRANCH   9  13
ATOM     13  C   UNL A   1      32.065  25.610  23.925  1.00  0.00     0.273 C 
BRANCH  13  14
ATOM     14  C   UNL A   1      32.881  26.478  22.910  1.00  0.00     0.136 C 
BRANCH  14  15
ATOM     15  S   UNL A   1      32.716  28.337  22.872  1.00  0.00    -0.117 SA
BRANCH  15  16
ATOM     16  C   UNL A   1      32.789  28.891  24.576  1.00  0.00     0.043 A 
ATOM     17  C   UNL A   1      33.958  28.586  25.293  1.00  0.00     0.018 A 
ATOM     18  C   UNL A   1      31.757  29.548  25.260  1.00  0.00     0.136 A 
ATOM     19  C   UNL A   1      34.014  28.739  26.683  1.00  0.00     0.001 A 
ATOM     20  C   UNL A   1      31.827  29.753  26.647  1.00  0.00     0.040 A 
ATOM     21  F   UNL A   1      30.627  29.893  24.627  1.00  0.00    -0.206 F 
ATOM     22  C   UNL A   1      32.940  29.307  27.365  1.00  0.00     0.003 A 
ENDBRANCH  15  16
ENDBRANCH  14  15
ENDBRANCH  13  14
ENDBRANCH   9  13
ENDBRANCH   5   6
ENDBRANCH   3   5
ENDBRANCH   2   3
ENDBRANCH   1   2
BRANCH   1  23
ATOM     23  C   UNL A   1      35.956  22.556  25.733  1.00  0.00     0.202 C 
BRANCH  23  24
ATOM     24  O   UNL A   1      37.370  22.590  25.681  1.00  0.00    -0.374 OA
BRANCH  24  25
ATOM     25  C   UNL A   1      38.051  21.375  25.348  1.00  0.00     0.202 C 
BRANCH  25  26
ATOM     26  C   UNL A   1      39.360  21.110  26.108  1.00  0.00     0.261 C 
BRANCH  26  27
ATOM     27  O   UNL A   1      39.893  19.813  25.780  1.00  0.00    -0.460 OA
BRANCH  27  28
ATOM     28  C   UNL A   1      41.198  19.600  26.083  1.00  0.00     0.338 C 
ATOM     29  O   UNL A   1      41.875  18.625  25.789  1.00  0.00    -0.246 OA
BRANCH  28  30
ATOM     30  C   UNL A   1      41.775  20.903  26.503  1.00  0.00     0.060 A 
ATOM     31  C   UNL A   1      41.967  21.125  27.880  1.00  0.00     0.016 A 
ATOM     32  C   UNL A   1      42.275  21.809  25.567  1.00  0.00     0.016 A 
ATOM     33  C   UNL A   1      42.661  22.250  28.322  1.00  0.00     0.010 A 
ATOM     34  C   UNL A   1      42.931  22.956  26.012  1.00  0.00     0.010 A 
ATOM     35  C   UNL A   1      43.112  23.187  27.387  1.00  0.00    -0.014 A 
BRANCH  35  36
ATOM     36  C   UNL A   1      43.580  24.516  27.831  1.00  0.00     0.031 A 
ATOM     37  C   UNL A   1      42.533  25.535  28.170  1.00  0.00     0.074 A 
ATOM     38  C   UNL A   1      44.890  24.818  27.884  1.00  0.00     0.049 A 
ATOM     39  N   UNL A   1      42.666  26.811  28.413  1.00  0.00    -0.248 NA
ATOM     40  C   UNL A   1      41.142  25.050  28.232  1.00  0.00     0.031 C 
ATOM     41  C   UNL A   1      45.984  23.888  27.623  1.00  0.00     0.029 A 
ATOM     42  N   UNL A   1      45.516  26.012  28.149  1.00  0.00    -0.354 N 
ATOM     43  C   UNL A   1      41.380  27.281  28.638  1.00  0.00     0.074 A 
ATOM     44  C   UNL A   1      40.476  26.165  28.492  1.00  0.00     0.031 C 
ATOM     45  C   UNL A   1      47.150  24.552  27.706  1.00  0.00     0.029 A 
ATOM     46  C   UNL A   1      46.879  25.964  27.978  1.00  0.00     0.049 A 
ATOM     47  H   UNL A   1      45.035  26.822  28.434  1.00  0.00     0.167 HD
ATOM     48  C   UNL A   1      40.998  28.541  28.938  1.00  0.00     0.037 A 
ATOM     49  C   UNL A   1      47.789  26.959  27.994  1.00  0.00     0.037 A 
ATOM     50  C   UNL A   1      41.911  29.637  29.090  1.00  0.00     0.049 A 
ATOM     51  C   UNL A   1      47.323  28.371  28.256  1.00  0.00     0.074 A 
ATOM     52  C   UNL A   1      41.630  30.945  29.433  1.00  0.00     0.029 A 
ATOM     53  N   UNL A   1      43.283  29.552  28.900  1.00  0.00    -0.354 N 
ATOM     54  N   UNL A   1      46.111  28.810  28.500  1.00  0.00    -0.248 NA
ATOM     55  C   UNL A   1      48.345  29.430  28.237  1.00  0.00     0.031 C 
ATOM     56  C   UNL A   1      42.821  31.669  29.388  1.00  0.00     0.029 A 
ATOM     57  C   UNL A   1      43.855  30.799  29.081  1.00  0.00     0.049 A 
ATOM     58  H   UNL A   1      43.773  28.731  28.669  1.00  0.00     0.167 HD
ATOM     59  C   UNL A   1      46.227  30.181  28.685  1.00  0.00     0.074 A 
ATOM     60  C   UNL A   1      47.629  30.506  28.538  1.00  0.00     0.031 C 
ATOM     61  C   UNL A   1      45.258  31.091  28.948  1.00  0.00     0.037 A 
BRANCH  48  62
ATOM     62  C   UNL A   1      39.539  28.822  29.114  1.00  0.00     0.064 A 
ATOM     63  C   UNL A   1      38.794  29.361  28.052  1.00  0.00     0.173 A 
ATOM     64  C   UNL A   1      38.910  28.685  30.358  1.00  0.00     0.173 A 
ATOM     65  F   UNL A   1      39.353  29.508  26.841  1.00  0.00    -0.203 F 
ATOM     66  C   UNL A   1      37.485  29.789  28.244  1.00  0.00     0.198 A 
ATOM     67  C   UNL A   1      37.591  29.092  30.539  1.00  0.00     0.198 A 
ATOM     68  F   UNL A   1      39.576  28.157  31.397  1.00  0.00    -0.203 F 
ATOM     69  F   UNL A   1      36.810  30.351  27.230  1.00  0.00    -0.200 F 
ATOM     70  C   UNL A   1      36.886  29.659  29.488  1.00  0.00     0.200 A 
ATOM     71  F   UNL A   1      37.007  28.948  31.736  1.00  0.00    -0.200 F 
ATOM     72  F   UNL A   1      35.630  30.087  29.675  1.00  0.00    -0.200 F 
ENDBRANCH  48  62
BRANCH  49  73
ATOM     73  C   UNL A   1      49.221  26.665  27.714  1.00  0.00     0.064 A 
ATOM     74  C   UNL A   1      50.124  26.383  28.752  1.00  0.00     0.173 A 
ATOM     75  C   UNL A   1      49.717  26.647  26.403  1.00  0.00     0.173 A 
ATOM     76  F   UNL A   1      49.703  26.378  30.025  1.00  0.00    -0.203 F 
ATOM     77  C   UNL A   1      51.467  26.118  28.491  1.00  0.00     0.198 A 
ATOM     78  C   UNL A   1      51.053  26.349  26.140  1.00  0.00     0.198 A 
ATOM     79  F   UNL A   1      48.891  26.881  25.373  1.00  0.00    -0.203 F 
ATOM     80  F   UNL A   1      52.311  25.882  29.504  1.00  0.00    -0.200 F 
ATOM     81  C   UNL A   1      51.930  26.093  27.184  1.00  0.00     0.200 A 
ATOM     82  F   UNL A   1      51.488  26.293  24.874  1.00  0.00    -0.200 F 
ATOM     83  F   UNL A   1      53.215  25.813  26.931  1.00  0.00    -0.200 F 
ENDBRANCH  49  73
BRANCH  61  84
ATOM     84  C   UNL A   1      45.661  32.527  29.120  1.00  0.00     0.064 A 
ATOM     85  C   UNL A   1      45.910  33.042  30.402  1.00  0.00     0.173 A 
ATOM     86  C   UNL A   1      45.653  33.419  28.040  1.00  0.00     0.173 A 
ATOM     87  F   UNL A   1      45.911  32.228  31.469  1.00  0.00    -0.203 F 
ATOM     88  C   UNL A   1      46.102  34.405  30.599  1.00  0.00     0.198 A 
ATOM     89  C   UNL A   1      45.877  34.779  28.237  1.00  0.00     0.198 A 
ATOM     90  F   UNL A   1      45.428  32.972  26.795  1.00  0.00    -0.203 F 
ATOM     91  F   UNL A   1      46.278  34.883  31.839  1.00  0.00    -0.200 F 
ATOM     92  C   UNL A   1      46.085  35.272  29.517  1.00  0.00     0.200 A 
ATOM     93  F   UNL A   1      45.879  35.614  27.190  1.00  0.00    -0.200 F 
ATOM     94  F   UNL A   1      46.261  36.587  29.709  1.00  0.00    -0.200 F 
ENDBRANCH  61  84
ENDBRANCH  35  36
ENDBRANCH  28  30
ENDBRANCH  27  28
ENDBRANCH  26  27
ENDBRANCH  25  26
ENDBRANCH  24  25
ENDBRANCH  23  24
ENDBRANCH   1  23
TORSDOF 19
ENDMDL
