MODEL 1
REMARK VINA RESULT:     -10.0      0.000      0.000
REMARK SMILES Cc1cccc(NS(=O)(=O)Cc2ccc(C(=O)OCCOCCOC(=O)c3ccc(-c4c5nc(c(-c6c(F)c(F)c(F)c(F)c6F)c6ccc([nH]6)c(-c6c(F)c(F)c(F)c(F)c6F)c6nc(c(-c7c(F)c(F)c(F)c(F)c7F)c7ccc4[nH]7)C=C6)C=C5)cc3)cc2)n1
REMARK SMILES IDX 20 1 19 2 18 3 16 4 17 5 15 6 12 7 13 8 91 9 14 10 90 11
REMARK SMILES IDX 11 12 8 13 9 14 10 15 7 16 6 18 1 19 2 20 3 21 92 22 4 23
REMARK SMILES IDX 5 24 21 25 22 26 23 27 24 28 25 29 26 30 27 31 28 32 89 33
REMARK SMILES IDX 29 34 88 35 30 36 31 37 32 38 82 39 33 40 87 41 81 42 83 43
REMARK SMILES IDX 34 44 86 45 80 46 79 47 35 49 67 50 47 51 66 52 48 53 51 54
REMARK SMILES IDX 65 55 84 56 49 57 50 58 64 60 85 61 52 62 36 63 37 64 45 65
REMARK SMILES IDX 38 66 39 67 43 68 46 69 40 70 41 71 44 72 42 73 68 74 69 75
REMARK SMILES IDX 77 76 70 77 71 78 75 79 78 80 72 81 73 82 76 83 74 84 53 85
REMARK SMILES IDX 54 86 62 87 55 88 56 89 60 90 63 91 57 92 58 93 61 94 59 95
REMARK H PARENT 7 17 83 48 51 59
REMARK Flexibility Score: inf
ROOT
ATOM      1  C   UNL A   1      33.528  35.624  30.235  1.00  0.00     0.202 C 
ENDROOT
BRANCH   1   2
ATOM      2  C   UNL A   1      33.604  35.324  31.734  1.00  0.00     0.261 C 
BRANCH   2   3
ATOM      3  O   UNL A   1      34.864  34.741  32.100  1.00  0.00    -0.460 OA
BRANCH   3   4
ATOM      4  C   UNL A   1      34.767  33.493  32.620  1.00  0.00     0.338 C 
ATOM      5  O   UNL A   1      33.772  32.781  32.608  1.00  0.00    -0.246 OA
BRANCH   4   6
ATOM      6  C   UNL A   1      36.079  32.997  33.104  1.00  0.00     0.060 A 
ATOM      7  C   UNL A   1      38.584  32.233  34.151  1.00  0.00    -0.031 A 
ATOM      8  C   UNL A   1      38.028  33.486  34.439  1.00  0.00     0.006 A 
ATOM      9  C   UNL A   1      37.879  31.372  33.297  1.00  0.00     0.006 A 
ATOM     10  C   UNL A   1      36.783  33.856  33.947  1.00  0.00     0.016 A 
ATOM     11  C   UNL A   1      36.629  31.751  32.774  1.00  0.00     0.016 A 
BRANCH   7  12
ATOM     12  C   UNL A   1      39.943  31.921  34.723  1.00  0.00     0.195 C 
BRANCH  12  13
ATOM     13  S   UNL A   1      40.067  30.316  35.526  1.00  0.00     0.238 S 
ATOM     14  O   UNL A   1      38.797  29.983  36.139  1.00  0.00    -0.206 OA
ATOM     15  O   UNL A   1      41.256  30.355  36.362  1.00  0.00    -0.206 OA
BRANCH  13  16
ATOM     16  N   UNL A   1      40.430  29.168  34.389  1.00  0.00    -0.267 N 
ATOM     17  H   UNL A   1      39.932  29.154  33.540  1.00  0.00     0.181 HD
BRANCH  16  18
ATOM     18  C   UNL A   1      41.440  28.206  34.612  1.00  0.00     0.139 A 
ATOM     19  C   UNL A   1      41.484  24.841  36.090  1.00  0.00     0.067 C 
ATOM     20  C   UNL A   1      41.914  26.055  35.317  1.00  0.00     0.040 A 
ATOM     21  C   UNL A   1      43.024  25.979  34.480  1.00  0.00     0.023 A 
ATOM     22  N   UNL A   1      41.116  27.153  35.382  1.00  0.00    -0.235 NA
ATOM     23  C   UNL A   1      43.352  27.086  33.711  1.00  0.00     0.006 A 
ATOM     24  C   UNL A   1      42.541  28.213  33.766  1.00  0.00     0.048 A 
ENDBRANCH  16  18
ENDBRANCH  13  16
ENDBRANCH  12  13
ENDBRANCH   7  12
ENDBRANCH   4   6
ENDBRANCH   3   4
ENDBRANCH   2   3
ENDBRANCH   1   2
BRANCH   1  25
ATOM     25  O   UNL A   1      32.698  34.771  29.450  1.00  0.00    -0.374 OA
BRANCH  25  26
ATOM     26  C   UNL A   1      33.335  33.936  28.481  1.00  0.00     0.202 C 
BRANCH  26  27
ATOM     27  C   UNL A   1      34.462  33.026  28.991  1.00  0.00     0.261 C 
BRANCH  27  28
ATOM     28  O   UNL A   1      35.041  32.236  27.935  1.00  0.00    -0.460 OA
BRANCH  28  29
ATOM     29  C   UNL A   1      34.850  30.901  28.042  1.00  0.00     0.338 C 
ATOM     30  O   UNL A   1      33.806  30.281  27.867  1.00  0.00    -0.246 OA
BRANCH  29  31
ATOM     31  C   UNL A   1      36.146  30.224  28.219  1.00  0.00     0.060 A 
ATOM     32  C   UNL A   1      36.426  29.668  29.475  1.00  0.00     0.016 A 
ATOM     33  C   UNL A   1      37.099  30.193  27.201  1.00  0.00     0.016 A 
ATOM     34  C   UNL A   1      37.677  29.109  29.728  1.00  0.00     0.010 A 
ATOM     35  C   UNL A   1      38.358  29.643  27.461  1.00  0.00     0.010 A 
ATOM     36  C   UNL A   1      38.663  29.127  28.733  1.00  0.00    -0.014 A 
BRANCH  36  37
ATOM     37  C   UNL A   1      40.053  28.734  29.072  1.00  0.00     0.031 A 
ATOM     38  C   UNL A   1      40.897  29.670  29.890  1.00  0.00     0.074 A 
ATOM     39  C   UNL A   1      40.547  27.548  28.676  1.00  0.00     0.049 A 
ATOM     40  N   UNL A   1      42.142  29.547  30.275  1.00  0.00    -0.248 NA
ATOM     41  C   UNL A   1      40.250  30.914  30.334  1.00  0.00     0.031 C 
ATOM     42  C   UNL A   1      39.814  26.541  27.912  1.00  0.00     0.029 A 
ATOM     43  N   UNL A   1      41.789  26.994  28.861  1.00  0.00    -0.354 N 
ATOM     44  C   UNL A   1      42.429  30.696  30.999  1.00  0.00     0.074 A 
ATOM     45  C   UNL A   1      41.238  31.519  30.976  1.00  0.00     0.031 C 
ATOM     46  C   UNL A   1      40.626  25.495  27.681  1.00  0.00     0.029 A 
ATOM     47  C   UNL A   1      41.942  25.772  28.256  1.00  0.00     0.049 A 
ATOM     48  H   UNL A   1      42.504  27.433  29.378  1.00  0.00     0.167 HD
ATOM     49  C   UNL A   1      43.578  31.031  31.633  1.00  0.00     0.037 A 
ATOM     50  C   UNL A   1      43.027  24.980  28.159  1.00  0.00     0.037 A 
ATOM     51  C   UNL A   1      44.759  30.209  31.656  1.00  0.00     0.049 A 
ATOM     52  C   UNL A   1      44.314  25.406  28.817  1.00  0.00     0.074 A 
ATOM     53  C   UNL A   1      45.965  30.449  32.291  1.00  0.00     0.029 A 
ATOM     54  N   UNL A   1      44.886  28.992  31.004  1.00  0.00    -0.354 N 
ATOM     55  N   UNL A   1      44.568  26.480  29.525  1.00  0.00    -0.248 NA
ATOM     56  C   UNL A   1      45.467  24.507  28.660  1.00  0.00     0.031 C 
ATOM     57  C   UNL A   1      46.839  29.401  31.982  1.00  0.00     0.029 A 
ATOM     58  C   UNL A   1      46.160  28.481  31.199  1.00  0.00     0.049 A 
ATOM     59  H   UNL A   1      44.177  28.554  30.481  1.00  0.00     0.167 HD
ATOM     60  C   UNL A   1      45.896  26.372  29.922  1.00  0.00     0.074 A 
ATOM     61  C   UNL A   1      46.390  25.122  29.386  1.00  0.00     0.031 C 
ATOM     62  C   UNL A   1      46.637  27.232  30.663  1.00  0.00     0.037 A 
BRANCH  49  63
ATOM     63  C   UNL A   1      43.620  32.355  32.337  1.00  0.00     0.064 A 
ATOM     64  C   UNL A   1      43.812  33.556  31.640  1.00  0.00     0.173 A 
ATOM     65  C   UNL A   1      43.433  32.425  33.727  1.00  0.00     0.173 A 
ATOM     66  F   UNL A   1      44.009  33.542  30.312  1.00  0.00    -0.203 F 
ATOM     67  C   UNL A   1      43.838  34.777  32.309  1.00  0.00     0.198 A 
ATOM     68  C   UNL A   1      43.433  33.650  34.389  1.00  0.00     0.198 A 
ATOM     69  F   UNL A   1      43.243  31.306  34.441  1.00  0.00    -0.203 F 
ATOM     70  F   UNL A   1      44.069  35.909  31.628  1.00  0.00    -0.200 F 
ATOM     71  C   UNL A   1      43.643  34.823  33.682  1.00  0.00     0.200 A 
ATOM     72  F   UNL A   1      43.232  33.693  35.713  1.00  0.00    -0.200 F 
ATOM     73  F   UNL A   1      43.663  35.999  34.324  1.00  0.00    -0.200 F 
ENDBRANCH  49  63
BRANCH  50  74
ATOM     74  C   UNL A   1      42.949  23.703  27.401  1.00  0.00     0.064 A 
ATOM     75  C   UNL A   1      42.529  22.518  28.019  1.00  0.00     0.173 A 
ATOM     76  C   UNL A   1      43.312  23.640  26.048  1.00  0.00     0.173 A 
ATOM     77  F   UNL A   1      42.197  22.523  29.320  1.00  0.00    -0.203 F 
ATOM     78  C   UNL A   1      42.493  21.315  27.318  1.00  0.00     0.198 A 
ATOM     79  C   UNL A   1      43.248  22.442  25.340  1.00  0.00     0.198 A 
ATOM     80  F   UNL A   1      43.725  24.746  25.410  1.00  0.00    -0.203 F 
ATOM     81  F   UNL A   1      42.131  20.188  27.947  1.00  0.00    -0.200 F 
ATOM     82  C   UNL A   1      42.845  21.279  25.978  1.00  0.00     0.200 A 
ATOM     83  F   UNL A   1      43.581  22.415  24.043  1.00  0.00    -0.200 F 
ATOM     84  F   UNL A   1      42.808  20.122  25.304  1.00  0.00    -0.200 F 
ENDBRANCH  50  74
BRANCH  62  85
ATOM     85  C   UNL A   1      48.053  26.835  30.968  1.00  0.00     0.064 A 
ATOM     86  C   UNL A   1      48.368  26.001  32.050  1.00  0.00     0.173 A 
ATOM     87  C   UNL A   1      49.104  27.263  30.141  1.00  0.00     0.173 A 
ATOM     88  F   UNL A   1      47.402  25.576  32.879  1.00  0.00    -0.203 F 
ATOM     89  C   UNL A   1      49.685  25.630  32.309  1.00  0.00     0.198 A 
ATOM     90  C   UNL A   1      50.417  26.867  30.385  1.00  0.00     0.198 A 
ATOM     91  F   UNL A   1      48.857  28.056  29.088  1.00  0.00    -0.203 F 
ATOM     92  F   UNL A   1      49.968  24.871  33.377  1.00  0.00    -0.200 F 
ATOM     93  C   UNL A   1      50.706  26.057  31.472  1.00  0.00     0.200 A 
ATOM     94  F   UNL A   1      51.399  27.268  29.568  1.00  0.00    -0.200 F 
ATOM     95  F   UNL A   1      51.973  25.694  31.720  1.00  0.00    -0.200 F 
ENDBRANCH  62  85
ENDBRANCH  36  37
ENDBRANCH  29  31
ENDBRANCH  28  29
ENDBRANCH  27  28
ENDBRANCH  26  27
ENDBRANCH  25  26
ENDBRANCH   1  25
TORSDOF 18
ENDMDL
MODEL 2
REMARK VINA RESULT:      -9.9      4.612      7.041
REMARK SMILES Cc1cccc(NS(=O)(=O)Cc2ccc(C(=O)OCCOCCOC(=O)c3ccc(-c4c5nc(c(-c6c(F)c(F)c(F)c(F)c6F)c6ccc([nH]6)c(-c6c(F)c(F)c(F)c(F)c6F)c6nc(c(-c7c(F)c(F)c(F)c(F)c7F)c7ccc4[nH]7)C=C6)C=C5)cc3)cc2)n1
REMARK SMILES IDX 20 1 19 2 18 3 16 4 17 5 15 6 12 7 13 8 91 9 14 10 90 11
REMARK SMILES IDX 11 12 8 13 9 14 10 15 7 16 6 18 1 19 2 20 3 21 92 22 4 23
REMARK SMILES IDX 5 24 21 25 22 26 23 27 24 28 25 29 26 30 27 31 28 32 89 33
REMARK SMILES IDX 29 34 88 35 30 36 31 37 32 38 82 39 33 40 87 41 81 42 83 43
REMARK SMILES IDX 34 44 86 45 80 46 79 47 35 49 67 50 47 51 66 52 48 53 51 54
REMARK SMILES IDX 65 55 84 56 49 57 50 58 64 60 85 61 52 62 36 63 37 64 45 65
REMARK SMILES IDX 38 66 39 67 43 68 46 69 40 70 41 71 44 72 42 73 68 74 69 75
REMARK SMILES IDX 77 76 70 77 71 78 75 79 78 80 72 81 73 82 76 83 74 84 53 85
REMARK SMILES IDX 54 86 62 87 55 88 56 89 60 90 63 91 57 92 58 93 61 94 59 95
REMARK H PARENT 7 17 83 48 51 59
REMARK Flexibility Score: inf
ROOT
ATOM      1  C   UNL A   1      34.702  33.701  28.066  1.00  0.00     0.202 C 
ENDROOT
BRANCH   1   2
ATOM      2  C   UNL A   1      33.322  33.038  28.049  1.00  0.00     0.261 C 
BRANCH   2   3
ATOM      3  O   UNL A   1      33.362  31.735  27.448  1.00  0.00    -0.460 OA
BRANCH   3   4
ATOM      4  C   UNL A   1      32.200  31.362  26.856  1.00  0.00     0.338 C 
ATOM      5  O   UNL A   1      31.293  32.108  26.513  1.00  0.00    -0.246 OA
BRANCH   4   6
ATOM      6  C   UNL A   1      32.193  29.915  26.526  1.00  0.00     0.060 A 
ATOM      7  C   UNL A   1      32.078  27.219  25.710  1.00  0.00    -0.031 A 
ATOM      8  C   UNL A   1      31.427  28.225  24.985  1.00  0.00     0.006 A 
ATOM      9  C   UNL A   1      32.767  27.578  26.878  1.00  0.00     0.006 A 
ATOM     10  C   UNL A   1      31.502  29.557  25.369  1.00  0.00     0.016 A 
ATOM     11  C   UNL A   1      32.826  28.923  27.287  1.00  0.00     0.016 A 
BRANCH   7  12
ATOM     12  C   UNL A   1      31.935  25.799  25.223  1.00  0.00     0.195 C 
BRANCH  12  13
ATOM     13  S   UNL A   1      30.783  24.795  26.171  1.00  0.00     0.238 S 
ATOM     14  O   UNL A   1      29.587  25.564  26.448  1.00  0.00    -0.206 OA
ATOM     15  O   UNL A   1      31.529  24.238  27.288  1.00  0.00    -0.206 OA
BRANCH  13  16
ATOM     16  N   UNL A   1      30.367  23.461  25.280  1.00  0.00    -0.267 N 
ATOM     17  H   UNL A   1      29.416  23.232  25.170  1.00  0.00     0.181 HD
BRANCH  16  18
ATOM     18  C   UNL A   1      31.349  22.647  24.674  1.00  0.00     0.139 A 
ATOM     19  C   UNL A   1      32.763  19.344  25.449  1.00  0.00     0.067 C 
ATOM     20  C   UNL A   1      32.408  20.590  24.690  1.00  0.00     0.040 A 
ATOM     21  C   UNL A   1      32.634  20.648  23.319  1.00  0.00     0.023 A 
ATOM     22  N   UNL A   1      31.761  21.574  25.371  1.00  0.00    -0.235 NA
ATOM     23  C   UNL A   1      32.220  21.775  22.623  1.00  0.00     0.006 A 
ATOM     24  C   UNL A   1      31.554  22.785  23.308  1.00  0.00     0.048 A 
ENDBRANCH  16  18
ENDBRANCH  13  16
ENDBRANCH  12  13
ENDBRANCH   7  12
ENDBRANCH   4   6
ENDBRANCH   3   4
ENDBRANCH   2   3
ENDBRANCH   1   2
BRANCH   1  25
ATOM     25  O   UNL A   1      34.985  34.570  29.159  1.00  0.00    -0.374 OA
BRANCH  25  26
ATOM     26  C   UNL A   1      33.987  34.704  30.174  1.00  0.00     0.202 C 
BRANCH  26  27
ATOM     27  C   UNL A   1      34.384  34.267  31.590  1.00  0.00     0.261 C 
BRANCH  27  28
ATOM     28  O   UNL A   1      34.585  32.843  31.682  1.00  0.00    -0.460 OA
BRANCH  28  29
ATOM     29  C   UNL A   1      35.530  32.450  32.567  1.00  0.00     0.338 C 
ATOM     30  O   UNL A   1      35.488  32.534  33.790  1.00  0.00    -0.246 OA
BRANCH  29  31
ATOM     31  C   UNL A   1      36.588  31.702  31.868  1.00  0.00     0.060 A 
ATOM     32  C   UNL A   1      37.588  31.102  32.645  1.00  0.00     0.016 A 
ATOM     33  C   UNL A   1      36.645  31.646  30.475  1.00  0.00     0.016 A 
ATOM     34  C   UNL A   1      38.669  30.473  32.031  1.00  0.00     0.010 A 
ATOM     35  C   UNL A   1      37.737  31.025  29.860  1.00  0.00     0.010 A 
ATOM     36  C   UNL A   1      38.768  30.463  30.634  1.00  0.00    -0.014 A 
BRANCH  36  37
ATOM     37  C   UNL A   1      40.018  29.990  29.991  1.00  0.00     0.031 A 
ATOM     38  C   UNL A   1      41.173  30.943  29.852  1.00  0.00     0.074 A 
ATOM     39  C   UNL A   1      40.132  28.723  29.560  1.00  0.00     0.049 A 
ATOM     40  N   UNL A   1      42.344  30.756  29.298  1.00  0.00    -0.248 NA
ATOM     41  C   UNL A   1      40.980  32.289  30.413  1.00  0.00     0.031 C 
ATOM     42  C   UNL A   1      39.097  27.697  29.673  1.00  0.00     0.029 A 
ATOM     43  N   UNL A   1      41.173  28.085  28.933  1.00  0.00    -0.354 N 
ATOM     44  C   UNL A   1      43.023  31.958  29.438  1.00  0.00     0.074 A 
ATOM     45  C   UNL A   1      42.125  32.878  30.102  1.00  0.00     0.031 C 
ATOM     46  C   UNL A   1      39.551  26.559  29.120  1.00  0.00     0.029 A 
ATOM     47  C   UNL A   1      40.895  26.785  28.590  1.00  0.00     0.049 A 
ATOM     48  H   UNL A   1      42.037  28.518  28.746  1.00  0.00     0.167 HD
ATOM     49  C   UNL A   1      44.286  32.264  29.055  1.00  0.00     0.037 A 
ATOM     50  C   UNL A   1      41.635  25.890  27.908  1.00  0.00     0.037 A 
ATOM     51  C   UNL A   1      45.178  31.347  28.397  1.00  0.00     0.049 A 
ATOM     52  C   UNL A   1      43.011  26.276  27.433  1.00  0.00     0.074 A 
ATOM     53  C   UNL A   1      46.485  31.554  27.990  1.00  0.00     0.029 A 
ATOM     54  N   UNL A   1      44.850  30.048  28.037  1.00  0.00    -0.354 N 
ATOM     55  N   UNL A   1      43.659  27.405  27.596  1.00  0.00    -0.248 NA
ATOM     56  C   UNL A   1      43.761  25.261  26.678  1.00  0.00     0.031 C 
ATOM     57  C   UNL A   1      46.930  30.398  27.340  1.00  0.00     0.029 A 
ATOM     58  C   UNL A   1      45.920  29.451  27.390  1.00  0.00     0.049 A 
ATOM     59  H   UNL A   1      43.985  29.613  28.216  1.00  0.00     0.167 HD
ATOM     60  C   UNL A   1      44.897  27.227  26.991  1.00  0.00     0.074 A 
ATOM     61  C   UNL A   1      44.916  25.877  26.470  1.00  0.00     0.031 C 
ATOM     62  C   UNL A   1      45.926  28.104  26.879  1.00  0.00     0.037 A 
BRANCH  49  63
ATOM     63  C   UNL A   1      44.771  33.659  29.319  1.00  0.00     0.064 A 
ATOM     64  C   UNL A   1      44.556  34.701  28.406  1.00  0.00     0.173 A 
ATOM     65  C   UNL A   1      45.432  33.964  30.520  1.00  0.00     0.173 A 
ATOM     66  F   UNL A   1      43.941  34.459  27.238  1.00  0.00    -0.203 F 
ATOM     67  C   UNL A   1      45.004  35.992  28.673  1.00  0.00     0.198 A 
ATOM     68  C   UNL A   1      45.855  35.262  30.794  1.00  0.00     0.198 A 
ATOM     69  F   UNL A   1      45.661  33.005  31.428  1.00  0.00    -0.203 F 
ATOM     70  F   UNL A   1      44.828  36.963  27.765  1.00  0.00    -0.200 F 
ATOM     71  C   UNL A   1      45.648  36.273  29.869  1.00  0.00     0.200 A 
ATOM     72  F   UNL A   1      46.466  35.533  31.957  1.00  0.00    -0.200 F 
ATOM     73  F   UNL A   1      46.074  37.517  30.127  1.00  0.00    -0.200 F 
ENDBRANCH  49  63
BRANCH  50  74
ATOM     74  C   UNL A   1      41.086  24.538  27.622  1.00  0.00     0.064 A 
ATOM     75  C   UNL A   1      41.614  23.396  28.239  1.00  0.00     0.173 A 
ATOM     76  C   UNL A   1      40.035  24.360  26.710  1.00  0.00     0.173 A 
ATOM     77  F   UNL A   1      42.638  23.514  29.099  1.00  0.00    -0.203 F 
ATOM     78  C   UNL A   1      41.124  22.127  27.942  1.00  0.00     0.198 A 
ATOM     79  C   UNL A   1      39.527  23.092  26.435  1.00  0.00     0.198 A 
ATOM     80  F   UNL A   1      39.496  25.421  26.089  1.00  0.00    -0.203 F 
ATOM     81  F   UNL A   1      41.678  21.048  28.512  1.00  0.00    -0.200 F 
ATOM     82  C   UNL A   1      40.077  21.976  27.046  1.00  0.00     0.200 A 
ATOM     83  F   UNL A   1      38.509  22.953  25.576  1.00  0.00    -0.200 F 
ATOM     84  F   UNL A   1      39.605  20.754  26.763  1.00  0.00    -0.200 F 
ENDBRANCH  50  74
BRANCH  62  85
ATOM     85  C   UNL A   1      47.172  27.620  26.195  1.00  0.00     0.064 A 
ATOM     86  C   UNL A   1      48.230  27.044  26.913  1.00  0.00     0.173 A 
ATOM     87  C   UNL A   1      47.291  27.698  24.798  1.00  0.00     0.173 A 
ATOM     88  F   UNL A   1      48.172  26.960  28.251  1.00  0.00    -0.203 F 
ATOM     89  C   UNL A   1      49.373  26.587  26.260  1.00  0.00     0.198 A 
ATOM     90  C   UNL A   1      48.422  27.212  24.146  1.00  0.00     0.198 A 
ATOM     91  F   UNL A   1      46.304  28.233  24.064  1.00  0.00    -0.203 F 
ATOM     92  F   UNL A   1      50.392  26.084  26.971  1.00  0.00    -0.200 F 
ATOM     93  C   UNL A   1      49.463  26.665  24.878  1.00  0.00     0.200 A 
ATOM     94  F   UNL A   1      48.501  27.275  22.811  1.00  0.00    -0.200 F 
ATOM     95  F   UNL A   1      50.561  26.218  24.251  1.00  0.00    -0.200 F 
ENDBRANCH  62  85
ENDBRANCH  36  37
ENDBRANCH  29  31
ENDBRANCH  28  29
ENDBRANCH  27  28
ENDBRANCH  26  27
ENDBRANCH  25  26
ENDBRANCH   1  25
TORSDOF 18
ENDMDL
MODEL 3
REMARK VINA RESULT:      -9.8      4.718      8.523
REMARK SMILES Cc1cccc(NS(=O)(=O)Cc2ccc(C(=O)OCCOCCOC(=O)c3ccc(-c4c5nc(c(-c6c(F)c(F)c(F)c(F)c6F)c6ccc([nH]6)c(-c6c(F)c(F)c(F)c(F)c6F)c6nc(c(-c7c(F)c(F)c(F)c(F)c7F)c7ccc4[nH]7)C=C6)C=C5)cc3)cc2)n1
REMARK SMILES IDX 20 1 19 2 18 3 16 4 17 5 15 6 12 7 13 8 91 9 14 10 90 11
REMARK SMILES IDX 11 12 8 13 9 14 10 15 7 16 6 18 1 19 2 20 3 21 92 22 4 23
REMARK SMILES IDX 5 24 21 25 22 26 23 27 24 28 25 29 26 30 27 31 28 32 89 33
REMARK SMILES IDX 29 34 88 35 30 36 31 37 32 38 82 39 33 40 87 41 81 42 83 43
REMARK SMILES IDX 34 44 86 45 80 46 79 47 35 49 67 50 47 51 66 52 48 53 51 54
REMARK SMILES IDX 65 55 84 56 49 57 50 58 64 60 85 61 52 62 36 63 37 64 45 65
REMARK SMILES IDX 38 66 39 67 43 68 46 69 40 70 41 71 44 72 42 73 68 74 69 75
REMARK SMILES IDX 77 76 70 77 71 78 75 79 78 80 72 81 73 82 76 83 74 84 53 85
REMARK SMILES IDX 54 86 62 87 55 88 56 89 60 90 63 91 57 92 58 93 61 94 59 95
REMARK H PARENT 7 17 83 48 51 59
REMARK Flexibility Score: inf
ROOT
ATOM      1  C   UNL A   1      35.233  32.781  28.004  1.00  0.00     0.202 C 
ENDROOT
BRANCH   1   2
ATOM      2  C   UNL A   1      34.412  31.528  28.322  1.00  0.00     0.261 C 
BRANCH   2   3
ATOM      3  O   UNL A   1      33.998  30.844  27.129  1.00  0.00    -0.460 OA
BRANCH   3   4
ATOM      4  C   UNL A   1      34.598  29.643  26.943  1.00  0.00     0.338 C 
ATOM      5  O   UNL A   1      35.576  29.223  27.547  1.00  0.00    -0.246 OA
BRANCH   4   6
ATOM      6  C   UNL A   1      33.841  28.793  25.991  1.00  0.00     0.060 A 
ATOM      7  C   UNL A   1      32.477  27.003  24.292  1.00  0.00    -0.031 A 
ATOM      8  C   UNL A   1      33.385  26.542  25.254  1.00  0.00     0.006 A 
ATOM      9  C   UNL A   1      32.282  28.387  24.168  1.00  0.00     0.006 A 
ATOM     10  C   UNL A   1      34.039  27.418  26.110  1.00  0.00     0.016 A 
ATOM     11  C   UNL A   1      32.962  29.282  25.015  1.00  0.00     0.016 A 
BRANCH   7  12
ATOM     12  C   UNL A   1      31.818  25.981  23.401  1.00  0.00     0.195 C 
BRANCH  12  13
ATOM     13  S   UNL A   1      32.524  25.858  21.752  1.00  0.00     0.238 S 
ATOM     14  O   UNL A   1      33.817  26.512  21.730  1.00  0.00    -0.206 OA
ATOM     15  O   UNL A   1      31.500  26.306  20.821  1.00  0.00    -0.206 OA
BRANCH  13  16
ATOM     16  N   UNL A   1      32.726  24.260  21.366  1.00  0.00    -0.267 N 
ATOM     17  H   UNL A   1      32.396  23.927  20.500  1.00  0.00     0.181 HD
BRANCH  16  18
ATOM     18  C   UNL A   1      33.361  23.364  22.254  1.00  0.00     0.139 A 
ATOM     19  C   UNL A   1      36.130  23.676  24.652  1.00  0.00     0.067 C 
ATOM     20  C   UNL A   1      34.925  23.128  23.943  1.00  0.00     0.040 A 
ATOM     21  C   UNL A   1      34.227  22.060  24.498  1.00  0.00     0.023 A 
ATOM     22  N   UNL A   1      34.497  23.788  22.834  1.00  0.00    -0.235 NA
ATOM     23  C   UNL A   1      33.068  21.625  23.871  1.00  0.00     0.006 A 
ATOM     24  C   UNL A   1      32.619  22.296  22.739  1.00  0.00     0.048 A 
ENDBRANCH  16  18
ENDBRANCH  13  16
ENDBRANCH  12  13
ENDBRANCH   7  12
ENDBRANCH   4   6
ENDBRANCH   3   4
ENDBRANCH   2   3
ENDBRANCH   1   2
BRANCH   1  25
ATOM     25  O   UNL A   1      34.505  33.944  27.617  1.00  0.00    -0.374 OA
BRANCH  25  26
ATOM     26  C   UNL A   1      33.276  34.213  28.295  1.00  0.00     0.202 C 
BRANCH  26  27
ATOM     27  C   UNL A   1      33.309  35.312  29.367  1.00  0.00     0.261 C 
BRANCH  27  28
ATOM     28  O   UNL A   1      32.502  34.976  30.513  1.00  0.00    -0.460 OA
BRANCH  28  29
ATOM     29  C   UNL A   1      32.843  35.604  31.661  1.00  0.00     0.338 C 
ATOM     30  O   UNL A   1      32.232  36.504  32.229  1.00  0.00    -0.246 OA
BRANCH  29  31
ATOM     31  C   UNL A   1      33.992  34.923  32.282  1.00  0.00     0.060 A 
ATOM     32  C   UNL A   1      35.244  35.545  32.198  1.00  0.00     0.016 A 
ATOM     33  C   UNL A   1      33.863  33.665  32.872  1.00  0.00     0.016 A 
ATOM     34  C   UNL A   1      36.381  34.896  32.675  1.00  0.00     0.010 A 
ATOM     35  C   UNL A   1      35.007  33.009  33.338  1.00  0.00     0.010 A 
ATOM     36  C   UNL A   1      36.273  33.608  33.214  1.00  0.00    -0.014 A 
BRANCH  36  37
ATOM     37  C   UNL A   1      37.503  32.835  33.517  1.00  0.00     0.031 A 
ATOM     38  C   UNL A   1      38.242  33.110  34.797  1.00  0.00     0.074 A 
ATOM     39  C   UNL A   1      37.943  31.885  32.673  1.00  0.00     0.049 A 
ATOM     40  N   UNL A   1      39.350  32.580  35.248  1.00  0.00    -0.248 NA
ATOM     41  C   UNL A   1      37.649  34.119  35.688  1.00  0.00     0.031 C 
ATOM     42  C   UNL A   1      37.293  31.503  31.421  1.00  0.00     0.029 A 
ATOM     43  N   UNL A   1      39.047  31.073  32.743  1.00  0.00    -0.354 N 
ATOM     44  C   UNL A   1      39.591  33.194  36.470  1.00  0.00     0.074 A 
ATOM     45  C   UNL A   1      38.530  34.157  36.677  1.00  0.00     0.031 C 
ATOM     46  C   UNL A   1      38.020  30.537  30.833  1.00  0.00     0.029 A 
ATOM     47  C   UNL A   1      39.197  30.254  31.652  1.00  0.00     0.049 A 
ATOM     48  H   UNL A   1      39.672  31.077  33.504  1.00  0.00     0.167 HD
ATOM     49  C   UNL A   1      40.600  32.968  37.345  1.00  0.00     0.037 A 
ATOM     50  C   UNL A   1      40.185  29.393  31.342  1.00  0.00     0.037 A 
ATOM     51  C   UNL A   1      41.652  32.008  37.137  1.00  0.00     0.049 A 
ATOM     52  C   UNL A   1      41.334  29.209  32.300  1.00  0.00     0.074 A 
ATOM     53  C   UNL A   1      42.707  31.688  37.975  1.00  0.00     0.029 A 
ATOM     54  N   UNL A   1      41.789  31.220  36.004  1.00  0.00    -0.354 N 
ATOM     55  N   UNL A   1      41.538  29.770  33.468  1.00  0.00    -0.248 NA
ATOM     56  C   UNL A   1      42.389  28.268  31.896  1.00  0.00     0.031 C 
ATOM     57  C   UNL A   1      43.509  30.744  37.327  1.00  0.00     0.029 A 
ATOM     58  C   UNL A   1      42.926  30.433  36.109  1.00  0.00     0.049 A 
ATOM     59  H   UNL A   1      41.170  31.218  35.238  1.00  0.00     0.167 HD
ATOM     60  C   UNL A   1      42.725  29.232  33.948  1.00  0.00     0.074 A 
ATOM     61  C   UNL A   1      43.189  28.290  32.953  1.00  0.00     0.031 C 
ATOM     62  C   UNL A   1      43.373  29.496  35.111  1.00  0.00     0.037 A 
BRANCH  49  63
ATOM     63  C   UNL A   1      40.628  33.792  38.598  1.00  0.00     0.064 A 
ATOM     64  C   UNL A   1      39.893  33.429  39.736  1.00  0.00     0.173 A 
ATOM     65  C   UNL A   1      41.427  34.943  38.672  1.00  0.00     0.173 A 
ATOM     66  F   UNL A   1      39.102  32.344  39.713  1.00  0.00    -0.203 F 
ATOM     67  C   UNL A   1      39.938  34.200  40.894  1.00  0.00     0.198 A 
ATOM     68  C   UNL A   1      41.490  35.697  39.841  1.00  0.00     0.198 A 
ATOM     69  F   UNL A   1      42.151  35.333  37.613  1.00  0.00    -0.203 F 
ATOM     70  F   UNL A   1      39.191  33.860  41.955  1.00  0.00    -0.200 F 
ATOM     71  C   UNL A   1      40.741  35.330  40.948  1.00  0.00     0.200 A 
ATOM     72  F   UNL A   1      42.277  36.781  39.895  1.00  0.00    -0.200 F 
ATOM     73  F   UNL A   1      40.788  36.068  42.065  1.00  0.00    -0.200 F 
ENDBRANCH  49  63
BRANCH  50  74
ATOM     74  C   UNL A   1      40.141  28.642  30.059  1.00  0.00     0.064 A 
ATOM     75  C   UNL A   1      39.485  27.408  29.965  1.00  0.00     0.173 A 
ATOM     76  C   UNL A   1      40.769  29.137  28.907  1.00  0.00     0.173 A 
ATOM     77  F   UNL A   1      38.892  26.881  31.048  1.00  0.00    -0.203 F 
ATOM     78  C   UNL A   1      39.476  26.688  28.773  1.00  0.00     0.198 A 
ATOM     79  C   UNL A   1      40.735  28.429  27.708  1.00  0.00     0.198 A 
ATOM     80  F   UNL A   1      41.414  30.314  28.945  1.00  0.00    -0.203 F 
ATOM     81  F   UNL A   1      38.882  25.487  28.723  1.00  0.00    -0.200 F 
ATOM     82  C   UNL A   1      40.095  27.202  27.644  1.00  0.00     0.200 A 
ATOM     83  F   UNL A   1      41.326  28.936  26.617  1.00  0.00    -0.200 F 
ATOM     84  F   UNL A   1      40.083  26.509  26.496  1.00  0.00    -0.200 F 
ENDBRANCH  50  74
BRANCH  62  85
ATOM     85  C   UNL A   1      44.636  28.731  35.386  1.00  0.00     0.064 A 
ATOM     86  C   UNL A   1      44.617  27.486  36.032  1.00  0.00     0.173 A 
ATOM     87  C   UNL A   1      45.876  29.231  34.959  1.00  0.00     0.173 A 
ATOM     88  F   UNL A   1      43.459  26.971  36.472  1.00  0.00    -0.203 F 
ATOM     89  C   UNL A   1      45.796  26.783  36.265  1.00  0.00     0.198 A 
ATOM     90  C   UNL A   1      47.050  28.511  35.167  1.00  0.00     0.198 A 
ATOM     91  F   UNL A   1      45.949  30.413  34.328  1.00  0.00    -0.203 F 
ATOM     92  F   UNL A   1      45.760  25.619  36.928  1.00  0.00    -0.200 F 
ATOM     93  C   UNL A   1      47.009  27.293  35.826  1.00  0.00     0.200 A 
ATOM     94  F   UNL A   1      48.218  28.998  34.729  1.00  0.00    -0.200 F 
ATOM     95  F   UNL A   1      48.142  26.611  36.046  1.00  0.00    -0.200 F 
ENDBRANCH  62  85
ENDBRANCH  36  37
ENDBRANCH  29  31
ENDBRANCH  28  29
ENDBRANCH  27  28
ENDBRANCH  26  27
ENDBRANCH  25  26
ENDBRANCH   1  25
TORSDOF 18
ENDMDL
