MODEL 1
REMARK VINA RESULT:     -11.2      0.000      0.000
REMARK SMILES Nc1cc(-c2ccsc2)ccc1C(=O)OCCOCCOC(=O)c1ccc(-c2c3nc(c(-c4c(F)c(F)c(F)c(F)c4F)c4ccc([nH]4)c(-c4c(F)c(F)c(F)c(F)c4F)c4nc(c(-c5c(F)c(F)c(F)c(F)c5F)c5ccc2[nH]5)C=C4)C=C3)cc1
REMARK SMILES IDX 19 1 18 2 17 3 16 4 15 5 13 6 14 7 12 8 2 9 3 10 4 11 11 12
REMARK SMILES IDX 10 13 1 14 5 17 6 18 9 19 7 20 8 21 20 22 21 23 22 24 23 25
REMARK SMILES IDX 24 26 25 27 86 28 26 29 85 30 27 31 28 32 29 33 79 34 30 35
REMARK SMILES IDX 84 36 78 37 80 38 31 39 83 40 77 41 76 42 32 44 64 45 44 46
REMARK SMILES IDX 63 47 45 48 48 49 62 50 81 51 46 52 47 53 61 55 82 56 49 57
REMARK SMILES IDX 33 58 34 59 42 60 35 61 36 62 40 63 43 64 37 65 38 66 41 67
REMARK SMILES IDX 39 68 65 69 66 70 74 71 67 72 68 73 72 74 75 75 69 76 70 77
REMARK SMILES IDX 73 78 71 79 50 80 51 81 59 82 52 83 53 84 57 85 60 86 54 87
REMARK SMILES IDX 55 88 58 89 56 90
REMARK H PARENT 1 15 1 16 80 43 48 54
REMARK Flexibility Score: inf
ROOT
ATOM      1  C   UNL A   1      44.326  21.393  25.144  1.00  0.00     0.202 C 
ENDROOT
BRANCH   1   2
ATOM      2  O   UNL A   1      43.164  20.584  25.331  1.00  0.00    -0.374 OA
BRANCH   2   3
ATOM      3  C   UNL A   1      42.489  20.695  26.585  1.00  0.00     0.202 C 
BRANCH   3   4
ATOM      4  C   UNL A   1      41.058  20.153  26.614  1.00  0.00     0.261 C 
BRANCH   4   5
ATOM      5  O   UNL A   1      40.204  20.950  25.776  1.00  0.00    -0.460 OA
BRANCH   5   6
ATOM      6  C   UNL A   1      39.455  21.874  26.432  1.00  0.00     0.340 C 
ATOM      7  O   UNL A   1      39.790  22.490  27.432  1.00  0.00    -0.246 OA
BRANCH   6   8
ATOM      8  C   UNL A   1      38.211  22.188  25.683  1.00  0.00     0.083 A 
ATOM      9  C   UNL A   1      37.460  21.251  24.949  1.00  0.00     0.047 A 
ATOM     10  C   UNL A   1      36.224  21.669  24.423  1.00  0.00     0.035 A 
ATOM     11  C   UNL A   1      35.789  22.999  24.539  1.00  0.00    -0.015 A 
ATOM     12  C   UNL A   1      37.799  23.532  25.753  1.00  0.00     0.018 A 
ATOM     13  C   UNL A   1      36.603  23.939  25.169  1.00  0.00     0.010 A 
BRANCH   9  14
ATOM     14  N   UNL A   1      37.794  19.901  24.860  1.00  0.00    -0.398 N 
ATOM     15  H   UNL A   1      38.649  19.632  24.453  1.00  0.00     0.156 HD
ATOM     16  H   UNL A   1      37.175  19.218  25.204  1.00  0.00     0.156 HD
ENDBRANCH   9  14
BRANCH  11  17
ATOM     17  C   UNL A   1      34.468  23.396  24.080  1.00  0.00    -0.008 A 
ATOM     18  C   UNL A   1      34.047  24.688  23.637  1.00  0.00     0.020 A 
ATOM     19  C   UNL A   1      33.408  22.511  24.135  1.00  0.00     0.073 A 
ATOM     20  C   UNL A   1      32.698  24.729  23.355  1.00  0.00     0.065 A 
ATOM     21  S   UNL A   1      31.936  23.223  23.632  1.00  0.00    -0.152 S 
ENDBRANCH  11  17
ENDBRANCH   6   8
ENDBRANCH   5   6
ENDBRANCH   4   5
ENDBRANCH   3   4
ENDBRANCH   2   3
ENDBRANCH   1   2
BRANCH   1  22
ATOM     22  C   UNL A   1      44.202  22.506  24.098  1.00  0.00     0.261 C 
BRANCH  22  23
ATOM     23  O   UNL A   1      43.448  23.628  24.596  1.00  0.00    -0.460 OA
BRANCH  23  24
ATOM     24  C   UNL A   1      44.194  24.661  25.045  1.00  0.00     0.338 C 
ATOM     25  O   UNL A   1      45.304  25.002  24.658  1.00  0.00    -0.246 OA
BRANCH  24  26
ATOM     26  C   UNL A   1      43.411  25.472  25.995  1.00  0.00     0.060 A 
ATOM     27  C   UNL A   1      43.753  26.825  26.123  1.00  0.00     0.016 A 
ATOM     28  C   UNL A   1      42.413  24.913  26.796  1.00  0.00     0.016 A 
ATOM     29  C   UNL A   1      43.130  27.613  27.089  1.00  0.00     0.010 A 
ATOM     30  C   UNL A   1      41.796  25.705  27.771  1.00  0.00     0.010 A 
ATOM     31  C   UNL A   1      42.177  27.047  27.945  1.00  0.00    -0.014 A 
BRANCH  31  32
ATOM     32  C   UNL A   1      41.685  27.825  29.108  1.00  0.00     0.031 A 
ATOM     33  C   UNL A   1      42.411  27.713  30.420  1.00  0.00     0.074 A 
ATOM     34  C   UNL A   1      40.623  28.640  28.991  1.00  0.00     0.049 A 
ATOM     35  N   UNL A   1      42.141  28.275  31.571  1.00  0.00    -0.248 NA
ATOM     36  C   UNL A   1      43.603  26.850  30.438  1.00  0.00     0.031 C 
ATOM     37  C   UNL A   1      39.860  28.863  27.765  1.00  0.00     0.029 A 
ATOM     38  N   UNL A   1      39.999  29.430  29.925  1.00  0.00    -0.354 N 
ATOM     39  C   UNL A   1      43.122  27.830  32.448  1.00  0.00     0.074 A 
ATOM     40  C   UNL A   1      43.980  26.931  31.705  1.00  0.00     0.031 C 
ATOM     41  C   UNL A   1      38.863  29.726  28.024  1.00  0.00     0.029 A 
ATOM     42  C   UNL A   1      38.900  30.092  29.438  1.00  0.00     0.049 A 
ATOM     43  H   UNL A   1      40.311  29.514  30.854  1.00  0.00     0.167 HD
ATOM     44  C   UNL A   1      43.297  28.151  33.752  1.00  0.00     0.037 A 
ATOM     45  C   UNL A   1      38.015  30.887  30.071  1.00  0.00     0.037 A 
ATOM     46  C   UNL A   1      42.450  29.052  34.487  1.00  0.00     0.049 A 
ATOM     47  C   UNL A   1      38.195  31.175  31.539  1.00  0.00     0.074 A 
ATOM     48  C   UNL A   1      42.562  29.460  35.804  1.00  0.00     0.029 A 
ATOM     49  N   UNL A   1      41.328  29.680  33.967  1.00  0.00    -0.354 N 
ATOM     50  N   UNL A   1      39.142  30.775  32.352  1.00  0.00    -0.248 NA
ATOM     51  C   UNL A   1      37.182  32.029  32.176  1.00  0.00     0.031 C 
ATOM     52  C   UNL A   1      41.481  30.299  36.096  1.00  0.00     0.029 A 
ATOM     53  C   UNL A   1      40.724  30.454  34.946  1.00  0.00     0.049 A 
ATOM     54  H   UNL A   1      41.009  29.591  33.041  1.00  0.00     0.167 HD
ATOM     55  C   UNL A   1      38.858  31.351  33.583  1.00  0.00     0.074 A 
ATOM     56  C   UNL A   1      37.656  32.138  33.409  1.00  0.00     0.031 C 
ATOM     57  C   UNL A   1      39.534  31.241  34.754  1.00  0.00     0.037 A 
BRANCH  44  58
ATOM     58  C   UNL A   1      44.439  27.506  34.479  1.00  0.00     0.064 A 
ATOM     59  C   UNL A   1      45.697  28.121  34.568  1.00  0.00     0.173 A 
ATOM     60  C   UNL A   1      44.259  26.279  35.135  1.00  0.00     0.173 A 
ATOM     61  F   UNL A   1      45.924  29.288  33.946  1.00  0.00    -0.203 F 
ATOM     62  C   UNL A   1      46.738  27.520  35.273  1.00  0.00     0.198 A 
ATOM     63  C   UNL A   1      45.294  25.696  35.859  1.00  0.00     0.198 A 
ATOM     64  F   UNL A   1      43.074  25.653  35.082  1.00  0.00    -0.203 F 
ATOM     65  F   UNL A   1      47.942  28.107  35.314  1.00  0.00    -0.200 F 
ATOM     66  C   UNL A   1      46.533  26.314  35.924  1.00  0.00     0.200 A 
ATOM     67  F   UNL A   1      45.091  24.534  36.497  1.00  0.00    -0.200 F 
ATOM     68  F   UNL A   1      47.533  25.742  36.610  1.00  0.00    -0.200 F 
ENDBRANCH  44  58
BRANCH  45  69
ATOM     69  C   UNL A   1      36.865  31.462  29.325  1.00  0.00     0.064 A 
ATOM     70  C   UNL A   1      36.821  32.826  29.002  1.00  0.00     0.173 A 
ATOM     71  C   UNL A   1      35.774  30.667  28.946  1.00  0.00     0.173 A 
ATOM     72  F   UNL A   1      37.829  33.632  29.368  1.00  0.00    -0.203 F 
ATOM     73  C   UNL A   1      35.721  33.375  28.349  1.00  0.00     0.198 A 
ATOM     74  C   UNL A   1      34.686  31.212  28.267  1.00  0.00     0.198 A 
ATOM     75  F   UNL A   1      35.765  29.357  29.233  1.00  0.00    -0.203 F 
ATOM     76  F   UNL A   1      35.682  34.692  28.097  1.00  0.00    -0.200 F 
ATOM     77  C   UNL A   1      34.657  32.567  27.976  1.00  0.00     0.200 A 
ATOM     78  F   UNL A   1      33.665  30.427  27.902  1.00  0.00    -0.200 F 
ATOM     79  F   UNL A   1      33.597  33.097  27.349  1.00  0.00    -0.200 F 
ENDBRANCH  45  69
BRANCH  57  80
ATOM     80  C   UNL A   1      39.014  32.018  35.928  1.00  0.00     0.064 A 
ATOM     81  C   UNL A   1      38.175  31.431  36.886  1.00  0.00     0.173 A 
ATOM     82  C   UNL A   1      39.397  33.354  36.119  1.00  0.00     0.173 A 
ATOM     83  F   UNL A   1      37.769  30.161  36.741  1.00  0.00    -0.203 F 
ATOM     84  C   UNL A   1      37.719  32.162  37.981  1.00  0.00     0.198 A 
ATOM     85  C   UNL A   1      38.963  34.073  37.229  1.00  0.00     0.198 A 
ATOM     86  F   UNL A   1      40.205  33.960  35.235  1.00  0.00    -0.203 F 
ATOM     87  F   UNL A   1      36.882  31.595  38.860  1.00  0.00    -0.200 F 
ATOM     88  C   UNL A   1      38.119  33.478  38.155  1.00  0.00     0.200 A 
ATOM     89  F   UNL A   1      39.362  35.340  37.404  1.00  0.00    -0.200 F 
ATOM     90  F   UNL A   1      37.685  34.177  39.213  1.00  0.00    -0.200 F 
ENDBRANCH  57  80
ENDBRANCH  31  32
ENDBRANCH  24  26
ENDBRANCH  23  24
ENDBRANCH  22  23
ENDBRANCH   1  22
TORSDOF 16
ENDMDL
MODEL 2
REMARK VINA RESULT:     -11.2      4.454      9.078
REMARK SMILES Nc1cc(-c2ccsc2)ccc1C(=O)OCCOCCOC(=O)c1ccc(-c2c3nc(c(-c4c(F)c(F)c(F)c(F)c4F)c4ccc([nH]4)c(-c4c(F)c(F)c(F)c(F)c4F)c4nc(c(-c5c(F)c(F)c(F)c(F)c5F)c5ccc2[nH]5)C=C4)C=C3)cc1
REMARK SMILES IDX 19 1 18 2 17 3 16 4 15 5 13 6 14 7 12 8 2 9 3 10 4 11 11 12
REMARK SMILES IDX 10 13 1 14 5 17 6 18 9 19 7 20 8 21 20 22 21 23 22 24 23 25
REMARK SMILES IDX 24 26 25 27 86 28 26 29 85 30 27 31 28 32 29 33 79 34 30 35
REMARK SMILES IDX 84 36 78 37 80 38 31 39 83 40 77 41 76 42 32 44 64 45 44 46
REMARK SMILES IDX 63 47 45 48 48 49 62 50 81 51 46 52 47 53 61 55 82 56 49 57
REMARK SMILES IDX 33 58 34 59 42 60 35 61 36 62 40 63 43 64 37 65 38 66 41 67
REMARK SMILES IDX 39 68 65 69 66 70 74 71 67 72 68 73 72 74 75 75 69 76 70 77
REMARK SMILES IDX 73 78 71 79 50 80 51 81 59 82 52 83 53 84 57 85 60 86 54 87
REMARK SMILES IDX 55 88 58 89 56 90
REMARK H PARENT 1 15 1 16 80 43 48 54
REMARK Flexibility Score: inf
ROOT
ATOM      1  C   UNL A   1      31.866  28.459  27.427  1.00  0.00     0.202 C 
ENDROOT
BRANCH   1   2
ATOM      2  O   UNL A   1      31.291  27.439  26.610  1.00  0.00    -0.374 OA
BRANCH   2   3
ATOM      3  C   UNL A   1      32.046  26.239  26.439  1.00  0.00     0.202 C 
BRANCH   3   4
ATOM      4  C   UNL A   1      31.226  24.975  26.170  1.00  0.00     0.261 C 
BRANCH   4   5
ATOM      5  O   UNL A   1      30.054  25.294  25.400  1.00  0.00    -0.460 OA
BRANCH   5   6
ATOM      6  C   UNL A   1      30.251  25.370  24.059  1.00  0.00     0.340 C 
ATOM      7  O   UNL A   1      30.696  24.483  23.347  1.00  0.00    -0.246 OA
BRANCH   6   8
ATOM      8  C   UNL A   1      29.695  26.631  23.503  1.00  0.00     0.083 A 
ATOM      9  C   UNL A   1      28.346  27.021  23.599  1.00  0.00     0.047 A 
ATOM     10  C   UNL A   1      28.004  28.312  23.158  1.00  0.00     0.035 A 
ATOM     11  C   UNL A   1      28.951  29.156  22.554  1.00  0.00    -0.015 A 
ATOM     12  C   UNL A   1      30.630  27.456  22.851  1.00  0.00     0.018 A 
ATOM     13  C   UNL A   1      30.256  28.705  22.364  1.00  0.00     0.010 A 
BRANCH   9  14
ATOM     14  N   UNL A   1      27.374  26.267  24.253  1.00  0.00    -0.398 N 
ATOM     15  H   UNL A   1      26.526  26.056  23.800  1.00  0.00     0.156 HD
ATOM     16  H   UNL A   1      27.535  25.947  25.170  1.00  0.00     0.156 HD
ENDBRANCH   9  14
BRANCH  11  17
ATOM     17  C   UNL A   1      28.612  30.523  22.194  1.00  0.00    -0.008 A 
ATOM     18  C   UNL A   1      28.195  31.015  20.918  1.00  0.00     0.020 A 
ATOM     19  C   UNL A   1      28.774  31.552  23.102  1.00  0.00     0.073 A 
ATOM     20  C   UNL A   1      28.038  32.385  20.912  1.00  0.00     0.065 A 
ATOM     21  S   UNL A   1      28.402  33.081  22.431  1.00  0.00    -0.152 S 
ENDBRANCH  11  17
ENDBRANCH   6   8
ENDBRANCH   5   6
ENDBRANCH   4   5
ENDBRANCH   3   4
ENDBRANCH   2   3
ENDBRANCH   1   2
BRANCH   1  22
ATOM     22  C   UNL A   1      31.797  29.882  26.863  1.00  0.00     0.261 C 
BRANCH  22  23
ATOM     23  O   UNL A   1      33.091  30.360  26.453  1.00  0.00    -0.460 OA
BRANCH  23  24
ATOM     24  C   UNL A   1      33.573  31.395  27.177  1.00  0.00     0.338 C 
ATOM     25  O   UNL A   1      32.988  32.425  27.483  1.00  0.00    -0.246 OA
BRANCH  24  26
ATOM     26  C   UNL A   1      34.899  31.054  27.723  1.00  0.00     0.060 A 
ATOM     27  C   UNL A   1      35.153  29.706  28.009  1.00  0.00     0.016 A 
ATOM     28  C   UNL A   1      35.850  32.033  28.017  1.00  0.00     0.016 A 
ATOM     29  C   UNL A   1      36.341  29.337  28.636  1.00  0.00     0.010 A 
ATOM     30  C   UNL A   1      37.039  31.661  28.655  1.00  0.00     0.010 A 
ATOM     31  C   UNL A   1      37.273  30.317  28.999  1.00  0.00    -0.014 A 
BRANCH  31  32
ATOM     32  C   UNL A   1      38.424  29.950  29.860  1.00  0.00     0.031 A 
ATOM     33  C   UNL A   1      39.448  28.982  29.336  1.00  0.00     0.074 A 
ATOM     34  C   UNL A   1      38.569  30.492  31.081  1.00  0.00     0.049 A 
ATOM     35  N   UNL A   1      40.513  28.498  29.924  1.00  0.00    -0.248 NA
ATOM     36  C   UNL A   1      39.244  28.492  27.963  1.00  0.00     0.031 C 
ATOM     37  C   UNL A   1      37.667  31.470  31.684  1.00  0.00     0.029 A 
ATOM     38  N   UNL A   1      39.534  30.289  32.036  1.00  0.00    -0.354 N 
ATOM     39  C   UNL A   1      41.100  27.645  28.998  1.00  0.00     0.074 A 
ATOM     40  C   UNL A   1      40.261  27.655  27.819  1.00  0.00     0.031 C 
ATOM     41  C   UNL A   1      38.115  31.776  32.914  1.00  0.00     0.029 A 
ATOM     42  C   UNL A   1      39.318  30.995  33.194  1.00  0.00     0.049 A 
ATOM     43  H   UNL A   1      40.308  29.696  31.904  1.00  0.00     0.167 HD
ATOM     44  C   UNL A   1      42.241  26.926  29.119  1.00  0.00     0.037 A 
ATOM     45  C   UNL A   1      40.004  30.992  34.354  1.00  0.00     0.037 A 
ATOM     46  C   UNL A   1      43.080  26.924  30.288  1.00  0.00     0.049 A 
ATOM     47  C   UNL A   1      41.235  30.131  34.483  1.00  0.00     0.074 A 
ATOM     48  C   UNL A   1      44.270  26.248  30.494  1.00  0.00     0.029 A 
ATOM     49  N   UNL A   1      42.811  27.627  31.451  1.00  0.00    -0.354 N 
ATOM     50  N   UNL A   1      41.799  29.351  33.593  1.00  0.00    -0.248 NA
ATOM     51  C   UNL A   1      41.924  30.153  35.782  1.00  0.00     0.031 C 
ATOM     52  C   UNL A   1      44.698  26.506  31.801  1.00  0.00     0.029 A 
ATOM     53  C   UNL A   1      43.801  27.382  32.391  1.00  0.00     0.049 A 
ATOM     54  H   UNL A   1      42.034  28.215  31.590  1.00  0.00     0.167 HD
ATOM     55  C   UNL A   1      42.923  28.817  34.211  1.00  0.00     0.074 A 
ATOM     56  C   UNL A   1      42.967  29.369  35.548  1.00  0.00     0.031 C 
ATOM     57  C   UNL A   1      43.838  27.949  33.714  1.00  0.00     0.037 A 
BRANCH  44  58
ATOM     58  C   UNL A   1      42.643  26.061  27.961  1.00  0.00     0.064 A 
ATOM     59  C   UNL A   1      43.554  26.505  26.990  1.00  0.00     0.173 A 
ATOM     60  C   UNL A   1      42.146  24.754  27.848  1.00  0.00     0.173 A 
ATOM     61  F   UNL A   1      44.046  27.752  27.047  1.00  0.00    -0.203 F 
ATOM     62  C   UNL A   1      43.937  25.677  25.938  1.00  0.00     0.198 A 
ATOM     63  C   UNL A   1      42.552  23.921  26.809  1.00  0.00     0.198 A 
ATOM     64  F   UNL A   1      41.275  24.282  28.752  1.00  0.00    -0.203 F 
ATOM     65  F   UNL A   1      44.780  26.134  25.001  1.00  0.00    -0.200 F 
ATOM     66  C   UNL A   1      43.443  24.384  25.853  1.00  0.00     0.200 A 
ATOM     67  F   UNL A   1      42.081  22.668  26.734  1.00  0.00    -0.200 F 
ATOM     68  F   UNL A   1      43.822  23.585  24.845  1.00  0.00    -0.200 F 
ENDBRANCH  44  58
BRANCH  45  69
ATOM     69  C   UNL A   1      39.541  31.822  35.496  1.00  0.00     0.064 A 
ATOM     70  C   UNL A   1      38.614  31.325  36.422  1.00  0.00     0.173 A 
ATOM     71  C   UNL A   1      39.992  33.139  35.667  1.00  0.00     0.173 A 
ATOM     72  F   UNL A   1      38.132  30.081  36.284  1.00  0.00    -0.203 F 
ATOM     73  C   UNL A   1      38.140  32.121  37.463  1.00  0.00     0.198 A 
ATOM     74  C   UNL A   1      39.539  33.924  36.725  1.00  0.00     0.198 A 
ATOM     75  F   UNL A   1      40.877  33.663  34.807  1.00  0.00    -0.203 F 
ATOM     76  F   UNL A   1      37.216  31.637  38.305  1.00  0.00    -0.200 F 
ATOM     77  C   UNL A   1      38.607  33.417  37.617  1.00  0.00     0.200 A 
ATOM     78  F   UNL A   1      40.000  35.173  36.875  1.00  0.00    -0.200 F 
ATOM     79  F   UNL A   1      38.149  34.182  38.618  1.00  0.00    -0.200 F 
ENDBRANCH  45  69
BRANCH  57  80
ATOM     80  C   UNL A   1      44.986  27.571  34.603  1.00  0.00     0.064 A 
ATOM     81  C   UNL A   1      46.183  28.302  34.611  1.00  0.00     0.173 A 
ATOM     82  C   UNL A   1      44.870  26.490  35.489  1.00  0.00     0.173 A 
ATOM     83  F   UNL A   1      46.349  29.336  33.771  1.00  0.00    -0.203 F 
ATOM     84  C   UNL A   1      47.231  27.949  35.458  1.00  0.00     0.198 A 
ATOM     85  C   UNL A   1      45.909  26.158  36.355  1.00  0.00     0.198 A 
ATOM     86  F   UNL A   1      43.743  25.763  35.527  1.00  0.00    -0.203 F 
ATOM     87  F   UNL A   1      48.382  28.634  35.416  1.00  0.00    -0.200 F 
ATOM     88  C   UNL A   1      47.091  26.883  36.333  1.00  0.00     0.200 A 
ATOM     89  F   UNL A   1      45.766  25.137  37.210  1.00  0.00    -0.200 F 
ATOM     90  F   UNL A   1      48.098  26.550  37.153  1.00  0.00    -0.200 F 
ENDBRANCH  57  80
ENDBRANCH  31  32
ENDBRANCH  24  26
ENDBRANCH  23  24
ENDBRANCH  22  23
ENDBRANCH   1  22
TORSDOF 16
ENDMDL
MODEL 3
REMARK VINA RESULT:     -11.1      4.855      7.456
REMARK SMILES Nc1cc(-c2ccsc2)ccc1C(=O)OCCOCCOC(=O)c1ccc(-c2c3nc(c(-c4c(F)c(F)c(F)c(F)c4F)c4ccc([nH]4)c(-c4c(F)c(F)c(F)c(F)c4F)c4nc(c(-c5c(F)c(F)c(F)c(F)c5F)c5ccc2[nH]5)C=C4)C=C3)cc1
REMARK SMILES IDX 19 1 18 2 17 3 16 4 15 5 13 6 14 7 12 8 2 9 3 10 4 11 11 12
REMARK SMILES IDX 10 13 1 14 5 17 6 18 9 19 7 20 8 21 20 22 21 23 22 24 23 25
REMARK SMILES IDX 24 26 25 27 86 28 26 29 85 30 27 31 28 32 29 33 79 34 30 35
REMARK SMILES IDX 84 36 78 37 80 38 31 39 83 40 77 41 76 42 32 44 64 45 44 46
REMARK SMILES IDX 63 47 45 48 48 49 62 50 81 51 46 52 47 53 61 55 82 56 49 57
REMARK SMILES IDX 33 58 34 59 42 60 35 61 36 62 40 63 43 64 37 65 38 66 41 67
REMARK SMILES IDX 39 68 65 69 66 70 74 71 67 72 68 73 72 74 75 75 69 76 70 77
REMARK SMILES IDX 73 78 71 79 50 80 51 81 59 82 52 83 53 84 57 85 60 86 54 87
REMARK SMILES IDX 55 88 58 89 56 90
REMARK H PARENT 1 15 1 16 80 43 48 54
REMARK Flexibility Score: inf
ROOT
ATOM      1  C   UNL A   1      36.083  21.709  25.249  1.00  0.00     0.202 C 
ENDROOT
BRANCH   1   2
ATOM      2  O   UNL A   1      35.575  22.130  23.984  1.00  0.00    -0.374 OA
BRANCH   2   3
ATOM      3  C   UNL A   1      35.408  23.535  23.785  1.00  0.00     0.202 C 
BRANCH   3   4
ATOM      4  C   UNL A   1      34.092  23.956  23.127  1.00  0.00     0.261 C 
BRANCH   4   5
ATOM      5  O   UNL A   1      33.020  23.921  24.085  1.00  0.00    -0.460 OA
BRANCH   5   6
ATOM      6  C   UNL A   1      31.935  23.198  23.706  1.00  0.00     0.340 C 
ATOM      7  O   UNL A   1      30.942  23.634  23.144  1.00  0.00    -0.246 OA
BRANCH   6   8
ATOM      8  C   UNL A   1      32.161  21.744  23.905  1.00  0.00     0.083 A 
ATOM      9  C   UNL A   1      32.072  20.773  22.889  1.00  0.00     0.047 A 
ATOM     10  C   UNL A   1      32.464  19.459  23.202  1.00  0.00     0.035 A 
ATOM     11  C   UNL A   1      32.842  19.096  24.505  1.00  0.00    -0.015 A 
ATOM     12  C   UNL A   1      32.490  21.367  25.221  1.00  0.00     0.018 A 
ATOM     13  C   UNL A   1      32.812  20.048  25.522  1.00  0.00     0.010 A 
BRANCH   9  14
ATOM     14  N   UNL A   1      31.778  21.078  21.561  1.00  0.00    -0.398 N 
ATOM     15  H   UNL A   1      31.116  21.775  21.351  1.00  0.00     0.156 HD
ATOM     16  H   UNL A   1      32.233  20.594  20.834  1.00  0.00     0.156 HD
ENDBRANCH   9  14
BRANCH  11  17
ATOM     17  C   UNL A   1      33.340  17.761  24.794  1.00  0.00    -0.008 A 
ATOM     18  C   UNL A   1      34.651  17.244  24.552  1.00  0.00     0.020 A 
ATOM     19  C   UNL A   1      32.491  16.780  25.270  1.00  0.00     0.073 A 
ATOM     20  C   UNL A   1      34.751  15.907  24.871  1.00  0.00     0.065 A 
ATOM     21  S   UNL A   1      33.273  15.270  25.449  1.00  0.00    -0.152 S 
ENDBRANCH  11  17
ENDBRANCH   6   8
ENDBRANCH   5   6
ENDBRANCH   4   5
ENDBRANCH   3   4
ENDBRANCH   2   3
ENDBRANCH   1   2
BRANCH   1  22
ATOM     22  C   UNL A   1      37.243  20.708  25.202  1.00  0.00     0.261 C 
BRANCH  22  23
ATOM     23  O   UNL A   1      38.515  21.369  25.068  1.00  0.00    -0.460 OA
BRANCH  23  24
ATOM     24  C   UNL A   1      39.377  21.159  26.089  1.00  0.00     0.338 C 
ATOM     25  O   UNL A   1      39.881  20.098  26.432  1.00  0.00    -0.246 OA
BRANCH  24  26
ATOM     26  C   UNL A   1      39.787  22.449  26.675  1.00  0.00     0.060 A 
ATOM     27  C   UNL A   1      39.161  23.605  26.192  1.00  0.00     0.016 A 
ATOM     28  C   UNL A   1      40.809  22.537  27.622  1.00  0.00     0.016 A 
ATOM     29  C   UNL A   1      39.589  24.861  26.619  1.00  0.00     0.010 A 
ATOM     30  C   UNL A   1      41.243  23.799  28.043  1.00  0.00     0.010 A 
ATOM     31  C   UNL A   1      40.659  24.966  27.517  1.00  0.00    -0.014 A 
BRANCH  31  32
ATOM     32  C   UNL A   1      41.255  26.296  27.793  1.00  0.00     0.031 A 
ATOM     33  C   UNL A   1      42.657  26.578  27.329  1.00  0.00     0.074 A 
ATOM     34  C   UNL A   1      40.547  27.248  28.424  1.00  0.00     0.049 A 
ATOM     35  N   UNL A   1      43.385  27.655  27.487  1.00  0.00    -0.248 NA
ATOM     36  C   UNL A   1      43.331  25.501  26.587  1.00  0.00     0.031 C 
ATOM     37  C   UNL A   1      39.168  27.110  28.887  1.00  0.00     0.029 A 
ATOM     38  N   UNL A   1      40.898  28.524  28.788  1.00  0.00    -0.354 N 
ATOM     39  C   UNL A   1      44.600  27.383  26.872  1.00  0.00     0.074 A 
ATOM     40  C   UNL A   1      44.523  26.031  26.360  1.00  0.00     0.031 C 
ATOM     41  C   UNL A   1      38.792  28.253  29.484  1.00  0.00     0.029 A 
ATOM     42  C   UNL A   1      39.911  29.192  29.471  1.00  0.00     0.049 A 
ATOM     43  H   UNL A   1      41.773  28.923  28.579  1.00  0.00     0.167 HD
ATOM     44  C   UNL A   1      45.677  28.192  26.738  1.00  0.00     0.037 A 
ATOM     45  C   UNL A   1      39.922  30.415  30.036  1.00  0.00     0.037 A 
ATOM     46  C   UNL A   1      45.749  29.539  27.239  1.00  0.00     0.049 A 
ATOM     47  C   UNL A   1      41.159  31.270  29.929  1.00  0.00     0.074 A 
ATOM     48  C   UNL A   1      46.788  30.446  27.128  1.00  0.00     0.029 A 
ATOM     49  N   UNL A   1      44.740  30.170  27.951  1.00  0.00    -0.354 N 
ATOM     50  N   UNL A   1      42.292  31.016  29.320  1.00  0.00    -0.248 NA
ATOM     51  C   UNL A   1      41.116  32.583  30.588  1.00  0.00     0.031 C 
ATOM     52  C   UNL A   1      46.427  31.610  27.815  1.00  0.00     0.029 A 
ATOM     53  C   UNL A   1      45.143  31.447  28.310  1.00  0.00     0.049 A 
ATOM     54  H   UNL A   1      43.867  29.771  28.169  1.00  0.00     0.167 HD
ATOM     55  C   UNL A   1      43.081  32.146  29.494  1.00  0.00     0.074 A 
ATOM     56  C   UNL A   1      42.295  33.091  30.258  1.00  0.00     0.031 C 
ATOM     57  C   UNL A   1      44.343  32.381  29.059  1.00  0.00     0.037 A 
BRANCH  44  58
ATOM     58  C   UNL A   1      46.881  27.635  26.037  1.00  0.00     0.064 A 
ATOM     59  C   UNL A   1      47.015  27.694  24.642  1.00  0.00     0.173 A 
ATOM     60  C   UNL A   1      47.936  27.079  26.776  1.00  0.00     0.173 A 
ATOM     61  F   UNL A   1      46.027  28.204  23.890  1.00  0.00    -0.203 F 
ATOM     62  C   UNL A   1      48.153  27.198  24.012  1.00  0.00     0.198 A 
ATOM     63  C   UNL A   1      49.083  26.608  26.144  1.00  0.00     0.198 A 
ATOM     64  F   UNL A   1      47.858  27.003  28.113  1.00  0.00    -0.203 F 
ATOM     65  F   UNL A   1      48.244  27.229  22.675  1.00  0.00    -0.200 F 
ATOM     66  C   UNL A   1      49.189  26.664  24.763  1.00  0.00     0.200 A 
ATOM     67  F   UNL A   1      50.087  26.102  26.873  1.00  0.00    -0.200 F 
ATOM     68  F   UNL A   1      50.289  26.196  24.155  1.00  0.00    -0.200 F 
ENDBRANCH  44  58
BRANCH  45  69
ATOM     69  C   UNL A   1      38.727  30.908  30.769  1.00  0.00     0.064 A 
ATOM     70  C   UNL A   1      37.691  31.572  30.098  1.00  0.00     0.173 A 
ATOM     71  C   UNL A   1      38.609  30.749  32.157  1.00  0.00     0.173 A 
ATOM     72  F   UNL A   1      37.771  31.772  28.774  1.00  0.00    -0.203 F 
ATOM     73  C   UNL A   1      36.594  32.079  30.792  1.00  0.00     0.198 A 
ATOM     74  C   UNL A   1      37.498  31.231  32.846  1.00  0.00     0.198 A 
ATOM     75  F   UNL A   1      39.574  30.122  32.846  1.00  0.00    -0.203 F 
ATOM     76  F   UNL A   1      35.642  32.755  30.133  1.00  0.00    -0.200 F 
ATOM     77  C   UNL A   1      36.495  31.903  32.163  1.00  0.00     0.200 A 
ATOM     78  F   UNL A   1      37.403  31.051  34.169  1.00  0.00    -0.200 F 
ATOM     79  F   UNL A   1      35.440  32.393  32.830  1.00  0.00    -0.200 F 
ENDBRANCH  45  69
BRANCH  57  80
ATOM     80  C   UNL A   1      44.941  33.724  29.362  1.00  0.00     0.064 A 
ATOM     81  C   UNL A   1      45.711  33.945  30.513  1.00  0.00     0.173 A 
ATOM     82  C   UNL A   1      44.776  34.791  28.466  1.00  0.00     0.173 A 
ATOM     83  F   UNL A   1      45.887  32.960  31.407  1.00  0.00    -0.203 F 
ATOM     84  C   UNL A   1      46.275  35.193  30.767  1.00  0.00     0.198 A 
ATOM     85  C   UNL A   1      45.365  36.029  28.709  1.00  0.00     0.198 A 
ATOM     86  F   UNL A   1      44.054  34.630  27.347  1.00  0.00    -0.203 F 
ATOM     87  F   UNL A   1      46.970  35.394  31.895  1.00  0.00    -0.200 F 
ATOM     88  C   UNL A   1      46.108  36.230  29.863  1.00  0.00     0.200 A 
ATOM     89  F   UNL A   1      45.214  37.026  27.827  1.00  0.00    -0.200 F 
ATOM     90  F   UNL A   1      46.658  37.428  30.106  1.00  0.00    -0.200 F 
ENDBRANCH  57  80
ENDBRANCH  31  32
ENDBRANCH  24  26
ENDBRANCH  23  24
ENDBRANCH  22  23
ENDBRANCH   1  22
TORSDOF 16
ENDMDL
