MODEL 1
REMARK VINA RESULT:     -11.7      0.000      0.000
REMARK SMILES Cc1cc(C)cc(S(=O)(=O)N2CSC[C@H]2C(=O)OCCOCCOC(=O)c2ccc(-c3c4nc(c(-c5c(F)c(F)c(F)c(F)c5F)c5ccc([nH]5)c(-c5c(F)c(F)c(F)c(F)c5F)c5nc(c(-c6c(F)c(F)c(F)c(F)c6F)c6ccc3[nH]6)C=C5)C=C4)cc2)c1
REMARK SMILES IDX 21 1 20 2 19 3 18 4 16 5 17 6 15 7 11 8 12 9 13 10 14 11
REMARK SMILES IDX 8 12 9 13 10 14 7 15 1 16 2 17 3 18 90 19 4 20 5 21 6 22
REMARK SMILES IDX 22 23 23 24 24 25 25 26 26 27 27 28 28 29 89 30 29 31 88 32
REMARK SMILES IDX 30 33 31 34 32 35 82 36 33 37 87 38 81 39 83 40 34 41 86 42
REMARK SMILES IDX 80 43 79 44 35 46 67 47 47 48 66 49 48 50 51 51 65 52 84 53
REMARK SMILES IDX 49 54 50 55 64 57 85 58 52 59 36 60 37 61 45 62 38 63 39 64
REMARK SMILES IDX 43 65 46 66 40 67 41 68 44 69 42 70 68 71 69 72 77 73 70 74
REMARK SMILES IDX 71 75 75 76 78 77 72 78 73 79 76 80 74 81 53 82 54 83 62 84
REMARK SMILES IDX 55 85 56 86 60 87 63 88 57 89 58 90 61 91 59 92
REMARK H PARENT 83 45 51 56
REMARK Flexibility Score: inf
ROOT
ATOM      1  O   UNL A   1      37.409  21.154  24.264  1.00  0.00    -0.374 OA
ENDROOT
BRANCH   1   2
ATOM      2  C   UNL A   1      36.263  21.955  24.543  1.00  0.00     0.202 C 
BRANCH   2   3
ATOM      3  C   UNL A   1      36.170  23.296  23.816  1.00  0.00     0.261 C 
BRANCH   3   4
ATOM      4  O   UNL A   1      35.221  23.264  22.738  1.00  0.00    -0.462 OA
BRANCH   4   5
ATOM      5  C   UNL A   1      33.923  23.058  23.099  1.00  0.00     0.325 C 
ATOM      6  O   UNL A   1      33.300  22.019  22.915  1.00  0.00    -0.250 OA
BRANCH   5   7
ATOM      7  C   UNL A   1      33.266  24.311  23.638  1.00  0.00     0.194 C 
ATOM      8  N   UNL A   1      32.152  24.873  22.839  1.00  0.00    -0.173 NA
ATOM      9  C   UNL A   1      30.817  24.577  23.334  1.00  0.00     0.172 C 
ATOM     10  S   UNL A   1      30.981  23.744  24.927  1.00  0.00    -0.143 SA
ATOM     11  C   UNL A   1      32.769  23.992  25.045  1.00  0.00     0.103 C 
BRANCH   8  12
ATOM     12  S   UNL A   1      32.377  26.217  21.866  1.00  0.00     0.244 S 
ATOM     13  O   UNL A   1      31.516  26.063  20.711  1.00  0.00    -0.207 OA
ATOM     14  O   UNL A   1      33.805  26.392  21.719  1.00  0.00    -0.207 OA
BRANCH  12  15
ATOM     15  C   UNL A   1      31.784  27.635  22.768  1.00  0.00     0.083 A 
ATOM     16  C   UNL A   1      28.697  29.836  23.000  1.00  0.00     0.044 C 
ATOM     17  C   UNL A   1      30.052  29.255  23.277  1.00  0.00    -0.050 A 
ATOM     18  C   UNL A   1      30.794  29.685  24.382  1.00  0.00     0.007 A 
ATOM     19  C   UNL A   1      30.581  28.262  22.449  1.00  0.00     0.025 A 
ATOM     20  C   UNL A   1      32.042  29.116  24.675  1.00  0.00    -0.050 A 
ATOM     21  C   UNL A   1      32.822  29.623  25.853  1.00  0.00     0.044 C 
ATOM     22  C   UNL A   1      32.523  28.069  23.877  1.00  0.00     0.025 A 
ENDBRANCH  12  15
ENDBRANCH   8  12
ENDBRANCH   5   7
ENDBRANCH   4   5
ENDBRANCH   3   4
ENDBRANCH   2   3
ENDBRANCH   1   2
BRANCH   1  23
ATOM     23  C   UNL A   1      37.523  19.905  24.948  1.00  0.00     0.202 C 
BRANCH  23  24
ATOM     24  C   UNL A   1      38.910  19.535  25.485  1.00  0.00     0.261 C 
BRANCH  24  25
ATOM     25  O   UNL A   1      39.748  20.688  25.700  1.00  0.00    -0.460 OA
BRANCH  25  26
ATOM     26  C   UNL A   1      40.521  20.621  26.810  1.00  0.00     0.338 C 
ATOM     27  O   UNL A   1      41.058  19.634  27.286  1.00  0.00    -0.246 OA
BRANCH  26  28
ATOM     28  C   UNL A   1      40.799  21.976  27.325  1.00  0.00     0.060 A 
ATOM     29  C   UNL A   1      40.158  23.045  26.689  1.00  0.00     0.016 A 
ATOM     30  C   UNL A   1      41.738  22.208  28.332  1.00  0.00     0.016 A 
ATOM     31  C   UNL A   1      40.493  24.356  27.018  1.00  0.00     0.010 A 
ATOM     32  C   UNL A   1      42.078  23.528  28.658  1.00  0.00     0.010 A 
ATOM     33  C   UNL A   1      41.486  24.606  27.975  1.00  0.00    -0.014 A 
BRANCH  33  34
ATOM     34  C   UNL A   1      41.978  25.994  28.152  1.00  0.00     0.031 A 
ATOM     35  C   UNL A   1      43.310  26.386  27.573  1.00  0.00     0.074 A 
ATOM     36  C   UNL A   1      41.218  26.915  28.772  1.00  0.00     0.049 A 
ATOM     37  N   UNL A   1      43.904  27.553  27.569  1.00  0.00    -0.248 NA
ATOM     38  C   UNL A   1      44.074  25.320  26.908  1.00  0.00     0.031 C 
ATOM     39  C   UNL A   1      39.904  26.663  29.358  1.00  0.00     0.029 A 
ATOM     40  N   UNL A   1      41.445  28.247  29.010  1.00  0.00    -0.354 N 
ATOM     41  C   UNL A   1      45.110  27.360  26.907  1.00  0.00     0.074 A 
ATOM     42  C   UNL A   1      45.179  25.959  26.551  1.00  0.00     0.031 C 
ATOM     43  C   UNL A   1      39.440  27.805  29.892  1.00  0.00     0.029 A 
ATOM     44  C   UNL A   1      40.433  28.861  29.704  1.00  0.00     0.049 A 
ATOM     45  H   UNL A   1      42.256  28.717  28.711  1.00  0.00     0.167 HD
ATOM     46  C   UNL A   1      46.068  28.273  26.611  1.00  0.00     0.037 A 
ATOM     47  C   UNL A   1      40.326  30.128  30.147  1.00  0.00     0.037 A 
ATOM     48  C   UNL A   1      45.995  29.668  26.959  1.00  0.00     0.049 A 
ATOM     49  C   UNL A   1      41.423  31.114  29.840  1.00  0.00     0.074 A 
ATOM     50  C   UNL A   1      46.895  30.679  26.665  1.00  0.00     0.029 A 
ATOM     51  N   UNL A   1      44.968  30.248  27.690  1.00  0.00    -0.354 N 
ATOM     52  N   UNL A   1      42.535  30.935  29.170  1.00  0.00    -0.248 NA
ATOM     53  C   UNL A   1      41.241  32.483  30.344  1.00  0.00     0.031 C 
ATOM     54  C   UNL A   1      46.439  31.859  27.265  1.00  0.00     0.029 A 
ATOM     55  C   UNL A   1      45.227  31.596  27.886  1.00  0.00     0.049 A 
ATOM     56  H   UNL A   1      44.172  29.773  28.020  1.00  0.00     0.167 HD
ATOM     57  C   UNL A   1      43.176  32.167  29.155  1.00  0.00     0.074 A 
ATOM     58  C   UNL A   1      42.317  33.092  29.866  1.00  0.00     0.031 C 
ATOM     59  C   UNL A   1      44.369  32.503  28.605  1.00  0.00     0.037 A 
BRANCH  46  60
ATOM     60  C   UNL A   1      47.292  27.784  25.893  1.00  0.00     0.064 A 
ATOM     61  C   UNL A   1      48.414  27.305  26.585  1.00  0.00     0.173 A 
ATOM     62  C   UNL A   1      47.328  27.764  24.491  1.00  0.00     0.173 A 
ATOM     63  F   UNL A   1      48.434  27.313  27.927  1.00  0.00    -0.203 F 
ATOM     64  C   UNL A   1      49.538  26.850  25.900  1.00  0.00     0.198 A 
ATOM     65  C   UNL A   1      48.443  27.282  23.808  1.00  0.00     0.198 A 
ATOM     66  F   UNL A   1      46.280  28.207  23.780  1.00  0.00    -0.203 F 
ATOM     67  F   UNL A   1      50.616  26.440  26.582  1.00  0.00    -0.200 F 
ATOM     68  C   UNL A   1      49.549  26.833  24.513  1.00  0.00     0.200 A 
ATOM     69  F   UNL A   1      48.447  27.256  22.468  1.00  0.00    -0.200 F 
ATOM     70  F   UNL A   1      50.629  26.389  23.855  1.00  0.00    -0.200 F 
ENDBRANCH  46  60
BRANCH  47  71
ATOM     71  C   UNL A   1      39.133  30.535  30.932  1.00  0.00     0.064 A 
ATOM     72  C   UNL A   1      37.998  31.069  30.307  1.00  0.00     0.173 A 
ATOM     73  C   UNL A   1      39.107  30.400  32.329  1.00  0.00     0.173 A 
ATOM     74  F   UNL A   1      37.985  31.241  28.977  1.00  0.00    -0.203 F 
ATOM     75  C   UNL A   1      36.887  31.464  31.049  1.00  0.00     0.198 A 
ATOM     76  C   UNL A   1      37.986  30.769  33.067  1.00  0.00     0.198 A 
ATOM     77  F   UNL A   1      40.169  29.897  32.973  1.00  0.00    -0.203 F 
ATOM     78  F   UNL A   1      35.831  32.010  30.432  1.00  0.00    -0.200 F 
ATOM     79  C   UNL A   1      36.880  31.307  32.428  1.00  0.00     0.200 A 
ATOM     80  F   UNL A   1      37.978  30.605  34.397  1.00  0.00    -0.200 F 
ATOM     81  F   UNL A   1      35.808  31.681  33.140  1.00  0.00    -0.200 F 
ENDBRANCH  47  71
BRANCH  59  82
ATOM     82  C   UNL A   1      44.809  33.933  28.738  1.00  0.00     0.064 A 
ATOM     83  C   UNL A   1      45.610  34.359  29.808  1.00  0.00     0.173 A 
ATOM     84  C   UNL A   1      44.447  34.884  27.772  1.00  0.00     0.173 A 
ATOM     85  F   UNL A   1      45.972  33.492  30.767  1.00  0.00    -0.203 F 
ATOM     86  C   UNL A   1      46.005  35.689  29.924  1.00  0.00     0.198 A 
ATOM     87  C   UNL A   1      44.868  36.207  27.874  1.00  0.00     0.198 A 
ATOM     88  F   UNL A   1      43.688  34.529  26.725  1.00  0.00    -0.203 F 
ATOM     89  F   UNL A   1      46.724  36.084  30.984  1.00  0.00    -0.200 F 
ATOM     90  C   UNL A   1      45.638  36.610  28.953  1.00  0.00     0.200 A 
ATOM     91  F   UNL A   1      44.525  37.093  26.929  1.00  0.00    -0.200 F 
ATOM     92  F   UNL A   1      46.020  37.891  29.065  1.00  0.00    -0.200 F 
ENDBRANCH  59  82
ENDBRANCH  33  34
ENDBRANCH  26  28
ENDBRANCH  25  26
ENDBRANCH  24  25
ENDBRANCH  23  24
ENDBRANCH   1  23
TORSDOF 16
ENDMDL
MODEL 2
REMARK VINA RESULT:     -11.7      1.345      2.658
REMARK SMILES Cc1cc(C)cc(S(=O)(=O)N2CSC[C@H]2C(=O)OCCOCCOC(=O)c2ccc(-c3c4nc(c(-c5c(F)c(F)c(F)c(F)c5F)c5ccc([nH]5)c(-c5c(F)c(F)c(F)c(F)c5F)c5nc(c(-c6c(F)c(F)c(F)c(F)c6F)c6ccc3[nH]6)C=C5)C=C4)cc2)c1
REMARK SMILES IDX 21 1 20 2 19 3 18 4 16 5 17 6 15 7 11 8 12 9 13 10 14 11
REMARK SMILES IDX 8 12 9 13 10 14 7 15 1 16 2 17 3 18 90 19 4 20 5 21 6 22
REMARK SMILES IDX 22 23 23 24 24 25 25 26 26 27 27 28 28 29 89 30 29 31 88 32
REMARK SMILES IDX 30 33 31 34 32 35 82 36 33 37 87 38 81 39 83 40 34 41 86 42
REMARK SMILES IDX 80 43 79 44 35 46 67 47 47 48 66 49 48 50 51 51 65 52 84 53
REMARK SMILES IDX 49 54 50 55 64 57 85 58 52 59 36 60 37 61 45 62 38 63 39 64
REMARK SMILES IDX 43 65 46 66 40 67 41 68 44 69 42 70 68 71 69 72 77 73 70 74
REMARK SMILES IDX 71 75 75 76 78 77 72 78 73 79 76 80 74 81 53 82 54 83 62 84
REMARK SMILES IDX 55 85 56 86 60 87 63 88 57 89 58 90 61 91 59 92
REMARK H PARENT 83 45 51 56
REMARK Flexibility Score: inf
ROOT
ATOM      1  O   UNL A   1      34.997  21.328  24.400  1.00  0.00    -0.374 OA
ENDROOT
BRANCH   1   2
ATOM      2  C   UNL A   1      33.630  21.028  24.666  1.00  0.00     0.202 C 
BRANCH   2   3
ATOM      3  C   UNL A   1      32.587  21.806  23.863  1.00  0.00     0.261 C 
BRANCH   3   4
ATOM      4  O   UNL A   1      32.614  23.211  24.159  1.00  0.00    -0.462 OA
BRANCH   4   5
ATOM      5  C   UNL A   1      32.938  24.028  23.117  1.00  0.00     0.325 C 
ATOM      6  O   UNL A   1      33.791  23.783  22.272  1.00  0.00    -0.250 OA
BRANCH   5   7
ATOM      7  C   UNL A   1      32.224  25.362  23.183  1.00  0.00     0.194 C 
ATOM      8  N   UNL A   1      32.730  26.338  24.177  1.00  0.00    -0.173 NA
ATOM      9  C   UNL A   1      33.573  27.395  23.642  1.00  0.00     0.172 C 
ATOM     10  S   UNL A   1      33.565  27.261  21.841  1.00  0.00    -0.143 SA
ATOM     11  C   UNL A   1      32.289  25.980  21.790  1.00  0.00     0.103 C 
BRANCH   8  12
ATOM     12  S   UNL A   1      31.926  26.596  25.624  1.00  0.00     0.244 S 
ATOM     13  O   UNL A   1      32.302  25.525  26.524  1.00  0.00    -0.207 OA
ATOM     14  O   UNL A   1      30.541  26.846  25.292  1.00  0.00    -0.207 OA
BRANCH  12  15
ATOM     15  C   UNL A   1      32.559  28.107  26.324  1.00  0.00     0.083 A 
ATOM     16  C   UNL A   1      35.794  29.512  27.735  1.00  0.00     0.044 C 
ATOM     17  C   UNL A   1      34.374  29.417  27.258  1.00  0.00    -0.050 A 
ATOM     18  C   UNL A   1      33.581  30.564  27.165  1.00  0.00     0.007 A 
ATOM     19  C   UNL A   1      33.835  28.185  26.879  1.00  0.00     0.025 A 
ATOM     20  C   UNL A   1      32.267  30.491  26.679  1.00  0.00    -0.050 A 
ATOM     21  C   UNL A   1      31.436  31.740  26.620  1.00  0.00     0.044 C 
ATOM     22  C   UNL A   1      31.768  29.260  26.232  1.00  0.00     0.025 A 
ENDBRANCH  12  15
ENDBRANCH   8  12
ENDBRANCH   5   7
ENDBRANCH   4   5
ENDBRANCH   3   4
ENDBRANCH   2   3
ENDBRANCH   1   2
BRANCH   1  23
ATOM     23  C   UNL A   1      35.930  21.160  25.469  1.00  0.00     0.202 C 
BRANCH  23  24
ATOM     24  C   UNL A   1      37.266  20.493  25.123  1.00  0.00     0.261 C 
BRANCH  24  25
ATOM     25  O   UNL A   1      38.367  21.424  25.120  1.00  0.00    -0.460 OA
BRANCH  25  26
ATOM     26  C   UNL A   1      39.315  21.175  26.054  1.00  0.00     0.338 C 
ATOM     27  O   UNL A   1      39.876  20.116  26.282  1.00  0.00    -0.246 OA
BRANCH  26  28
ATOM     28  C   UNL A   1      39.745  22.431  26.697  1.00  0.00     0.060 A 
ATOM     29  C   UNL A   1      39.140  23.614  26.257  1.00  0.00     0.016 A 
ATOM     30  C   UNL A   1      40.782  22.469  27.631  1.00  0.00     0.016 A 
ATOM     31  C   UNL A   1      39.607  24.847  26.707  1.00  0.00     0.010 A 
ATOM     32  C   UNL A   1      41.255  23.711  28.079  1.00  0.00     0.010 A 
ATOM     33  C   UNL A   1      40.695  24.905  27.589  1.00  0.00    -0.014 A 
BRANCH  33  34
ATOM     34  C   UNL A   1      41.312  26.221  27.882  1.00  0.00     0.031 A 
ATOM     35  C   UNL A   1      42.706  26.510  27.398  1.00  0.00     0.074 A 
ATOM     36  C   UNL A   1      40.612  27.175  28.523  1.00  0.00     0.049 A 
ATOM     37  N   UNL A   1      43.412  27.608  27.502  1.00  0.00    -0.248 NA
ATOM     38  C   UNL A   1      43.398  25.414  26.703  1.00  0.00     0.031 C 
ATOM     39  C   UNL A   1      39.248  27.024  29.023  1.00  0.00     0.029 A 
ATOM     40  N   UNL A   1      40.956  28.460  28.860  1.00  0.00    -0.354 N 
ATOM     41  C   UNL A   1      44.629  27.334  26.889  1.00  0.00     0.074 A 
ATOM     42  C   UNL A   1      44.579  25.957  26.446  1.00  0.00     0.031 C 
ATOM     43  C   UNL A   1      38.870  28.172  29.608  1.00  0.00     0.029 A 
ATOM     44  C   UNL A   1      39.972  29.131  29.541  1.00  0.00     0.049 A 
ATOM     45  H   UNL A   1      41.825  28.862  28.634  1.00  0.00     0.167 HD
ATOM     46  C   UNL A   1      45.687  28.160  26.704  1.00  0.00     0.037 A 
ATOM     47  C   UNL A   1      39.966  30.373  30.061  1.00  0.00     0.037 A 
ATOM     48  C   UNL A   1      45.734  29.531  27.139  1.00  0.00     0.049 A 
ATOM     49  C   UNL A   1      41.171  31.259  29.876  1.00  0.00     0.074 A 
ATOM     50  C   UNL A   1      46.744  30.461  26.959  1.00  0.00     0.029 A 
ATOM     51  N   UNL A   1      44.729  30.168  27.854  1.00  0.00    -0.354 N 
ATOM     52  N   UNL A   1      42.295  31.008  29.252  1.00  0.00    -0.248 NA
ATOM     53  C   UNL A   1      41.097  32.606  30.461  1.00  0.00     0.031 C 
ATOM     54  C   UNL A   1      46.373  31.642  27.612  1.00  0.00     0.029 A 
ATOM     55  C   UNL A   1      45.109  31.467  28.153  1.00  0.00     0.049 A 
ATOM     56  H   UNL A   1      43.872  29.757  28.112  1.00  0.00     0.167 HD
ATOM     57  C   UNL A   1      43.055  32.167  29.353  1.00  0.00     0.074 A 
ATOM     58  C   UNL A   1      42.253  33.129  30.079  1.00  0.00     0.031 C 
ATOM     59  C   UNL A   1      44.305  32.412  28.886  1.00  0.00     0.037 A 
BRANCH  46  60
ATOM     60  C   UNL A   1      46.896  27.593  26.017  1.00  0.00     0.064 A 
ATOM     61  C   UNL A   1      47.058  27.663  24.626  1.00  0.00     0.173 A 
ATOM     62  C   UNL A   1      47.922  26.999  26.768  1.00  0.00     0.173 A 
ATOM     63  F   UNL A   1      46.101  28.211  23.862  1.00  0.00    -0.203 F 
ATOM     64  C   UNL A   1      48.190  27.136  24.008  1.00  0.00     0.198 A 
ATOM     65  C   UNL A   1      49.066  26.498  26.150  1.00  0.00     0.198 A 
ATOM     66  F   UNL A   1      47.820  26.910  28.103  1.00  0.00    -0.203 F 
ATOM     67  F   UNL A   1      48.302  27.174  22.673  1.00  0.00    -0.200 F 
ATOM     68  C   UNL A   1      49.195  26.560  24.771  1.00  0.00     0.200 A 
ATOM     69  F   UNL A   1      50.041  25.953  26.890  1.00  0.00    -0.200 F 
ATOM     70  F   UNL A   1      50.286  26.059  24.176  1.00  0.00    -0.200 F 
ENDBRANCH  46  60
BRANCH  47  71
ATOM     71  C   UNL A   1      38.776  30.852  30.811  1.00  0.00     0.064 A 
ATOM     72  C   UNL A   1      37.743  31.547  30.169  1.00  0.00     0.173 A 
ATOM     73  C   UNL A   1      38.652  30.623  32.190  1.00  0.00     0.173 A 
ATOM     74  F   UNL A   1      37.829  31.812  28.857  1.00  0.00    -0.203 F 
ATOM     75  C   UNL A   1      36.636  32.008  30.879  1.00  0.00     0.198 A 
ATOM     76  C   UNL A   1      37.532  31.059  32.893  1.00  0.00     0.198 A 
ATOM     77  F   UNL A   1      39.614  29.964  32.850  1.00  0.00    -0.203 F 
ATOM     78  F   UNL A   1      35.682  32.706  30.250  1.00  0.00    -0.200 F 
ATOM     79  C   UNL A   1      36.529  31.757  32.240  1.00  0.00     0.200 A 
ATOM     80  F   UNL A   1      37.427  30.804  34.205  1.00  0.00    -0.200 F 
ATOM     81  F   UNL A   1      35.460  32.194  32.921  1.00  0.00    -0.200 F 
ENDBRANCH  47  71
BRANCH  59  82
ATOM     82  C   UNL A   1      44.876  33.779  29.136  1.00  0.00     0.064 A 
ATOM     83  C   UNL A   1      44.629  34.849  28.264  1.00  0.00     0.173 A 
ATOM     84  C   UNL A   1      45.659  34.027  30.274  1.00  0.00     0.173 A 
ATOM     85  F   UNL A   1      43.898  34.661  27.155  1.00  0.00    -0.203 F 
ATOM     86  C   UNL A   1      45.171  36.109  28.504  1.00  0.00     0.198 A 
ATOM     87  C   UNL A   1      46.175  35.295  30.527  1.00  0.00     0.198 A 
ATOM     88  F   UNL A   1      45.920  33.040  31.144  1.00  0.00    -0.203 F 
ATOM     89  F   UNL A   1      44.967  37.102  27.628  1.00  0.00    -0.200 F 
ATOM     90  C   UNL A   1      45.939  36.332  29.638  1.00  0.00     0.200 A 
ATOM     91  F   UNL A   1      46.905  35.513  31.630  1.00  0.00    -0.200 F 
ATOM     92  F   UNL A   1      46.459  37.546  29.868  1.00  0.00    -0.200 F 
ENDBRANCH  59  82
ENDBRANCH  33  34
ENDBRANCH  26  28
ENDBRANCH  25  26
ENDBRANCH  24  25
ENDBRANCH  23  24
ENDBRANCH   1  23
TORSDOF 16
ENDMDL
MODEL 3
REMARK VINA RESULT:     -11.7      4.321     10.039
REMARK SMILES Cc1cc(C)cc(S(=O)(=O)N2CSC[C@H]2C(=O)OCCOCCOC(=O)c2ccc(-c3c4nc(c(-c5c(F)c(F)c(F)c(F)c5F)c5ccc([nH]5)c(-c5c(F)c(F)c(F)c(F)c5F)c5nc(c(-c6c(F)c(F)c(F)c(F)c6F)c6ccc3[nH]6)C=C5)C=C4)cc2)c1
REMARK SMILES IDX 21 1 20 2 19 3 18 4 16 5 17 6 15 7 11 8 12 9 13 10 14 11
REMARK SMILES IDX 8 12 9 13 10 14 7 15 1 16 2 17 3 18 90 19 4 20 5 21 6 22
REMARK SMILES IDX 22 23 23 24 24 25 25 26 26 27 27 28 28 29 89 30 29 31 88 32
REMARK SMILES IDX 30 33 31 34 32 35 82 36 33 37 87 38 81 39 83 40 34 41 86 42
REMARK SMILES IDX 80 43 79 44 35 46 67 47 47 48 66 49 48 50 51 51 65 52 84 53
REMARK SMILES IDX 49 54 50 55 64 57 85 58 52 59 36 60 37 61 45 62 38 63 39 64
REMARK SMILES IDX 43 65 46 66 40 67 41 68 44 69 42 70 68 71 69 72 77 73 70 74
REMARK SMILES IDX 71 75 75 76 78 77 72 78 73 79 76 80 74 81 53 82 54 83 62 84
REMARK SMILES IDX 55 85 56 86 60 87 63 88 57 89 58 90 61 91 59 92
REMARK H PARENT 83 45 51 56
REMARK Flexibility Score: inf
ROOT
ATOM      1  O   UNL A   1      33.143  29.413  24.741  1.00  0.00    -0.374 OA
ENDROOT
BRANCH   1   2
ATOM      2  C   UNL A   1      33.158  28.777  23.466  1.00  0.00     0.202 C 
BRANCH   2   3
ATOM      3  C   UNL A   1      31.823  28.694  22.725  1.00  0.00     0.261 C 
BRANCH   3   4
ATOM      4  O   UNL A   1      31.439  27.337  22.451  1.00  0.00    -0.462 OA
BRANCH   4   5
ATOM      5  C   UNL A   1      30.534  26.794  23.313  1.00  0.00     0.325 C 
ATOM      6  O   UNL A   1      29.493  27.335  23.670  1.00  0.00    -0.250 OA
BRANCH   5   7
ATOM      7  C   UNL A   1      31.013  25.488  23.911  1.00  0.00     0.194 C 
ATOM      8  N   UNL A   1      32.479  25.292  23.991  1.00  0.00    -0.173 NA
ATOM      9  C   UNL A   1      33.069  25.515  25.301  1.00  0.00     0.172 C 
ATOM     10  S   UNL A   1      31.729  25.787  26.480  1.00  0.00    -0.143 SA
ATOM     11  C   UNL A   1      30.411  25.381  25.308  1.00  0.00     0.103 C 
BRANCH   8  12
ATOM     12  S   UNL A   1      33.283  24.311  22.896  1.00  0.00     0.244 S 
ATOM     13  O   UNL A   1      34.402  25.070  22.377  1.00  0.00    -0.207 OA
ATOM     14  O   UNL A   1      32.278  23.758  22.016  1.00  0.00    -0.207 OA
BRANCH  12  15
ATOM     15  C   UNL A   1      33.965  22.941  23.809  1.00  0.00     0.083 A 
ATOM     16  C   UNL A   1      32.902  19.562  25.181  1.00  0.00     0.044 C 
ATOM     17  C   UNL A   1      33.751  20.744  24.815  1.00  0.00    -0.050 A 
ATOM     18  C   UNL A   1      35.136  20.706  25.002  1.00  0.00     0.007 A 
ATOM     19  C   UNL A   1      33.171  21.888  24.260  1.00  0.00     0.025 A 
ATOM     20  C   UNL A   1      35.942  21.789  24.621  1.00  0.00    -0.050 A 
ATOM     21  C   UNL A   1      37.422  21.724  24.864  1.00  0.00     0.044 C 
ATOM     22  C   UNL A   1      35.353  22.898  23.998  1.00  0.00     0.025 A 
ENDBRANCH  12  15
ENDBRANCH   8  12
ENDBRANCH   5   7
ENDBRANCH   4   5
ENDBRANCH   3   4
ENDBRANCH   2   3
ENDBRANCH   1   2
BRANCH   1  23
ATOM     23  C   UNL A   1      31.868  29.688  25.326  1.00  0.00     0.202 C 
BRANCH  23  24
ATOM     24  C   UNL A   1      31.801  30.849  26.325  1.00  0.00     0.261 C 
BRANCH  24  25
ATOM     25  O   UNL A   1      32.740  30.704  27.409  1.00  0.00    -0.460 OA
BRANCH  25  26
ATOM     26  C   UNL A   1      33.543  31.776  27.604  1.00  0.00     0.338 C 
ATOM     27  O   UNL A   1      33.226  32.954  27.607  1.00  0.00    -0.246 OA
BRANCH  26  28
ATOM     28  C   UNL A   1      34.897  31.340  27.998  1.00  0.00     0.060 A 
ATOM     29  C   UNL A   1      35.069  29.983  28.297  1.00  0.00     0.016 A 
ATOM     30  C   UNL A   1      35.946  32.244  28.171  1.00  0.00     0.016 A 
ATOM     31  C   UNL A   1      36.276  29.532  28.825  1.00  0.00     0.010 A 
ATOM     32  C   UNL A   1      37.159  31.789  28.708  1.00  0.00     0.010 A 
ATOM     33  C   UNL A   1      37.315  30.440  29.073  1.00  0.00    -0.014 A 
BRANCH  33  34
ATOM     34  C   UNL A   1      38.503  29.980  29.833  1.00  0.00     0.031 A 
ATOM     35  C   UNL A   1      38.707  30.454  31.245  1.00  0.00     0.074 A 
ATOM     36  C   UNL A   1      39.362  29.099  29.289  1.00  0.00     0.049 A 
ATOM     37  N   UNL A   1      39.647  30.138  32.101  1.00  0.00    -0.248 NA
ATOM     38  C   UNL A   1      37.719  31.412  31.764  1.00  0.00     0.031 C 
ATOM     39  C   UNL A   1      39.262  28.551  27.938  1.00  0.00     0.029 A 
ATOM     40  N   UNL A   1      40.487  28.510  29.809  1.00  0.00    -0.354 N 
ATOM     41  C   UNL A   1      39.366  30.859  33.254  1.00  0.00     0.074 A 
ATOM     42  C   UNL A   1      38.188  31.654  32.980  1.00  0.00     0.031 C 
ATOM     43  C   UNL A   1      40.286  27.708  27.734  1.00  0.00     0.029 A 
ATOM     44  C   UNL A   1      41.125  27.672  28.931  1.00  0.00     0.049 A 
ATOM     45  H   UNL A   1      40.805  28.674  30.726  1.00  0.00     0.167 HD
ATOM     46  C   UNL A   1      40.024  30.850  34.439  1.00  0.00     0.037 A 
ATOM     47  C   UNL A   1      42.263  26.966  29.073  1.00  0.00     0.037 A 
ATOM     48  C   UNL A   1      41.191  30.054  34.714  1.00  0.00     0.049 A 
ATOM     49  C   UNL A   1      42.999  27.004  30.386  1.00  0.00     0.074 A 
ATOM     50  C   UNL A   1      41.903  29.943  35.897  1.00  0.00     0.029 A 
ATOM     51  N   UNL A   1      41.828  29.239  33.788  1.00  0.00    -0.354 N 
ATOM     52  N   UNL A   1      42.697  27.648  31.487  1.00  0.00    -0.248 NA
ATOM     53  C   UNL A   1      44.229  26.204  30.479  1.00  0.00     0.031 C 
ATOM     54  C   UNL A   1      43.001  29.105  35.671  1.00  0.00     0.029 A 
ATOM     55  C   UNL A   1      42.943  28.649  34.363  1.00  0.00     0.049 A 
ATOM     56  H   UNL A   1      41.531  29.101  32.860  1.00  0.00     0.167 HD
ATOM     57  C   UNL A   1      43.686  27.321  32.406  1.00  0.00     0.074 A 
ATOM     58  C   UNL A   1      44.585  26.401  31.740  1.00  0.00     0.031 C 
ATOM     59  C   UNL A   1      43.836  27.744  33.685  1.00  0.00     0.037 A 
BRANCH  46  60
ATOM     60  C   UNL A   1      39.507  31.750  35.525  1.00  0.00     0.064 A 
ATOM     61  C   UNL A   1      38.549  31.315  36.452  1.00  0.00     0.173 A 
ATOM     62  C   UNL A   1      40.004  33.055  35.657  1.00  0.00     0.173 A 
ATOM     63  F   UNL A   1      38.034  30.079  36.362  1.00  0.00    -0.203 F 
ATOM     64  C   UNL A   1      38.087  32.163  37.456  1.00  0.00     0.198 A 
ATOM     65  C   UNL A   1      39.560  33.892  36.679  1.00  0.00     0.198 A 
ATOM     66  F   UNL A   1      40.926  33.519  34.800  1.00  0.00    -0.203 F 
ATOM     67  F   UNL A   1      37.138  31.742  38.303  1.00  0.00    -0.200 F 
ATOM     68  C   UNL A   1      38.598  33.448  37.572  1.00  0.00     0.200 A 
ATOM     69  F   UNL A   1      40.064  35.128  36.797  1.00  0.00    -0.200 F 
ATOM     70  F   UNL A   1      38.156  34.261  38.542  1.00  0.00    -0.200 F 
ENDBRANCH  46  60
BRANCH  47  71
ATOM     71  C   UNL A   1      42.778  26.163  27.934  1.00  0.00     0.064 A 
ATOM     72  C   UNL A   1      43.651  26.718  26.988  1.00  0.00     0.173 A 
ATOM     73  C   UNL A   1      42.402  24.821  27.768  1.00  0.00     0.173 A 
ATOM     74  F   UNL A   1      44.019  28.004  27.091  1.00  0.00    -0.203 F 
ATOM     75  C   UNL A   1      44.119  25.966  25.913  1.00  0.00     0.198 A 
ATOM     76  C   UNL A   1      42.892  24.063  26.708  1.00  0.00     0.198 A 
ATOM     77  F   UNL A   1      41.567  24.245  28.644  1.00  0.00    -0.203 F 
ATOM     78  F   UNL A   1      44.919  26.531  24.999  1.00  0.00    -0.200 F 
ATOM     79  C   UNL A   1      43.744  24.637  25.778  1.00  0.00     0.200 A 
ATOM     80  F   UNL A   1      42.537  22.776  26.588  1.00  0.00    -0.200 F 
ATOM     81  F   UNL A   1      44.200  23.912  24.746  1.00  0.00    -0.200 F 
ENDBRANCH  47  71
BRANCH  59  82
ATOM     82  C   UNL A   1      45.010  27.206  34.454  1.00  0.00     0.064 A 
ATOM     83  C   UNL A   1      46.229  27.897  34.512  1.00  0.00     0.173 A 
ATOM     84  C   UNL A   1      44.907  25.997  35.159  1.00  0.00     0.173 A 
ATOM     85  F   UNL A   1      46.384  29.050  33.844  1.00  0.00    -0.203 F 
ATOM     86  C   UNL A   1      47.312  27.383  35.221  1.00  0.00     0.198 A 
ATOM     87  C   UNL A   1      45.981  25.500  35.892  1.00  0.00     0.198 A 
ATOM     88  F   UNL A   1      43.762  25.300  35.142  1.00  0.00    -0.203 F 
ATOM     89  F   UNL A   1      48.483  28.033  35.218  1.00  0.00    -0.200 F 
ATOM     90  C   UNL A   1      47.184  26.188  35.915  1.00  0.00     0.200 A 
ATOM     91  F   UNL A   1      45.853  24.353  36.573  1.00  0.00    -0.200 F 
ATOM     92  F   UNL A   1      48.227  25.695  36.599  1.00  0.00    -0.200 F 
ENDBRANCH  59  82
ENDBRANCH  33  34
ENDBRANCH  26  28
ENDBRANCH  25  26
ENDBRANCH  24  25
ENDBRANCH  23  24
ENDBRANCH   1  23
TORSDOF 16
ENDMDL
