MODEL 1
REMARK VINA RESULT:     -11.7      0.000      0.000
REMARK SMILES CC[C@@H]1CC[C@](C[C@@H]2CCCc3ccccc32)(C(=O)OCCOCCOC(=O)c2ccc(-c3c4nc(c(-c5c(F)c(F)c(F)c(F)c5F)c5ccc([nH]5)c(-c5c(F)c(F)c(F)c(F)c5F)c5nc(c(-c6c(F)c(F)c(F)c(F)c6F)c6ccc3[nH]6)C=C5)C=C4)cc2)C1
REMARK SMILES IDX 23 1 22 2 21 3 20 4 18 5 19 6 6 7 3 8 4 9 92 10 5 11 2 12
REMARK SMILES IDX 1 13 7 14 8 15 9 16 17 17 10 18 12 19 16 20 11 21 13 22
REMARK SMILES IDX 15 23 14 24 24 25 25 26 26 27 27 28 28 29 29 30 30 31 91 32
REMARK SMILES IDX 31 33 90 34 32 35 33 36 34 37 84 38 35 39 89 40 83 41 85 42
REMARK SMILES IDX 36 43 88 44 82 45 81 46 37 48 69 49 49 50 68 51 50 52 53 53
REMARK SMILES IDX 67 54 86 55 51 56 52 57 66 59 87 60 54 61 38 62 39 63 47 64
REMARK SMILES IDX 40 65 41 66 45 67 48 68 42 69 43 70 46 71 44 72 70 73 71 74
REMARK SMILES IDX 79 75 72 76 73 77 77 78 80 79 74 80 75 81 78 82 76 83 55 84
REMARK SMILES IDX 56 85 64 86 57 87 58 88 62 89 65 90 59 91 60 92 63 93 61 94
REMARK H PARENT 85 47 53 58
REMARK Flexibility Score: inf
ROOT
ATOM      1  O   UNL A   1      32.419  30.208  26.920  1.00  0.00    -0.374 OA
ENDROOT
BRANCH   1   2
ATOM      2  C   UNL A   1      33.267  29.438  26.074  1.00  0.00     0.202 C 
BRANCH   2   3
ATOM      3  C   UNL A   1      32.874  29.314  24.599  1.00  0.00     0.261 C 
BRANCH   3   4
ATOM      4  O   UNL A   1      32.380  28.010  24.242  1.00  0.00    -0.463 OA
BRANCH   4   5
ATOM      5  C   UNL A   1      33.275  27.221  23.582  1.00  0.00     0.312 C 
ATOM      6  O   UNL A   1      34.022  27.635  22.700  1.00  0.00    -0.252 OA
BRANCH   5   7
ATOM      7  C   UNL A   1      33.179  25.726  23.964  1.00  0.00     0.069 C 
ATOM      8  C   UNL A   1      31.864  24.548  25.658  1.00  0.00    -0.010 C 
ATOM      9  C   UNL A   1      32.868  25.419  26.387  1.00  0.00     0.005 C 
ATOM     10  C   UNL A   1      31.744  25.252  24.300  1.00  0.00     0.022 C 
ATOM     11  C   UNL A   1      33.945  25.590  25.316  1.00  0.00     0.019 C 
BRANCH   8  12
ATOM     12  C   UNL A   1      30.535  24.324  26.375  1.00  0.00     0.000 C 
ATOM     13  C   UNL A   1      30.284  22.837  26.610  1.00  0.00     0.004 C 
ENDBRANCH   8  12
BRANCH   7  14
ATOM     14  C   UNL A   1      33.787  25.009  22.721  1.00  0.00     0.027 C 
BRANCH  14  15
ATOM     15  C   UNL A   1      34.033  23.479  22.575  1.00  0.00     0.020 C 
ATOM     16  C   UNL A   1      32.837  22.605  22.162  1.00  0.00     0.009 C 
ATOM     17  C   UNL A   1      34.901  22.862  23.641  1.00  0.00    -0.042 A 
ATOM     18  C   UNL A   1      32.145  21.832  23.273  1.00  0.00     0.005 C 
ATOM     19  C   UNL A   1      34.431  21.844  24.481  1.00  0.00    -0.045 A 
ATOM     20  C   UNL A   1      36.224  23.321  23.793  1.00  0.00     0.004 A 
ATOM     21  C   UNL A   1      33.083  21.197  24.299  1.00  0.00     0.036 C 
ATOM     22  C   UNL A   1      35.273  21.352  25.495  1.00  0.00     0.004 A 
ATOM     23  C   UNL A   1      37.054  22.813  24.789  1.00  0.00     0.000 A 
ATOM     24  C   UNL A   1      36.572  21.838  25.652  1.00  0.00     0.000 A 
ENDBRANCH  14  15
ENDBRANCH   7  14
ENDBRANCH   5   7
ENDBRANCH   4   5
ENDBRANCH   3   4
ENDBRANCH   2   3
ENDBRANCH   1   2
BRANCH   1  25
ATOM     25  C   UNL A   1      31.640  31.241  26.320  1.00  0.00     0.202 C 
BRANCH  25  26
ATOM     26  C   UNL A   1      31.717  32.633  26.963  1.00  0.00     0.261 C 
BRANCH  26  27
ATOM     27  O   UNL A   1      33.029  33.222  26.866  1.00  0.00    -0.460 OA
BRANCH  27  28
ATOM     28  C   UNL A   1      33.553  33.621  28.050  1.00  0.00     0.338 C 
ATOM     29  O   UNL A   1      33.050  34.378  28.868  1.00  0.00    -0.246 OA
BRANCH  28  30
ATOM     30  C   UNL A   1      34.793  32.883  28.349  1.00  0.00     0.060 A 
ATOM     31  C   UNL A   1      34.663  31.587  28.864  1.00  0.00     0.016 A 
ATOM     32  C   UNL A   1      36.049  33.485  28.254  1.00  0.00     0.016 A 
ATOM     33  C   UNL A   1      35.784  30.907  29.336  1.00  0.00     0.010 A 
ATOM     34  C   UNL A   1      37.173  32.804  28.737  1.00  0.00     0.010 A 
ATOM     35  C   UNL A   1      37.040  31.529  29.317  1.00  0.00    -0.014 A 
BRANCH  35  36
ATOM     36  C   UNL A   1      38.170  30.887  30.035  1.00  0.00     0.031 A 
ATOM     37  C   UNL A   1      38.413  31.224  31.480  1.00  0.00     0.074 A 
ATOM     38  C   UNL A   1      38.945  29.975  29.422  1.00  0.00     0.049 A 
ATOM     39  N   UNL A   1      39.311  30.748  32.305  1.00  0.00    -0.248 NA
ATOM     40  C   UNL A   1      37.523  32.233  32.075  1.00  0.00     0.031 C 
ATOM     41  C   UNL A   1      38.803  29.548  28.032  1.00  0.00     0.029 A 
ATOM     42  N   UNL A   1      40.006  29.244  29.896  1.00  0.00    -0.354 N 
ATOM     43  C   UNL A   1      39.095  31.398  33.514  1.00  0.00     0.074 A 
ATOM     44  C   UNL A   1      38.002  32.324  33.307  1.00  0.00     0.031 C 
ATOM     45  C   UNL A   1      39.750  28.635  27.761  1.00  0.00     0.029 A 
ATOM     46  C   UNL A   1      40.572  28.426  28.952  1.00  0.00     0.049 A 
ATOM     47  H   UNL A   1      40.329  29.302  30.824  1.00  0.00     0.167 HD
ATOM     48  C   UNL A   1      39.743  31.230  34.693  1.00  0.00     0.037 A 
ATOM     49  C   UNL A   1      41.642  27.611  29.036  1.00  0.00     0.037 A 
ATOM     50  C   UNL A   1      40.823  30.304  34.905  1.00  0.00     0.049 A 
ATOM     51  C   UNL A   1      42.371  27.470  30.346  1.00  0.00     0.074 A 
ATOM     52  C   UNL A   1      41.504  30.024  36.078  1.00  0.00     0.029 A 
ATOM     53  N   UNL A   1      41.392  29.516  33.916  1.00  0.00    -0.354 N 
ATOM     54  N   UNL A   1      42.125  28.046  31.497  1.00  0.00    -0.248 NA
ATOM     55  C   UNL A   1      43.524  26.558  30.368  1.00  0.00     0.031 C 
ATOM     56  C   UNL A   1      42.518  29.104  35.788  1.00  0.00     0.029 A 
ATOM     57  C   UNL A   1      42.440  28.776  34.444  1.00  0.00     0.049 A 
ATOM     58  H   UNL A   1      41.097  29.486  32.977  1.00  0.00     0.167 HD
ATOM     59  C   UNL A   1      43.079  27.559  32.381  1.00  0.00     0.074 A 
ATOM     60  C   UNL A   1      43.898  26.625  31.638  1.00  0.00     0.031 C 
ATOM     61  C   UNL A   1      43.258  27.860  33.691  1.00  0.00     0.037 A 
BRANCH  48  62
ATOM     62  C   UNL A   1      39.310  32.088  35.844  1.00  0.00     0.064 A 
ATOM     63  C   UNL A   1      38.358  31.649  36.775  1.00  0.00     0.173 A 
ATOM     64  C   UNL A   1      39.876  33.358  36.031  1.00  0.00     0.173 A 
ATOM     65  F   UNL A   1      37.778  30.448  36.633  1.00  0.00    -0.203 F 
ATOM     66  C   UNL A   1      37.967  32.461  37.837  1.00  0.00     0.198 A 
ATOM     67  C   UNL A   1      39.502  34.157  37.107  1.00  0.00     0.198 A 
ATOM     68  F   UNL A   1      40.794  33.823  35.170  1.00  0.00    -0.203 F 
ATOM     69  F   UNL A   1      37.023  32.040  38.690  1.00  0.00    -0.200 F 
ATOM     70  C   UNL A   1      38.543  33.712  38.006  1.00  0.00     0.200 A 
ATOM     71  F   UNL A   1      40.065  35.362  37.274  1.00  0.00    -0.200 F 
ATOM     72  F   UNL A   1      38.168  34.492  39.028  1.00  0.00    -0.200 F 
ENDBRANCH  48  62
BRANCH  49  73
ATOM     73  C   UNL A   1      42.089  26.866  27.832  1.00  0.00     0.064 A 
ATOM     74  C   UNL A   1      43.056  27.395  26.968  1.00  0.00     0.173 A 
ATOM     75  C   UNL A   1      41.557  25.604  27.528  1.00  0.00     0.173 A 
ATOM     76  F   UNL A   1      43.574  28.608  27.204  1.00  0.00    -0.203 F 
ATOM     77  C   UNL A   1      43.471  26.689  25.840  1.00  0.00     0.198 A 
ATOM     78  C   UNL A   1      41.990  24.890  26.414  1.00  0.00     0.198 A 
ATOM     79  F   UNL A   1      40.627  25.058  28.325  1.00  0.00    -0.203 F 
ATOM     80  F   UNL A   1      44.375  27.230  25.010  1.00  0.00    -0.200 F 
ATOM     81  C   UNL A   1      42.944  25.436  25.568  1.00  0.00     0.200 A 
ATOM     82  F   UNL A   1      41.485  23.675  26.161  1.00  0.00    -0.200 F 
ATOM     83  F   UNL A   1      43.351  24.756  24.487  1.00  0.00    -0.200 F 
ENDBRANCH  49  73
BRANCH  61  84
ATOM     84  C   UNL A   1      44.382  27.170  34.407  1.00  0.00     0.064 A 
ATOM     85  C   UNL A   1      45.648  27.761  34.523  1.00  0.00     0.173 A 
ATOM     86  C   UNL A   1      44.183  25.921  35.015  1.00  0.00     0.173 A 
ATOM     87  F   UNL A   1      45.894  28.948  33.947  1.00  0.00    -0.203 F 
ATOM     88  C   UNL A   1      46.680  27.118  35.201  1.00  0.00     0.198 A 
ATOM     89  C   UNL A   1      45.209  25.292  35.714  1.00  0.00     0.198 A 
ATOM     90  F   UNL A   1      42.988  25.314  34.939  1.00  0.00    -0.203 F 
ATOM     91  F   UNL A   1      47.895  27.681  35.262  1.00  0.00    -0.200 F 
ATOM     92  C   UNL A   1      46.459  25.887  35.801  1.00  0.00     0.200 A 
ATOM     93  F   UNL A   1      44.989  24.108  36.302  1.00  0.00    -0.200 F 
ATOM     94  F   UNL A   1      47.452  25.270  36.457  1.00  0.00    -0.200 F 
ENDBRANCH  61  84
ENDBRANCH  35  36
ENDBRANCH  28  30
ENDBRANCH  27  28
ENDBRANCH  26  27
ENDBRANCH  25  26
ENDBRANCH   1  25
TORSDOF 17
ENDMDL
MODEL 2
REMARK VINA RESULT:     -11.7      4.400      9.924
REMARK SMILES CC[C@@H]1CC[C@](C[C@@H]2CCCc3ccccc32)(C(=O)OCCOCCOC(=O)c2ccc(-c3c4nc(c(-c5c(F)c(F)c(F)c(F)c5F)c5ccc([nH]5)c(-c5c(F)c(F)c(F)c(F)c5F)c5nc(c(-c6c(F)c(F)c(F)c(F)c6F)c6ccc3[nH]6)C=C5)C=C4)cc2)C1
REMARK SMILES IDX 23 1 22 2 21 3 20 4 18 5 19 6 6 7 3 8 4 9 92 10 5 11 2 12
REMARK SMILES IDX 1 13 7 14 8 15 9 16 17 17 10 18 12 19 16 20 11 21 13 22
REMARK SMILES IDX 15 23 14 24 24 25 25 26 26 27 27 28 28 29 29 30 30 31 91 32
REMARK SMILES IDX 31 33 90 34 32 35 33 36 34 37 84 38 35 39 89 40 83 41 85 42
REMARK SMILES IDX 36 43 88 44 82 45 81 46 37 48 69 49 49 50 68 51 50 52 53 53
REMARK SMILES IDX 67 54 86 55 51 56 52 57 66 59 87 60 54 61 38 62 39 63 47 64
REMARK SMILES IDX 40 65 41 66 45 67 48 68 42 69 43 70 46 71 44 72 70 73 71 74
REMARK SMILES IDX 79 75 72 76 73 77 77 78 80 79 74 80 75 81 78 82 76 83 55 84
REMARK SMILES IDX 56 85 64 86 57 87 58 88 62 89 65 90 59 91 60 92 63 93 61 94
REMARK H PARENT 85 47 53 58
REMARK Flexibility Score: inf
ROOT
ATOM      1  O   UNL A   1      35.045  19.763  24.639  1.00  0.00    -0.374 OA
ENDROOT
BRANCH   1   2
ATOM      2  C   UNL A   1      33.669  20.032  24.889  1.00  0.00     0.202 C 
BRANCH   2   3
ATOM      3  C   UNL A   1      33.307  20.701  26.218  1.00  0.00     0.261 C 
BRANCH   3   4
ATOM      4  O   UNL A   1      32.558  21.921  26.064  1.00  0.00    -0.463 OA
BRANCH   4   5
ATOM      5  C   UNL A   1      33.262  23.059  26.325  1.00  0.00     0.312 C 
ATOM      6  O   UNL A   1      34.165  23.122  27.153  1.00  0.00    -0.252 OA
BRANCH   5   7
ATOM      7  C   UNL A   1      32.734  24.298  25.565  1.00  0.00     0.069 C 
ATOM      8  C   UNL A   1      32.968  25.019  23.240  1.00  0.00    -0.010 C 
ATOM      9  C   UNL A   1      34.342  25.091  23.878  1.00  0.00     0.005 C 
ATOM     10  C   UNL A   1      32.248  23.997  24.127  1.00  0.00     0.022 C 
ATOM     11  C   UNL A   1      33.974  25.220  25.356  1.00  0.00     0.019 C 
BRANCH   8  12
ATOM     12  C   UNL A   1      32.947  24.691  21.749  1.00  0.00     0.000 C 
ATOM     13  C   UNL A   1      32.508  25.901  20.929  1.00  0.00     0.004 C 
ENDBRANCH   8  12
BRANCH   7  14
ATOM     14  C   UNL A   1      31.601  24.822  26.499  1.00  0.00     0.027 C 
BRANCH  14  15
ATOM     15  C   UNL A   1      30.701  26.066  26.240  1.00  0.00     0.020 C 
ATOM     16  C   UNL A   1      29.534  25.903  25.252  1.00  0.00     0.009 C 
ATOM     17  C   UNL A   1      31.435  27.375  26.107  1.00  0.00    -0.042 A 
ATOM     18  C   UNL A   1      29.749  26.449  23.850  1.00  0.00     0.005 C 
ATOM     19  C   UNL A   1      31.370  28.145  24.937  1.00  0.00    -0.045 A 
ATOM     20  C   UNL A   1      32.206  27.838  27.192  1.00  0.00     0.004 A 
ATOM     21  C   UNL A   1      30.463  27.798  23.786  1.00  0.00     0.036 C 
ATOM     22  C   UNL A   1      32.127  29.328  24.856  1.00  0.00     0.004 A 
ATOM     23  C   UNL A   1      32.936  29.020  27.105  1.00  0.00     0.000 A 
ATOM     24  C   UNL A   1      32.909  29.758  25.929  1.00  0.00     0.000 A 
ENDBRANCH  14  15
ENDBRANCH   7  14
ENDBRANCH   5   7
ENDBRANCH   4   5
ENDBRANCH   3   4
ENDBRANCH   2   3
ENDBRANCH   1   2
BRANCH   1  25
ATOM     25  C   UNL A   1      36.005  20.704  25.116  1.00  0.00     0.202 C 
BRANCH  25  26
ATOM     26  C   UNL A   1      37.484  20.309  25.000  1.00  0.00     0.261 C 
BRANCH  26  27
ATOM     27  O   UNL A   1      38.376  21.426  25.179  1.00  0.00    -0.460 OA
BRANCH  27  28
ATOM     28  C   UNL A   1      39.393  21.199  26.045  1.00  0.00     0.338 C 
ATOM     29  O   UNL A   1      40.028  20.165  26.191  1.00  0.00    -0.246 OA
BRANCH  28  30
ATOM     30  C   UNL A   1      39.790  22.446  26.724  1.00  0.00     0.060 A 
ATOM     31  C   UNL A   1      39.146  23.626  26.333  1.00  0.00     0.016 A 
ATOM     32  C   UNL A   1      40.856  22.485  27.626  1.00  0.00     0.016 A 
ATOM     33  C   UNL A   1      39.599  24.858  26.802  1.00  0.00     0.010 A 
ATOM     34  C   UNL A   1      41.316  23.724  28.088  1.00  0.00     0.010 A 
ATOM     35  C   UNL A   1      40.715  24.919  27.647  1.00  0.00    -0.014 A 
BRANCH  35  36
ATOM     36  C   UNL A   1      41.322  26.240  27.943  1.00  0.00     0.031 A 
ATOM     37  C   UNL A   1      42.722  26.530  27.477  1.00  0.00     0.074 A 
ATOM     38  C   UNL A   1      40.617  27.195  28.575  1.00  0.00     0.049 A 
ATOM     39  N   UNL A   1      43.424  27.629  27.587  1.00  0.00    -0.248 NA
ATOM     40  C   UNL A   1      43.425  25.433  26.795  1.00  0.00     0.031 C 
ATOM     41  C   UNL A   1      39.248  27.047  29.061  1.00  0.00     0.029 A 
ATOM     42  N   UNL A   1      40.962  28.479  28.917  1.00  0.00    -0.354 N 
ATOM     43  C   UNL A   1      44.649  27.357  26.991  1.00  0.00     0.074 A 
ATOM     44  C   UNL A   1      44.606  25.980  26.547  1.00  0.00     0.031 C 
ATOM     45  C   UNL A   1      38.869  28.194  29.648  1.00  0.00     0.029 A 
ATOM     46  C   UNL A   1      39.975  29.149  29.593  1.00  0.00     0.049 A 
ATOM     47  H   UNL A   1      41.833  28.880  28.697  1.00  0.00     0.167 HD
ATOM     48  C   UNL A   1      45.709  28.184  26.818  1.00  0.00     0.037 A 
ATOM     49  C   UNL A   1      39.970  30.390  30.119  1.00  0.00     0.037 A 
ATOM     50  C   UNL A   1      45.752  29.556  27.250  1.00  0.00     0.049 A 
ATOM     51  C   UNL A   1      41.174  31.277  29.951  1.00  0.00     0.074 A 
ATOM     52  C   UNL A   1      46.761  30.487  27.070  1.00  0.00     0.029 A 
ATOM     53  N   UNL A   1      44.746  30.191  27.961  1.00  0.00    -0.354 N 
ATOM     54  N   UNL A   1      42.305  31.030  29.336  1.00  0.00    -0.248 NA
ATOM     55  C   UNL A   1      41.097  32.620  30.544  1.00  0.00     0.031 C 
ATOM     56  C   UNL A   1      46.386  31.670  27.717  1.00  0.00     0.029 A 
ATOM     57  C   UNL A   1      45.124  31.491  28.260  1.00  0.00     0.049 A 
ATOM     58  H   UNL A   1      43.889  29.779  28.218  1.00  0.00     0.167 HD
ATOM     59  C   UNL A   1      43.067  32.185  29.456  1.00  0.00     0.074 A 
ATOM     60  C   UNL A   1      42.262  33.142  30.186  1.00  0.00     0.031 C 
ATOM     61  C   UNL A   1      44.320  32.430  29.001  1.00  0.00     0.037 A 
BRANCH  48  62
ATOM     62  C   UNL A   1      46.925  27.613  26.150  1.00  0.00     0.064 A 
ATOM     63  C   UNL A   1      47.958  27.015  26.885  1.00  0.00     0.173 A 
ATOM     64  C   UNL A   1      47.043  27.644  24.753  1.00  0.00     0.173 A 
ATOM     65  F   UNL A   1      47.898  26.972  28.224  1.00  0.00    -0.203 F 
ATOM     66  C   UNL A   1      49.081  26.492  26.247  1.00  0.00     0.198 A 
ATOM     67  C   UNL A   1      48.155  27.099  24.116  1.00  0.00     0.198 A 
ATOM     68  F   UNL A   1      46.079  28.202  24.004  1.00  0.00    -0.203 F 
ATOM     69  F   UNL A   1      50.078  25.965  26.971  1.00  0.00    -0.200 F 
ATOM     70  C   UNL A   1      49.175  26.529  24.863  1.00  0.00     0.200 A 
ATOM     71  F   UNL A   1      48.241  27.127  22.779  1.00  0.00    -0.200 F 
ATOM     72  F   UNL A   1      50.255  26.026  24.250  1.00  0.00    -0.200 F 
ENDBRANCH  48  62
BRANCH  49  73
ATOM     73  C   UNL A   1      38.775  30.862  30.864  1.00  0.00     0.064 A 
ATOM     74  C   UNL A   1      37.695  31.461  30.202  1.00  0.00     0.173 A 
ATOM     75  C   UNL A   1      38.691  30.715  32.256  1.00  0.00     0.173 A 
ATOM     76  F   UNL A   1      37.742  31.645  28.875  1.00  0.00    -0.203 F 
ATOM     77  C   UNL A   1      36.577  31.900  30.907  1.00  0.00     0.198 A 
ATOM     78  C   UNL A   1      37.563  31.133  32.957  1.00  0.00     0.198 A 
ATOM     79  F   UNL A   1      39.701  30.151  32.934  1.00  0.00    -0.203 F 
ATOM     80  F   UNL A   1      35.570  32.499  30.256  1.00  0.00    -0.200 F 
ATOM     81  C   UNL A   1      36.508  31.729  32.282  1.00  0.00     0.200 A 
ATOM     82  F   UNL A   1      37.497  30.957  34.283  1.00  0.00    -0.200 F 
ATOM     83  F   UNL A   1      35.428  32.145  32.957  1.00  0.00    -0.200 F 
ENDBRANCH  49  73
BRANCH  61  84
ATOM     84  C   UNL A   1      44.899  33.787  29.276  1.00  0.00     0.064 A 
ATOM     85  C   UNL A   1      44.692  34.862  28.399  1.00  0.00     0.173 A 
ATOM     86  C   UNL A   1      45.639  34.025  30.444  1.00  0.00     0.173 A 
ATOM     87  F   UNL A   1      44.004  34.682  27.261  1.00  0.00    -0.203 F 
ATOM     88  C   UNL A   1      45.223  36.120  28.671  1.00  0.00     0.198 A 
ATOM     89  C   UNL A   1      46.147  35.290  30.726  1.00  0.00     0.198 A 
ATOM     90  F   UNL A   1      45.861  33.032  31.319  1.00  0.00    -0.203 F 
ATOM     91  F   UNL A   1      45.050  37.122  27.798  1.00  0.00    -0.200 F 
ATOM     92  C   UNL A   1      45.945  36.335  29.836  1.00  0.00     0.200 A 
ATOM     93  F   UNL A   1      46.834  35.499  31.856  1.00  0.00    -0.200 F 
ATOM     94  F   UNL A   1      46.453  37.548  30.097  1.00  0.00    -0.200 F 
ENDBRANCH  61  84
ENDBRANCH  35  36
ENDBRANCH  28  30
ENDBRANCH  27  28
ENDBRANCH  26  27
ENDBRANCH  25  26
ENDBRANCH   1  25
TORSDOF 17
ENDMDL
MODEL 3
REMARK VINA RESULT:     -11.6      4.337      9.928
REMARK SMILES CC[C@@H]1CC[C@](C[C@@H]2CCCc3ccccc32)(C(=O)OCCOCCOC(=O)c2ccc(-c3c4nc(c(-c5c(F)c(F)c(F)c(F)c5F)c5ccc([nH]5)c(-c5c(F)c(F)c(F)c(F)c5F)c5nc(c(-c6c(F)c(F)c(F)c(F)c6F)c6ccc3[nH]6)C=C5)C=C4)cc2)C1
REMARK SMILES IDX 23 1 22 2 21 3 20 4 18 5 19 6 6 7 3 8 4 9 92 10 5 11 2 12
REMARK SMILES IDX 1 13 7 14 8 15 9 16 17 17 10 18 12 19 16 20 11 21 13 22
REMARK SMILES IDX 15 23 14 24 24 25 25 26 26 27 27 28 28 29 29 30 30 31 91 32
REMARK SMILES IDX 31 33 90 34 32 35 33 36 34 37 84 38 35 39 89 40 83 41 85 42
REMARK SMILES IDX 36 43 88 44 82 45 81 46 37 48 69 49 49 50 68 51 50 52 53 53
REMARK SMILES IDX 67 54 86 55 51 56 52 57 66 59 87 60 54 61 38 62 39 63 47 64
REMARK SMILES IDX 40 65 41 66 45 67 48 68 42 69 43 70 46 71 44 72 70 73 71 74
REMARK SMILES IDX 79 75 72 76 73 77 77 78 80 79 74 80 75 81 78 82 76 83 55 84
REMARK SMILES IDX 56 85 64 86 57 87 58 88 62 89 65 90 59 91 60 92 63 93 61 94
REMARK H PARENT 85 47 53 58
REMARK Flexibility Score: inf
ROOT
ATOM      1  O   UNL A   1      34.568  20.474  25.069  1.00  0.00    -0.374 OA
ENDROOT
BRANCH   1   2
ATOM      2  C   UNL A   1      33.383  20.728  25.818  1.00  0.00     0.202 C 
BRANCH   2   3
ATOM      3  C   UNL A   1      33.279  22.068  26.550  1.00  0.00     0.261 C 
BRANCH   3   4
ATOM      4  O   UNL A   1      32.863  23.156  25.703  1.00  0.00    -0.463 OA
BRANCH   4   5
ATOM      5  C   UNL A   1      32.064  24.079  26.310  1.00  0.00     0.312 C 
ATOM      6  O   UNL A   1      31.330  23.819  27.260  1.00  0.00    -0.252 OA
BRANCH   5   7
ATOM      7  C   UNL A   1      32.075  25.458  25.613  1.00  0.00     0.069 C 
ATOM      8  C   UNL A   1      32.655  27.696  26.414  1.00  0.00    -0.010 C 
ATOM      9  C   UNL A   1      31.400  27.263  27.146  1.00  0.00     0.005 C 
ATOM     10  C   UNL A   1      33.275  26.354  26.005  1.00  0.00     0.022 C 
ATOM     11  C   UNL A   1      30.838  26.222  26.178  1.00  0.00     0.019 C 
BRANCH   8  12
ATOM     12  C   UNL A   1      33.592  28.616  27.193  1.00  0.00     0.000 C 
ATOM     13  C   UNL A   1      33.701  29.982  26.522  1.00  0.00     0.004 C 
ENDBRANCH   8  12
BRANCH   7  14
ATOM     14  C   UNL A   1      32.057  25.085  24.100  1.00  0.00     0.027 C 
BRANCH  14  15
ATOM     15  C   UNL A   1      32.100  26.085  22.908  1.00  0.00     0.020 C 
ATOM     16  C   UNL A   1      33.484  26.476  22.362  1.00  0.00     0.009 C 
ATOM     17  C   UNL A   1      31.131  27.235  22.997  1.00  0.00    -0.042 A 
ATOM     18  C   UNL A   1      34.030  27.825  22.799  1.00  0.00     0.005 C 
ATOM     19  C   UNL A   1      31.564  28.568  23.024  1.00  0.00    -0.045 A 
ATOM     20  C   UNL A   1      29.750  26.961  23.051  1.00  0.00     0.004 A 
ATOM     21  C   UNL A   1      33.006  28.958  22.831  1.00  0.00     0.036 C 
ATOM     22  C   UNL A   1      30.612  29.592  23.169  1.00  0.00     0.004 A 
ATOM     23  C   UNL A   1      28.816  27.985  23.176  1.00  0.00     0.000 A 
ATOM     24  C   UNL A   1      29.249  29.303  23.250  1.00  0.00     0.000 A 
ENDBRANCH  14  15
ENDBRANCH   7  14
ENDBRANCH   5   7
ENDBRANCH   4   5
ENDBRANCH   3   4
ENDBRANCH   2   3
ENDBRANCH   1   2
BRANCH   1  25
ATOM     25  C   UNL A   1      35.712  21.283  25.340  1.00  0.00     0.202 C 
BRANCH  25  26
ATOM     26  C   UNL A   1      37.087  20.663  25.053  1.00  0.00     0.261 C 
BRANCH  26  27
ATOM     27  O   UNL A   1      38.156  21.628  25.100  1.00  0.00    -0.460 OA
BRANCH  27  28
ATOM     28  C   UNL A   1      39.133  21.339  25.994  1.00  0.00     0.338 C 
ATOM     29  O   UNL A   1      39.705  20.270  26.149  1.00  0.00    -0.246 OA
BRANCH  28  30
ATOM     30  C   UNL A   1      39.579  22.557  26.694  1.00  0.00     0.060 A 
ATOM     31  C   UNL A   1      38.905  23.750  26.404  1.00  0.00     0.016 A 
ATOM     32  C   UNL A   1      40.709  22.562  27.513  1.00  0.00     0.016 A 
ATOM     33  C   UNL A   1      39.390  24.962  26.890  1.00  0.00     0.010 A 
ATOM     34  C   UNL A   1      41.201  23.783  27.993  1.00  0.00     0.010 A 
ATOM     35  C   UNL A   1      40.567  24.992  27.651  1.00  0.00    -0.014 A 
BRANCH  35  36
ATOM     36  C   UNL A   1      41.192  26.303  27.956  1.00  0.00     0.031 A 
ATOM     37  C   UNL A   1      42.596  26.577  27.492  1.00  0.00     0.074 A 
ATOM     38  C   UNL A   1      40.501  27.262  28.597  1.00  0.00     0.049 A 
ATOM     39  N   UNL A   1      43.314  27.665  27.611  1.00  0.00    -0.248 NA
ATOM     40  C   UNL A   1      43.284  25.475  26.801  1.00  0.00     0.031 C 
ATOM     41  C   UNL A   1      39.129  27.130  29.082  1.00  0.00     0.029 A 
ATOM     42  N   UNL A   1      40.864  28.539  28.948  1.00  0.00    -0.354 N 
ATOM     43  C   UNL A   1      44.534  27.380  27.012  1.00  0.00     0.074 A 
ATOM     44  C   UNL A   1      44.472  26.008  26.558  1.00  0.00     0.031 C 
ATOM     45  C   UNL A   1      38.767  28.278  29.677  1.00  0.00     0.029 A 
ATOM     46  C   UNL A   1      39.887  29.218  29.629  1.00  0.00     0.049 A 
ATOM     47  H   UNL A   1      41.741  28.929  28.731  1.00  0.00     0.167 HD
ATOM     48  C   UNL A   1      45.606  28.193  26.846  1.00  0.00     0.037 A 
ATOM     49  C   UNL A   1      39.899  30.454  30.166  1.00  0.00     0.037 A 
ATOM     50  C   UNL A   1      45.669  29.561  27.288  1.00  0.00     0.049 A 
ATOM     51  C   UNL A   1      41.116  31.326  30.004  1.00  0.00     0.074 A 
ATOM     52  C   UNL A   1      46.690  30.479  27.116  1.00  0.00     0.029 A 
ATOM     53  N   UNL A   1      44.671  30.205  28.005  1.00  0.00    -0.354 N 
ATOM     54  N   UNL A   1      42.243  31.067  29.387  1.00  0.00    -0.248 NA
ATOM     55  C   UNL A   1      41.057  32.665  30.608  1.00  0.00     0.031 C 
ATOM     56  C   UNL A   1      46.332  31.662  27.772  1.00  0.00     0.029 A 
ATOM     57  C   UNL A   1      45.068  31.497  28.314  1.00  0.00     0.049 A 
ATOM     58  H   UNL A   1      43.808  29.803  28.259  1.00  0.00     0.167 HD
ATOM     59  C   UNL A   1      43.021  32.210  29.516  1.00  0.00     0.074 A 
ATOM     60  C   UNL A   1      42.230  33.173  30.253  1.00  0.00     0.031 C 
ATOM     61  C   UNL A   1      44.278  32.441  29.062  1.00  0.00     0.037 A 
BRANCH  48  62
ATOM     62  C   UNL A   1      46.814  27.611  26.173  1.00  0.00     0.064 A 
ATOM     63  C   UNL A   1      46.978  27.659  24.782  1.00  0.00     0.173 A 
ATOM     64  C   UNL A   1      47.832  27.020  26.936  1.00  0.00     0.173 A 
ATOM     65  F   UNL A   1      46.026  28.203  24.008  1.00  0.00    -0.203 F 
ATOM     66  C   UNL A   1      48.106  27.111  24.174  1.00  0.00     0.198 A 
ATOM     67  C   UNL A   1      48.969  26.496  26.328  1.00  0.00     0.198 A 
ATOM     68  F   UNL A   1      47.724  26.953  28.272  1.00  0.00    -0.203 F 
ATOM     69  F   UNL A   1      48.222  27.128  22.839  1.00  0.00    -0.200 F 
ATOM     70  C   UNL A   1      49.102  26.536  24.948  1.00  0.00     0.200 A 
ATOM     71  F   UNL A   1      49.935  25.948  27.078  1.00  0.00    -0.200 F 
ATOM     72  F   UNL A   1      50.187  26.010  24.364  1.00  0.00    -0.200 F 
ENDBRANCH  48  62
BRANCH  49  73
ATOM     73  C   UNL A   1      38.711  30.937  30.914  1.00  0.00     0.064 A 
ATOM     74  C   UNL A   1      38.612  30.777  32.302  1.00  0.00     0.173 A 
ATOM     75  C   UNL A   1      37.653  31.575  30.250  1.00  0.00     0.173 A 
ATOM     76  F   UNL A   1      39.587  30.151  32.975  1.00  0.00    -0.203 F 
ATOM     77  C   UNL A   1      37.494  31.234  32.998  1.00  0.00     0.198 A 
ATOM     78  C   UNL A   1      36.547  32.052  30.950  1.00  0.00     0.198 A 
ATOM     79  F   UNL A   1      37.701  31.748  28.921  1.00  0.00    -0.203 F 
ATOM     80  F   UNL A   1      37.407  31.041  34.322  1.00  0.00    -0.200 F 
ATOM     81  C   UNL A   1      36.467  31.877  32.323  1.00  0.00     0.200 A 
ATOM     82  F   UNL A   1      35.562  32.680  30.295  1.00  0.00    -0.200 F 
ATOM     83  F   UNL A   1      35.397  32.322  32.995  1.00  0.00    -0.200 F 
ENDBRANCH  49  73
BRANCH  61  84
ATOM     84  C   UNL A   1      44.876  33.788  29.348  1.00  0.00     0.064 A 
ATOM     85  C   UNL A   1      45.653  34.015  30.493  1.00  0.00     0.173 A 
ATOM     86  C   UNL A   1      44.700  34.853  28.451  1.00  0.00     0.173 A 
ATOM     87  F   UNL A   1      45.838  33.033  31.389  1.00  0.00    -0.203 F 
ATOM     88  C   UNL A   1      46.214  35.265  30.742  1.00  0.00     0.198 A 
ATOM     89  C   UNL A   1      45.284  36.094  28.689  1.00  0.00     0.198 A 
ATOM     90  F   UNL A   1      43.971  34.686  27.337  1.00  0.00    -0.203 F 
ATOM     91  F   UNL A   1      46.916  35.472  31.864  1.00  0.00    -0.200 F 
ATOM     92  C   UNL A   1      46.034  36.302  29.838  1.00  0.00     0.200 A 
ATOM     93  F   UNL A   1      45.118  37.091  27.810  1.00  0.00    -0.200 F 
ATOM     94  F   UNL A   1      46.577  37.503  30.076  1.00  0.00    -0.200 F 
ENDBRANCH  61  84
ENDBRANCH  35  36
ENDBRANCH  28  30
ENDBRANCH  27  28
ENDBRANCH  26  27
ENDBRANCH  25  26
ENDBRANCH   1  25
TORSDOF 17
ENDMDL
