MODEL 1
REMARK VINA RESULT:     -13.2      0.000      0.000
REMARK SMILES O=C(OCCOCCOC(=O)c1nnn(-c2cccc(Br)c2)c1[C@@H]1COc2ccccc2O1)c1ccc(-c2c3nc(c(-c4c(F)c(F)c(F)c(F)c4F)c4ccc([nH]4)c(-c4c(F)c(F)c(F)c(F)c4F)c4nc(c(-c5c(F)c(F)c(F)c(F)c5F)c5ccc2[nH]5)C=C4)C=C3)cc1
REMARK SMILES IDX 5 1 4 2 3 3 2 4 1 5 34 6 35 7 96 8 36 9 95 10 37 11 38 12
REMARK SMILES IDX 39 13 89 14 40 15 94 16 88 17 90 18 41 19 93 20 87 21 86 22
REMARK SMILES IDX 42 24 74 25 54 26 73 27 55 28 58 29 72 30 91 31 56 32 57 33
REMARK SMILES IDX 71 35 92 36 59 37 43 38 44 39 52 40 45 41 46 42 50 43 53 44
REMARK SMILES IDX 47 45 48 46 51 47 49 48 75 49 76 50 84 51 77 52 78 53 82 54
REMARK SMILES IDX 85 55 79 56 80 57 83 58 81 59 60 60 61 61 69 62 62 63 63 64
REMARK SMILES IDX 67 65 70 66 64 67 65 68 68 69 66 70 6 71 7 72 8 73 9 74
REMARK SMILES IDX 10 75 11 76 12 77 13 78 23 79 14 80 15 81 24 82 25 83 33 84
REMARK SMILES IDX 26 85 32 86 27 87 31 88 28 89 30 90 29 91 16 92 17 93 22 94
REMARK SMILES IDX 18 95 20 96 19 97 21 98
REMARK H PARENT 90 23 58 34
REMARK Flexibility Score: inf
ROOT
ATOM      1  C   UNL A   1      37.010  21.253  25.125  1.00  0.00     0.202 C 
ENDROOT
BRANCH   1   2
ATOM      2  C   UNL A   1      38.377  20.831  25.696  1.00  0.00     0.261 C 
BRANCH   2   3
ATOM      3  O   UNL A   1      39.278  21.930  25.915  1.00  0.00    -0.460 OA
BRANCH   3   4
ATOM      4  C   UNL A   1      39.997  22.300  26.995  1.00  0.00     0.338 C 
ATOM      5  O   UNL A   1      40.448  21.421  27.730  1.00  0.00    -0.246 OA
BRANCH   4   6
ATOM      6  C   UNL A   1      40.251  23.721  27.389  1.00  0.00     0.060 A 
ATOM      7  C   UNL A   1      41.344  24.178  28.128  1.00  0.00     0.016 A 
ATOM      8  C   UNL A   1      39.338  24.677  26.899  1.00  0.00     0.016 A 
ATOM      9  C   UNL A   1      41.444  25.509  28.499  1.00  0.00     0.010 A 
ATOM     10  C   UNL A   1      39.459  26.024  27.223  1.00  0.00     0.010 A 
ATOM     11  C   UNL A   1      40.483  26.423  28.074  1.00  0.00    -0.014 A 
BRANCH  11  12
ATOM     12  C   UNL A   1      40.610  27.772  28.598  1.00  0.00     0.031 A 
ATOM     13  C   UNL A   1      41.765  28.583  28.129  1.00  0.00     0.074 A 
ATOM     14  C   UNL A   1      39.750  28.263  29.507  1.00  0.00     0.049 A 
ATOM     15  N   UNL A   1      42.755  29.041  28.829  1.00  0.00    -0.248 NA
ATOM     16  C   UNL A   1      41.851  28.885  26.695  1.00  0.00     0.031 C 
ATOM     17  C   UNL A   1      38.443  27.735  29.900  1.00  0.00     0.029 A 
ATOM     18  N   UNL A   1      39.857  29.416  30.224  1.00  0.00    -0.354 N 
ATOM     19  C   UNL A   1      43.522  29.810  27.960  1.00  0.00     0.074 A 
ATOM     20  C   UNL A   1      42.967  29.613  26.642  1.00  0.00     0.031 C 
ATOM     21  C   UNL A   1      37.794  28.669  30.627  1.00  0.00     0.029 A 
ATOM     22  C   UNL A   1      38.685  29.793  30.855  1.00  0.00     0.049 A 
ATOM     23  H   UNL A   1      40.691  29.934  30.289  1.00  0.00     0.167 HD
ATOM     24  C   UNL A   1      44.464  30.687  28.405  1.00  0.00     0.037 A 
ATOM     25  C   UNL A   1      38.447  30.981  31.455  1.00  0.00     0.037 A 
ATOM     26  C   UNL A   1      44.877  30.401  29.751  1.00  0.00     0.049 A 
ATOM     27  C   UNL A   1      39.751  31.601  31.792  1.00  0.00     0.074 A 
ATOM     28  C   UNL A   1      45.477  29.325  30.375  1.00  0.00     0.029 A 
ATOM     29  N   UNL A   1      44.427  31.205  30.768  1.00  0.00    -0.354 N 
ATOM     30  N   UNL A   1      40.550  31.172  32.729  1.00  0.00    -0.248 NA
ATOM     31  C   UNL A   1      40.362  32.490  30.814  1.00  0.00     0.031 C 
ATOM     32  C   UNL A   1      44.925  29.299  31.689  1.00  0.00     0.029 A 
ATOM     33  C   UNL A   1      44.039  30.372  31.784  1.00  0.00     0.049 A 
ATOM     34  H   UNL A   1      44.390  32.189  30.768  1.00  0.00     0.167 HD
ATOM     35  C   UNL A   1      41.827  31.391  32.233  1.00  0.00     0.074 A 
ATOM     36  C   UNL A   1      41.649  32.304  31.111  1.00  0.00     0.031 C 
ATOM     37  C   UNL A   1      42.874  30.598  32.603  1.00  0.00     0.037 A 
BRANCH  24  38
ATOM     38  C   UNL A   1      44.808  31.985  27.724  1.00  0.00     0.064 A 
ATOM     39  C   UNL A   1      46.046  32.124  27.064  1.00  0.00     0.173 A 
ATOM     40  C   UNL A   1      44.098  33.182  27.950  1.00  0.00     0.173 A 
ATOM     41  F   UNL A   1      46.818  31.053  26.824  1.00  0.00    -0.203 F 
ATOM     42  C   UNL A   1      46.561  33.377  26.718  1.00  0.00     0.198 A 
ATOM     43  C   UNL A   1      44.591  34.425  27.557  1.00  0.00     0.198 A 
ATOM     44  F   UNL A   1      42.960  33.203  28.657  1.00  0.00    -0.203 F 
ATOM     45  F   UNL A   1      47.794  33.471  26.203  1.00  0.00    -0.200 F 
ATOM     46  C   UNL A   1      45.835  34.526  26.969  1.00  0.00     0.200 A 
ATOM     47  F   UNL A   1      43.882  35.530  27.827  1.00  0.00    -0.200 F 
ATOM     48  F   UNL A   1      46.351  35.731  26.693  1.00  0.00    -0.200 F 
ENDBRANCH  24  38
BRANCH  25  49
ATOM     49  C   UNL A   1      37.166  31.718  31.501  1.00  0.00     0.064 A 
ATOM     50  C   UNL A   1      36.502  31.942  32.715  1.00  0.00     0.173 A 
ATOM     51  C   UNL A   1      36.693  32.435  30.383  1.00  0.00     0.173 A 
ATOM     52  F   UNL A   1      36.921  31.338  33.836  1.00  0.00    -0.203 F 
ATOM     53  C   UNL A   1      35.437  32.843  32.809  1.00  0.00     0.198 A 
ATOM     54  C   UNL A   1      35.622  33.321  30.474  1.00  0.00     0.198 A 
ATOM     55  F   UNL A   1      37.320  32.362  29.200  1.00  0.00    -0.203 F 
ATOM     56  F   UNL A   1      34.865  33.080  33.998  1.00  0.00    -0.200 F 
ATOM     57  C   UNL A   1      35.002  33.535  31.690  1.00  0.00     0.200 A 
ATOM     58  F   UNL A   1      35.236  34.008  29.390  1.00  0.00    -0.200 F 
ATOM     59  F   UNL A   1      34.017  34.437  31.790  1.00  0.00    -0.200 F 
ENDBRANCH  25  49
BRANCH  37  60
ATOM     60  C   UNL A   1      42.683  29.685  33.778  1.00  0.00     0.064 A 
ATOM     61  C   UNL A   1      42.009  28.454  33.702  1.00  0.00     0.173 A 
ATOM     62  C   UNL A   1      43.324  30.000  34.983  1.00  0.00     0.173 A 
ATOM     63  F   UNL A   1      41.469  28.033  32.550  1.00  0.00    -0.203 F 
ATOM     64  C   UNL A   1      41.936  27.606  34.805  1.00  0.00     0.198 A 
ATOM     65  C   UNL A   1      43.281  29.134  36.071  1.00  0.00     0.198 A 
ATOM     66  F   UNL A   1      44.037  31.133  35.090  1.00  0.00    -0.203 F 
ATOM     67  F   UNL A   1      41.273  26.443  34.715  1.00  0.00    -0.200 F 
ATOM     68  C   UNL A   1      42.575  27.944  35.987  1.00  0.00     0.200 A 
ATOM     69  F   UNL A   1      43.945  29.439  37.194  1.00  0.00    -0.200 F 
ATOM     70  F   UNL A   1      42.537  27.110  37.035  1.00  0.00    -0.200 F 
ENDBRANCH  37  60
ENDBRANCH  11  12
ENDBRANCH   4   6
ENDBRANCH   3   4
ENDBRANCH   2   3
ENDBRANCH   1   2
BRANCH   1  71
ATOM     71  O   UNL A   1      36.959  22.055  23.953  1.00  0.00    -0.374 OA
BRANCH  71  72
ATOM     72  C   UNL A   1      36.685  23.444  24.043  1.00  0.00     0.202 C 
BRANCH  72  73
ATOM     73  C   UNL A   1      36.015  24.072  25.261  1.00  0.00     0.261 C 
BRANCH  73  74
ATOM     74  O   UNL A   1      34.874  24.898  25.040  1.00  0.00    -0.458 OA
BRANCH  74  75
ATOM     75  C   UNL A   1      33.743  24.504  25.685  1.00  0.00     0.361 C 
ATOM     76  O   UNL A   1      32.951  25.252  26.247  1.00  0.00    -0.244 OA
BRANCH  75  77
ATOM     77  C   UNL A   1      33.597  23.068  25.695  1.00  0.00     0.198 A 
ATOM     78  N   UNL A   1      33.845  22.303  26.803  1.00  0.00    -0.122 NA
ATOM     79  C   UNL A   1      33.149  22.259  24.661  1.00  0.00     0.123 A 
ATOM     80  N   UNL A   1      33.591  21.040  26.493  1.00  0.00    -0.061 NA
ATOM     81  N   UNL A   1      33.309  20.979  25.170  1.00  0.00    -0.213 N 
BRANCH  79  82
ATOM     82  C   UNL A   1      32.469  22.569  23.363  1.00  0.00     0.262 C 
ATOM     83  C   UNL A   1      33.370  23.062  22.229  1.00  0.00     0.281 C 
ATOM     84  O   UNL A   1      31.353  23.416  23.658  1.00  0.00    -0.477 OA
ATOM     85  O   UNL A   1      33.673  24.453  22.278  1.00  0.00    -0.485 OA
ATOM     86  C   UNL A   1      31.443  24.695  23.194  1.00  0.00     0.162 A 
ATOM     87  C   UNL A   1      32.556  25.199  22.524  1.00  0.00     0.161 A 
ATOM     88  C   UNL A   1      30.367  25.536  23.479  1.00  0.00     0.050 A 
ATOM     89  C   UNL A   1      32.603  26.544  22.154  1.00  0.00     0.050 A 
ATOM     90  C   UNL A   1      30.408  26.881  23.104  1.00  0.00     0.004 A 
ATOM     91  C   UNL A   1      31.528  27.386  22.443  1.00  0.00     0.004 A 
ENDBRANCH  79  82
BRANCH  81  92
ATOM     92  C   UNL A   1      33.255  19.729  24.507  1.00  0.00     0.068 A 
ATOM     93  C   UNL A   1      32.430  19.553  23.385  1.00  0.00     0.028 A 
ATOM     94  C   UNL A   1      34.052  18.673  24.965  1.00  0.00     0.044 A 
ATOM     95  C   UNL A   1      32.369  18.310  22.753  1.00  0.00     0.003 A 
ATOM     96  C   UNL A   1      33.959  17.429  24.341  1.00  0.00     0.020 A 
ATOM     97  C   UNL A   1      33.122  17.242  23.241  1.00  0.00     0.016 A 
ATOM     98  Br  UNL A   1      34.961  15.969  25.005  1.00  0.00    -0.051 Br
ENDBRANCH  81  92
ENDBRANCH  75  77
ENDBRANCH  74  75
ENDBRANCH  73  74
ENDBRANCH  72  73
ENDBRANCH  71  72
ENDBRANCH   1  71
TORSDOF 16
ENDMDL
MODEL 2
REMARK VINA RESULT:     -13.1      2.548      4.295
REMARK SMILES O=C(OCCOCCOC(=O)c1nnn(-c2cccc(Br)c2)c1[C@@H]1COc2ccccc2O1)c1ccc(-c2c3nc(c(-c4c(F)c(F)c(F)c(F)c4F)c4ccc([nH]4)c(-c4c(F)c(F)c(F)c(F)c4F)c4nc(c(-c5c(F)c(F)c(F)c(F)c5F)c5ccc2[nH]5)C=C4)C=C3)cc1
REMARK SMILES IDX 5 1 4 2 3 3 2 4 1 5 34 6 35 7 96 8 36 9 95 10 37 11 38 12
REMARK SMILES IDX 39 13 89 14 40 15 94 16 88 17 90 18 41 19 93 20 87 21 86 22
REMARK SMILES IDX 42 24 74 25 54 26 73 27 55 28 58 29 72 30 91 31 56 32 57 33
REMARK SMILES IDX 71 35 92 36 59 37 43 38 44 39 52 40 45 41 46 42 50 43 53 44
REMARK SMILES IDX 47 45 48 46 51 47 49 48 75 49 76 50 84 51 77 52 78 53 82 54
REMARK SMILES IDX 85 55 79 56 80 57 83 58 81 59 60 60 61 61 69 62 62 63 63 64
REMARK SMILES IDX 67 65 70 66 64 67 65 68 68 69 66 70 6 71 7 72 8 73 9 74
REMARK SMILES IDX 10 75 11 76 12 77 13 78 23 79 14 80 15 81 24 82 25 83 33 84
REMARK SMILES IDX 26 85 32 86 27 87 31 88 28 89 30 90 29 91 16 92 17 93 22 94
REMARK SMILES IDX 18 95 20 96 19 97 21 98
REMARK H PARENT 90 23 58 34
REMARK Flexibility Score: inf
ROOT
ATOM      1  C   UNL A   1      37.286  22.270  25.160  1.00  0.00     0.202 C 
ENDROOT
BRANCH   1   2
ATOM      2  C   UNL A   1      38.545  21.440  25.473  1.00  0.00     0.261 C 
BRANCH   2   3
ATOM      3  O   UNL A   1      39.287  21.917  26.609  1.00  0.00    -0.460 OA
BRANCH   3   4
ATOM      4  C   UNL A   1      40.491  22.518  26.707  1.00  0.00     0.338 C 
ATOM      5  O   UNL A   1      41.499  21.856  26.461  1.00  0.00    -0.246 OA
BRANCH   4   6
ATOM      6  C   UNL A   1      40.690  23.936  27.140  1.00  0.00     0.060 A 
ATOM      7  C   UNL A   1      41.560  24.367  28.143  1.00  0.00     0.016 A 
ATOM      8  C   UNL A   1      39.985  24.915  26.410  1.00  0.00     0.016 A 
ATOM      9  C   UNL A   1      41.613  25.701  28.513  1.00  0.00     0.010 A 
ATOM     10  C   UNL A   1      40.070  26.264  26.741  1.00  0.00     0.010 A 
ATOM     11  C   UNL A   1      40.842  26.642  27.834  1.00  0.00    -0.014 A 
BRANCH  11  12
ATOM     12  C   UNL A   1      40.880  27.996  28.358  1.00  0.00     0.031 A 
ATOM     13  C   UNL A   1      42.070  28.825  28.031  1.00  0.00     0.074 A 
ATOM     14  C   UNL A   1      39.904  28.478  29.147  1.00  0.00     0.049 A 
ATOM     15  N   UNL A   1      42.956  29.304  28.846  1.00  0.00    -0.248 NA
ATOM     16  C   UNL A   1      42.331  29.118  26.617  1.00  0.00     0.031 C 
ATOM     17  C   UNL A   1      38.567  27.929  29.377  1.00  0.00     0.029 A 
ATOM     18  N   UNL A   1      39.900  29.637  29.863  1.00  0.00    -0.354 N 
ATOM     19  C   UNL A   1      43.814  30.081  28.073  1.00  0.00     0.074 A 
ATOM     20  C   UNL A   1      43.432  29.866  26.698  1.00  0.00     0.031 C 
ATOM     21  C   UNL A   1      37.816  28.855  30.010  1.00  0.00     0.029 A 
ATOM     22  C   UNL A   1      38.653  29.997  30.338  1.00  0.00     0.049 A 
ATOM     23  H   UNL A   1      40.711  30.170  30.027  1.00  0.00     0.167 HD
ATOM     24  C   UNL A   1      44.678  30.977  28.626  1.00  0.00     0.037 A 
ATOM     25  C   UNL A   1      38.321  31.184  30.894  1.00  0.00     0.037 A 
ATOM     26  C   UNL A   1      44.923  30.707  30.016  1.00  0.00     0.049 A 
ATOM     27  C   UNL A   1      39.562  31.829  31.386  1.00  0.00     0.074 A 
ATOM     28  C   UNL A   1      45.458  29.646  30.719  1.00  0.00     0.029 A 
ATOM     29  N   UNL A   1      44.335  31.510  30.961  1.00  0.00    -0.354 N 
ATOM     30  N   UNL A   1      40.243  31.420  32.420  1.00  0.00    -0.248 NA
ATOM     31  C   UNL A   1      40.276  32.723  30.486  1.00  0.00     0.031 C 
ATOM     32  C   UNL A   1      44.746  29.618  31.953  1.00  0.00     0.029 A 
ATOM     33  C   UNL A   1      43.837  30.675  31.927  1.00  0.00     0.049 A 
ATOM     34  H   UNL A   1      44.282  32.492  30.948  1.00  0.00     0.167 HD
ATOM     35  C   UNL A   1      41.569  31.659  32.087  1.00  0.00     0.074 A 
ATOM     36  C   UNL A   1      41.519  32.561  30.943  1.00  0.00     0.031 C 
ATOM     37  C   UNL A   1      42.575  30.886  32.592  1.00  0.00     0.037 A 
BRANCH  24  38
ATOM     38  C   UNL A   1      45.083  32.277  27.982  1.00  0.00     0.064 A 
ATOM     39  C   UNL A   1      44.109  33.261  27.717  1.00  0.00     0.173 A 
ATOM     40  C   UNL A   1      46.330  32.464  27.351  1.00  0.00     0.173 A 
ATOM     41  F   UNL A   1      42.878  33.166  28.242  1.00  0.00    -0.203 F 
ATOM     42  C   UNL A   1      44.349  34.317  26.833  1.00  0.00     0.198 A 
ATOM     43  C   UNL A   1      46.583  33.548  26.511  1.00  0.00     0.198 A 
ATOM     44  F   UNL A   1      47.306  31.551  27.434  1.00  0.00    -0.203 F 
ATOM     45  F   UNL A   1      43.358  35.161  26.518  1.00  0.00    -0.200 F 
ATOM     46  C   UNL A   1      45.585  34.457  26.228  1.00  0.00     0.200 A 
ATOM     47  F   UNL A   1      47.780  33.655  25.917  1.00  0.00    -0.200 F 
ATOM     48  F   UNL A   1      45.799  35.433  25.336  1.00  0.00    -0.200 F 
ENDBRANCH  24  38
BRANCH  25  49
ATOM     49  C   UNL A   1      37.032  31.898  30.772  1.00  0.00     0.064 A 
ATOM     50  C   UNL A   1      36.100  31.895  31.820  1.00  0.00     0.173 A 
ATOM     51  C   UNL A   1      36.795  32.808  29.722  1.00  0.00     0.173 A 
ATOM     52  F   UNL A   1      36.279  31.096  32.881  1.00  0.00    -0.203 F 
ATOM     53  C   UNL A   1      35.004  32.763  31.823  1.00  0.00     0.198 A 
ATOM     54  C   UNL A   1      35.694  33.661  29.718  1.00  0.00     0.198 A 
ATOM     55  F   UNL A   1      37.677  32.955  28.722  1.00  0.00    -0.203 F 
ATOM     56  F   UNL A   1      34.167  32.777  32.870  1.00  0.00    -0.200 F 
ATOM     57  C   UNL A   1      34.805  33.647  30.776  1.00  0.00     0.200 A 
ATOM     58  F   UNL A   1      35.535  34.535  28.715  1.00  0.00    -0.200 F 
ATOM     59  F   UNL A   1      33.784  34.515  30.804  1.00  0.00    -0.200 F 
ENDBRANCH  25  49
BRANCH  37  60
ATOM     60  C   UNL A   1      42.253  29.977  33.740  1.00  0.00     0.064 A 
ATOM     61  C   UNL A   1      41.733  28.681  33.582  1.00  0.00     0.173 A 
ATOM     62  C   UNL A   1      42.614  30.378  35.034  1.00  0.00     0.173 A 
ATOM     63  F   UNL A   1      41.470  28.187  32.365  1.00  0.00    -0.203 F 
ATOM     64  C   UNL A   1      41.533  27.849  34.682  1.00  0.00     0.198 A 
ATOM     65  C   UNL A   1      42.449  29.529  36.124  1.00  0.00     0.198 A 
ATOM     66  F   UNL A   1      43.176  31.581  35.233  1.00  0.00    -0.203 F 
ATOM     67  F   UNL A   1      41.020  26.621  34.508  1.00  0.00    -0.200 F 
ATOM     68  C   UNL A   1      41.895  28.271  35.950  1.00  0.00     0.200 A 
ATOM     69  F   UNL A   1      42.849  29.921  37.341  1.00  0.00    -0.200 F 
ATOM     70  F   UNL A   1      41.739  27.455  37.001  1.00  0.00    -0.200 F 
ENDBRANCH  37  60
ENDBRANCH  11  12
ENDBRANCH   4   6
ENDBRANCH   3   4
ENDBRANCH   2   3
ENDBRANCH   1   2
BRANCH   1  71
ATOM     71  O   UNL A   1      36.691  22.180  23.872  1.00  0.00    -0.374 OA
BRANCH  71  72
ATOM     72  C   UNL A   1      35.636  23.054  23.504  1.00  0.00     0.202 C 
BRANCH  72  73
ATOM     73  C   UNL A   1      35.004  24.037  24.485  1.00  0.00     0.261 C 
BRANCH  73  74
ATOM     74  O   UNL A   1      34.212  25.094  23.948  1.00  0.00    -0.458 OA
BRANCH  74  75
ATOM     75  C   UNL A   1      33.657  25.924  24.871  1.00  0.00     0.361 C 
ATOM     76  O   UNL A   1      33.780  25.817  26.087  1.00  0.00    -0.244 OA
BRANCH  75  77
ATOM     77  C   UNL A   1      32.830  26.938  24.261  1.00  0.00     0.198 A 
ATOM     78  N   UNL A   1      33.338  28.097  23.739  1.00  0.00    -0.122 NA
ATOM     79  C   UNL A   1      31.459  26.896  24.055  1.00  0.00     0.123 A 
ATOM     80  N   UNL A   1      32.330  28.794  23.234  1.00  0.00    -0.061 NA
ATOM     81  N   UNL A   1      31.178  28.153  23.542  1.00  0.00    -0.213 N 
BRANCH  79  82
ATOM     82  C   UNL A   1      30.462  25.781  24.142  1.00  0.00     0.262 C 
ATOM     83  C   UNL A   1      30.057  25.345  25.551  1.00  0.00     0.281 C 
ATOM     84  O   UNL A   1      30.929  24.725  23.294  1.00  0.00    -0.477 OA
ATOM     85  O   UNL A   1      30.963  24.439  26.173  1.00  0.00    -0.485 OA
ATOM     86  C   UNL A   1      31.318  23.585  23.933  1.00  0.00     0.162 A 
ATOM     87  C   UNL A   1      31.332  23.439  25.319  1.00  0.00     0.161 A 
ATOM     88  C   UNL A   1      31.782  22.547  23.123  1.00  0.00     0.050 A 
ATOM     89  C   UNL A   1      31.824  22.267  25.897  1.00  0.00     0.050 A 
ATOM     90  C   UNL A   1      32.269  21.371  23.698  1.00  0.00     0.004 A 
ATOM     91  C   UNL A   1      32.293  21.232  25.086  1.00  0.00     0.004 A 
ENDBRANCH  79  82
BRANCH  81  92
ATOM     92  C   UNL A   1      29.930  28.797  23.359  1.00  0.00     0.068 A 
ATOM     93  C   UNL A   1      28.743  28.051  23.317  1.00  0.00     0.028 A 
ATOM     94  C   UNL A   1      29.887  30.192  23.244  1.00  0.00     0.044 A 
ATOM     95  C   UNL A   1      27.522  28.695  23.115  1.00  0.00     0.003 A 
ATOM     96  C   UNL A   1      28.663  30.819  23.015  1.00  0.00     0.020 A 
ATOM     97  C   UNL A   1      27.483  30.078  22.947  1.00  0.00     0.016 A 
ATOM     98  Br  UNL A   1      28.600  32.693  22.767  1.00  0.00    -0.051 Br
ENDBRANCH  81  92
ENDBRANCH  75  77
ENDBRANCH  74  75
ENDBRANCH  73  74
ENDBRANCH  72  73
ENDBRANCH  71  72
ENDBRANCH   1  71
TORSDOF 16
ENDMDL
MODEL 3
REMARK VINA RESULT:     -13.0      2.934      8.028
REMARK SMILES O=C(OCCOCCOC(=O)c1nnn(-c2cccc(Br)c2)c1[C@@H]1COc2ccccc2O1)c1ccc(-c2c3nc(c(-c4c(F)c(F)c(F)c(F)c4F)c4ccc([nH]4)c(-c4c(F)c(F)c(F)c(F)c4F)c4nc(c(-c5c(F)c(F)c(F)c(F)c5F)c5ccc2[nH]5)C=C4)C=C3)cc1
REMARK SMILES IDX 5 1 4 2 3 3 2 4 1 5 34 6 35 7 96 8 36 9 95 10 37 11 38 12
REMARK SMILES IDX 39 13 89 14 40 15 94 16 88 17 90 18 41 19 93 20 87 21 86 22
REMARK SMILES IDX 42 24 74 25 54 26 73 27 55 28 58 29 72 30 91 31 56 32 57 33
REMARK SMILES IDX 71 35 92 36 59 37 43 38 44 39 52 40 45 41 46 42 50 43 53 44
REMARK SMILES IDX 47 45 48 46 51 47 49 48 75 49 76 50 84 51 77 52 78 53 82 54
REMARK SMILES IDX 85 55 79 56 80 57 83 58 81 59 60 60 61 61 69 62 62 63 63 64
REMARK SMILES IDX 67 65 70 66 64 67 65 68 68 69 66 70 6 71 7 72 8 73 9 74
REMARK SMILES IDX 10 75 11 76 12 77 13 78 23 79 14 80 15 81 24 82 25 83 33 84
REMARK SMILES IDX 26 85 32 86 27 87 31 88 28 89 30 90 29 91 16 92 17 93 22 94
REMARK SMILES IDX 18 95 20 96 19 97 21 98
REMARK H PARENT 90 23 58 34
REMARK Flexibility Score: inf
ROOT
ATOM      1  C   UNL A   1      31.861  29.755  27.123  1.00  0.00     0.202 C 
ENDROOT
BRANCH   1   2
ATOM      2  C   UNL A   1      33.004  30.731  26.787  1.00  0.00     0.261 C 
BRANCH   2   3
ATOM      3  O   UNL A   1      33.715  31.212  27.941  1.00  0.00    -0.460 OA
BRANCH   3   4
ATOM      4  C   UNL A   1      34.929  31.786  28.073  1.00  0.00     0.338 C 
ATOM      5  O   UNL A   1      35.004  33.014  28.044  1.00  0.00    -0.246 OA
BRANCH   4   6
ATOM      6  C   UNL A   1      36.207  31.022  28.214  1.00  0.00     0.060 A 
ATOM      7  C   UNL A   1      36.432  29.720  27.764  1.00  0.00     0.016 A 
ATOM      8  C   UNL A   1      37.290  31.720  28.787  1.00  0.00     0.016 A 
ATOM      9  C   UNL A   1      37.636  29.080  28.010  1.00  0.00     0.010 A 
ATOM     10  C   UNL A   1      38.520  31.102  28.993  1.00  0.00     0.010 A 
ATOM     11  C   UNL A   1      38.666  29.762  28.655  1.00  0.00    -0.014 A 
BRANCH  11  12
ATOM     12  C   UNL A   1      39.850  28.980  28.967  1.00  0.00     0.031 A 
ATOM     13  C   UNL A   1      40.199  28.807  30.402  1.00  0.00     0.074 A 
ATOM     14  C   UNL A   1      40.634  28.467  28.003  1.00  0.00     0.049 A 
ATOM     15  N   UNL A   1      41.253  29.232  31.024  1.00  0.00    -0.248 NA
ATOM     16  C   UNL A   1      39.232  28.112  31.261  1.00  0.00     0.031 C 
ATOM     17  C   UNL A   1      40.341  28.316  26.578  1.00  0.00     0.029 A 
ATOM     18  N   UNL A   1      41.863  27.894  28.139  1.00  0.00    -0.354 N 
ATOM     19  C   UNL A   1      41.161  28.742  32.324  1.00  0.00     0.074 A 
ATOM     20  C   UNL A   1      39.859  28.129  32.438  1.00  0.00     0.031 C 
ATOM     21  C   UNL A   1      41.272  27.511  26.022  1.00  0.00     0.029 A 
ATOM     22  C   UNL A   1      42.285  27.204  27.018  1.00  0.00     0.049 A 
ATOM     23  H   UNL A   1      42.401  27.965  28.960  1.00  0.00     0.167 HD
ATOM     24  C   UNL A   1      42.226  28.730  33.171  1.00  0.00     0.037 A 
ATOM     25  C   UNL A   1      43.353  26.379  26.942  1.00  0.00     0.037 A 
ATOM     26  C   UNL A   1      43.254  29.648  32.764  1.00  0.00     0.049 A 
ATOM     27  C   UNL A   1      44.281  26.718  28.048  1.00  0.00     0.074 A 
ATOM     28  C   UNL A   1      43.318  31.016  32.584  1.00  0.00     0.029 A 
ATOM     29  N   UNL A   1      44.396  29.152  32.187  1.00  0.00    -0.354 N 
ATOM     30  N   UNL A   1      44.997  27.806  28.100  1.00  0.00    -0.248 NA
ATOM     31  C   UNL A   1      44.129  26.014  29.313  1.00  0.00     0.031 C 
ATOM     32  C   UNL A   1      44.223  31.208  31.500  1.00  0.00     0.029 A 
ATOM     33  C   UNL A   1      44.663  29.946  31.103  1.00  0.00     0.049 A 
ATOM     34  H   UNL A   1      44.921  28.377  32.493  1.00  0.00     0.167 HD
ATOM     35  C   UNL A   1      45.033  28.143  29.445  1.00  0.00     0.074 A 
ATOM     36  C   UNL A   1      44.583  26.949  30.150  1.00  0.00     0.031 C 
ATOM     37  C   UNL A   1      45.157  29.442  29.845  1.00  0.00     0.037 A 
BRANCH  24  38
ATOM     38  C   UNL A   1      42.469  27.675  34.218  1.00  0.00     0.064 A 
ATOM     39  C   UNL A   1      43.079  26.456  33.857  1.00  0.00     0.173 A 
ATOM     40  C   UNL A   1      41.856  27.699  35.488  1.00  0.00     0.173 A 
ATOM     41  F   UNL A   1      43.666  26.313  32.659  1.00  0.00    -0.203 F 
ATOM     42  C   UNL A   1      43.022  25.329  34.682  1.00  0.00     0.198 A 
ATOM     43  C   UNL A   1      41.847  26.589  36.331  1.00  0.00     0.198 A 
ATOM     44  F   UNL A   1      41.152  28.757  35.910  1.00  0.00    -0.203 F 
ATOM     45  F   UNL A   1      43.511  24.160  34.249  1.00  0.00    -0.200 F 
ATOM     46  C   UNL A   1      42.402  25.396  35.917  1.00  0.00     0.200 A 
ATOM     47  F   UNL A   1      41.222  26.666  37.515  1.00  0.00    -0.200 F 
ATOM     48  F   UNL A   1      42.293  24.303  36.683  1.00  0.00    -0.200 F 
ENDBRANCH  24  38
BRANCH  25  49
ATOM     49  C   UNL A   1      43.474  25.146  26.135  1.00  0.00     0.064 A 
ATOM     50  C   UNL A   1      44.548  24.960  25.253  1.00  0.00     0.173 A 
ATOM     51  C   UNL A   1      42.673  24.017  26.398  1.00  0.00     0.173 A 
ATOM     52  F   UNL A   1      45.389  25.970  24.990  1.00  0.00    -0.203 F 
ATOM     53  C   UNL A   1      44.814  23.713  24.680  1.00  0.00     0.198 A 
ATOM     54  C   UNL A   1      42.929  22.778  25.814  1.00  0.00     0.198 A 
ATOM     55  F   UNL A   1      41.681  24.067  27.298  1.00  0.00    -0.203 F 
ATOM     56  F   UNL A   1      45.886  23.556  23.890  1.00  0.00    -0.200 F 
ATOM     57  C   UNL A   1      44.008  22.623  24.965  1.00  0.00     0.200 A 
ATOM     58  F   UNL A   1      42.161  21.725  26.127  1.00  0.00    -0.200 F 
ATOM     59  F   UNL A   1      44.293  21.416  24.458  1.00  0.00    -0.200 F 
ENDBRANCH  25  49
BRANCH  37  60
ATOM     60  C   UNL A   1      45.557  30.459  28.817  1.00  0.00     0.064 A 
ATOM     61  C   UNL A   1      44.653  31.054  27.922  1.00  0.00     0.173 A 
ATOM     62  C   UNL A   1      46.871  30.947  28.835  1.00  0.00     0.173 A 
ATOM     63  F   UNL A   1      43.356  30.718  27.927  1.00  0.00    -0.203 F 
ATOM     64  C   UNL A   1      45.065  32.056  27.045  1.00  0.00     0.198 A 
ATOM     65  C   UNL A   1      47.269  31.974  27.984  1.00  0.00     0.198 A 
ATOM     66  F   UNL A   1      47.759  30.460  29.715  1.00  0.00    -0.203 F 
ATOM     67  F   UNL A   1      44.187  32.599  26.188  1.00  0.00    -0.200 F 
ATOM     68  C   UNL A   1      46.370  32.518  27.080  1.00  0.00     0.200 A 
ATOM     69  F   UNL A   1      48.517  32.455  28.057  1.00  0.00    -0.200 F 
ATOM     70  F   UNL A   1      46.755  33.509  26.263  1.00  0.00    -0.200 F 
ENDBRANCH  37  60
ENDBRANCH  11  12
ENDBRANCH   4   6
ENDBRANCH   3   4
ENDBRANCH   2   3
ENDBRANCH   1   2
BRANCH   1  71
ATOM     71  O   UNL A   1      31.523  28.729  26.199  1.00  0.00    -0.374 OA
BRANCH  71  72
ATOM     72  C   UNL A   1      31.750  27.366  26.522  1.00  0.00     0.202 C 
BRANCH  72  73
ATOM     73  C   UNL A   1      32.958  26.590  26.005  1.00  0.00     0.261 C 
BRANCH  73  74
ATOM     74  O   UNL A   1      32.931  25.169  26.115  1.00  0.00    -0.458 OA
BRANCH  74  75
ATOM     75  C   UNL A   1      33.955  24.524  25.495  1.00  0.00     0.361 C 
ATOM     76  O   UNL A   1      34.885  25.068  24.909  1.00  0.00    -0.244 OA
BRANCH  75  77
ATOM     77  C   UNL A   1      33.802  23.090  25.545  1.00  0.00     0.198 A 
ATOM     78  N   UNL A   1      34.133  22.344  26.645  1.00  0.00    -0.122 NA
ATOM     79  C   UNL A   1      33.268  22.264  24.566  1.00  0.00     0.123 A 
ATOM     80  N   UNL A   1      33.848  21.077  26.380  1.00  0.00    -0.061 NA
ATOM     81  N   UNL A   1      33.461  20.993  25.085  1.00  0.00    -0.213 N 
BRANCH  79  82
ATOM     82  C   UNL A   1      32.488  22.555  23.321  1.00  0.00     0.262 C 
ATOM     83  C   UNL A   1      33.283  23.116  22.141  1.00  0.00     0.281 C 
ATOM     84  O   UNL A   1      31.347  23.332  23.704  1.00  0.00    -0.477 OA
ATOM     85  O   UNL A   1      33.511  24.521  22.196  1.00  0.00    -0.485 OA
ATOM     86  C   UNL A   1      31.335  24.621  23.259  1.00  0.00     0.162 A 
ATOM     87  C   UNL A   1      32.372  25.198  22.528  1.00  0.00     0.161 A 
ATOM     88  C   UNL A   1      30.234  25.395  23.629  1.00  0.00     0.050 A 
ATOM     89  C   UNL A   1      32.319  26.549  22.181  1.00  0.00     0.050 A 
ATOM     90  C   UNL A   1      30.176  26.746  23.278  1.00  0.00     0.004 A 
ATOM     91  C   UNL A   1      31.220  27.324  22.556  1.00  0.00     0.004 A 
ENDBRANCH  79  82
BRANCH  81  92
ATOM     92  C   UNL A   1      33.346  19.731  24.453  1.00  0.00     0.068 A 
ATOM     93  C   UNL A   1      32.495  19.561  23.351  1.00  0.00     0.028 A 
ATOM     94  C   UNL A   1      34.111  18.656  24.922  1.00  0.00     0.044 A 
ATOM     95  C   UNL A   1      32.374  18.308  22.750  1.00  0.00     0.003 A 
ATOM     96  C   UNL A   1      33.959  17.403  24.329  1.00  0.00     0.020 A 
ATOM     97  C   UNL A   1      33.094  17.223  23.249  1.00  0.00     0.016 A 
ATOM     98  Br  UNL A   1      34.916  15.920  25.010  1.00  0.00    -0.051 Br
ENDBRANCH  81  92
ENDBRANCH  75  77
ENDBRANCH  74  75
ENDBRANCH  73  74
ENDBRANCH  72  73
ENDBRANCH  71  72
ENDBRANCH   1  71
TORSDOF 16
ENDMDL
