MODEL 1
REMARK VINA RESULT:     -10.2      0.000      0.000
REMARK SMILES C=CC[NH+](CC=C)[C@@H](C(=O)OCCOCCOC(=O)c1ccc(-c2c3nc(c(-c4c(F)c(F)c(F)c(F)c4F)c4ccc([nH]4)c(-c4c(F)c(F)c(F)c(F)c4F)c4nc(c(-c5c(F)c(F)c(F)c(F)c5F)c5ccc2[nH]5)C=C4)C=C3)cc1)c1ccc(F)c(C)c1
REMARK SMILES IDX 13 1 12 2 11 3 9 4 10 5 8 6 4 7 3 9 2 10 1 11 5 12 6 13 7 14
REMARK SMILES IDX 83 15 84 16 90 17 85 18 88 19 86 20 89 21 87 22 14 23 15 24
REMARK SMILES IDX 16 25 17 26 18 27 19 28 20 29 21 30 82 31 22 32 81 33 23 34
REMARK SMILES IDX 24 35 25 36 75 37 26 38 80 39 74 40 76 41 27 42 79 43 73 44
REMARK SMILES IDX 72 45 28 47 60 48 40 49 59 50 41 51 44 52 58 53 77 54 42 55
REMARK SMILES IDX 43 56 57 58 78 59 45 60 29 61 30 62 38 63 31 64 32 65 36 66
REMARK SMILES IDX 39 67 33 68 34 69 37 70 35 71 61 72 62 73 70 74 63 75 64 76
REMARK SMILES IDX 68 77 71 78 65 79 66 80 69 81 67 82 46 83 47 84 55 85 48 86
REMARK SMILES IDX 49 87 53 88 56 89 50 90 51 91 54 92 52 93
REMARK H PARENT 4 8 76 46 44 57
REMARK Flexibility Score: inf
ROOT
ATOM      1  C   UNL A   1      33.341  27.014  24.478  1.00  0.00     0.202 C 
ENDROOT
BRANCH   1   2
ATOM      2  C   UNL A   1      32.785  26.003  23.480  1.00  0.00     0.261 C 
BRANCH   2   3
ATOM      3  O   UNL A   1      32.917  24.686  24.048  1.00  0.00    -0.459 OA
BRANCH   3   4
ATOM      4  C   UNL A   1      34.036  24.002  23.731  1.00  0.00     0.369 C 
ATOM      5  O   UNL A   1      34.590  24.110  22.637  1.00  0.00    -0.245 OA
BRANCH   4   6
ATOM      6  C   UNL A   1      34.581  23.075  24.844  1.00  0.00     0.326 C 
BRANCH   6   7
ATOM      7  N   UNL A   1      36.051  22.906  25.045  1.00  0.00    -0.313 N 
ATOM      8  H   UNL A   1      35.877  22.165  25.724  1.00  0.00     0.349 HD
BRANCH   7   9
ATOM      9  C   UNL A   1      36.903  22.108  24.172  1.00  0.00     0.291 C 
BRANCH   9  10
ATOM     10  C   UNL A   1      37.476  20.840  24.739  1.00  0.00     0.025 C 
ATOM     11  C   UNL A   1      36.826  19.673  24.850  1.00  0.00     0.010 C 
ENDBRANCH   9  10
ENDBRANCH   7   9
BRANCH   7  12
ATOM     12  C   UNL A   1      36.752  24.028  25.675  1.00  0.00     0.291 C 
BRANCH  12  13
ATOM     13  C   UNL A   1      38.012  23.698  26.429  1.00  0.00     0.025 C 
ATOM     14  C   UNL A   1      39.106  24.472  26.456  1.00  0.00     0.010 C 
ENDBRANCH  12  13
ENDBRANCH   7  12
ENDBRANCH   6   7
BRANCH   6  15
ATOM     15  C   UNL A   1      33.806  21.753  24.867  1.00  0.00     0.021 A 
ATOM     16  C   UNL A   1      33.696  21.027  26.063  1.00  0.00     0.013 A 
ATOM     17  C   UNL A   1      33.254  21.205  23.689  1.00  0.00     0.017 A 
ATOM     18  C   UNL A   1      33.072  19.779  26.075  1.00  0.00     0.040 A 
ATOM     19  C   UNL A   1      32.670  19.933  23.685  1.00  0.00    -0.015 A 
ATOM     20  C   UNL A   1      32.578  19.240  24.892  1.00  0.00     0.126 A 
ATOM     21  C   UNL A   1      32.194  19.309  22.410  1.00  0.00     0.047 C 
ATOM     22  F   UNL A   1      32.028  18.018  24.917  1.00  0.00    -0.207 F 
ENDBRANCH   6  15
ENDBRANCH   4   6
ENDBRANCH   3   4
ENDBRANCH   2   3
ENDBRANCH   1   2
BRANCH   1  23
ATOM     23  O   UNL A   1      32.422  28.047  24.851  1.00  0.00    -0.374 OA
BRANCH  23  24
ATOM     24  C   UNL A   1      32.987  29.340  25.063  1.00  0.00     0.202 C 
BRANCH  24  25
ATOM     25  C   UNL A   1      32.181  30.255  25.993  1.00  0.00     0.261 C 
BRANCH  25  26
ATOM     26  O   UNL A   1      32.776  30.343  27.300  1.00  0.00    -0.460 OA
BRANCH  26  27
ATOM     27  C   UNL A   1      33.487  31.474  27.505  1.00  0.00     0.338 C 
ATOM     28  O   UNL A   1      33.056  32.616  27.582  1.00  0.00    -0.246 OA
BRANCH  27  29
ATOM     29  C   UNL A   1      34.888  31.147  27.829  1.00  0.00     0.060 A 
ATOM     30  C   UNL A   1      35.186  29.791  28.012  1.00  0.00     0.016 A 
ATOM     31  C   UNL A   1      35.870  32.121  28.015  1.00  0.00     0.016 A 
ATOM     32  C   UNL A   1      36.441  29.409  28.470  1.00  0.00     0.010 A 
ATOM     33  C   UNL A   1      37.136  31.735  28.473  1.00  0.00     0.010 A 
ATOM     34  C   UNL A   1      37.407  30.383  28.755  1.00  0.00    -0.014 A 
BRANCH  34  35
ATOM     35  C   UNL A   1      38.613  29.978  29.517  1.00  0.00     0.031 A 
ATOM     36  C   UNL A   1      38.785  30.483  30.925  1.00  0.00     0.074 A 
ATOM     37  C   UNL A   1      39.490  29.098  29.003  1.00  0.00     0.049 A 
ATOM     38  N   UNL A   1      39.731  30.225  31.792  1.00  0.00    -0.248 NA
ATOM     39  C   UNL A   1      37.746  31.398  31.426  1.00  0.00     0.031 C 
ATOM     40  C   UNL A   1      39.399  28.497  27.673  1.00  0.00     0.029 A 
ATOM     41  N   UNL A   1      40.623  28.547  29.545  1.00  0.00    -0.354 N 
ATOM     42  C   UNL A   1      39.407  30.952  32.931  1.00  0.00     0.074 A 
ATOM     43  C   UNL A   1      38.198  31.688  32.636  1.00  0.00     0.031 C 
ATOM     44  C   UNL A   1      40.431  27.652  27.506  1.00  0.00     0.029 A 
ATOM     45  C   UNL A   1      41.273  27.682  28.702  1.00  0.00     0.049 A 
ATOM     46  H   UNL A   1      40.940  28.753  30.455  1.00  0.00     0.167 HD
ATOM     47  C   UNL A   1      40.052  30.991  34.122  1.00  0.00     0.037 A 
ATOM     48  C   UNL A   1      42.424  27.003  28.871  1.00  0.00     0.037 A 
ATOM     49  C   UNL A   1      41.250  30.246  34.415  1.00  0.00     0.049 A 
ATOM     50  C   UNL A   1      43.166  27.126  30.177  1.00  0.00     0.074 A 
ATOM     51  C   UNL A   1      41.966  30.199  35.597  1.00  0.00     0.029 A 
ATOM     52  N   UNL A   1      41.912  29.427  33.513  1.00  0.00    -0.354 N 
ATOM     53  N   UNL A   1      42.838  27.793  31.258  1.00  0.00    -0.248 NA
ATOM     54  C   UNL A   1      44.437  26.398  30.288  1.00  0.00     0.031 C 
ATOM     55  C   UNL A   1      43.098  29.404  35.390  1.00  0.00     0.029 A 
ATOM     56  C   UNL A   1      43.050  28.898  34.102  1.00  0.00     0.049 A 
ATOM     57  H   UNL A   1      41.617  29.247  32.591  1.00  0.00     0.167 HD
ATOM     58  C   UNL A   1      43.843  27.539  32.185  1.00  0.00     0.074 A 
ATOM     59  C   UNL A   1      44.782  26.644  31.543  1.00  0.00     0.031 C 
ATOM     60  C   UNL A   1      43.973  28.002  33.453  1.00  0.00     0.037 A 
BRANCH  47  61
ATOM     61  C   UNL A   1      39.500  31.896  35.186  1.00  0.00     0.064 A 
ATOM     62  C   UNL A   1      39.780  33.270  35.214  1.00  0.00     0.173 A 
ATOM     63  C   UNL A   1      38.646  31.382  36.175  1.00  0.00     0.173 A 
ATOM     64  F   UNL A   1      40.601  33.811  34.301  1.00  0.00    -0.203 F 
ATOM     65  C   UNL A   1      39.250  34.090  36.208  1.00  0.00     0.198 A 
ATOM     66  C   UNL A   1      38.092  32.209  37.146  1.00  0.00     0.198 A 
ATOM     67  F   UNL A   1      38.343  30.075  36.193  1.00  0.00    -0.203 F 
ATOM     68  F   UNL A   1      39.573  35.389  36.245  1.00  0.00    -0.200 F 
ATOM     69  C   UNL A   1      38.400  33.560  37.167  1.00  0.00     0.200 A 
ATOM     70  F   UNL A   1      37.259  31.698  38.063  1.00  0.00    -0.200 F 
ATOM     71  F   UNL A   1      37.884  34.351  38.118  1.00  0.00    -0.200 F 
ENDBRANCH  47  61
BRANCH  48  72
ATOM     72  C   UNL A   1      42.956  26.153  27.772  1.00  0.00     0.064 A 
ATOM     73  C   UNL A   1      43.818  26.679  26.800  1.00  0.00     0.173 A 
ATOM     74  C   UNL A   1      42.594  24.803  27.658  1.00  0.00     0.173 A 
ATOM     75  F   UNL A   1      44.176  27.971  26.850  1.00  0.00    -0.203 F 
ATOM     76  C   UNL A   1      44.278  25.894  25.744  1.00  0.00     0.198 A 
ATOM     77  C   UNL A   1      43.080  24.011  26.621  1.00  0.00     0.198 A 
ATOM     78  F   UNL A   1      41.770  24.250  28.560  1.00  0.00    -0.203 F 
ATOM     79  F   UNL A   1      45.058  26.437  24.799  1.00  0.00    -0.200 F 
ATOM     80  C   UNL A   1      43.914  24.558  25.659  1.00  0.00     0.200 A 
ATOM     81  F   UNL A   1      42.737  22.717  26.552  1.00  0.00    -0.200 F 
ATOM     82  F   UNL A   1      44.358  23.804  24.646  1.00  0.00    -0.200 F 
ENDBRANCH  48  72
BRANCH  60  83
ATOM     83  C   UNL A   1      45.153  27.518  34.249  1.00  0.00     0.064 A 
ATOM     84  C   UNL A   1      46.361  28.229  34.291  1.00  0.00     0.173 A 
ATOM     85  C   UNL A   1      45.055  26.346  35.017  1.00  0.00     0.173 A 
ATOM     86  F   UNL A   1      46.511  29.348  33.567  1.00  0.00    -0.203 F 
ATOM     87  C   UNL A   1      47.438  27.769  35.045  1.00  0.00     0.198 A 
ATOM     88  C   UNL A   1      46.121  25.909  35.798  1.00  0.00     0.198 A 
ATOM     89  F   UNL A   1      43.920  25.632  35.021  1.00  0.00    -0.203 F 
ATOM     90  F   UNL A   1      48.600  28.436  35.026  1.00  0.00    -0.200 F 
ATOM     91  C   UNL A   1      47.314  26.615  35.804  1.00  0.00     0.200 A 
ATOM     92  F   UNL A   1      45.993  24.803  36.545  1.00  0.00    -0.200 F 
ATOM     93  F   UNL A   1      48.348  26.178  36.536  1.00  0.00    -0.200 F 
ENDBRANCH  60  83
ENDBRANCH  34  35
ENDBRANCH  27  29
ENDBRANCH  26  27
ENDBRANCH  25  26
ENDBRANCH  24  25
ENDBRANCH  23  24
ENDBRANCH   1  23
TORSDOF 20
ENDMDL
MODEL 2
REMARK VINA RESULT:     -10.2      1.183      7.640
REMARK SMILES C=CC[NH+](CC=C)[C@@H](C(=O)OCCOCCOC(=O)c1ccc(-c2c3nc(c(-c4c(F)c(F)c(F)c(F)c4F)c4ccc([nH]4)c(-c4c(F)c(F)c(F)c(F)c4F)c4nc(c(-c5c(F)c(F)c(F)c(F)c5F)c5ccc2[nH]5)C=C4)C=C3)cc1)c1ccc(F)c(C)c1
REMARK SMILES IDX 13 1 12 2 11 3 9 4 10 5 8 6 4 7 3 9 2 10 1 11 5 12 6 13 7 14
REMARK SMILES IDX 83 15 84 16 90 17 85 18 88 19 86 20 89 21 87 22 14 23 15 24
REMARK SMILES IDX 16 25 17 26 18 27 19 28 20 29 21 30 82 31 22 32 81 33 23 34
REMARK SMILES IDX 24 35 25 36 75 37 26 38 80 39 74 40 76 41 27 42 79 43 73 44
REMARK SMILES IDX 72 45 28 47 60 48 40 49 59 50 41 51 44 52 58 53 77 54 42 55
REMARK SMILES IDX 43 56 57 58 78 59 45 60 29 61 30 62 38 63 31 64 32 65 36 66
REMARK SMILES IDX 39 67 33 68 34 69 37 70 35 71 61 72 62 73 70 74 63 75 64 76
REMARK SMILES IDX 68 77 71 78 65 79 66 80 69 81 67 82 46 83 47 84 55 85 48 86
REMARK SMILES IDX 49 87 53 88 56 89 50 90 51 91 54 92 52 93
REMARK H PARENT 4 8 76 46 44 57
REMARK Flexibility Score: inf
ROOT
ATOM      1  C   UNL A   1      32.245  26.791  24.258  1.00  0.00     0.202 C 
ENDROOT
BRANCH   1   2
ATOM      2  C   UNL A   1      33.136  25.888  23.412  1.00  0.00     0.261 C 
BRANCH   2   3
ATOM      3  O   UNL A   1      33.191  24.590  24.035  1.00  0.00    -0.459 OA
BRANCH   3   4
ATOM      4  C   UNL A   1      33.991  23.674  23.452  1.00  0.00     0.369 C 
ATOM      5  O   UNL A   1      34.531  23.864  22.363  1.00  0.00    -0.245 OA
BRANCH   4   6
ATOM      6  C   UNL A   1      34.190  22.366  24.254  1.00  0.00     0.326 C 
BRANCH   6   7
ATOM      7  N   UNL A   1      33.197  21.948  25.290  1.00  0.00    -0.313 N 
ATOM      8  H   UNL A   1      33.943  21.512  25.833  1.00  0.00     0.349 HD
BRANCH   7   9
ATOM      9  C   UNL A   1      32.726  22.819  26.360  1.00  0.00     0.291 C 
BRANCH   9  10
ATOM     10  C   UNL A   1      31.241  22.945  26.543  1.00  0.00     0.025 C 
ATOM     11  C   UNL A   1      30.536  24.081  26.443  1.00  0.00     0.010 C 
ENDBRANCH   9  10
ENDBRANCH   7   9
BRANCH   7  12
ATOM     12  C   UNL A   1      32.210  20.949  24.876  1.00  0.00     0.291 C 
BRANCH  12  13
ATOM     13  C   UNL A   1      32.637  19.508  24.951  1.00  0.00     0.025 C 
ATOM     14  C   UNL A   1      32.595  18.648  23.923  1.00  0.00     0.010 C 
ENDBRANCH  12  13
ENDBRANCH   7  12
ENDBRANCH   6   7
BRANCH   6  15
ATOM     15  C   UNL A   1      35.645  22.234  24.714  1.00  0.00     0.021 A 
ATOM     16  C   UNL A   1      36.296  20.993  24.632  1.00  0.00     0.013 A 
ATOM     17  C   UNL A   1      36.334  23.322  25.291  1.00  0.00     0.017 A 
ATOM     18  C   UNL A   1      37.589  20.840  25.132  1.00  0.00     0.040 A 
ATOM     19  C   UNL A   1      37.612  23.164  25.838  1.00  0.00    -0.015 A 
ATOM     20  C   UNL A   1      38.229  21.917  25.738  1.00  0.00     0.126 A 
ATOM     21  C   UNL A   1      38.288  24.293  26.554  1.00  0.00     0.047 C 
ATOM     22  F   UNL A   1      39.450  21.735  26.258  1.00  0.00    -0.207 F 
ENDBRANCH   6  15
ENDBRANCH   4   6
ENDBRANCH   3   4
ENDBRANCH   2   3
ENDBRANCH   1   2
BRANCH   1  23
ATOM     23  O   UNL A   1      32.954  27.727  25.077  1.00  0.00    -0.374 OA
BRANCH  23  24
ATOM     24  C   UNL A   1      32.151  28.650  25.811  1.00  0.00     0.202 C 
BRANCH  24  25
ATOM     25  C   UNL A   1      32.689  30.085  25.855  1.00  0.00     0.261 C 
BRANCH  25  26
ATOM     26  O   UNL A   1      32.471  30.697  27.139  1.00  0.00    -0.460 OA
BRANCH  26  27
ATOM     27  C   UNL A   1      33.233  31.791  27.362  1.00  0.00     0.338 C 
ATOM     28  O   UNL A   1      32.868  32.959  27.363  1.00  0.00    -0.246 OA
BRANCH  27  29
ATOM     29  C   UNL A   1      34.580  31.396  27.811  1.00  0.00     0.060 A 
ATOM     30  C   UNL A   1      34.756  30.047  28.144  1.00  0.00     0.016 A 
ATOM     31  C   UNL A   1      35.625  32.309  27.971  1.00  0.00     0.016 A 
ATOM     32  C   UNL A   1      35.946  29.622  28.722  1.00  0.00     0.010 A 
ATOM     33  C   UNL A   1      36.825  31.878  28.549  1.00  0.00     0.010 A 
ATOM     34  C   UNL A   1      36.968  30.545  28.978  1.00  0.00    -0.014 A 
BRANCH  34  35
ATOM     35  C   UNL A   1      38.089  30.130  29.857  1.00  0.00     0.031 A 
ATOM     36  C   UNL A   1      39.138  29.202  29.305  1.00  0.00     0.074 A 
ATOM     37  C   UNL A   1      38.225  30.649  31.089  1.00  0.00     0.049 A 
ATOM     38  N   UNL A   1      40.225  28.745  29.872  1.00  0.00    -0.248 NA
ATOM     39  C   UNL A   1      38.937  28.728  27.926  1.00  0.00     0.031 C 
ATOM     40  C   UNL A   1      37.304  31.600  31.710  1.00  0.00     0.029 A 
ATOM     41  N   UNL A   1      39.200  30.457  32.035  1.00  0.00    -0.354 N 
ATOM     42  C   UNL A   1      40.829  27.925  28.926  1.00  0.00     0.074 A 
ATOM     43  C   UNL A   1      39.972  27.919  27.761  1.00  0.00     0.031 C 
ATOM     44  C   UNL A   1      37.765  31.915  32.933  1.00  0.00     0.029 A 
ATOM     45  C   UNL A   1      38.990  31.161  33.193  1.00  0.00     0.049 A 
ATOM     46  H   UNL A   1      39.978  29.869  31.895  1.00  0.00     0.167 HD
ATOM     47  C   UNL A   1      42.000  27.251  29.015  1.00  0.00     0.037 A 
ATOM     48  C   UNL A   1      39.700  31.183  34.339  1.00  0.00     0.037 A 
ATOM     49  C   UNL A   1      42.857  27.270  30.173  1.00  0.00     0.049 A 
ATOM     50  C   UNL A   1      40.958  30.359  34.441  1.00  0.00     0.074 A 
ATOM     51  C   UNL A   1      44.075  26.640  30.353  1.00  0.00     0.029 A 
ATOM     52  N   UNL A   1      42.579  27.948  31.350  1.00  0.00    -0.354 N 
ATOM     53  N   UNL A   1      41.535  29.610  33.532  1.00  0.00    -0.248 NA
ATOM     54  C   UNL A   1      41.665  30.388  35.728  1.00  0.00     0.031 C 
ATOM     55  C   UNL A   1      44.502  26.882  31.663  1.00  0.00     0.029 A 
ATOM     56  C   UNL A   1      43.586  27.722  32.275  1.00  0.00     0.049 A 
ATOM     57  H   UNL A   1      41.784  28.508  31.506  1.00  0.00     0.167 HD
ATOM     58  C   UNL A   1      42.688  29.107  34.125  1.00  0.00     0.074 A 
ATOM     59  C   UNL A   1      42.733  29.649  35.467  1.00  0.00     0.031 C 
ATOM     60  C   UNL A   1      43.623  28.274  33.606  1.00  0.00     0.037 A 
BRANCH  47  61
ATOM     61  C   UNL A   1      42.409  26.404  27.844  1.00  0.00     0.064 A 
ATOM     62  C   UNL A   1      43.297  26.868  26.863  1.00  0.00     0.173 A 
ATOM     63  C   UNL A   1      41.928  25.090  27.722  1.00  0.00     0.173 A 
ATOM     64  F   UNL A   1      43.777  28.120  26.924  1.00  0.00    -0.203 F 
ATOM     65  C   UNL A   1      43.667  26.061  25.789  1.00  0.00     0.198 A 
ATOM     66  C   UNL A   1      42.324  24.275  26.666  1.00  0.00     0.198 A 
ATOM     67  F   UNL A   1      41.077  24.594  28.633  1.00  0.00    -0.203 F 
ATOM     68  F   UNL A   1      44.476  26.543  24.837  1.00  0.00    -0.200 F 
ATOM     69  C   UNL A   1      43.187  24.763  25.697  1.00  0.00     0.200 A 
ATOM     70  F   UNL A   1      41.871  23.017  26.587  1.00  0.00    -0.200 F 
ATOM     71  F   UNL A   1      43.549  23.984  24.668  1.00  0.00    -0.200 F 
ENDBRANCH  47  61
BRANCH  48  72
ATOM     72  C   UNL A   1      39.233  32.003  35.489  1.00  0.00     0.064 A 
ATOM     73  C   UNL A   1      39.604  33.348  35.620  1.00  0.00     0.173 A 
ATOM     74  C   UNL A   1      38.426  31.449  36.494  1.00  0.00     0.173 A 
ATOM     75  F   UNL A   1      40.395  33.918  34.699  1.00  0.00    -0.203 F 
ATOM     76  C   UNL A   1      39.204  34.101  36.723  1.00  0.00     0.198 A 
ATOM     77  C   UNL A   1      38.000  32.212  37.579  1.00  0.00     0.198 A 
ATOM     78  F   UNL A   1      38.043  30.166  36.418  1.00  0.00    -0.203 F 
ATOM     79  F   UNL A   1      39.617  35.370  36.850  1.00  0.00    -0.200 F 
ATOM     80  C   UNL A   1      38.396  33.534  37.698  1.00  0.00     0.200 A 
ATOM     81  F   UNL A   1      37.207  31.664  38.510  1.00  0.00    -0.200 F 
ATOM     82  F   UNL A   1      38.011  34.259  38.756  1.00  0.00    -0.200 F 
ENDBRANCH  48  72
BRANCH  60  83
ATOM     83  C   UNL A   1      44.801  27.928  34.473  1.00  0.00     0.064 A 
ATOM     84  C   UNL A   1      45.954  28.727  34.511  1.00  0.00     0.173 A 
ATOM     85  C   UNL A   1      44.757  26.802  35.310  1.00  0.00     0.173 A 
ATOM     86  F   UNL A   1      46.052  29.807  33.722  1.00  0.00    -0.203 F 
ATOM     87  C   UNL A   1      47.030  28.394  35.330  1.00  0.00     0.198 A 
ATOM     88  C   UNL A   1      45.819  26.493  36.154  1.00  0.00     0.198 A 
ATOM     89  F   UNL A   1      43.675  26.008  35.321  1.00  0.00    -0.203 F 
ATOM     90  F   UNL A   1      48.142  29.142  35.308  1.00  0.00    -0.200 F 
ATOM     91  C   UNL A   1      46.958  27.283  36.157  1.00  0.00     0.200 A 
ATOM     92  F   UNL A   1      45.740  25.429  36.966  1.00  0.00    -0.200 F 
ATOM     93  F   UNL A   1      47.990  26.969  36.952  1.00  0.00    -0.200 F 
ENDBRANCH  60  83
ENDBRANCH  34  35
ENDBRANCH  27  29
ENDBRANCH  26  27
ENDBRANCH  25  26
ENDBRANCH  24  25
ENDBRANCH  23  24
ENDBRANCH   1  23
TORSDOF 20
ENDMDL
MODEL 3
REMARK VINA RESULT:     -10.0      4.410      9.911
REMARK SMILES C=CC[NH+](CC=C)[C@@H](C(=O)OCCOCCOC(=O)c1ccc(-c2c3nc(c(-c4c(F)c(F)c(F)c(F)c4F)c4ccc([nH]4)c(-c4c(F)c(F)c(F)c(F)c4F)c4nc(c(-c5c(F)c(F)c(F)c(F)c5F)c5ccc2[nH]5)C=C4)C=C3)cc1)c1ccc(F)c(C)c1
REMARK SMILES IDX 13 1 12 2 11 3 9 4 10 5 8 6 4 7 3 9 2 10 1 11 5 12 6 13 7 14
REMARK SMILES IDX 83 15 84 16 90 17 85 18 88 19 86 20 89 21 87 22 14 23 15 24
REMARK SMILES IDX 16 25 17 26 18 27 19 28 20 29 21 30 82 31 22 32 81 33 23 34
REMARK SMILES IDX 24 35 25 36 75 37 26 38 80 39 74 40 76 41 27 42 79 43 73 44
REMARK SMILES IDX 72 45 28 47 60 48 40 49 59 50 41 51 44 52 58 53 77 54 42 55
REMARK SMILES IDX 43 56 57 58 78 59 45 60 29 61 30 62 38 63 31 64 32 65 36 66
REMARK SMILES IDX 39 67 33 68 34 69 37 70 35 71 61 72 62 73 70 74 63 75 64 76
REMARK SMILES IDX 68 77 71 78 65 79 66 80 69 81 67 82 46 83 47 84 55 85 48 86
REMARK SMILES IDX 49 87 53 88 56 89 50 90 51 91 54 92 52 93
REMARK H PARENT 4 8 76 46 44 57
REMARK Flexibility Score: inf
ROOT
ATOM      1  C   UNL A   1      36.133  21.811  24.489  1.00  0.00     0.202 C 
ENDROOT
BRANCH   1   2
ATOM      2  C   UNL A   1      36.125  23.277  24.067  1.00  0.00     0.261 C 
BRANCH   2   3
ATOM      3  O   UNL A   1      35.359  23.394  22.853  1.00  0.00    -0.459 OA
BRANCH   3   4
ATOM      4  C   UNL A   1      34.123  23.923  22.969  1.00  0.00     0.369 C 
ATOM      5  O   UNL A   1      33.526  24.425  22.017  1.00  0.00    -0.245 OA
BRANCH   4   6
ATOM      6  C   UNL A   1      33.505  23.850  24.385  1.00  0.00     0.326 C 
BRANCH   6   7
ATOM      7  N   UNL A   1      32.607  22.719  24.768  1.00  0.00    -0.313 N 
ATOM      8  H   UNL A   1      31.791  23.275  24.509  1.00  0.00     0.349 HD
BRANCH   7   9
ATOM      9  C   UNL A   1      32.302  21.593  23.894  1.00  0.00     0.291 C 
BRANCH   9  10
ATOM     10  C   UNL A   1      32.292  20.224  24.511  1.00  0.00     0.025 C 
ATOM     11  C   UNL A   1      33.209  19.268  24.303  1.00  0.00     0.010 C 
ENDBRANCH   9  10
ENDBRANCH   7   9
BRANCH   7  12
ATOM     12  C   UNL A   1      32.567  22.378  26.192  1.00  0.00     0.291 C 
BRANCH  12  13
ATOM     13  C   UNL A   1      31.527  23.079  27.024  1.00  0.00     0.025 C 
ATOM     14  C   UNL A   1      30.204  22.967  26.840  1.00  0.00     0.010 C 
ENDBRANCH  12  13
ENDBRANCH   7  12
ENDBRANCH   6   7
BRANCH   6  15
ATOM     15  C   UNL A   1      32.972  25.223  24.809  1.00  0.00     0.021 A 
ATOM     16  C   UNL A   1      31.690  25.631  24.407  1.00  0.00     0.013 A 
ATOM     17  C   UNL A   1      33.772  26.127  25.540  1.00  0.00     0.017 A 
ATOM     18  C   UNL A   1      31.232  26.913  24.710  1.00  0.00     0.040 A 
ATOM     19  C   UNL A   1      33.336  27.430  25.805  1.00  0.00    -0.015 A 
ATOM     20  C   UNL A   1      32.058  27.802  25.392  1.00  0.00     0.126 A 
ATOM     21  C   UNL A   1      34.237  28.420  26.477  1.00  0.00     0.047 C 
ATOM     22  F   UNL A   1      31.617  29.045  25.627  1.00  0.00    -0.207 F 
ENDBRANCH   6  15
ENDBRANCH   4   6
ENDBRANCH   3   4
ENDBRANCH   2   3
ENDBRANCH   1   2
BRANCH   1  23
ATOM     23  O   UNL A   1      37.391  21.149  24.313  1.00  0.00    -0.374 OA
BRANCH  23  24
ATOM     24  C   UNL A   1      38.269  21.164  25.437  1.00  0.00     0.202 C 
BRANCH  24  25
ATOM     25  C   UNL A   1      39.194  19.947  25.553  1.00  0.00     0.261 C 
BRANCH  25  26
ATOM     26  O   UNL A   1      40.047  20.035  26.709  1.00  0.00    -0.460 OA
BRANCH  26  27
ATOM     27  C   UNL A   1      41.266  20.560  26.453  1.00  0.00     0.338 C 
ATOM     28  O   UNL A   1      42.142  20.086  25.741  1.00  0.00    -0.246 OA
BRANCH  27  29
ATOM     29  C   UNL A   1      41.362  21.925  27.000  1.00  0.00     0.060 A 
ATOM     30  C   UNL A   1      40.939  22.965  26.162  1.00  0.00     0.016 A 
ATOM     31  C   UNL A   1      41.905  22.203  28.256  1.00  0.00     0.016 A 
ATOM     32  C   UNL A   1      41.138  24.288  26.538  1.00  0.00     0.010 A 
ATOM     33  C   UNL A   1      42.102  23.536  28.636  1.00  0.00     0.010 A 
ATOM     34  C   UNL A   1      41.770  24.581  27.753  1.00  0.00    -0.014 A 
BRANCH  34  35
ATOM     35  C   UNL A   1      42.237  25.969  27.987  1.00  0.00     0.031 A 
ATOM     36  C   UNL A   1      43.562  26.396  27.414  1.00  0.00     0.074 A 
ATOM     37  C   UNL A   1      41.453  26.863  28.614  1.00  0.00     0.049 A 
ATOM     38  N   UNL A   1      44.148  27.565  27.453  1.00  0.00    -0.248 NA
ATOM     39  C   UNL A   1      44.328  25.365  26.694  1.00  0.00     0.031 C 
ATOM     40  C   UNL A   1      40.127  26.583  29.162  1.00  0.00     0.029 A 
ATOM     41  N   UNL A   1      41.654  28.194  28.882  1.00  0.00    -0.354 N 
ATOM     42  C   UNL A   1      45.351  27.408  26.774  1.00  0.00     0.074 A 
ATOM     43  C   UNL A   1      45.429  26.023  26.364  1.00  0.00     0.031 C 
ATOM     44  C   UNL A   1      39.629  27.712  29.696  1.00  0.00     0.029 A 
ATOM     45  C   UNL A   1      40.616  28.782  29.559  1.00  0.00     0.049 A 
ATOM     46  H   UNL A   1      42.467  28.680  28.615  1.00  0.00     0.167 HD
ATOM     47  C   UNL A   1      46.298  28.338  26.505  1.00  0.00     0.037 A 
ATOM     48  C   UNL A   1      40.484  30.039  30.025  1.00  0.00     0.037 A 
ATOM     49  C   UNL A   1      46.210  29.718  26.905  1.00  0.00     0.049 A 
ATOM     50  C   UNL A   1      41.590  31.035  29.782  1.00  0.00     0.074 A 
ATOM     51  C   UNL A   1      47.106  30.744  26.660  1.00  0.00     0.029 A 
ATOM     52  N   UNL A   1      45.170  30.263  27.642  1.00  0.00    -0.354 N 
ATOM     53  N   UNL A   1      42.710  30.885  29.116  1.00  0.00    -0.248 NA
ATOM     54  C   UNL A   1      41.409  32.376  30.353  1.00  0.00     0.031 C 
ATOM     55  C   UNL A   1      46.639  31.894  27.306  1.00  0.00     0.029 A 
ATOM     56  C   UNL A   1      45.418  31.603  27.892  1.00  0.00     0.049 A 
ATOM     57  H   UNL A   1      44.371  29.771  27.942  1.00  0.00     0.167 HD
ATOM     58  C   UNL A   1      43.350  32.118  29.160  1.00  0.00     0.074 A 
ATOM     59  C   UNL A   1      42.485  33.008  29.905  1.00  0.00     0.031 C 
ATOM     60  C   UNL A   1      44.544  32.480  28.630  1.00  0.00     0.037 A 
BRANCH  47  61
ATOM     61  C   UNL A   1      47.531  27.887  25.775  1.00  0.00     0.064 A 
ATOM     62  C   UNL A   1      48.708  27.531  26.450  1.00  0.00     0.173 A 
ATOM     63  C   UNL A   1      47.521  27.777  24.375  1.00  0.00     0.173 A 
ATOM     64  F   UNL A   1      48.777  27.631  27.786  1.00  0.00    -0.203 F 
ATOM     65  C   UNL A   1      49.837  27.109  25.750  1.00  0.00     0.198 A 
ATOM     66  C   UNL A   1      48.639  27.323  23.682  1.00  0.00     0.198 A 
ATOM     67  F   UNL A   1      46.420  28.102  23.679  1.00  0.00    -0.203 F 
ATOM     68  F   UNL A   1      50.966  26.824  26.412  1.00  0.00    -0.200 F 
ATOM     69  C   UNL A   1      49.798  26.997  24.368  1.00  0.00     0.200 A 
ATOM     70  F   UNL A   1      48.594  27.203  22.348  1.00  0.00    -0.200 F 
ATOM     71  F   UNL A   1      50.882  26.584  23.697  1.00  0.00    -0.200 F 
ENDBRANCH  47  61
BRANCH  48  72
ATOM     72  C   UNL A   1      39.264  30.429  30.782  1.00  0.00     0.064 A 
ATOM     73  C   UNL A   1      39.168  30.217  32.164  1.00  0.00     0.173 A 
ATOM     74  C   UNL A   1      38.159  30.998  30.134  1.00  0.00     0.173 A 
ATOM     75  F   UNL A   1      40.189  29.652  32.828  1.00  0.00    -0.203 F 
ATOM     76  C   UNL A   1      38.006  30.538  32.865  1.00  0.00     0.198 A 
ATOM     77  C   UNL A   1      37.010  31.350  30.839  1.00  0.00     0.198 A 
ATOM     78  F   UNL A   1      38.196  31.221  28.811  1.00  0.00    -0.203 F 
ATOM     79  F   UNL A   1      37.923  30.276  34.176  1.00  0.00    -0.200 F 
ATOM     80  C   UNL A   1      36.931  31.112  32.202  1.00  0.00     0.200 A 
ATOM     81  F   UNL A   1      35.979  31.917  30.197  1.00  0.00    -0.200 F 
ATOM     82  F   UNL A   1      35.816  31.422  32.875  1.00  0.00    -0.200 F 
ENDBRANCH  48  72
BRANCH  60  83
ATOM     83  C   UNL A   1      44.971  33.912  28.797  1.00  0.00     0.064 A 
ATOM     84  C   UNL A   1      44.577  34.913  27.897  1.00  0.00     0.173 A 
ATOM     85  C   UNL A   1      45.752  34.293  29.900  1.00  0.00     0.173 A 
ATOM     86  F   UNL A   1      43.840  34.601  26.820  1.00  0.00    -0.203 F 
ATOM     87  C   UNL A   1      44.974  36.236  28.077  1.00  0.00     0.198 A 
ATOM     88  C   UNL A   1      46.116  35.622  30.096  1.00  0.00     0.198 A 
ATOM     89  F   UNL A   1      46.149  33.378  30.797  1.00  0.00    -0.203 F 
ATOM     90  F   UNL A   1      44.630  37.165  27.174  1.00  0.00    -0.200 F 
ATOM     91  C   UNL A   1      45.735  36.590  29.181  1.00  0.00     0.200 A 
ATOM     92  F   UNL A   1      46.837  35.965  31.173  1.00  0.00    -0.200 F 
ATOM     93  F   UNL A   1      46.109  37.865  29.357  1.00  0.00    -0.200 F 
ENDBRANCH  60  83
ENDBRANCH  34  35
ENDBRANCH  27  29
ENDBRANCH  26  27
ENDBRANCH  25  26
ENDBRANCH  24  25
ENDBRANCH  23  24
ENDBRANCH   1  23
TORSDOF 20
ENDMDL
