MODEL 1
REMARK VINA RESULT:     -14.0      0.000      0.000
REMARK SMILES Cc1oc2cc3c(cc2c1C)[C@H](C)[C@@H](CC(=O)N[C@H](CC1=c2ccccc2=NC1)C(=O)OCCOCCOC(=O)c1ccc(-c2c4nc(c(-c5c(F)c(F)c(F)c(F)c5F)c5ccc([nH]5)c(-c5c(F)c(F)c(F)c(F)c5F)c5nc(c(-c6c(F)c(F)c(F)c(F)c6F)c6ccc2[nH]6)C=C5)C=C4)cc1)C(=O)O3
REMARK SMILES IDX 34 1 33 2 32 3 30 4 31 5 19 6 18 7 16 8 17 9 15 11 14 12
REMARK SMILES IDX 1 13 2 14 3 15 10 16 4 17 9 18 11 19 5 20 8 21 6 22 7 23
REMARK SMILES IDX 106 24 12 25 104 26 13 27 105 28 20 29 21 30 22 31 29 32
REMARK SMILES IDX 23 33 27 34 28 35 24 36 26 37 25 38 35 39 36 40 37 41 38 42
REMARK SMILES IDX 39 43 40 44 41 45 42 46 103 47 43 48 102 49 44 50 45 51
REMARK SMILES IDX 46 52 96 53 47 54 101 55 95 56 97 57 48 58 100 59 94 60
REMARK SMILES IDX 93 61 49 63 81 64 61 65 80 66 62 67 65 68 79 69 98 70 63 71
REMARK SMILES IDX 64 72 78 74 99 75 66 76 50 77 51 78 59 79 52 80 53 81 57 82
REMARK SMILES IDX 60 83 54 84 55 85 58 86 56 87 82 88 83 89 91 90 84 91 85 92
REMARK SMILES IDX 89 93 92 94 86 95 87 96 90 97 88 98 67 99 68 100 76 101
REMARK SMILES IDX 69 102 70 103 74 104 77 105 71 106 72 107 75 108 73 109
REMARK H PARENT 18 10 97 62 65 73
REMARK Flexibility Score: inf
ROOT
ATOM      1  C   UNL A   1      36.592  22.885  23.453  1.00  0.00     0.202 C 
ENDROOT
BRANCH   1   2
ATOM      2  C   UNL A   1      35.821  24.132  23.990  1.00  0.00     0.261 C 
BRANCH   2   3
ATOM      3  O   UNL A   1      34.546  24.680  23.580  1.00  0.00    -0.462 OA
BRANCH   3   4
ATOM      4  C   UNL A   1      33.547  24.037  22.919  1.00  0.00     0.329 C 
ATOM      5  O   UNL A   1      33.180  24.245  21.772  1.00  0.00    -0.250 OA
BRANCH   4   6
ATOM      6  C   UNL A   1      32.940  22.930  23.817  1.00  0.00     0.196 C 
BRANCH   6   7
ATOM      7  N   UNL A   1      33.612  22.911  25.164  1.00  0.00    -0.342 N 
ATOM      8  C   UNL A   1      33.248  23.317  26.427  1.00  0.00     0.221 C 
ATOM      9  O   UNL A   1      34.067  23.044  27.315  1.00  0.00    -0.275 OA
ATOM     10  H   UNL A   1      34.515  22.520  25.133  1.00  0.00     0.164 HD
BRANCH   8  11
ATOM     11  C   UNL A   1      31.948  24.096  26.825  1.00  0.00     0.116 C 
BRANCH  11  12
ATOM     12  C   UNL A   1      31.715  25.360  25.950  1.00  0.00     0.116 C 
ATOM     13  C   UNL A   1      27.976  30.843  21.048  1.00  0.00     0.088 C 
ATOM     14  C   UNL A   1      28.958  30.265  21.997  1.00  0.00     0.105 A 
ATOM     15  O   UNL A   1      29.427  29.052  21.627  1.00  0.00    -0.461 OA
ATOM     16  C   UNL A   1      29.506  30.636  23.222  1.00  0.00    -0.002 A 
ATOM     17  C   UNL A   1      30.158  28.578  22.657  1.00  0.00     0.138 A 
ATOM     18  C   UNL A   1      30.264  29.496  23.698  1.00  0.00     0.024 A 
ATOM     19  C   UNL A   1      29.251  31.914  23.926  1.00  0.00     0.049 C 
ATOM     20  C   UNL A   1      30.605  27.281  22.702  1.00  0.00     0.095 A 
ATOM     21  C   UNL A   1      30.978  29.089  24.889  1.00  0.00     0.020 A 
ATOM     22  C   UNL A   1      30.866  26.904  24.011  1.00  0.00     0.138 A 
ATOM     23  C   UNL A   1      31.307  27.726  25.041  1.00  0.00    -0.001 A 
ATOM     24  O   UNL A   1      30.002  25.869  24.490  1.00  0.00    -0.426 OA
ATOM     25  C   UNL A   1      31.902  26.923  26.257  1.00  0.00     0.035 C 
ATOM     26  C   UNL A   1      30.246  25.435  25.764  1.00  0.00     0.315 C 
ATOM     27  C   UNL A   1      33.355  27.317  26.434  1.00  0.00     0.014 C 
ATOM     28  O   UNL A   1      29.399  25.210  26.614  1.00  0.00    -0.251 OA
ENDBRANCH  11  12
ENDBRANCH   8  11
ENDBRANCH   6   7
BRANCH   6  29
ATOM     29  C   UNL A   1      32.859  21.433  23.124  1.00  0.00     0.070 C 
BRANCH  29  30
ATOM     30  C   UNL A   1      32.282  20.101  23.757  1.00  0.00    -0.037 C 
ATOM     31  C   UNL A   1      32.822  18.870  23.518  1.00  0.00     0.001 A 
ATOM     32  C   UNL A   1      32.088  20.215  25.224  1.00  0.00     0.174 C 
ATOM     33  C   UNL A   1      32.331  17.498  23.885  1.00  0.00     0.010 A 
ATOM     34  C   UNL A   1      33.828  19.073  24.588  1.00  0.00     0.065 A 
ATOM     35  N   UNL A   1      33.386  19.691  25.645  1.00  0.00    -0.280 NA
ATOM     36  C   UNL A   1      33.228  16.587  24.357  1.00  0.00     0.001 A 
ATOM     37  C   UNL A   1      35.015  18.210  24.453  1.00  0.00     0.028 A 
ATOM     38  C   UNL A   1      34.653  16.919  24.407  1.00  0.00     0.002 A 
ENDBRANCH  29  30
ENDBRANCH   6  29
ENDBRANCH   4   6
ENDBRANCH   3   4
ENDBRANCH   2   3
ENDBRANCH   1   2
BRANCH   1  39
ATOM     39  O   UNL A   1      36.418  21.567  23.903  1.00  0.00    -0.374 OA
BRANCH  39  40
ATOM     40  C   UNL A   1      37.452  21.020  24.684  1.00  0.00     0.202 C 
BRANCH  40  41
ATOM     41  C   UNL A   1      37.890  21.755  25.967  1.00  0.00     0.261 C 
BRANCH  41  42
ATOM     42  O   UNL A   1      39.255  22.228  25.925  1.00  0.00    -0.460 OA
BRANCH  42  43
ATOM     43  C   UNL A   1      40.045  22.006  27.006  1.00  0.00     0.338 C 
ATOM     44  O   UNL A   1      40.410  20.953  27.443  1.00  0.00    -0.246 OA
BRANCH  43  45
ATOM     45  C   UNL A   1      40.610  23.320  27.429  1.00  0.00     0.060 A 
ATOM     46  C   UNL A   1      41.948  23.493  27.791  1.00  0.00     0.016 A 
ATOM     47  C   UNL A   1      39.726  24.400  27.498  1.00  0.00     0.016 A 
ATOM     48  C   UNL A   1      42.412  24.768  28.162  1.00  0.00     0.010 A 
ATOM     49  C   UNL A   1      40.175  25.648  27.927  1.00  0.00     0.010 A 
ATOM     50  C   UNL A   1      41.534  25.865  28.202  1.00  0.00    -0.014 A 
BRANCH  50  51
ATOM     51  C   UNL A   1      42.081  27.249  28.233  1.00  0.00     0.031 A 
ATOM     52  C   UNL A   1      41.041  28.313  28.015  1.00  0.00     0.074 A 
ATOM     53  C   UNL A   1      43.216  27.628  28.861  1.00  0.00     0.049 A 
ATOM     54  N   UNL A   1      40.304  28.783  28.983  1.00  0.00    -0.248 NA
ATOM     55  C   UNL A   1      40.549  28.660  26.682  1.00  0.00     0.031 C 
ATOM     56  C   UNL A   1      43.683  27.055  30.127  1.00  0.00     0.029 A 
ATOM     57  N   UNL A   1      44.015  28.741  28.675  1.00  0.00    -0.354 N 
ATOM     58  C   UNL A   1      39.212  29.406  28.404  1.00  0.00     0.074 A 
ATOM     59  C   UNL A   1      39.423  29.332  26.975  1.00  0.00     0.031 C 
ATOM     60  C   UNL A   1      44.555  27.919  30.692  1.00  0.00     0.029 A 
ATOM     61  C   UNL A   1      44.824  29.025  29.773  1.00  0.00     0.049 A 
ATOM     62  H   UNL A   1      44.011  29.277  27.849  1.00  0.00     0.167 HD
ATOM     63  C   UNL A   1      38.179  29.914  29.128  1.00  0.00     0.037 A 
ATOM     64  C   UNL A   1      45.202  30.278  30.159  1.00  0.00     0.037 A 
ATOM     65  C   UNL A   1      38.281  29.775  30.549  1.00  0.00     0.049 A 
ATOM     66  C   UNL A   1      43.903  30.818  30.702  1.00  0.00     0.074 A 
ATOM     67  C   UNL A   1      37.811  28.925  31.529  1.00  0.00     0.029 A 
ATOM     68  N   UNL A   1      39.078  30.668  31.223  1.00  0.00    -0.354 N 
ATOM     69  N   UNL A   1      43.386  30.563  31.875  1.00  0.00    -0.248 NA
ATOM     70  C   UNL A   1      42.973  31.413  29.740  1.00  0.00     0.031 C 
ATOM     71  C   UNL A   1      38.726  29.062  32.622  1.00  0.00     0.029 A 
ATOM     72  C   UNL A   1      39.707  29.964  32.216  1.00  0.00     0.049 A 
ATOM     73  H   UNL A   1      39.177  31.628  31.029  1.00  0.00     0.167 HD
ATOM     74  C   UNL A   1      42.008  30.711  31.706  1.00  0.00     0.074 A 
ATOM     75  C   UNL A   1      41.825  31.276  30.387  1.00  0.00     0.031 C 
ATOM     76  C   UNL A   1      41.087  30.191  32.567  1.00  0.00     0.037 A 
BRANCH  63  77
ATOM     77  C   UNL A   1      37.083  30.733  28.578  1.00  0.00     0.064 A 
ATOM     78  C   UNL A   1      37.189  32.126  28.713  1.00  0.00     0.173 A 
ATOM     79  C   UNL A   1      35.864  30.199  28.155  1.00  0.00     0.173 A 
ATOM     80  F   UNL A   1      38.343  32.670  29.136  1.00  0.00    -0.203 F 
ATOM     81  C   UNL A   1      36.102  32.957  28.479  1.00  0.00     0.198 A 
ATOM     82  C   UNL A   1      34.774  31.037  27.909  1.00  0.00     0.198 A 
ATOM     83  F   UNL A   1      35.711  28.873  28.029  1.00  0.00    -0.203 F 
ATOM     84  F   UNL A   1      36.220  34.277  28.672  1.00  0.00    -0.200 F 
ATOM     85  C   UNL A   1      34.891  32.411  28.087  1.00  0.00     0.200 A 
ATOM     86  F   UNL A   1      33.599  30.516  27.534  1.00  0.00    -0.200 F 
ATOM     87  F   UNL A   1      33.831  33.209  27.897  1.00  0.00    -0.200 F 
ENDBRANCH  63  77
BRANCH  64  88
ATOM     88  C   UNL A   1      46.071  31.049  29.208  1.00  0.00     0.064 A 
ATOM     89  C   UNL A   1      46.974  30.336  28.391  1.00  0.00     0.173 A 
ATOM     90  C   UNL A   1      46.089  32.445  29.059  1.00  0.00     0.173 A 
ATOM     91  F   UNL A   1      47.131  29.013  28.554  1.00  0.00    -0.203 F 
ATOM     92  C   UNL A   1      47.730  30.961  27.397  1.00  0.00     0.198 A 
ATOM     93  C   UNL A   1      46.819  33.069  28.043  1.00  0.00     0.198 A 
ATOM     94  F   UNL A   1      45.393  33.239  29.883  1.00  0.00    -0.203 F 
ATOM     95  F   UNL A   1      48.545  30.235  26.620  1.00  0.00    -0.200 F 
ATOM     96  C   UNL A   1      47.622  32.324  27.198  1.00  0.00     0.200 A 
ATOM     97  F   UNL A   1      46.722  34.395  27.873  1.00  0.00    -0.200 F 
ATOM     98  F   UNL A   1      48.294  32.920  26.203  1.00  0.00    -0.200 F 
ENDBRANCH  64  88
BRANCH  76  99
ATOM     99  C   UNL A   1      41.639  29.619  33.821  1.00  0.00     0.064 A 
ATOM    100  C   UNL A   1      41.775  30.432  34.953  1.00  0.00     0.173 A 
ATOM    101  C   UNL A   1      42.001  28.268  33.924  1.00  0.00     0.173 A 
ATOM    102  F   UNL A   1      41.436  31.730  34.898  1.00  0.00    -0.203 F 
ATOM    103  C   UNL A   1      42.227  29.904  36.156  1.00  0.00     0.198 A 
ATOM    104  C   UNL A   1      42.450  27.746  35.132  1.00  0.00     0.198 A 
ATOM    105  F   UNL A   1      41.888  27.444  32.869  1.00  0.00    -0.203 F 
ATOM    106  F   UNL A   1      42.327  30.693  37.236  1.00  0.00    -0.200 F 
ATOM    107  C   UNL A   1      42.551  28.560  36.249  1.00  0.00     0.200 A 
ATOM    108  F   UNL A   1      42.755  26.445  35.226  1.00  0.00    -0.200 F 
ATOM    109  F   UNL A   1      42.938  28.042  37.422  1.00  0.00    -0.200 F 
ENDBRANCH  76  99
ENDBRANCH  50  51
ENDBRANCH  43  45
ENDBRANCH  42  43
ENDBRANCH  41  42
ENDBRANCH  40  41
ENDBRANCH  39  40
ENDBRANCH   1  39
TORSDOF 19
ENDMDL
MODEL 2
REMARK VINA RESULT:     -13.9      2.719      8.748
REMARK SMILES Cc1oc2cc3c(cc2c1C)[C@H](C)[C@@H](CC(=O)N[C@H](CC1=c2ccccc2=NC1)C(=O)OCCOCCOC(=O)c1ccc(-c2c4nc(c(-c5c(F)c(F)c(F)c(F)c5F)c5ccc([nH]5)c(-c5c(F)c(F)c(F)c(F)c5F)c5nc(c(-c6c(F)c(F)c(F)c(F)c6F)c6ccc2[nH]6)C=C5)C=C4)cc1)C(=O)O3
REMARK SMILES IDX 34 1 33 2 32 3 30 4 31 5 19 6 18 7 16 8 17 9 15 11 14 12
REMARK SMILES IDX 1 13 2 14 3 15 10 16 4 17 9 18 11 19 5 20 8 21 6 22 7 23
REMARK SMILES IDX 106 24 12 25 104 26 13 27 105 28 20 29 21 30 22 31 29 32
REMARK SMILES IDX 23 33 27 34 28 35 24 36 26 37 25 38 35 39 36 40 37 41 38 42
REMARK SMILES IDX 39 43 40 44 41 45 42 46 103 47 43 48 102 49 44 50 45 51
REMARK SMILES IDX 46 52 96 53 47 54 101 55 95 56 97 57 48 58 100 59 94 60
REMARK SMILES IDX 93 61 49 63 81 64 61 65 80 66 62 67 65 68 79 69 98 70 63 71
REMARK SMILES IDX 64 72 78 74 99 75 66 76 50 77 51 78 59 79 52 80 53 81 57 82
REMARK SMILES IDX 60 83 54 84 55 85 58 86 56 87 82 88 83 89 91 90 84 91 85 92
REMARK SMILES IDX 89 93 92 94 86 95 87 96 90 97 88 98 67 99 68 100 76 101
REMARK SMILES IDX 69 102 70 103 74 104 77 105 71 106 72 107 75 108 73 109
REMARK H PARENT 18 10 97 62 65 73
REMARK Flexibility Score: inf
ROOT
ATOM      1  C   UNL A   1      31.418  28.579  27.247  1.00  0.00     0.202 C 
ENDROOT
BRANCH   1   2
ATOM      2  C   UNL A   1      31.360  27.019  27.242  1.00  0.00     0.261 C 
BRANCH   2   3
ATOM      3  O   UNL A   1      30.396  26.129  26.630  1.00  0.00    -0.462 OA
BRANCH   3   4
ATOM      4  C   UNL A   1      30.582  25.337  25.541  1.00  0.00     0.329 C 
ATOM      5  O   UNL A   1      30.616  24.116  25.525  1.00  0.00    -0.250 OA
BRANCH   4   6
ATOM      6  C   UNL A   1      30.701  26.206  24.264  1.00  0.00     0.196 C 
BRANCH   6   7
ATOM      7  N   UNL A   1      31.992  26.978  24.266  1.00  0.00    -0.342 N 
ATOM      8  C   UNL A   1      33.185  26.861  23.589  1.00  0.00     0.221 C 
ATOM      9  O   UNL A   1      33.997  27.769  23.810  1.00  0.00    -0.275 OA
ATOM     10  H   UNL A   1      31.982  27.738  24.892  1.00  0.00     0.164 HD
BRANCH   8  11
ATOM     11  C   UNL A   1      33.605  25.704  22.619  1.00  0.00     0.116 C 
BRANCH  11  12
ATOM     12  C   UNL A   1      33.663  24.321  23.328  1.00  0.00     0.116 C 
ATOM     13  C   UNL A   1      32.533  16.279  24.786  1.00  0.00     0.088 C 
ATOM     14  C   UNL A   1      33.097  17.647  24.885  1.00  0.00     0.105 A 
ATOM     15  O   UNL A   1      32.163  18.617  24.995  1.00  0.00    -0.461 OA
ATOM     16  C   UNL A   1      34.371  18.210  24.850  1.00  0.00    -0.002 A 
ATOM     17  C   UNL A   1      32.805  19.799  24.893  1.00  0.00     0.138 A 
ATOM     18  C   UNL A   1      34.185  19.647  24.799  1.00  0.00     0.024 A 
ATOM     19  C   UNL A   1      35.642  17.456  24.770  1.00  0.00     0.049 C 
ATOM     20  C   UNL A   1      32.132  20.988  24.750  1.00  0.00     0.095 A 
ATOM     21  C   UNL A   1      34.987  20.839  24.629  1.00  0.00     0.020 A 
ATOM     22  C   UNL A   1      32.956  21.944  24.174  1.00  0.00     0.138 A 
ATOM     23  C   UNL A   1      34.334  22.049  24.317  1.00  0.00    -0.001 A 
ATOM     24  O   UNL A   1      32.522  22.366  22.878  1.00  0.00    -0.426 OA
ATOM     25  C   UNL A   1      34.891  23.460  23.895  1.00  0.00     0.035 C 
ATOM     26  C   UNL A   1      33.281  23.338  22.286  1.00  0.00     0.315 C 
ATOM     27  C   UNL A   1      35.550  24.100  25.101  1.00  0.00     0.014 C 
ATOM     28  O   UNL A   1      33.629  23.354  21.116  1.00  0.00    -0.251 OA
ENDBRANCH  11  12
ENDBRANCH   8  11
ENDBRANCH   6   7
BRANCH   6  29
ATOM     29  C   UNL A   1      29.389  27.157  23.941  1.00  0.00     0.070 C 
BRANCH  29  30
ATOM     30  C   UNL A   1      29.161  28.102  22.690  1.00  0.00    -0.037 C 
ATOM     31  C   UNL A   1      28.410  29.240  22.745  1.00  0.00     0.001 A 
ATOM     32  C   UNL A   1      30.434  28.451  22.011  1.00  0.00     0.174 C 
ATOM     33  C   UNL A   1      27.948  30.162  21.653  1.00  0.00     0.010 A 
ATOM     34  C   UNL A   1      29.567  30.013  23.255  1.00  0.00     0.065 A 
ATOM     35  N   UNL A   1      30.713  29.695  22.725  1.00  0.00    -0.280 NA
ATOM     36  C   UNL A   1      28.014  31.507  21.860  1.00  0.00     0.001 A 
ATOM     37  C   UNL A   1      29.187  31.252  23.957  1.00  0.00     0.028 A 
ATOM     38  C   UNL A   1      28.436  32.028  23.161  1.00  0.00     0.002 A 
ENDBRANCH  29  30
ENDBRANCH   6  29
ENDBRANCH   4   6
ENDBRANCH   3   4
ENDBRANCH   2   3
ENDBRANCH   1   2
BRANCH   1  39
ATOM     39  O   UNL A   1      31.476  29.393  26.105  1.00  0.00    -0.374 OA
BRANCH  39  40
ATOM     40  C   UNL A   1      32.590  30.243  25.988  1.00  0.00     0.202 C 
BRANCH  40  41
ATOM     41  C   UNL A   1      33.057  31.040  27.222  1.00  0.00     0.261 C 
BRANCH  41  42
ATOM     42  O   UNL A   1      34.451  30.838  27.548  1.00  0.00    -0.460 OA
BRANCH  42  43
ATOM     43  C   UNL A   1      35.233  31.933  27.731  1.00  0.00     0.338 C 
ATOM     44  O   UNL A   1      34.942  33.080  27.551  1.00  0.00    -0.246 OA
BRANCH  43  45
ATOM     45  C   UNL A   1      36.462  31.493  28.452  1.00  0.00     0.060 A 
ATOM     46  C   UNL A   1      36.865  32.036  29.674  1.00  0.00     0.016 A 
ATOM     47  C   UNL A   1      37.251  30.521  27.830  1.00  0.00     0.016 A 
ATOM     48  C   UNL A   1      38.029  31.557  30.302  1.00  0.00     0.010 A 
ATOM     49  C   UNL A   1      38.437  30.094  28.424  1.00  0.00     0.010 A 
ATOM     50  C   UNL A   1      38.808  30.556  29.696  1.00  0.00    -0.014 A 
BRANCH  50  51
ATOM     51  C   UNL A   1      39.805  29.804  30.506  1.00  0.00     0.031 A 
ATOM     52  C   UNL A   1      39.877  28.341  30.167  1.00  0.00     0.074 A 
ATOM     53  C   UNL A   1      40.889  30.341  31.110  1.00  0.00     0.049 A 
ATOM     54  N   UNL A   1      40.604  27.881  29.187  1.00  0.00    -0.248 NA
ATOM     55  C   UNL A   1      38.905  27.375  30.677  1.00  0.00     0.031 C 
ATOM     56  C   UNL A   1      41.675  31.446  30.551  1.00  0.00     0.029 A 
ATOM     57  N   UNL A   1      41.659  29.868  32.155  1.00  0.00    -0.354 N 
ATOM     58  C   UNL A   1      40.138  26.613  28.888  1.00  0.00     0.074 A 
ATOM     59  C   UNL A   1      39.105  26.329  29.859  1.00  0.00     0.031 C 
ATOM     60  C   UNL A   1      42.891  31.445  31.139  1.00  0.00     0.029 A 
ATOM     61  C   UNL A   1      42.924  30.448  32.210  1.00  0.00     0.049 A 
ATOM     62  H   UNL A   1      41.345  29.189  32.795  1.00  0.00     0.167 HD
ATOM     63  C   UNL A   1      40.601  25.883  27.837  1.00  0.00     0.037 A 
ATOM     64  C   UNL A   1      44.053  29.818  32.646  1.00  0.00     0.037 A 
ATOM     65  C   UNL A   1      41.619  26.502  27.043  1.00  0.00     0.049 A 
ATOM     66  C   UNL A   1      44.305  28.858  31.510  1.00  0.00     0.074 A 
ATOM     67  C   UNL A   1      41.704  27.209  25.862  1.00  0.00     0.029 A 
ATOM     68  N   UNL A   1      42.907  26.471  27.519  1.00  0.00    -0.354 N 
ATOM     69  N   UNL A   1      44.854  29.144  30.360  1.00  0.00    -0.248 NA
ATOM     70  C   UNL A   1      43.595  27.578  31.548  1.00  0.00     0.031 C 
ATOM     71  C   UNL A   1      42.920  27.959  25.956  1.00  0.00     0.029 A 
ATOM     72  C   UNL A   1      43.473  27.679  27.204  1.00  0.00     0.049 A 
ATOM     73  H   UNL A   1      43.340  25.726  27.995  1.00  0.00     0.167 HD
ATOM     74  C   UNL A   1      44.325  28.213  29.462  1.00  0.00     0.074 A 
ATOM     75  C   UNL A   1      43.596  27.255  30.263  1.00  0.00     0.031 C 
ATOM     76  C   UNL A   1      44.350  28.380  28.109  1.00  0.00     0.037 A 
BRANCH  63  77
ATOM     77  C   UNL A   1      40.267  24.471  27.576  1.00  0.00     0.064 A 
ATOM     78  C   UNL A   1      41.155  23.498  28.060  1.00  0.00     0.173 A 
ATOM     79  C   UNL A   1      39.264  24.071  26.690  1.00  0.00     0.173 A 
ATOM     80  F   UNL A   1      42.143  23.853  28.899  1.00  0.00    -0.203 F 
ATOM     81  C   UNL A   1      41.077  22.178  27.638  1.00  0.00     0.198 A 
ATOM     82  C   UNL A   1      39.180  22.740  26.276  1.00  0.00     0.198 A 
ATOM     83  F   UNL A   1      38.404  24.969  26.189  1.00  0.00    -0.203 F 
ATOM     84  F   UNL A   1      41.975  21.286  28.074  1.00  0.00    -0.200 F 
ATOM     85  C   UNL A   1      40.094  21.801  26.737  1.00  0.00     0.200 A 
ATOM     86  F   UNL A   1      38.235  22.369  25.401  1.00  0.00    -0.200 F 
ATOM     87  F   UNL A   1      40.041  20.535  26.301  1.00  0.00    -0.200 F 
ENDBRANCH  63  77
BRANCH  64  88
ATOM     88  C   UNL A   1      44.085  29.401  34.088  1.00  0.00     0.064 A 
ATOM     89  C   UNL A   1      45.049  28.455  34.495  1.00  0.00     0.173 A 
ATOM     90  C   UNL A   1      43.218  29.856  35.094  1.00  0.00     0.173 A 
ATOM     91  F   UNL A   1      45.833  27.857  33.585  1.00  0.00    -0.203 F 
ATOM     92  C   UNL A   1      45.227  28.103  35.834  1.00  0.00     0.198 A 
ATOM     93  C   UNL A   1      43.415  29.532  36.440  1.00  0.00     0.198 A 
ATOM     94  F   UNL A   1      42.166  30.634  34.804  1.00  0.00    -0.203 F 
ATOM     95  F   UNL A   1      46.183  27.228  36.176  1.00  0.00    -0.200 F 
ATOM     96  C   UNL A   1      44.433  28.673  36.812  1.00  0.00     0.200 A 
ATOM     97  F   UNL A   1      42.625  30.075  37.377  1.00  0.00    -0.200 F 
ATOM     98  F   UNL A   1      44.642  28.391  38.105  1.00  0.00    -0.200 F 
ENDBRANCH  64  88
BRANCH  76  99
ATOM     99  C   UNL A   1      45.158  29.527  27.622  1.00  0.00     0.064 A 
ATOM    100  C   UNL A   1      46.529  29.362  27.395  1.00  0.00     0.173 A 
ATOM    101  C   UNL A   1      44.581  30.775  27.345  1.00  0.00     0.173 A 
ATOM    102  F   UNL A   1      47.119  28.182  27.643  1.00  0.00    -0.203 F 
ATOM    103  C   UNL A   1      47.293  30.401  26.878  1.00  0.00     0.198 A 
ATOM    104  C   UNL A   1      45.351  31.809  26.825  1.00  0.00     0.198 A 
ATOM    105  F   UNL A   1      43.270  30.986  27.542  1.00  0.00    -0.203 F 
ATOM    106  F   UNL A   1      48.601  30.216  26.643  1.00  0.00    -0.200 F 
ATOM    107  C   UNL A   1      46.702  31.619  26.580  1.00  0.00     0.200 A 
ATOM    108  F   UNL A   1      44.780  32.984  26.528  1.00  0.00    -0.200 F 
ATOM    109  F   UNL A   1      47.429  32.603  26.034  1.00  0.00    -0.200 F 
ENDBRANCH  76  99
ENDBRANCH  50  51
ENDBRANCH  43  45
ENDBRANCH  42  43
ENDBRANCH  41  42
ENDBRANCH  40  41
ENDBRANCH  39  40
ENDBRANCH   1  39
TORSDOF 19
ENDMDL
MODEL 3
REMARK VINA RESULT:     -12.5      2.858      8.699
REMARK SMILES Cc1oc2cc3c(cc2c1C)[C@H](C)[C@@H](CC(=O)N[C@H](CC1=c2ccccc2=NC1)C(=O)OCCOCCOC(=O)c1ccc(-c2c4nc(c(-c5c(F)c(F)c(F)c(F)c5F)c5ccc([nH]5)c(-c5c(F)c(F)c(F)c(F)c5F)c5nc(c(-c6c(F)c(F)c(F)c(F)c6F)c6ccc2[nH]6)C=C5)C=C4)cc1)C(=O)O3
REMARK SMILES IDX 34 1 33 2 32 3 30 4 31 5 19 6 18 7 16 8 17 9 15 11 14 12
REMARK SMILES IDX 1 13 2 14 3 15 10 16 4 17 9 18 11 19 5 20 8 21 6 22 7 23
REMARK SMILES IDX 106 24 12 25 104 26 13 27 105 28 20 29 21 30 22 31 29 32
REMARK SMILES IDX 23 33 27 34 28 35 24 36 26 37 25 38 35 39 36 40 37 41 38 42
REMARK SMILES IDX 39 43 40 44 41 45 42 46 103 47 43 48 102 49 44 50 45 51
REMARK SMILES IDX 46 52 96 53 47 54 101 55 95 56 97 57 48 58 100 59 94 60
REMARK SMILES IDX 93 61 49 63 81 64 61 65 80 66 62 67 65 68 79 69 98 70 63 71
REMARK SMILES IDX 64 72 78 74 99 75 66 76 50 77 51 78 59 79 52 80 53 81 57 82
REMARK SMILES IDX 60 83 54 84 55 85 58 86 56 87 82 88 83 89 91 90 84 91 85 92
REMARK SMILES IDX 89 93 92 94 86 95 87 96 90 97 88 98 67 99 68 100 76 101
REMARK SMILES IDX 69 102 70 103 74 104 77 105 71 106 72 107 75 108 73 109
REMARK H PARENT 18 10 97 62 65 73
REMARK Flexibility Score: inf
ROOT
ATOM      1  C   UNL A   1      31.705  29.271  27.212  1.00  0.00     0.202 C 
ENDROOT
BRANCH   1   2
ATOM      2  C   UNL A   1      31.442  27.807  27.687  1.00  0.00     0.261 C 
BRANCH   2   3
ATOM      3  O   UNL A   1      30.677  26.752  27.058  1.00  0.00    -0.462 OA
BRANCH   3   4
ATOM      4  C   UNL A   1      31.126  25.828  26.167  1.00  0.00     0.329 C 
ATOM      5  O   UNL A   1      31.479  24.686  26.418  1.00  0.00    -0.250 OA
BRANCH   4   6
ATOM      6  C   UNL A   1      31.086  26.408  24.731  1.00  0.00     0.196 C 
BRANCH   6   7
ATOM      7  N   UNL A   1      32.297  27.263  24.470  1.00  0.00    -0.342 N 
ATOM      8  C   UNL A   1      33.358  27.188  23.598  1.00  0.00     0.221 C 
ATOM      9  O   UNL A   1      34.127  28.159  23.632  1.00  0.00    -0.275 OA
ATOM     10  H   UNL A   1      32.339  28.054  25.056  1.00  0.00     0.164 HD
BRANCH   8  11
ATOM     11  C   UNL A   1      33.689  26.010  22.619  1.00  0.00     0.116 C 
BRANCH  11  12
ATOM     12  C   UNL A   1      33.722  24.629  23.335  1.00  0.00     0.116 C 
ATOM     13  C   UNL A   1      32.185  16.695  24.997  1.00  0.00     0.088 C 
ATOM     14  C   UNL A   1      32.852  18.020  25.021  1.00  0.00     0.105 A 
ATOM     15  O   UNL A   1      32.004  19.055  25.215  1.00  0.00    -0.461 OA
ATOM     16  C   UNL A   1      34.151  18.491  24.849  1.00  0.00    -0.002 A 
ATOM     17  C   UNL A   1      32.714  20.188  25.033  1.00  0.00     0.138 A 
ATOM     18  C   UNL A   1      34.063  19.937  24.800  1.00  0.00     0.024 A 
ATOM     19  C   UNL A   1      35.351  17.648  24.647  1.00  0.00     0.049 C 
ATOM     20  C   UNL A   1      32.115  21.420  24.946  1.00  0.00     0.095 A 
ATOM     21  C   UNL A   1      34.925  21.068  24.534  1.00  0.00     0.020 A 
ATOM     22  C   UNL A   1      32.941  22.313  24.278  1.00  0.00     0.138 A 
ATOM     23  C   UNL A   1      34.330  22.320  24.276  1.00  0.00    -0.001 A 
ATOM     24  O   UNL A   1      32.406  22.759  23.027  1.00  0.00    -0.426 OA
ATOM     25  C   UNL A   1      34.938  23.685  23.783  1.00  0.00     0.035 C 
ATOM     26  C   UNL A   1      33.166  23.671  22.349  1.00  0.00     0.315 C 
ATOM     27  C   UNL A   1      35.762  24.283  24.907  1.00  0.00     0.014 C 
ATOM     28  O   UNL A   1      33.392  23.658  21.149  1.00  0.00    -0.251 OA
ENDBRANCH  11  12
ENDBRANCH   8  11
ENDBRANCH   6   7
BRANCH   6  29
ATOM     29  C   UNL A   1      29.674  27.160  24.319  1.00  0.00     0.070 C 
BRANCH  29  30
ATOM     30  C   UNL A   1      29.350  27.952  22.987  1.00  0.00    -0.037 C 
ATOM     31  C   UNL A   1      28.539  29.049  22.953  1.00  0.00     0.001 A 
ATOM     32  C   UNL A   1      30.576  28.291  22.223  1.00  0.00     0.174 C 
ATOM     33  C   UNL A   1      27.988  29.824  21.789  1.00  0.00     0.010 A 
ATOM     34  C   UNL A   1      29.669  29.930  23.330  1.00  0.00     0.065 A 
ATOM     35  N   UNL A   1      30.812  29.617  22.790  1.00  0.00    -0.280 NA
ATOM     36  C   UNL A   1      27.987  31.185  21.851  1.00  0.00     0.001 A 
ATOM     37  C   UNL A   1      29.246  31.217  23.913  1.00  0.00     0.028 A 
ATOM     38  C   UNL A   1      28.426  31.864  23.071  1.00  0.00     0.002 A 
ENDBRANCH  29  30
ENDBRANCH   6  29
ENDBRANCH   4   6
ENDBRANCH   3   4
ENDBRANCH   2   3
ENDBRANCH   1   2
BRANCH   1  39
ATOM     39  O   UNL A   1      32.932  29.765  26.744  1.00  0.00    -0.374 OA
BRANCH  39  40
ATOM     40  C   UNL A   1      33.381  30.978  27.295  1.00  0.00     0.202 C 
BRANCH  40  41
ATOM     41  C   UNL A   1      34.895  31.200  27.486  1.00  0.00     0.261 C 
BRANCH  41  42
ATOM     42  O   UNL A   1      35.223  32.479  28.072  1.00  0.00    -0.460 OA
BRANCH  42  43
ATOM     43  C   UNL A   1      35.239  32.580  29.426  1.00  0.00     0.338 C 
ATOM     44  O   UNL A   1      34.302  32.676  30.164  1.00  0.00    -0.246 OA
BRANCH  43  45
ATOM     45  C   UNL A   1      36.629  32.294  29.883  1.00  0.00     0.060 A 
ATOM     46  C   UNL A   1      37.252  32.997  30.917  1.00  0.00     0.016 A 
ATOM     47  C   UNL A   1      37.331  31.297  29.199  1.00  0.00     0.016 A 
ATOM     48  C   UNL A   1      38.561  32.657  31.304  1.00  0.00     0.010 A 
ATOM     49  C   UNL A   1      38.650  31.006  29.544  1.00  0.00     0.010 A 
ATOM     50  C   UNL A   1      39.260  31.634  30.641  1.00  0.00    -0.014 A 
BRANCH  50  51
ATOM     51  C   UNL A   1      40.469  31.036  31.271  1.00  0.00     0.031 A 
ATOM     52  C   UNL A   1      40.724  29.613  30.856  1.00  0.00     0.074 A 
ATOM     53  C   UNL A   1      41.527  31.729  31.747  1.00  0.00     0.049 A 
ATOM     54  N   UNL A   1      41.369  29.305  29.765  1.00  0.00    -0.248 NA
ATOM     55  C   UNL A   1      40.000  28.488  31.447  1.00  0.00     0.031 C 
ATOM     56  C   UNL A   1      42.040  32.961  31.140  1.00  0.00     0.029 A 
ATOM     57  N   UNL A   1      42.504  31.362  32.654  1.00  0.00    -0.354 N 
ATOM     58  C   UNL A   1      41.073  27.985  29.472  1.00  0.00     0.074 A 
ATOM     59  C   UNL A   1      40.246  27.510  30.560  1.00  0.00     0.031 C 
ATOM     60  C   UNL A   1      43.312  33.146  31.556  1.00  0.00     0.029 A 
ATOM     61  C   UNL A   1      43.655  32.141  32.564  1.00  0.00     0.049 A 
ATOM     62  H   UNL A   1      42.396  30.625  33.297  1.00  0.00     0.167 HD
ATOM     63  C   UNL A   1      41.492  27.367  28.335  1.00  0.00     0.037 A 
ATOM     64  C   UNL A   1      44.920  31.695  32.811  1.00  0.00     0.037 A 
ATOM     65  C   UNL A   1      42.275  28.164  27.440  1.00  0.00     0.049 A 
ATOM     66  C   UNL A   1      45.158  30.818  31.608  1.00  0.00     0.074 A 
ATOM     67  C   UNL A   1      42.079  28.906  26.294  1.00  0.00     0.029 A 
ATOM     68  N   UNL A   1      43.607  28.334  27.734  1.00  0.00    -0.354 N 
ATOM     69  N   UNL A   1      45.486  31.219  30.408  1.00  0.00    -0.248 NA
ATOM     70  C   UNL A   1      44.674  29.438  31.681  1.00  0.00     0.031 C 
ATOM     71  C   UNL A   1      43.161  29.843  26.257  1.00  0.00     0.029 A 
ATOM     72  C   UNL A   1      43.922  29.626  27.403  1.00  0.00     0.049 A 
ATOM     73  H   UNL A   1      44.215  27.658  28.111  1.00  0.00     0.167 HD
ATOM     74  C   UNL A   1      44.990  30.237  29.547  1.00  0.00     0.074 A 
ATOM     75  C   UNL A   1      44.543  29.152  30.394  1.00  0.00     0.031 C 
ATOM     76  C   UNL A   1      44.795  30.439  28.213  1.00  0.00     0.037 A 
BRANCH  63  77
ATOM     77  C   UNL A   1      41.354  25.926  28.055  1.00  0.00     0.064 A 
ATOM     78  C   UNL A   1      40.139  25.490  27.505  1.00  0.00     0.173 A 
ATOM     79  C   UNL A   1      42.255  24.965  28.517  1.00  0.00     0.173 A 
ATOM     80  F   UNL A   1      39.242  26.390  27.068  1.00  0.00    -0.203 F 
ATOM     81  C   UNL A   1      39.812  24.141  27.461  1.00  0.00     0.198 A 
ATOM     82  C   UNL A   1      41.929  23.608  28.462  1.00  0.00     0.198 A 
ATOM     83  F   UNL A   1      43.421  25.336  29.066  1.00  0.00    -0.203 F 
ATOM     84  F   UNL A   1      38.620  23.761  26.983  1.00  0.00    -0.200 F 
ATOM     85  C   UNL A   1      40.704  23.201  27.949  1.00  0.00     0.200 A 
ATOM     86  F   UNL A   1      42.786  22.693  28.937  1.00  0.00    -0.200 F 
ATOM     87  F   UNL A   1      40.373  21.902  27.941  1.00  0.00    -0.200 F 
ENDBRANCH  63  77
BRANCH  64  88
ATOM     88  C   UNL A   1      45.222  31.253  34.214  1.00  0.00     0.064 A 
ATOM     89  C   UNL A   1      46.285  31.875  34.903  1.00  0.00     0.173 A 
ATOM     90  C   UNL A   1      44.548  30.244  34.921  1.00  0.00     0.173 A 
ATOM     91  F   UNL A   1      47.077  32.753  34.269  1.00  0.00    -0.203 F 
ATOM     92  C   UNL A   1      46.556  31.611  36.247  1.00  0.00     0.198 A 
ATOM     93  C   UNL A   1      44.795  30.001  36.276  1.00  0.00     0.198 A 
ATOM     94  F   UNL A   1      43.626  29.476  34.324  1.00  0.00    -0.203 F 
ATOM     95  F   UNL A   1      47.552  32.256  36.869  1.00  0.00    -0.200 F 
ATOM     96  C   UNL A   1      45.784  30.700  36.944  1.00  0.00     0.200 A 
ATOM     97  F   UNL A   1      44.053  29.101  36.936  1.00  0.00    -0.200 F 
ATOM     98  F   UNL A   1      45.996  30.491  38.251  1.00  0.00    -0.200 F 
ENDBRANCH  64  88
BRANCH  76  99
ATOM     99  C   UNL A   1      45.333  31.715  27.676  1.00  0.00     0.064 A 
ATOM    100  C   UNL A   1      44.536  32.866  27.694  1.00  0.00     0.173 A 
ATOM    101  C   UNL A   1      46.639  31.816  27.176  1.00  0.00     0.173 A 
ATOM    102  F   UNL A   1      43.281  32.812  28.168  1.00  0.00    -0.203 F 
ATOM    103  C   UNL A   1      45.039  34.085  27.257  1.00  0.00     0.198 A 
ATOM    104  C   UNL A   1      47.138  33.040  26.743  1.00  0.00     0.198 A 
ATOM    105  F   UNL A   1      47.446  30.743  27.139  1.00  0.00    -0.203 F 
ATOM    106  F   UNL A   1      44.270  35.182  27.305  1.00  0.00    -0.200 F 
ATOM    107  C   UNL A   1      46.343  34.174  26.795  1.00  0.00     0.200 A 
ATOM    108  F   UNL A   1      48.400  33.131  26.304  1.00  0.00    -0.200 F 
ATOM    109  F   UNL A   1      46.843  35.360  26.421  1.00  0.00    -0.200 F 
ENDBRANCH  76  99
ENDBRANCH  50  51
ENDBRANCH  43  45
ENDBRANCH  42  43
ENDBRANCH  41  42
ENDBRANCH  40  41
ENDBRANCH  39  40
ENDBRANCH   1  39
TORSDOF 19
ENDMDL
