MODEL 1
REMARK VINA RESULT:     -11.4      0.000      0.000
REMARK SMILES Cc1cc(C)c(C(N)=O)c(N[C@H]2C=C[C@H](C(=O)OCCOCCOC(=O)c3ccc(-c4c5nc(c(-c6c(F)c(F)c(F)c(F)c6F)c6ccc([nH]6)c(-c6c(F)c(F)c(F)c(F)c6F)c6nc(c(-c7c(F)c(F)c(F)c(F)c7F)c7ccc4[nH]7)C=C6)C=C5)cc3)C2)n1
REMARK SMILES IDX 20 1 19 2 18 3 16 4 17 5 15 6 12 7 13 8 90 9 14 10 11 11
REMARK SMILES IDX 10 13 1 14 2 15 3 16 91 17 4 18 5 19 6 20 7 21 8 22 9 23
REMARK SMILES IDX 21 26 22 27 23 28 24 29 25 30 26 31 27 32 28 33 89 34 29 35
REMARK SMILES IDX 88 36 30 37 31 38 32 39 82 40 33 41 87 42 81 43 83 44 34 45
REMARK SMILES IDX 86 46 80 47 79 48 35 50 67 51 47 52 66 53 48 54 51 55 65 56
REMARK SMILES IDX 84 57 49 58 50 59 64 61 85 62 52 63 36 64 37 65 45 66 38 67
REMARK SMILES IDX 39 68 43 69 46 70 40 71 41 72 44 73 42 74 68 75 69 76 77 77
REMARK SMILES IDX 70 78 71 79 75 80 78 81 72 82 73 83 76 84 74 85 53 86 54 87
REMARK SMILES IDX 62 88 55 89 56 90 60 91 63 92 57 93 58 94 61 95 59 96
REMARK H PARENT 11 12 8 24 8 25 83 49 51 60
REMARK Flexibility Score: inf
ROOT
ATOM      1  C   UNL A   1      33.116  29.575  26.063  1.00  0.00     0.202 C 
ENDROOT
BRANCH   1   2
ATOM      2  C   UNL A   1      32.829  28.421  25.100  1.00  0.00     0.261 C 
BRANCH   2   3
ATOM      3  O   UNL A   1      32.011  27.439  25.753  1.00  0.00    -0.463 OA
BRANCH   3   4
ATOM      4  C   UNL A   1      30.923  27.021  25.048  1.00  0.00     0.312 C 
ATOM      5  O   UNL A   1      30.316  27.690  24.222  1.00  0.00    -0.252 OA
BRANCH   4   6
ATOM      6  C   UNL A   1      30.635  25.559  25.355  1.00  0.00     0.124 C 
ATOM      7  C   UNL A   1      32.747  24.386  25.571  1.00  0.00     0.104 C 
ATOM      8  C   UNL A   1      32.073  24.054  24.279  1.00  0.00    -0.006 C 
ATOM      9  C   UNL A   1      31.648  25.056  26.399  1.00  0.00     0.048 C 
ATOM     10  C   UNL A   1      30.906  24.700  24.160  1.00  0.00    -0.014 C 
BRANCH   7  11
ATOM     11  N   UNL A   1      33.353  23.239  26.212  1.00  0.00    -0.363 N 
ATOM     12  H   UNL A   1      32.826  22.775  26.904  1.00  0.00     0.162 HD
BRANCH  11  13
ATOM     13  C   UNL A   1      34.617  22.739  25.929  1.00  0.00     0.139 A 
ATOM     14  C   UNL A   1      38.045  24.080  26.122  1.00  0.00     0.067 C 
ATOM     15  C   UNL A   1      36.924  23.108  25.904  1.00  0.00     0.040 A 
ATOM     16  C   UNL A   1      37.179  21.824  25.454  1.00  0.00     0.028 A 
ATOM     17  N   UNL A   1      35.675  23.550  26.154  1.00  0.00    -0.236 NA
ATOM     18  C   UNL A   1      36.109  20.946  25.246  1.00  0.00    -0.033 A 
ATOM     19  C   UNL A   1      36.426  19.554  24.772  1.00  0.00     0.045 C 
ATOM     20  C   UNL A   1      34.800  21.421  25.465  1.00  0.00     0.084 A 
BRANCH  20  21
ATOM     21  C   UNL A   1      33.629  20.543  25.174  1.00  0.00     0.252 C 
ATOM     22  N   UNL A   1      33.279  19.627  26.128  1.00  0.00    -0.365 N 
ATOM     23  O   UNL A   1      32.992  20.628  24.132  1.00  0.00    -0.269 OA
ATOM     24  H   UNL A   1      33.795  19.564  26.963  1.00  0.00     0.159 HD
ATOM     25  H   UNL A   1      32.510  19.031  25.978  1.00  0.00     0.159 HD
ENDBRANCH  20  21
ENDBRANCH  11  13
ENDBRANCH   7  11
ENDBRANCH   4   6
ENDBRANCH   3   4
ENDBRANCH   2   3
ENDBRANCH   1   2
BRANCH   1  26
ATOM     26  O   UNL A   1      31.969  30.137  26.704  1.00  0.00    -0.374 OA
BRANCH  26  27
ATOM     27  C   UNL A   1      31.399  31.315  26.129  1.00  0.00     0.202 C 
BRANCH  27  28
ATOM     28  C   UNL A   1      31.804  32.645  26.772  1.00  0.00     0.261 C 
BRANCH  28  29
ATOM     29  O   UNL A   1      32.698  32.447  27.884  1.00  0.00    -0.460 OA
BRANCH  29  30
ATOM     30  C   UNL A   1      33.721  33.329  27.954  1.00  0.00     0.338 C 
ATOM     31  O   UNL A   1      33.654  34.549  27.936  1.00  0.00    -0.246 OA
BRANCH  30  32
ATOM     32  C   UNL A   1      34.981  32.620  28.241  1.00  0.00     0.060 A 
ATOM     33  C   UNL A   1      34.896  31.257  28.549  1.00  0.00     0.016 A 
ATOM     34  C   UNL A   1      36.204  33.290  28.305  1.00  0.00     0.016 A 
ATOM     35  C   UNL A   1      36.025  30.569  28.986  1.00  0.00     0.010 A 
ATOM     36  C   UNL A   1      37.336  32.601  28.754  1.00  0.00     0.010 A 
ATOM     37  C   UNL A   1      37.239  31.250  29.138  1.00  0.00    -0.014 A 
BRANCH  37  38
ATOM     38  C   UNL A   1      38.347  30.595  29.872  1.00  0.00     0.031 A 
ATOM     39  C   UNL A   1      38.567  30.952  31.317  1.00  0.00     0.074 A 
ATOM     40  C   UNL A   1      39.116  29.664  29.280  1.00  0.00     0.049 A 
ATOM     41  N   UNL A   1      39.476  30.519  32.152  1.00  0.00    -0.248 NA
ATOM     42  C   UNL A   1      37.632  31.929  31.897  1.00  0.00     0.031 C 
ATOM     43  C   UNL A   1      38.973  29.205  27.901  1.00  0.00     0.029 A 
ATOM     44  N   UNL A   1      40.175  28.943  29.770  1.00  0.00    -0.354 N 
ATOM     45  C   UNL A   1      39.226  31.173  33.351  1.00  0.00     0.074 A 
ATOM     46  C   UNL A   1      38.099  32.053  33.130  1.00  0.00     0.031 C 
ATOM     47  C   UNL A   1      39.919  28.282  27.650  1.00  0.00     0.029 A 
ATOM     48  C   UNL A   1      40.746  28.108  28.843  1.00  0.00     0.049 A 
ATOM     49  H   UNL A   1      40.495  29.018  30.699  1.00  0.00     0.167 HD
ATOM     50  C   UNL A   1      39.872  31.044  34.535  1.00  0.00     0.037 A 
ATOM     51  C   UNL A   1      41.826  27.307  28.946  1.00  0.00     0.037 A 
ATOM     52  C   UNL A   1      40.989  30.165  34.757  1.00  0.00     0.049 A 
ATOM     53  C   UNL A   1      42.566  27.228  30.256  1.00  0.00     0.074 A 
ATOM     54  C   UNL A   1      41.705  29.955  35.921  1.00  0.00     0.029 A 
ATOM     55  N   UNL A   1      41.556  29.354  33.785  1.00  0.00    -0.354 N 
ATOM     56  N   UNL A   1      42.310  27.834  31.391  1.00  0.00    -0.248 NA
ATOM     57  C   UNL A   1      43.742  26.347  30.300  1.00  0.00     0.031 C 
ATOM     58  C   UNL A   1      42.733  29.047  35.644  1.00  0.00     0.029 A 
ATOM     59  C   UNL A   1      42.626  28.656  34.319  1.00  0.00     0.049 A 
ATOM     60  H   UNL A   1      41.244  29.284  32.854  1.00  0.00     0.167 HD
ATOM     61  C   UNL A   1      43.271  27.386  32.288  1.00  0.00     0.074 A 
ATOM     62  C   UNL A   1      44.110  26.451  31.570  1.00  0.00     0.031 C 
ATOM     63  C   UNL A   1      43.442  27.718  33.592  1.00  0.00     0.037 A 
BRANCH  50  64
ATOM     64  C   UNL A   1      39.397  31.892  35.676  1.00  0.00     0.064 A 
ATOM     65  C   UNL A   1      38.427  31.435  36.580  1.00  0.00     0.173 A 
ATOM     66  C   UNL A   1      39.939  33.170  35.884  1.00  0.00     0.173 A 
ATOM     67  F   UNL A   1      37.867  30.227  36.416  1.00  0.00    -0.203 F 
ATOM     68  C   UNL A   1      38.001  32.235  37.638  1.00  0.00     0.198 A 
ATOM     69  C   UNL A   1      39.528  33.957  36.957  1.00  0.00     0.198 A 
ATOM     70  F   UNL A   1      40.871  33.653  35.048  1.00  0.00    -0.203 F 
ATOM     71  F   UNL A   1      37.041  31.796  38.464  1.00  0.00    -0.200 F 
ATOM     72  C   UNL A   1      38.556  33.492  37.828  1.00  0.00     0.200 A 
ATOM     73  F   UNL A   1      40.073  35.166  37.145  1.00  0.00    -0.200 F 
ATOM     74  F   UNL A   1      38.148  34.258  38.849  1.00  0.00    -0.200 F 
ENDBRANCH  50  64
BRANCH  51  75
ATOM     75  C   UNL A   1      42.278  26.520  27.771  1.00  0.00     0.064 A 
ATOM     76  C   UNL A   1      41.736  25.259  27.492  1.00  0.00     0.173 A 
ATOM     77  C   UNL A   1      43.278  27.006  26.914  1.00  0.00     0.173 A 
ATOM     78  F   UNL A   1      40.797  24.740  28.298  1.00  0.00    -0.203 F 
ATOM     79  C   UNL A   1      42.187  24.505  26.409  1.00  0.00     0.198 A 
ATOM     80  C   UNL A   1      43.710  26.263  25.817  1.00  0.00     0.198 A 
ATOM     81  F   UNL A   1      43.831  28.207  27.140  1.00  0.00    -0.203 F 
ATOM     82  F   UNL A   1      41.684  23.283  26.191  1.00  0.00    -0.200 F 
ATOM     83  C   UNL A   1      43.169  25.010  25.570  1.00  0.00     0.200 A 
ATOM     84  F   UNL A   1      44.651  26.759  25.003  1.00  0.00    -0.200 F 
ATOM     85  F   UNL A   1      43.602  24.286  24.529  1.00  0.00    -0.200 F 
ENDBRANCH  51  75
BRANCH  63  86
ATOM     86  C   UNL A   1      44.552  27.037  34.338  1.00  0.00     0.064 A 
ATOM     87  C   UNL A   1      45.836  27.595  34.419  1.00  0.00     0.173 A 
ATOM     88  C   UNL A   1      44.312  25.834  35.020  1.00  0.00     0.173 A 
ATOM     89  F   UNL A   1      46.118  28.735  33.772  1.00  0.00    -0.203 F 
ATOM     90  C   UNL A   1      46.846  26.961  35.137  1.00  0.00     0.198 A 
ATOM     91  C   UNL A   1      45.317  25.218  35.759  1.00  0.00     0.198 A 
ATOM     92  F   UNL A   1      43.098  25.264  34.980  1.00  0.00    -0.203 F 
ATOM     93  F   UNL A   1      48.077  27.489  35.166  1.00  0.00    -0.200 F 
ATOM     94  C   UNL A   1      46.585  25.777  35.812  1.00  0.00     0.200 A 
ATOM     95  F   UNL A   1      45.058  24.081  36.422  1.00  0.00    -0.200 F 
ATOM     96  F   UNL A   1      47.556  25.173  36.509  1.00  0.00    -0.200 F 
ENDBRANCH  63  86
ENDBRANCH  37  38
ENDBRANCH  30  32
ENDBRANCH  29  30
ENDBRANCH  28  29
ENDBRANCH  27  28
ENDBRANCH  26  27
ENDBRANCH   1  26
TORSDOF 17
ENDMDL
MODEL 2
REMARK VINA RESULT:     -11.3      4.741     10.393
REMARK SMILES Cc1cc(C)c(C(N)=O)c(N[C@H]2C=C[C@H](C(=O)OCCOCCOC(=O)c3ccc(-c4c5nc(c(-c6c(F)c(F)c(F)c(F)c6F)c6ccc([nH]6)c(-c6c(F)c(F)c(F)c(F)c6F)c6nc(c(-c7c(F)c(F)c(F)c(F)c7F)c7ccc4[nH]7)C=C6)C=C5)cc3)C2)n1
REMARK SMILES IDX 20 1 19 2 18 3 16 4 17 5 15 6 12 7 13 8 90 9 14 10 11 11
REMARK SMILES IDX 10 13 1 14 2 15 3 16 91 17 4 18 5 19 6 20 7 21 8 22 9 23
REMARK SMILES IDX 21 26 22 27 23 28 24 29 25 30 26 31 27 32 28 33 89 34 29 35
REMARK SMILES IDX 88 36 30 37 31 38 32 39 82 40 33 41 87 42 81 43 83 44 34 45
REMARK SMILES IDX 86 46 80 47 79 48 35 50 67 51 47 52 66 53 48 54 51 55 65 56
REMARK SMILES IDX 84 57 49 58 50 59 64 61 85 62 52 63 36 64 37 65 45 66 38 67
REMARK SMILES IDX 39 68 43 69 46 70 40 71 41 72 44 73 42 74 68 75 69 76 77 77
REMARK SMILES IDX 70 78 71 79 75 80 78 81 72 82 73 83 76 84 74 85 53 86 54 87
REMARK SMILES IDX 62 88 55 89 56 90 60 91 63 92 57 93 58 94 61 95 59 96
REMARK H PARENT 11 12 8 24 8 25 83 49 51 60
REMARK Flexibility Score: inf
ROOT
ATOM      1  C   UNL A   1      38.177  23.472  26.112  1.00  0.00     0.202 C 
ENDROOT
BRANCH   1   2
ATOM      2  C   UNL A   1      36.941  23.545  25.214  1.00  0.00     0.261 C 
BRANCH   2   3
ATOM      3  O   UNL A   1      35.772  23.757  26.018  1.00  0.00    -0.463 OA
BRANCH   3   4
ATOM      4  C   UNL A   1      34.771  22.849  25.849  1.00  0.00     0.312 C 
ATOM      5  O   UNL A   1      34.724  21.744  26.376  1.00  0.00    -0.252 OA
BRANCH   4   6
ATOM      6  C   UNL A   1      33.663  23.448  24.998  1.00  0.00     0.124 C 
ATOM      7  C   UNL A   1      31.972  24.371  26.472  1.00  0.00     0.104 C 
ATOM      8  C   UNL A   1      31.507  23.096  25.846  1.00  0.00    -0.006 C 
ATOM      9  C   UNL A   1      33.194  24.767  25.639  1.00  0.00     0.048 C 
ATOM     10  C   UNL A   1      32.439  22.587  25.030  1.00  0.00    -0.014 C 
BRANCH   7  11
ATOM     11  N   UNL A   1      30.943  25.388  26.531  1.00  0.00    -0.363 N 
ATOM     12  H   UNL A   1      30.097  25.151  26.977  1.00  0.00     0.162 HD
BRANCH  11  13
ATOM     13  C   UNL A   1      31.053  26.670  26.009  1.00  0.00     0.139 A 
ATOM     14  C   UNL A   1      32.387  29.874  27.249  1.00  0.00     0.067 C 
ATOM     15  C   UNL A   1      31.779  28.870  26.318  1.00  0.00     0.040 A 
ATOM     16  C   UNL A   1      31.373  29.238  25.046  1.00  0.00     0.028 A 
ATOM     17  N   UNL A   1      31.640  27.611  26.782  1.00  0.00    -0.236 NA
ATOM     18  C   UNL A   1      30.794  28.279  24.207  1.00  0.00    -0.033 A 
ATOM     19  C   UNL A   1      30.380  28.714  22.828  1.00  0.00     0.045 C 
ATOM     20  C   UNL A   1      30.609  26.974  24.707  1.00  0.00     0.084 A 
BRANCH  20  21
ATOM     21  C   UNL A   1      29.920  25.947  23.874  1.00  0.00     0.252 C 
ATOM     22  N   UNL A   1      28.551  25.955  23.873  1.00  0.00    -0.365 N 
ATOM     23  O   UNL A   1      30.535  25.124  23.209  1.00  0.00    -0.269 OA
ATOM     24  H   UNL A   1      28.062  26.619  24.410  1.00  0.00     0.159 HD
ATOM     25  H   UNL A   1      28.056  25.297  23.334  1.00  0.00     0.159 HD
ENDBRANCH  20  21
ENDBRANCH  11  13
ENDBRANCH   7  11
ENDBRANCH   4   6
ENDBRANCH   3   4
ENDBRANCH   2   3
ENDBRANCH   1   2
BRANCH   1  26
ATOM     26  O   UNL A   1      38.806  22.191  26.185  1.00  0.00    -0.374 OA
BRANCH  26  27
ATOM     27  C   UNL A   1      38.260  21.137  25.387  1.00  0.00     0.202 C 
BRANCH  27  28
ATOM     28  C   UNL A   1      39.054  19.828  25.361  1.00  0.00     0.261 C 
BRANCH  28  29
ATOM     29  O   UNL A   1      39.904  19.699  26.517  1.00  0.00    -0.460 OA
BRANCH  29  30
ATOM     30  C   UNL A   1      41.216  19.522  26.240  1.00  0.00     0.338 C 
ATOM     31  O   UNL A   1      41.747  18.534  25.754  1.00  0.00    -0.246 OA
BRANCH  30  32
ATOM     32  C   UNL A   1      41.950  20.783  26.443  1.00  0.00     0.060 A 
ATOM     33  C   UNL A   1      42.181  21.188  27.764  1.00  0.00     0.016 A 
ATOM     34  C   UNL A   1      42.318  21.602  25.373  1.00  0.00     0.016 A 
ATOM     35  C   UNL A   1      42.724  22.442  28.025  1.00  0.00     0.010 A 
ATOM     36  C   UNL A   1      42.854  22.868  25.636  1.00  0.00     0.010 A 
ATOM     37  C   UNL A   1      43.017  23.308  26.963  1.00  0.00    -0.014 A 
BRANCH  37  38
ATOM     38  C   UNL A   1      43.313  24.731  27.252  1.00  0.00     0.031 A 
ATOM     39  C   UNL A   1      44.691  25.256  26.958  1.00  0.00     0.074 A 
ATOM     40  C   UNL A   1      42.361  25.555  27.724  1.00  0.00     0.049 A 
ATOM     41  N   UNL A   1      45.182  26.456  27.139  1.00  0.00    -0.248 NA
ATOM     42  C   UNL A   1      45.646  24.297  26.379  1.00  0.00     0.031 C 
ATOM     43  C   UNL A   1      40.979  25.173  28.008  1.00  0.00     0.029 A 
ATOM     44  N   UNL A   1      42.419  26.886  28.050  1.00  0.00    -0.354 N 
ATOM     45  C   UNL A   1      46.498  26.394  26.702  1.00  0.00     0.074 A 
ATOM     46  C   UNL A   1      46.741  25.033  26.274  1.00  0.00     0.031 C 
ATOM     47  C   UNL A   1      40.320  26.248  28.476  1.00  0.00     0.029 A 
ATOM     48  C   UNL A   1      41.240  27.381  28.549  1.00  0.00     0.049 A 
ATOM     49  H   UNL A   1      43.230  27.435  27.938  1.00  0.00     0.167 HD
ATOM     50  C   UNL A   1      47.420  27.385  26.654  1.00  0.00     0.037 A 
ATOM     51  C   UNL A   1      40.947  28.608  29.025  1.00  0.00     0.037 A 
ATOM     52  C   UNL A   1      47.177  28.739  27.076  1.00  0.00     0.049 A 
ATOM     53  C   UNL A   1      42.008  29.677  29.018  1.00  0.00     0.074 A 
ATOM     54  C   UNL A   1      48.042  29.818  27.056  1.00  0.00     0.029 A 
ATOM     55  N   UNL A   1      45.978  29.195  27.600  1.00  0.00    -0.354 N 
ATOM     56  N   UNL A   1      43.244  29.616  28.584  1.00  0.00    -0.248 NA
ATOM     57  C   UNL A   1      41.630  30.989  29.561  1.00  0.00     0.031 C 
ATOM     58  C   UNL A   1      47.378  30.919  27.608  1.00  0.00     0.029 A 
ATOM     59  C   UNL A   1      46.086  30.537  27.927  1.00  0.00     0.049 A 
ATOM     60  H   UNL A   1      45.168  28.647  27.722  1.00  0.00     0.167 HD
ATOM     61  C   UNL A   1      43.780  30.883  28.774  1.00  0.00     0.074 A 
ATOM     62  C   UNL A   1      42.732  31.696  29.354  1.00  0.00     0.031 C 
ATOM     63  C   UNL A   1      45.027  31.334  28.491  1.00  0.00     0.037 A 
BRANCH  50  64
ATOM     64  C   UNL A   1      48.786  27.033  26.146  1.00  0.00     0.064 A 
ATOM     65  C   UNL A   1      49.786  26.544  27.000  1.00  0.00     0.173 A 
ATOM     66  C   UNL A   1      49.091  27.161  24.782  1.00  0.00     0.173 A 
ATOM     67  F   UNL A   1      49.549  26.418  28.314  1.00  0.00    -0.203 F 
ATOM     68  C   UNL A   1      51.048  26.218  26.510  1.00  0.00     0.198 A 
ATOM     69  C   UNL A   1      50.346  26.810  24.293  1.00  0.00     0.198 A 
ATOM     70  F   UNL A   1      48.168  27.623  23.924  1.00  0.00    -0.203 F 
ATOM     71  F   UNL A   1      52.003  25.793  27.350  1.00  0.00    -0.200 F 
ATOM     72  C   UNL A   1      51.325  26.345  25.157  1.00  0.00     0.200 A 
ATOM     73  F   UNL A   1      50.608  26.925  22.983  1.00  0.00    -0.200 F 
ATOM     74  F   UNL A   1      52.538  26.026  24.687  1.00  0.00    -0.200 F 
ENDBRANCH  50  64
BRANCH  51  75
ATOM     75  C   UNL A   1      39.589  28.891  29.556  1.00  0.00     0.064 A 
ATOM     76  C   UNL A   1      38.585  29.418  28.733  1.00  0.00     0.173 A 
ATOM     77  C   UNL A   1      39.275  28.657  30.903  1.00  0.00     0.173 A 
ATOM     78  F   UNL A   1      38.847  29.684  27.445  1.00  0.00    -0.203 F 
ATOM     79  C   UNL A   1      37.322  29.717  29.241  1.00  0.00     0.198 A 
ATOM     80  C   UNL A   1      38.004  28.932  31.404  1.00  0.00     0.198 A 
ATOM     81  F   UNL A   1      40.202  28.155  31.732  1.00  0.00    -0.203 F 
ATOM     82  F   UNL A   1      36.394  30.263  28.444  1.00  0.00    -0.200 F 
ATOM     83  C   UNL A   1      37.030  29.468  30.574  1.00  0.00     0.200 A 
ATOM     84  F   UNL A   1      37.723  28.681  32.690  1.00  0.00    -0.200 F 
ATOM     85  F   UNL A   1      35.816  29.755  31.062  1.00  0.00    -0.200 F 
ENDBRANCH  51  75
BRANCH  63  86
ATOM     86  C   UNL A   1      45.317  32.781  28.765  1.00  0.00     0.064 A 
ATOM     87  C   UNL A   1      45.048  33.778  27.817  1.00  0.00     0.173 A 
ATOM     88  C   UNL A   1      45.829  33.176  30.010  1.00  0.00     0.173 A 
ATOM     89  F   UNL A   1      44.573  33.448  26.607  1.00  0.00    -0.203 F 
ATOM     90  C   UNL A   1      45.301  35.119  28.099  1.00  0.00     0.198 A 
ATOM     91  C   UNL A   1      46.054  34.519  30.298  1.00  0.00     0.198 A 
ATOM     92  F   UNL A   1      46.095  32.261  30.954  1.00  0.00    -0.203 F 
ATOM     93  F   UNL A   1      45.076  36.051  27.164  1.00  0.00    -0.200 F 
ATOM     94  C   UNL A   1      45.797  35.488  29.340  1.00  0.00     0.200 A 
ATOM     95  F   UNL A   1      46.521  34.876  31.503  1.00  0.00    -0.200 F 
ATOM     96  F   UNL A   1      46.032  36.779  29.612  1.00  0.00    -0.200 F 
ENDBRANCH  63  86
ENDBRANCH  37  38
ENDBRANCH  30  32
ENDBRANCH  29  30
ENDBRANCH  28  29
ENDBRANCH  27  28
ENDBRANCH  26  27
ENDBRANCH   1  26
TORSDOF 17
ENDMDL
MODEL 3
REMARK VINA RESULT:     -11.3      0.848      2.179
REMARK SMILES Cc1cc(C)c(C(N)=O)c(N[C@H]2C=C[C@H](C(=O)OCCOCCOC(=O)c3ccc(-c4c5nc(c(-c6c(F)c(F)c(F)c(F)c6F)c6ccc([nH]6)c(-c6c(F)c(F)c(F)c(F)c6F)c6nc(c(-c7c(F)c(F)c(F)c(F)c7F)c7ccc4[nH]7)C=C6)C=C5)cc3)C2)n1
REMARK SMILES IDX 20 1 19 2 18 3 16 4 17 5 15 6 12 7 13 8 90 9 14 10 11 11
REMARK SMILES IDX 10 13 1 14 2 15 3 16 91 17 4 18 5 19 6 20 7 21 8 22 9 23
REMARK SMILES IDX 21 26 22 27 23 28 24 29 25 30 26 31 27 32 28 33 89 34 29 35
REMARK SMILES IDX 88 36 30 37 31 38 32 39 82 40 33 41 87 42 81 43 83 44 34 45
REMARK SMILES IDX 86 46 80 47 79 48 35 50 67 51 47 52 66 53 48 54 51 55 65 56
REMARK SMILES IDX 84 57 49 58 50 59 64 61 85 62 52 63 36 64 37 65 45 66 38 67
REMARK SMILES IDX 39 68 43 69 46 70 40 71 41 72 44 73 42 74 68 75 69 76 77 77
REMARK SMILES IDX 70 78 71 79 75 80 78 81 72 82 73 83 76 84 74 85 53 86 54 87
REMARK SMILES IDX 62 88 55 89 56 90 60 91 63 92 57 93 58 94 61 95 59 96
REMARK H PARENT 11 12 8 24 8 25 83 49 51 60
REMARK Flexibility Score: inf
ROOT
ATOM      1  C   UNL A   1      32.621  29.770  25.845  1.00  0.00     0.202 C 
ENDROOT
BRANCH   1   2
ATOM      2  C   UNL A   1      31.763  29.684  24.581  1.00  0.00     0.261 C 
BRANCH   2   3
ATOM      3  O   UNL A   1      31.446  28.313  24.304  1.00  0.00    -0.463 OA
BRANCH   3   4
ATOM      4  C   UNL A   1      32.241  27.702  23.382  1.00  0.00     0.312 C 
ATOM      5  O   UNL A   1      33.026  28.274  22.637  1.00  0.00    -0.252 OA
BRANCH   4   6
ATOM      6  C   UNL A   1      32.093  26.192  23.487  1.00  0.00     0.124 C 
ATOM      7  C   UNL A   1      33.764  25.360  25.035  1.00  0.00     0.104 C 
ATOM      8  C   UNL A   1      34.128  25.038  23.621  1.00  0.00    -0.006 C 
ATOM      9  C   UNL A   1      32.291  25.768  24.953  1.00  0.00     0.048 C 
ATOM     10  C   UNL A   1      33.205  25.495  22.766  1.00  0.00    -0.014 C 
BRANCH   7  11
ATOM     11  N   UNL A   1      34.026  24.273  25.954  1.00  0.00    -0.363 N 
ATOM     12  H   UNL A   1      33.785  24.411  26.900  1.00  0.00     0.162 HD
BRANCH  11  13
ATOM     13  C   UNL A   1      34.589  23.051  25.611  1.00  0.00     0.139 A 
ATOM     14  C   UNL A   1      38.029  21.748  25.384  1.00  0.00     0.067 C 
ATOM     15  C   UNL A   1      36.531  21.777  25.353  1.00  0.00     0.040 A 
ATOM     16  C   UNL A   1      35.809  20.649  25.001  1.00  0.00     0.028 A 
ATOM     17  N   UNL A   1      35.936  22.945  25.668  1.00  0.00    -0.236 NA
ATOM     18  C   UNL A   1      34.411  20.715  24.967  1.00  0.00    -0.033 A 
ATOM     19  C   UNL A   1      33.660  19.465  24.595  1.00  0.00     0.045 C 
ATOM     20  C   UNL A   1      33.790  21.947  25.254  1.00  0.00     0.084 A 
BRANCH  20  21
ATOM     21  C   UNL A   1      32.308  22.079  25.145  1.00  0.00     0.252 C 
ATOM     22  N   UNL A   1      31.569  21.788  26.259  1.00  0.00    -0.365 N 
ATOM     23  O   UNL A   1      31.757  22.437  24.112  1.00  0.00    -0.269 OA
ATOM     24  H   UNL A   1      32.017  21.501  27.087  1.00  0.00     0.159 HD
ATOM     25  H   UNL A   1      30.588  21.866  26.232  1.00  0.00     0.159 HD
ENDBRANCH  20  21
ENDBRANCH  11  13
ENDBRANCH   7  11
ENDBRANCH   4   6
ENDBRANCH   3   4
ENDBRANCH   2   3
ENDBRANCH   1   2
BRANCH   1  26
ATOM     26  O   UNL A   1      32.096  30.593  26.887  1.00  0.00    -0.374 OA
BRANCH  26  27
ATOM     27  C   UNL A   1      31.394  31.779  26.507  1.00  0.00     0.202 C 
BRANCH  27  28
ATOM     28  C   UNL A   1      32.046  33.107  26.902  1.00  0.00     0.261 C 
BRANCH  28  29
ATOM     29  O   UNL A   1      32.948  32.946  28.013  1.00  0.00    -0.460 OA
BRANCH  29  30
ATOM     30  C   UNL A   1      34.034  33.752  27.985  1.00  0.00     0.338 C 
ATOM     31  O   UNL A   1      34.053  34.970  27.878  1.00  0.00    -0.246 OA
BRANCH  30  32
ATOM     32  C   UNL A   1      35.249  32.975  28.284  1.00  0.00     0.060 A 
ATOM     33  C   UNL A   1      35.085  31.622  28.606  1.00  0.00     0.016 A 
ATOM     34  C   UNL A   1      36.509  33.574  28.347  1.00  0.00     0.016 A 
ATOM     35  C   UNL A   1      36.170  30.874  29.054  1.00  0.00     0.010 A 
ATOM     36  C   UNL A   1      37.598  32.825  28.808  1.00  0.00     0.010 A 
ATOM     37  C   UNL A   1      37.421  31.485  29.204  1.00  0.00    -0.014 A 
BRANCH  37  38
ATOM     38  C   UNL A   1      38.487  30.775  29.950  1.00  0.00     0.031 A 
ATOM     39  C   UNL A   1      38.694  31.105  31.403  1.00  0.00     0.074 A 
ATOM     40  C   UNL A   1      39.226  29.820  29.360  1.00  0.00     0.049 A 
ATOM     41  N   UNL A   1      39.569  30.623  32.249  1.00  0.00    -0.248 NA
ATOM     42  C   UNL A   1      37.791  32.114  31.979  1.00  0.00     0.031 C 
ATOM     43  C   UNL A   1      39.090  29.383  27.972  1.00  0.00     0.029 A 
ATOM     44  N   UNL A   1      40.244  29.048  29.860  1.00  0.00    -0.354 N 
ATOM     45  C   UNL A   1      39.325  31.273  33.452  1.00  0.00     0.074 A 
ATOM     46  C   UNL A   1      38.241  32.203  33.221  1.00  0.00     0.031 C 
ATOM     47  C   UNL A   1      40.000  28.424  27.727  1.00  0.00     0.029 A 
ATOM     48  C   UNL A   1      40.797  28.201  28.933  1.00  0.00     0.049 A 
ATOM     49  H   UNL A   1      40.551  29.098  30.795  1.00  0.00     0.167 HD
ATOM     50  C   UNL A   1      39.943  31.102  34.645  1.00  0.00     0.037 A 
ATOM     51  C   UNL A   1      41.840  27.354  29.044  1.00  0.00     0.037 A 
ATOM     52  C   UNL A   1      41.018  30.175  34.875  1.00  0.00     0.049 A 
ATOM     53  C   UNL A   1      42.551  27.227  30.366  1.00  0.00     0.074 A 
ATOM     54  C   UNL A   1      41.702  29.920  36.050  1.00  0.00     0.029 A 
ATOM     55  N   UNL A   1      41.568  29.352  33.904  1.00  0.00    -0.354 N 
ATOM     56  N   UNL A   1      42.301  27.830  31.504  1.00  0.00    -0.248 NA
ATOM     57  C   UNL A   1      43.688  26.296  30.420  1.00  0.00     0.031 C 
ATOM     58  C   UNL A   1      42.696  28.972  35.780  1.00  0.00     0.029 A 
ATOM     59  C   UNL A   1      42.597  28.602  34.448  1.00  0.00     0.049 A 
ATOM     60  H   UNL A   1      41.270  29.306  32.966  1.00  0.00     0.167 HD
ATOM     61  C   UNL A   1      43.225  27.331  32.412  1.00  0.00     0.074 A 
ATOM     62  C   UNL A   1      44.037  26.369  31.697  1.00  0.00     0.031 C 
ATOM     63  C   UNL A   1      43.386  27.639  33.723  1.00  0.00     0.037 A 
BRANCH  50  64
ATOM     64  C   UNL A   1      39.484  31.956  35.788  1.00  0.00     0.064 A 
ATOM     65  C   UNL A   1      40.058  33.210  36.048  1.00  0.00     0.173 A 
ATOM     66  C   UNL A   1      38.438  31.527  36.620  1.00  0.00     0.173 A 
ATOM     67  F   UNL A   1      41.071  33.659  35.292  1.00  0.00    -0.203 F 
ATOM     68  C   UNL A   1      39.615  33.992  37.113  1.00  0.00     0.198 A 
ATOM     69  C   UNL A   1      37.982  32.323  37.667  1.00  0.00     0.198 A 
ATOM     70  F   UNL A   1      37.855  30.336  36.412  1.00  0.00    -0.203 F 
ATOM     71  F   UNL A   1      40.207  35.168  37.369  1.00  0.00    -0.200 F 
ATOM     72  C   UNL A   1      38.575  33.551  37.916  1.00  0.00     0.200 A 
ATOM     73  F   UNL A   1      36.970  31.899  38.436  1.00  0.00    -0.200 F 
ATOM     74  F   UNL A   1      38.148  34.307  38.937  1.00  0.00    -0.200 F 
ENDBRANCH  50  64
BRANCH  51  75
ATOM     75  C   UNL A   1      42.280  26.562  27.867  1.00  0.00     0.064 A 
ATOM     76  C   UNL A   1      43.248  27.056  26.982  1.00  0.00     0.173 A 
ATOM     77  C   UNL A   1      41.726  25.303  27.594  1.00  0.00     0.173 A 
ATOM     78  F   UNL A   1      43.786  28.268  27.188  1.00  0.00    -0.203 F 
ATOM     79  C   UNL A   1      43.633  26.328  25.859  1.00  0.00     0.198 A 
ATOM     80  C   UNL A   1      42.131  24.564  26.484  1.00  0.00     0.198 A 
ATOM     81  F   UNL A   1      40.794  24.787  28.408  1.00  0.00    -0.203 F 
ATOM     82  F   UNL A   1      44.527  26.843  25.004  1.00  0.00    -0.200 F 
ATOM     83  C   UNL A   1      43.080  25.080  25.613  1.00  0.00     0.200 A 
ATOM     84  F   UNL A   1      41.601  23.355  26.255  1.00  0.00    -0.200 F 
ATOM     85  F   UNL A   1      43.451  24.380  24.533  1.00  0.00    -0.200 F 
ENDBRANCH  51  75
BRANCH  63  86
ATOM     86  C   UNL A   1      44.452  26.903  34.481  1.00  0.00     0.064 A 
ATOM     87  C   UNL A   1      44.197  25.671  35.100  1.00  0.00     0.173 A 
ATOM     88  C   UNL A   1      45.756  27.417  34.548  1.00  0.00     0.173 A 
ATOM     89  F   UNL A   1      42.964  25.146  35.076  1.00  0.00    -0.203 F 
ATOM     90  C   UNL A   1      45.206  24.990  35.777  1.00  0.00     0.198 A 
ATOM     91  C   UNL A   1      46.767  26.721  35.202  1.00  0.00     0.198 A 
ATOM     92  F   UNL A   1      46.052  28.589  33.965  1.00  0.00    -0.203 F 
ATOM     93  F   UNL A   1      44.931  23.835  36.398  1.00  0.00    -0.200 F 
ATOM     94  C   UNL A   1      46.491  25.512  35.822  1.00  0.00     0.200 A 
ATOM     95  F   UNL A   1      48.012  27.220  35.233  1.00  0.00    -0.200 F 
ATOM     96  F   UNL A   1      47.461  24.851  36.468  1.00  0.00    -0.200 F 
ENDBRANCH  63  86
ENDBRANCH  37  38
ENDBRANCH  30  32
ENDBRANCH  29  30
ENDBRANCH  28  29
ENDBRANCH  27  28
ENDBRANCH  26  27
ENDBRANCH   1  26
TORSDOF 17
ENDMDL
