MODEL 1
REMARK VINA RESULT:     -12.8      0.000      0.000
REMARK SMILES CCc1cc(S(F)(F)(F)(F)F)cc2c1O[C@@H](C(F)(F)F)C(C(=O)OCCOCCOC(=O)c1ccc(-c3c4nc(c(-c5c(F)c(F)c(F)c(F)c5F)c5ccc([nH]5)c(-c5c(F)c(F)c(F)c(F)c5F)c5nc(c(-c6c(F)c(F)c(F)c(F)c6F)c6ccc3[nH]6)C=C5)C=C4)cc1)=C2
REMARK SMILES IDX 28 1 27 2 26 3 25 4 24 5 22 6 23 7 21 8 3 9 4 10 14 11 5 12
REMARK SMILES IDX 13 13 15 14 12 15 96 16 16 17 2 18 1 19 6 20 7 21 8 22 9 23
REMARK SMILES IDX 10 24 11 25 17 26 18 27 19 28 20 29 29 30 30 31 31 32 32 33
REMARK SMILES IDX 33 34 34 35 95 36 35 37 94 38 36 39 37 40 38 41 88 42 39 43
REMARK SMILES IDX 93 44 87 45 89 46 40 47 92 48 86 49 85 50 41 52 73 53 53 54
REMARK SMILES IDX 72 55 54 56 57 57 71 58 90 59 55 60 56 61 70 63 91 64 58 65
REMARK SMILES IDX 42 66 43 67 51 68 44 69 45 70 49 71 52 72 46 73 47 74 50 75
REMARK SMILES IDX 48 76 74 77 75 78 83 79 76 80 77 81 81 82 84 83 78 84 79 85
REMARK SMILES IDX 82 86 80 87 59 88 60 89 68 90 61 91 62 92 66 93 69 94 63 95
REMARK SMILES IDX 64 96 67 97 65 98
REMARK H PARENT 89 51 57 62
REMARK Flexibility Score: inf
ROOT
ATOM      1  C   UNL A   1      30.693  29.737  24.266  1.00  0.00     0.202 C 
ENDROOT
BRANCH   1   2
ATOM      2  O   UNL A   1      30.001  28.636  23.696  1.00  0.00    -0.374 OA
BRANCH   2   3
ATOM      3  C   UNL A   1      30.685  27.432  24.011  1.00  0.00     0.202 C 
BRANCH   3   4
ATOM      4  C   UNL A   1      29.674  26.326  24.263  1.00  0.00     0.261 C 
BRANCH   4   5
ATOM      5  O   UNL A   1      30.333  25.068  24.243  1.00  0.00    -0.460 OA
BRANCH   5   6
ATOM      6  C   UNL A   1      30.775  24.479  25.457  1.00  0.00     0.338 C 
ATOM      7  O   UNL A   1      30.236  24.813  26.559  1.00  0.00    -0.246 OA
BRANCH   6   8
ATOM      8  C   UNL A   1      31.891  23.449  25.440  1.00  0.00     0.087 C 
ATOM      9  C   UNL A   1      35.104  20.824  24.946  1.00  0.00    -0.004 A 
ATOM     10  C   UNL A   1      34.869  19.480  24.723  1.00  0.00     0.032 A 
ATOM     11  C   UNL A   1      34.029  21.673  25.051  1.00  0.00     0.131 A 
ATOM     12  C   UNL A   1      33.591  18.998  24.603  1.00  0.00     0.108 A 
ATOM     13  C   UNL A   1      32.726  21.221  24.955  1.00  0.00     0.019 A 
ATOM     14  O   UNL A   1      34.280  23.019  25.159  1.00  0.00    -0.475 OA
ATOM     15  C   UNL A   1      32.524  19.864  24.727  1.00  0.00     0.036 A 
ATOM     16  C   UNL A   1      31.659  22.204  25.042  1.00  0.00     0.027 C 
ATOM     17  C   UNL A   1      33.302  23.822  25.879  1.00  0.00     0.316 C 
BRANCH   9  18
ATOM     18  C   UNL A   1      36.547  21.224  25.205  1.00  0.00     0.036 C 
ATOM     19  C   UNL A   1      37.452  20.020  25.001  1.00  0.00     0.009 C 
ENDBRANCH   9  18
BRANCH  12  20
ATOM     20  S   UNL A   1      33.306  17.239  24.288  1.00  0.00     0.310 S 
ATOM     21  F   UNL A   1      34.794  17.101  23.756  1.00  0.00    -0.094 F 
ATOM     22  F   UNL A   1      32.900  17.692  22.834  1.00  0.00    -0.094 F 
ATOM     23  F   UNL A   1      33.097  15.745  23.911  1.00  0.00    -0.094 F 
ATOM     24  F   UNL A   1      33.848  16.798  25.703  1.00  0.00    -0.094 F 
ATOM     25  F   UNL A   1      33.629  18.744  24.648  1.00  0.00    -0.094 F 
ENDBRANCH  12  20
BRANCH  17  26
ATOM     26  C   UNL A   1      33.544  25.291  25.574  1.00  0.00     0.430 C 
ATOM     27  F   UNL A   1      33.204  25.544  24.313  1.00  0.00    -0.167 F 
ATOM     28  F   UNL A   1      32.808  26.040  26.390  1.00  0.00    -0.167 F 
ATOM     29  F   UNL A   1      34.831  25.574  25.751  1.00  0.00    -0.167 F 
ENDBRANCH  17  26
ENDBRANCH   6   8
ENDBRANCH   5   6
ENDBRANCH   4   5
ENDBRANCH   3   4
ENDBRANCH   2   3
ENDBRANCH   1   2
BRANCH   1  30
ATOM     30  C   UNL A   1      31.650  29.236  25.336  1.00  0.00     0.261 C 
BRANCH  30  31
ATOM     31  O   UNL A   1      32.793  30.077  25.380  1.00  0.00    -0.460 OA
BRANCH  31  32
ATOM     32  C   UNL A   1      33.075  30.832  26.549  1.00  0.00     0.338 C 
ATOM     33  O   UNL A   1      32.249  31.710  26.953  1.00  0.00    -0.246 OA
BRANCH  32  34
ATOM     34  C   UNL A   1      34.364  30.591  27.318  1.00  0.00     0.060 A 
ATOM     35  C   UNL A   1      34.640  29.275  27.656  1.00  0.00     0.016 A 
ATOM     36  C   UNL A   1      35.204  31.571  27.626  1.00  0.00     0.016 A 
ATOM     37  C   UNL A   1      35.700  29.132  28.581  1.00  0.00     0.010 A 
ATOM     38  C   UNL A   1      36.296  31.332  28.424  1.00  0.00     0.010 A 
ATOM     39  C   UNL A   1      36.595  30.066  28.845  1.00  0.00    -0.014 A 
BRANCH  39  40
ATOM     40  C   UNL A   1      37.890  29.751  29.575  1.00  0.00     0.031 A 
ATOM     41  C   UNL A   1      38.835  28.892  29.009  1.00  0.00     0.074 A 
ATOM     42  C   UNL A   1      38.024  30.331  30.825  1.00  0.00     0.049 A 
ATOM     43  N   UNL A   1      40.005  28.516  29.526  1.00  0.00    -0.248 NA
ATOM     44  C   UNL A   1      38.680  28.248  27.697  1.00  0.00     0.031 C 
ATOM     45  C   UNL A   1      37.081  31.205  31.400  1.00  0.00     0.029 A 
ATOM     46  N   UNL A   1      39.059  30.181  31.721  1.00  0.00    -0.354 N 
ATOM     47  C   UNL A   1      40.642  27.702  28.681  1.00  0.00     0.074 A 
ATOM     48  C   UNL A   1      39.795  27.512  27.495  1.00  0.00     0.031 C 
ATOM     49  C   UNL A   1      37.533  31.566  32.629  1.00  0.00     0.029 A 
ATOM     50  C   UNL A   1      38.769  30.925  32.843  1.00  0.00     0.049 A 
ATOM     51  H   UNL A   1      39.867  29.636  31.583  1.00  0.00     0.167 HD
ATOM     52  C   UNL A   1      41.895  27.112  28.852  1.00  0.00     0.037 A 
ATOM     53  C   UNL A   1      39.525  31.050  33.997  1.00  0.00     0.037 A 
ATOM     54  C   UNL A   1      42.671  27.271  29.989  1.00  0.00     0.049 A 
ATOM     55  C   UNL A   1      40.753  30.413  34.193  1.00  0.00     0.074 A 
ATOM     56  C   UNL A   1      43.940  26.690  30.174  1.00  0.00     0.029 A 
ATOM     57  N   UNL A   1      42.369  27.996  31.121  1.00  0.00    -0.354 N 
ATOM     58  N   UNL A   1      41.406  29.632  33.332  1.00  0.00    -0.248 NA
ATOM     59  C   UNL A   1      41.547  30.512  35.425  1.00  0.00     0.031 C 
ATOM     60  C   UNL A   1      44.394  27.052  31.405  1.00  0.00     0.029 A 
ATOM     61  C   UNL A   1      43.415  27.864  32.007  1.00  0.00     0.049 A 
ATOM     62  H   UNL A   1      41.548  28.519  31.270  1.00  0.00     0.167 HD
ATOM     63  C   UNL A   1      42.558  29.221  33.867  1.00  0.00     0.074 A 
ATOM     64  C   UNL A   1      42.661  29.775  35.224  1.00  0.00     0.031 C 
ATOM     65  C   UNL A   1      43.528  28.410  33.277  1.00  0.00     0.037 A 
BRANCH  52  66
ATOM     66  C   UNL A   1      42.440  26.247  27.727  1.00  0.00     0.064 A 
ATOM     67  C   UNL A   1      42.116  24.902  27.687  1.00  0.00     0.173 A 
ATOM     68  C   UNL A   1      43.217  26.796  26.800  1.00  0.00     0.173 A 
ATOM     69  F   UNL A   1      41.153  24.365  28.432  1.00  0.00    -0.203 F 
ATOM     70  C   UNL A   1      42.900  24.148  26.781  1.00  0.00     0.198 A 
ATOM     71  C   UNL A   1      43.846  26.014  25.862  1.00  0.00     0.198 A 
ATOM     72  F   UNL A   1      43.387  28.115  26.780  1.00  0.00    -0.203 F 
ATOM     73  F   UNL A   1      42.918  22.827  26.928  1.00  0.00    -0.200 F 
ATOM     74  C   UNL A   1      43.616  24.667  25.801  1.00  0.00     0.200 A 
ATOM     75  F   UNL A   1      44.688  26.576  24.999  1.00  0.00    -0.200 F 
ATOM     76  F   UNL A   1      44.090  23.921  24.807  1.00  0.00    -0.200 F 
ENDBRANCH  52  66
BRANCH  53  77
ATOM     77  C   UNL A   1      38.987  31.930  35.115  1.00  0.00     0.064 A 
ATOM     78  C   UNL A   1      39.197  33.298  35.064  1.00  0.00     0.173 A 
ATOM     79  C   UNL A   1      38.328  31.371  36.124  1.00  0.00     0.173 A 
ATOM     80  F   UNL A   1      39.619  33.926  33.971  1.00  0.00    -0.203 F 
ATOM     81  C   UNL A   1      38.920  33.966  36.281  1.00  0.00     0.198 A 
ATOM     82  C   UNL A   1      37.970  32.114  37.221  1.00  0.00     0.198 A 
ATOM     83  F   UNL A   1      38.013  30.080  36.070  1.00  0.00    -0.203 F 
ATOM     84  F   UNL A   1      39.422  35.187  36.444  1.00  0.00    -0.200 F 
ATOM     85  C   UNL A   1      38.199  33.461  37.265  1.00  0.00     0.200 A 
ATOM     86  F   UNL A   1      37.390  31.515  38.258  1.00  0.00    -0.200 F 
ATOM     87  F   UNL A   1      37.722  34.223  38.245  1.00  0.00    -0.200 F 
ENDBRANCH  53  77
BRANCH  65  88
ATOM     88  C   UNL A   1      44.787  28.108  34.073  1.00  0.00     0.064 A 
ATOM     89  C   UNL A   1      44.788  26.979  34.877  1.00  0.00     0.173 A 
ATOM     90  C   UNL A   1      45.852  28.898  33.993  1.00  0.00     0.173 A 
ATOM     91  F   UNL A   1      43.859  26.032  34.798  1.00  0.00    -0.203 F 
ATOM     92  C   UNL A   1      45.870  26.926  35.787  1.00  0.00     0.198 A 
ATOM     93  C   UNL A   1      46.930  28.704  34.822  1.00  0.00     0.198 A 
ATOM     94  F   UNL A   1      45.873  29.885  33.102  1.00  0.00    -0.203 F 
ATOM     95  F   UNL A   1      45.768  26.095  36.822  1.00  0.00    -0.200 F 
ATOM     96  C   UNL A   1      46.974  27.643  35.683  1.00  0.00     0.200 A 
ATOM     97  F   UNL A   1      47.946  29.562  34.785  1.00  0.00    -0.200 F 
ATOM     98  F   UNL A   1      48.070  27.350  36.378  1.00  0.00    -0.200 F 
ENDBRANCH  65  88
ENDBRANCH  39  40
ENDBRANCH  32  34
ENDBRANCH  31  32
ENDBRANCH  30  31
ENDBRANCH   1  30
TORSDOF 17
ENDMDL
MODEL 2
REMARK VINA RESULT:     -12.8      0.474      7.006
REMARK SMILES CCc1cc(S(F)(F)(F)(F)F)cc2c1O[C@@H](C(F)(F)F)C(C(=O)OCCOCCOC(=O)c1ccc(-c3c4nc(c(-c5c(F)c(F)c(F)c(F)c5F)c5ccc([nH]5)c(-c5c(F)c(F)c(F)c(F)c5F)c5nc(c(-c6c(F)c(F)c(F)c(F)c6F)c6ccc3[nH]6)C=C5)C=C4)cc1)=C2
REMARK SMILES IDX 28 1 27 2 26 3 25 4 24 5 22 6 23 7 21 8 3 9 4 10 14 11 5 12
REMARK SMILES IDX 13 13 15 14 12 15 96 16 16 17 2 18 1 19 6 20 7 21 8 22 9 23
REMARK SMILES IDX 10 24 11 25 17 26 18 27 19 28 20 29 29 30 30 31 31 32 32 33
REMARK SMILES IDX 33 34 34 35 95 36 35 37 94 38 36 39 37 40 38 41 88 42 39 43
REMARK SMILES IDX 93 44 87 45 89 46 40 47 92 48 86 49 85 50 41 52 73 53 53 54
REMARK SMILES IDX 72 55 54 56 57 57 71 58 90 59 55 60 56 61 70 63 91 64 58 65
REMARK SMILES IDX 42 66 43 67 51 68 44 69 45 70 49 71 52 72 46 73 47 74 50 75
REMARK SMILES IDX 48 76 74 77 75 78 83 79 76 80 77 81 81 82 84 83 78 84 79 85
REMARK SMILES IDX 82 86 80 87 59 88 60 89 68 90 61 91 62 92 66 93 69 94 63 95
REMARK SMILES IDX 64 96 67 97 65 98
REMARK H PARENT 89 51 57 62
REMARK Flexibility Score: inf
ROOT
ATOM      1  C   UNL A   1      30.837  29.275  24.020  1.00  0.00     0.202 C 
ENDROOT
BRANCH   1   2
ATOM      2  O   UNL A   1      30.867  27.993  23.411  1.00  0.00    -0.374 OA
BRANCH   2   3
ATOM      3  C   UNL A   1      29.538  27.546  23.182  1.00  0.00     0.202 C 
BRANCH   3   4
ATOM      4  C   UNL A   1      29.228  26.383  24.111  1.00  0.00     0.261 C 
BRANCH   4   5
ATOM      5  O   UNL A   1      30.359  25.529  24.193  1.00  0.00    -0.460 OA
BRANCH   5   6
ATOM      6  C   UNL A   1      30.691  24.907  25.426  1.00  0.00     0.338 C 
ATOM      7  O   UNL A   1      30.053  25.210  26.483  1.00  0.00    -0.246 OA
BRANCH   6   8
ATOM      8  C   UNL A   1      31.809  23.880  25.482  1.00  0.00     0.087 C 
ATOM      9  C   UNL A   1      35.054  21.264  25.202  1.00  0.00    -0.004 A 
ATOM     10  C   UNL A   1      34.838  19.920  24.960  1.00  0.00     0.032 A 
ATOM     11  C   UNL A   1      33.973  22.110  25.237  1.00  0.00     0.131 A 
ATOM     12  C   UNL A   1      33.573  19.436  24.751  1.00  0.00     0.108 A 
ATOM     13  C   UNL A   1      32.680  21.655  25.049  1.00  0.00     0.019 A 
ATOM     14  O   UNL A   1      34.212  23.457  25.365  1.00  0.00    -0.475 OA
ATOM     15  C   UNL A   1      32.498  20.299  24.804  1.00  0.00     0.036 A 
ATOM     16  C   UNL A   1      31.607  22.636  25.065  1.00  0.00     0.027 C 
ATOM     17  C   UNL A   1      33.185  24.254  26.018  1.00  0.00     0.316 C 
BRANCH   9  18
ATOM     18  C   UNL A   1      36.475  21.667  25.562  1.00  0.00     0.036 C 
ATOM     19  C   UNL A   1      37.457  20.833  24.756  1.00  0.00     0.009 C 
ENDBRANCH   9  18
BRANCH  12  20
ATOM     20  S   UNL A   1      33.314  17.677  24.411  1.00  0.00     0.310 S 
ATOM     21  F   UNL A   1      31.782  17.966  24.122  1.00  0.00    -0.094 F 
ATOM     22  F   UNL A   1      32.936  17.564  25.936  1.00  0.00    -0.094 F 
ATOM     23  F   UNL A   1      33.008  16.168  24.194  1.00  0.00    -0.094 F 
ATOM     24  F   UNL A   1      33.564  17.841  22.861  1.00  0.00    -0.094 F 
ATOM     25  F   UNL A   1      33.520  19.233  24.594  1.00  0.00    -0.094 F 
ENDBRANCH  12  20
BRANCH  17  26
ATOM     26  C   UNL A   1      33.443  25.725  25.735  1.00  0.00     0.430 C 
ATOM     27  F   UNL A   1      32.742  26.470  26.584  1.00  0.00    -0.167 F 
ATOM     28  F   UNL A   1      34.739  25.984  25.885  1.00  0.00    -0.167 F 
ATOM     29  F   UNL A   1      33.075  26.008  24.489  1.00  0.00    -0.167 F 
ENDBRANCH  17  26
ENDBRANCH   6   8
ENDBRANCH   5   6
ENDBRANCH   4   5
ENDBRANCH   3   4
ENDBRANCH   2   3
ENDBRANCH   1   2
BRANCH   1  30
ATOM     30  C   UNL A   1      31.523  29.209  25.375  1.00  0.00     0.261 C 
BRANCH  30  31
ATOM     31  O   UNL A   1      32.645  30.079  25.380  1.00  0.00    -0.460 OA
BRANCH  31  32
ATOM     32  C   UNL A   1      32.944  30.848  26.535  1.00  0.00     0.338 C 
ATOM     33  O   UNL A   1      32.183  31.809  26.873  1.00  0.00    -0.246 OA
BRANCH  32  34
ATOM     34  C   UNL A   1      34.173  30.524  27.368  1.00  0.00     0.060 A 
ATOM     35  C   UNL A   1      34.876  31.607  27.871  1.00  0.00     0.016 A 
ATOM     36  C   UNL A   1      34.545  29.278  27.634  1.00  0.00     0.016 A 
ATOM     37  C   UNL A   1      36.139  31.268  28.412  1.00  0.00     0.010 A 
ATOM     38  C   UNL A   1      35.727  29.024  28.288  1.00  0.00     0.010 A 
ATOM     39  C   UNL A   1      36.502  30.047  28.760  1.00  0.00    -0.014 A 
BRANCH  39  40
ATOM     40  C   UNL A   1      37.716  29.792  29.638  1.00  0.00     0.031 A 
ATOM     41  C   UNL A   1      37.845  30.428  30.874  1.00  0.00     0.074 A 
ATOM     42  C   UNL A   1      38.668  28.941  29.103  1.00  0.00     0.049 A 
ATOM     43  N   UNL A   1      38.847  30.314  31.747  1.00  0.00    -0.248 NA
ATOM     44  C   UNL A   1      36.852  31.358  31.429  1.00  0.00     0.031 C 
ATOM     45  C   UNL A   1      38.542  28.289  27.861  1.00  0.00     0.029 A 
ATOM     46  N   UNL A   1      39.878  28.574  29.649  1.00  0.00    -0.354 N 
ATOM     47  C   UNL A   1      38.606  31.061  32.826  1.00  0.00     0.074 A 
ATOM     48  C   UNL A   1      37.322  31.750  32.634  1.00  0.00     0.031 C 
ATOM     49  C   UNL A   1      39.663  27.550  27.655  1.00  0.00     0.029 A 
ATOM     50  C   UNL A   1      40.510  27.727  28.767  1.00  0.00     0.049 A 
ATOM     51  H   UNL A   1      40.230  28.868  30.520  1.00  0.00     0.167 HD
ATOM     52  C   UNL A   1      39.405  31.195  33.962  1.00  0.00     0.037 A 
ATOM     53  C   UNL A   1      41.754  27.133  28.904  1.00  0.00     0.037 A 
ATOM     54  C   UNL A   1      40.630  30.567  34.119  1.00  0.00     0.049 A 
ATOM     55  C   UNL A   1      42.581  27.312  30.016  1.00  0.00     0.074 A 
ATOM     56  C   UNL A   1      41.445  30.684  35.261  1.00  0.00     0.029 A 
ATOM     57  N   UNL A   1      41.273  29.738  33.225  1.00  0.00    -0.354 N 
ATOM     58  N   UNL A   1      42.321  28.029  31.111  1.00  0.00    -0.248 NA
ATOM     59  C   UNL A   1      43.915  26.715  30.158  1.00  0.00     0.031 C 
ATOM     60  C   UNL A   1      42.568  29.945  35.056  1.00  0.00     0.029 A 
ATOM     61  C   UNL A   1      42.473  29.354  33.782  1.00  0.00     0.049 A 
ATOM     62  H   UNL A   1      40.934  29.468  32.341  1.00  0.00     0.167 HD
ATOM     63  C   UNL A   1      43.343  27.947  31.966  1.00  0.00     0.074 A 
ATOM     64  C   UNL A   1      44.386  27.107  31.362  1.00  0.00     0.031 C 
ATOM     65  C   UNL A   1      43.446  28.537  33.227  1.00  0.00     0.037 A 
BRANCH  52  66
ATOM     66  C   UNL A   1      38.903  32.079  35.092  1.00  0.00     0.064 A 
ATOM     67  C   UNL A   1      39.118  33.445  35.033  1.00  0.00     0.173 A 
ATOM     68  C   UNL A   1      38.264  31.526  36.118  1.00  0.00     0.173 A 
ATOM     69  F   UNL A   1      39.520  34.069  33.928  1.00  0.00    -0.203 F 
ATOM     70  C   UNL A   1      38.872  34.119  36.253  1.00  0.00     0.198 A 
ATOM     71  C   UNL A   1      37.934  32.274  37.221  1.00  0.00     0.198 A 
ATOM     72  F   UNL A   1      37.941  30.236  36.074  1.00  0.00    -0.203 F 
ATOM     73  F   UNL A   1      39.384  35.337  36.402  1.00  0.00    -0.200 F 
ATOM     74  C   UNL A   1      38.171  33.621  37.255  1.00  0.00     0.200 A 
ATOM     75  F   UNL A   1      37.374  31.680  38.272  1.00  0.00    -0.200 F 
ATOM     76  F   UNL A   1      37.719  34.387  38.244  1.00  0.00    -0.200 F 
ENDBRANCH  52  66
BRANCH  53  77
ATOM     77  C   UNL A   1      42.249  26.235  27.781  1.00  0.00     0.064 A 
ATOM     78  C   UNL A   1      43.099  26.756  26.819  1.00  0.00     0.173 A 
ATOM     79  C   UNL A   1      41.855  24.967  27.739  1.00  0.00     0.173 A 
ATOM     80  F   UNL A   1      43.716  27.926  26.954  1.00  0.00    -0.203 F 
ATOM     81  C   UNL A   1      43.251  25.929  25.681  1.00  0.00     0.198 A 
ATOM     82  C   UNL A   1      42.155  24.178  26.657  1.00  0.00     0.198 A 
ATOM     83  F   UNL A   1      41.164  24.459  28.755  1.00  0.00    -0.203 F 
ATOM     84  F   UNL A   1      43.740  26.483  24.575  1.00  0.00    -0.200 F 
ATOM     85  C   UNL A   1      42.942  24.646  25.641  1.00  0.00     0.200 A 
ATOM     86  F   UNL A   1      41.675  22.939  26.595  1.00  0.00    -0.200 F 
ATOM     87  F   UNL A   1      43.372  23.852  24.664  1.00  0.00    -0.200 F 
ENDBRANCH  53  77
BRANCH  65  88
ATOM     88  C   UNL A   1      44.700  28.266  34.042  1.00  0.00     0.064 A 
ATOM     89  C   UNL A   1      44.700  27.164  34.881  1.00  0.00     0.173 A 
ATOM     90  C   UNL A   1      45.762  29.058  33.944  1.00  0.00     0.173 A 
ATOM     91  F   UNL A   1      43.776  26.210  34.827  1.00  0.00    -0.203 F 
ATOM     92  C   UNL A   1      45.775  27.145  35.802  1.00  0.00     0.198 A 
ATOM     93  C   UNL A   1      46.834  28.896  34.787  1.00  0.00     0.198 A 
ATOM     94  F   UNL A   1      45.785  30.017  33.022  1.00  0.00    -0.203 F 
ATOM     95  F   UNL A   1      45.669  26.348  36.861  1.00  0.00    -0.200 F 
ATOM     96  C   UNL A   1      46.877  27.864  35.682  1.00  0.00     0.200 A 
ATOM     97  F   UNL A   1      47.847  29.758  34.730  1.00  0.00    -0.200 F 
ATOM     98  F   UNL A   1      47.968  27.599  36.394  1.00  0.00    -0.200 F 
ENDBRANCH  65  88
ENDBRANCH  39  40
ENDBRANCH  32  34
ENDBRANCH  31  32
ENDBRANCH  30  31
ENDBRANCH   1  30
TORSDOF 17
ENDMDL
MODEL 3
REMARK VINA RESULT:     -12.8      2.838      8.453
REMARK SMILES CCc1cc(S(F)(F)(F)(F)F)cc2c1O[C@@H](C(F)(F)F)C(C(=O)OCCOCCOC(=O)c1ccc(-c3c4nc(c(-c5c(F)c(F)c(F)c(F)c5F)c5ccc([nH]5)c(-c5c(F)c(F)c(F)c(F)c5F)c5nc(c(-c6c(F)c(F)c(F)c(F)c6F)c6ccc3[nH]6)C=C5)C=C4)cc1)=C2
REMARK SMILES IDX 28 1 27 2 26 3 25 4 24 5 22 6 23 7 21 8 3 9 4 10 14 11 5 12
REMARK SMILES IDX 13 13 15 14 12 15 96 16 16 17 2 18 1 19 6 20 7 21 8 22 9 23
REMARK SMILES IDX 10 24 11 25 17 26 18 27 19 28 20 29 29 30 30 31 31 32 32 33
REMARK SMILES IDX 33 34 34 35 95 36 35 37 94 38 36 39 37 40 38 41 88 42 39 43
REMARK SMILES IDX 93 44 87 45 89 46 40 47 92 48 86 49 85 50 41 52 73 53 53 54
REMARK SMILES IDX 72 55 54 56 57 57 71 58 90 59 55 60 56 61 70 63 91 64 58 65
REMARK SMILES IDX 42 66 43 67 51 68 44 69 45 70 49 71 52 72 46 73 47 74 50 75
REMARK SMILES IDX 48 76 74 77 75 78 83 79 76 80 77 81 81 82 84 83 78 84 79 85
REMARK SMILES IDX 82 86 80 87 59 88 60 89 68 90 61 91 62 92 66 93 69 94 63 95
REMARK SMILES IDX 64 96 67 97 65 98
REMARK H PARENT 89 51 57 62
REMARK Flexibility Score: inf
ROOT
ATOM      1  C   UNL A   1      44.072  19.898  25.377  1.00  0.00     0.202 C 
ENDROOT
BRANCH   1   2
ATOM      2  O   UNL A   1      42.716  19.630  25.049  1.00  0.00    -0.374 OA
BRANCH   2   3
ATOM      3  C   UNL A   1      42.041  19.137  26.198  1.00  0.00     0.202 C 
BRANCH   3   4
ATOM      4  C   UNL A   1      41.839  20.269  27.191  1.00  0.00     0.261 C 
BRANCH   4   5
ATOM      5  O   UNL A   1      40.504  20.745  27.102  1.00  0.00    -0.460 OA
BRANCH   5   6
ATOM      6  C   UNL A   1      40.153  21.690  26.102  1.00  0.00     0.338 C 
ATOM      7  O   UNL A   1      41.060  22.252  25.410  1.00  0.00    -0.246 OA
BRANCH   6   8
ATOM      8  C   UNL A   1      38.692  22.031  25.857  1.00  0.00     0.087 C 
ATOM      9  C   UNL A   1      34.634  23.008  25.693  1.00  0.00    -0.004 A 
ATOM     10  C   UNL A   1      33.713  22.066  25.275  1.00  0.00     0.032 A 
ATOM     11  C   UNL A   1      35.955  22.644  25.789  1.00  0.00     0.131 A 
ATOM     12  C   UNL A   1      34.103  20.789  24.964  1.00  0.00     0.108 A 
ATOM     13  C   UNL A   1      36.388  21.371  25.466  1.00  0.00     0.019 A 
ATOM     14  O   UNL A   1      36.838  23.555  26.314  1.00  0.00    -0.475 OA
ATOM     15  C   UNL A   1      35.437  20.446  25.052  1.00  0.00     0.036 A 
ATOM     16  C   UNL A   1      37.801  21.072  25.637  1.00  0.00     0.027 C 
ATOM     17  C   UNL A   1      38.219  23.479  25.859  1.00  0.00     0.316 C 
BRANCH   9  18
ATOM     18  C   UNL A   1      34.117  24.427  25.872  1.00  0.00     0.036 C 
ATOM     19  C   UNL A   1      34.272  25.191  24.568  1.00  0.00     0.009 C 
ENDBRANCH   9  18
BRANCH  12  20
ATOM     20  S   UNL A   1      32.879  19.564  24.441  1.00  0.00     0.310 S 
ATOM     21  F   UNL A   1      34.051  18.609  23.961  1.00  0.00    -0.094 F 
ATOM     22  F   UNL A   1      32.962  20.263  23.032  1.00  0.00    -0.094 F 
ATOM     23  F   UNL A   1      31.877  18.510  23.891  1.00  0.00    -0.094 F 
ATOM     24  F   UNL A   1      32.916  18.796  25.820  1.00  0.00    -0.094 F 
ATOM     25  F   UNL A   1      33.981  20.559  24.982  1.00  0.00    -0.094 F 
ENDBRANCH  12  20
BRANCH  17  26
ATOM     26  C   UNL A   1      39.097  24.286  26.801  1.00  0.00     0.430 C 
ATOM     27  F   UNL A   1      38.387  25.278  27.329  1.00  0.00    -0.167 F 
ATOM     28  F   UNL A   1      39.547  23.496  27.773  1.00  0.00    -0.167 F 
ATOM     29  F   UNL A   1      40.127  24.789  26.126  1.00  0.00    -0.167 F 
ENDBRANCH  17  26
ENDBRANCH   6   8
ENDBRANCH   5   6
ENDBRANCH   4   5
ENDBRANCH   3   4
ENDBRANCH   2   3
ENDBRANCH   1   2
BRANCH   1  30
ATOM     30  C   UNL A   1      44.465  21.261  24.831  1.00  0.00     0.261 C 
BRANCH  30  31
ATOM     31  O   UNL A   1      44.477  22.208  25.889  1.00  0.00    -0.460 OA
BRANCH  31  32
ATOM     32  C   UNL A   1      44.394  23.596  25.601  1.00  0.00     0.338 C 
ATOM     33  O   UNL A   1      44.808  24.039  24.483  1.00  0.00    -0.246 OA
BRANCH  32  34
ATOM     34  C   UNL A   1      43.813  24.553  26.629  1.00  0.00     0.060 A 
ATOM     35  C   UNL A   1      43.052  23.983  27.637  1.00  0.00     0.016 A 
ATOM     36  C   UNL A   1      44.039  25.861  26.594  1.00  0.00     0.016 A 
ATOM     37  C   UNL A   1      42.328  24.920  28.409  1.00  0.00     0.010 A 
ATOM     38  C   UNL A   1      43.399  26.706  27.468  1.00  0.00     0.010 A 
ATOM     39  C   UNL A   1      42.586  26.215  28.452  1.00  0.00    -0.014 A 
BRANCH  39  40
ATOM     40  C   UNL A   1      42.012  27.111  29.537  1.00  0.00     0.031 A 
ATOM     41  C   UNL A   1      40.906  27.923  29.276  1.00  0.00     0.074 A 
ATOM     42  C   UNL A   1      42.686  27.086  30.745  1.00  0.00     0.049 A 
ATOM     43  N   UNL A   1      40.298  28.762  30.115  1.00  0.00    -0.248 NA
ATOM     44  C   UNL A   1      40.210  27.976  27.983  1.00  0.00     0.031 C 
ATOM     45  C   UNL A   1      43.796  26.265  31.019  1.00  0.00     0.029 A 
ATOM     46  N   UNL A   1      42.421  27.826  31.877  1.00  0.00    -0.354 N 
ATOM     47  C   UNL A   1      39.264  29.350  29.511  1.00  0.00     0.074 A 
ATOM     48  C   UNL A   1      39.196  28.857  28.128  1.00  0.00     0.031 C 
ATOM     49  C   UNL A   1      44.203  26.514  32.291  1.00  0.00     0.029 A 
ATOM     50  C   UNL A   1      43.353  27.496  32.835  1.00  0.00     0.049 A 
ATOM     51  H   UNL A   1      41.692  28.479  31.981  1.00  0.00     0.167 HD
ATOM     52  C   UNL A   1      38.373  30.275  30.057  1.00  0.00     0.037 A 
ATOM     53  C   UNL A   1      43.471  28.009  34.117  1.00  0.00     0.037 A 
ATOM     54  C   UNL A   1      38.466  30.758  31.353  1.00  0.00     0.049 A 
ATOM     55  C   UNL A   1      42.615  28.979  34.646  1.00  0.00     0.074 A 
ATOM     56  C   UNL A   1      37.572  31.684  31.923  1.00  0.00     0.029 A 
ATOM     57  N   UNL A   1      39.412  30.444  32.304  1.00  0.00    -0.354 N 
ATOM     58  N   UNL A   1      41.559  29.536  34.053  1.00  0.00    -0.248 NA
ATOM     59  C   UNL A   1      42.751  29.555  35.990  1.00  0.00     0.031 C 
ATOM     60  C   UNL A   1      37.979  31.934  33.197  1.00  0.00     0.029 A 
ATOM     61  C   UNL A   1      39.134  31.167  33.442  1.00  0.00     0.049 A 
ATOM     62  H   UNL A   1      40.159  29.812  32.189  1.00  0.00     0.167 HD
ATOM     63  C   UNL A   1      40.975  30.407  34.879  1.00  0.00     0.074 A 
ATOM     64  C   UNL A   1      41.739  30.437  36.134  1.00  0.00     0.031 C 
ATOM     65  C   UNL A   1      39.835  31.175  34.638  1.00  0.00     0.037 A 
BRANCH  52  66
ATOM     66  C   UNL A   1      37.237  30.781  29.183  1.00  0.00     0.064 A 
ATOM     67  C   UNL A   1      37.266  32.086  28.720  1.00  0.00     0.173 A 
ATOM     68  C   UNL A   1      36.237  29.963  28.875  1.00  0.00     0.173 A 
ATOM     69  F   UNL A   1      38.350  32.855  28.786  1.00  0.00    -0.203 F 
ATOM     70  C   UNL A   1      36.039  32.527  28.170  1.00  0.00     0.198 A 
ATOM     71  C   UNL A   1      35.127  30.433  28.217  1.00  0.00     0.198 A 
ATOM     72  F   UNL A   1      36.311  28.677  29.208  1.00  0.00    -0.203 F 
ATOM     73  F   UNL A   1      35.857  33.837  28.036  1.00  0.00    -0.200 F 
ATOM     74  C   UNL A   1      35.063  31.728  27.782  1.00  0.00     0.200 A 
ATOM     75  F   UNL A   1      34.100  29.616  27.999  1.00  0.00    -0.200 F 
ATOM     76  F   UNL A   1      34.069  32.159  27.009  1.00  0.00    -0.200 F 
ENDBRANCH  52  66
BRANCH  53  77
ATOM     77  C   UNL A   1      44.597  27.490  34.997  1.00  0.00     0.064 A 
ATOM     78  C   UNL A   1      44.385  26.366  35.778  1.00  0.00     0.173 A 
ATOM     79  C   UNL A   1      45.764  28.124  35.004  1.00  0.00     0.173 A 
ATOM     80  F   UNL A   1      43.341  25.559  35.619  1.00  0.00    -0.203 F 
ATOM     81  C   UNL A   1      45.382  26.155  36.761  1.00  0.00     0.198 A 
ATOM     82  C   UNL A   1      46.743  27.776  35.901  1.00  0.00     0.198 A 
ATOM     83  F   UNL A   1      45.985  29.106  34.134  1.00  0.00    -0.203 F 
ATOM     84  F   UNL A   1      45.092  25.339  37.770  1.00  0.00    -0.200 F 
ATOM     85  C   UNL A   1      46.579  26.712  36.745  1.00  0.00     0.200 A 
ATOM     86  F   UNL A   1      47.869  28.483  35.951  1.00  0.00    -0.200 F 
ATOM     87  F   UNL A   1      47.571  26.263  37.509  1.00  0.00    -0.200 F 
ENDBRANCH  53  77
BRANCH  65  88
ATOM     88  C   UNL A   1      39.330  32.074  35.755  1.00  0.00     0.064 A 
ATOM     89  C   UNL A   1      39.836  33.362  35.827  1.00  0.00     0.173 A 
ATOM     90  C   UNL A   1      38.428  31.639  36.627  1.00  0.00     0.173 A 
ATOM     91  F   UNL A   1      40.537  33.922  34.846  1.00  0.00    -0.203 F 
ATOM     92  C   UNL A   1      39.538  34.028  37.040  1.00  0.00     0.198 A 
ATOM     93  C   UNL A   1      38.084  32.401  37.717  1.00  0.00     0.198 A 
ATOM     94  F   UNL A   1      37.853  30.454  36.442  1.00  0.00    -0.203 F 
ATOM     95  F   UNL A   1      40.263  35.098  37.353  1.00  0.00    -0.200 F 
ATOM     96  C   UNL A   1      38.591  33.660  37.884  1.00  0.00     0.200 A 
ATOM     97  F   UNL A   1      37.246  31.906  38.624  1.00  0.00    -0.200 F 
ATOM     98  F   UNL A   1      38.153  34.470  38.844  1.00  0.00    -0.200 F 
ENDBRANCH  65  88
ENDBRANCH  39  40
ENDBRANCH  32  34
ENDBRANCH  31  32
ENDBRANCH  30  31
ENDBRANCH   1  30
TORSDOF 17
ENDMDL
