MODEL 1
REMARK VINA RESULT:     -12.3      0.000      0.000
REMARK SMILES O=C(C[C@@H](NS(=O)(=O)c1ccc2c(c1)OCCO2)c1ccccc1)OCCOCCOC(=O)c1ccc(-c2c3nc(c(-c4c(F)c(F)c(F)c(F)c4F)c4ccc([nH]4)c(-c4c(F)c(F)c(F)c(F)c4F)c4nc(c(-c5c(F)c(F)c(F)c(F)c5F)c5ccc2[nH]5)C=C4)C=C3)cc1
REMARK SMILES IDX 27 1 26 2 25 3 2 4 1 5 3 6 4 7 5 8 6 10 7 11 8 12 9 13 10 14
REMARK SMILES IDX 14 15 11 16 13 17 12 18 15 19 18 20 16 21 17 22 19 23 20 24
REMARK SMILES IDX 24 25 21 26 23 27 22 28 28 29 29 30 30 31 31 32 32 33 33 34
REMARK SMILES IDX 34 35 35 36 96 37 36 38 95 39 37 40 38 41 39 42 89 43 40 44
REMARK SMILES IDX 94 45 88 46 90 47 41 48 93 49 87 50 86 51 42 53 74 54 54 55
REMARK SMILES IDX 73 56 55 57 58 58 72 59 91 60 56 61 57 62 71 64 92 65 59 66
REMARK SMILES IDX 43 67 44 68 52 69 45 70 46 71 50 72 53 73 47 74 48 75 51 76
REMARK SMILES IDX 49 77 75 78 76 79 84 80 77 81 78 82 82 83 85 84 79 85 80 86
REMARK SMILES IDX 83 87 81 88 60 89 61 90 69 91 62 92 63 93 67 94 70 95 64 96
REMARK SMILES IDX 65 97 68 98 66 99
REMARK H PARENT 5 9 90 52 58 63
REMARK Flexibility Score: inf
ROOT
ATOM      1  C   UNL A   1      32.284  29.955  27.204  1.00  0.00     0.202 C 
ENDROOT
BRANCH   1   2
ATOM      2  C   UNL A   1      32.242  28.459  26.890  1.00  0.00     0.261 C 
BRANCH   2   3
ATOM      3  O   UNL A   1      31.461  27.905  25.789  1.00  0.00    -0.463 OA
BRANCH   3   4
ATOM      4  C   UNL A   1      30.773  26.785  25.517  1.00  0.00     0.307 C 
ATOM      5  O   UNL A   1      30.439  26.044  26.441  1.00  0.00    -0.252 OA
BRANCH   4   6
ATOM      6  C   UNL A   1      30.344  26.480  24.125  1.00  0.00     0.147 C 
BRANCH   6   7
ATOM      7  C   UNL A   1      30.912  27.454  23.082  1.00  0.00     0.111 C 
BRANCH   7   8
ATOM      8  N   UNL A   1      31.394  26.701  21.898  1.00  0.00    -0.203 NA
ATOM      9  H   UNL A   1      31.165  27.266  21.081  1.00  0.00     0.142 HD
BRANCH   8  10
ATOM     10  S   UNL A   1      33.017  26.277  21.751  1.00  0.00     0.241 S 
ATOM     11  O   UNL A   1      33.160  25.523  20.524  1.00  0.00    -0.207 OA
ATOM     12  O   UNL A   1      33.733  27.513  21.966  1.00  0.00    -0.207 OA
BRANCH  10  13
ATOM     13  C   UNL A   1      33.392  25.225  23.116  1.00  0.00     0.086 A 
ATOM     14  C   UNL A   1      34.045  25.789  24.218  1.00  0.00     0.026 A 
ATOM     15  C   UNL A   1      33.159  23.850  23.049  1.00  0.00     0.072 A 
ATOM     16  C   UNL A   1      34.531  24.962  25.228  1.00  0.00     0.052 A 
ATOM     17  C   UNL A   1      33.701  23.024  24.028  1.00  0.00     0.162 A 
ATOM     18  C   UNL A   1      34.407  23.581  25.100  1.00  0.00     0.161 A 
ATOM     19  O   UNL A   1      33.567  21.675  23.830  1.00  0.00    -0.486 OA
ATOM     20  O   UNL A   1      35.045  22.815  26.043  1.00  0.00    -0.486 OA
ATOM     21  C   UNL A   1      34.145  20.893  24.880  1.00  0.00     0.271 C 
ATOM     22  C   UNL A   1      35.384  21.547  25.474  1.00  0.00     0.271 C 
ENDBRANCH  10  13
ENDBRANCH   8  10
ENDBRANCH   7   8
BRANCH   7  23
ATOM     23  C   UNL A   1      29.845  28.490  22.735  1.00  0.00    -0.029 A 
ATOM     24  C   UNL A   1      30.197  29.634  22.002  1.00  0.00     0.005 A 
ATOM     25  C   UNL A   1      28.493  28.334  23.104  1.00  0.00     0.005 A 
ATOM     26  C   UNL A   1      29.236  30.592  21.668  1.00  0.00     0.000 A 
ATOM     27  C   UNL A   1      27.539  29.302  22.786  1.00  0.00     0.000 A 
ATOM     28  C   UNL A   1      27.912  30.433  22.070  1.00  0.00     0.000 A 
ENDBRANCH   7  23
ENDBRANCH   6   7
ENDBRANCH   4   6
ENDBRANCH   3   4
ENDBRANCH   2   3
ENDBRANCH   1   2
BRANCH   1  29
ATOM     29  O   UNL A   1      31.722  30.844  26.248  1.00  0.00    -0.374 OA
BRANCH  29  30
ATOM     30  C   UNL A   1      31.446  32.184  26.637  1.00  0.00     0.202 C 
BRANCH  30  31
ATOM     31  C   UNL A   1      32.646  32.921  27.230  1.00  0.00     0.261 C 
BRANCH  31  32
ATOM     32  O   UNL A   1      32.215  33.716  28.346  1.00  0.00    -0.460 OA
BRANCH  32  33
ATOM     33  C   UNL A   1      32.978  34.787  28.663  1.00  0.00     0.338 C 
ATOM     34  O   UNL A   1      32.694  35.965  28.541  1.00  0.00    -0.246 OA
BRANCH  33  35
ATOM     35  C   UNL A   1      34.176  34.300  29.378  1.00  0.00     0.060 A 
ATOM     36  C   UNL A   1      35.436  34.590  28.840  1.00  0.00     0.016 A 
ATOM     37  C   UNL A   1      34.060  33.578  30.569  1.00  0.00     0.016 A 
ATOM     38  C   UNL A   1      36.588  34.143  29.488  1.00  0.00     0.010 A 
ATOM     39  C   UNL A   1      35.211  33.124  31.210  1.00  0.00     0.010 A 
ATOM     40  C   UNL A   1      36.477  33.390  30.664  1.00  0.00    -0.014 A 
BRANCH  40  41
ATOM     41  C   UNL A   1      37.670  32.779  31.288  1.00  0.00     0.031 A 
ATOM     42  C   UNL A   1      38.324  31.610  30.613  1.00  0.00     0.074 A 
ATOM     43  C   UNL A   1      38.118  33.227  32.474  1.00  0.00     0.049 A 
ATOM     44  N   UNL A   1      39.294  30.844  31.038  1.00  0.00    -0.248 NA
ATOM     45  C   UNL A   1      37.809  31.251  29.281  1.00  0.00     0.031 C 
ATOM     46  C   UNL A   1      37.566  34.361  33.212  1.00  0.00     0.029 A 
ATOM     47  N   UNL A   1      39.125  32.756  33.280  1.00  0.00    -0.354 N 
ATOM     48  C   UNL A   1      39.501  29.909  30.034  1.00  0.00     0.074 A 
ATOM     49  C   UNL A   1      38.548  30.192  28.983  1.00  0.00     0.031 C 
ATOM     50  C   UNL A   1      38.219  34.478  34.382  1.00  0.00     0.029 A 
ATOM     51  C   UNL A   1      39.210  33.410  34.484  1.00  0.00     0.049 A 
ATOM     52  H   UNL A   1      39.726  32.022  33.020  1.00  0.00     0.167 HD
ATOM     53  C   UNL A   1      40.410  28.908  29.995  1.00  0.00     0.037 A 
ATOM     54  C   UNL A   1      39.978  33.146  35.558  1.00  0.00     0.037 A 
ATOM     55  C   UNL A   1      41.359  28.635  31.040  1.00  0.00     0.049 A 
ATOM     56  C   UNL A   1      40.935  31.984  35.513  1.00  0.00     0.074 A 
ATOM     57  C   UNL A   1      42.365  27.686  31.067  1.00  0.00     0.029 A 
ATOM     58  N   UNL A   1      41.407  29.308  32.250  1.00  0.00    -0.354 N 
ATOM     59  N   UNL A   1      41.165  31.138  34.538  1.00  0.00    -0.248 NA
ATOM     60  C   UNL A   1      41.734  31.733  36.722  1.00  0.00     0.031 C 
ATOM     61  C   UNL A   1      42.994  27.755  32.314  1.00  0.00     0.029 A 
ATOM     62  C   UNL A   1      42.402  28.770  33.049  1.00  0.00     0.049 A 
ATOM     63  H   UNL A   1      40.822  30.058  32.506  1.00  0.00     0.167 HD
ATOM     64  C   UNL A   1      42.138  30.269  35.008  1.00  0.00     0.074 A 
ATOM     65  C   UNL A   1      42.470  30.696  36.351  1.00  0.00     0.031 C 
ATOM     66  C   UNL A   1      42.708  29.208  34.385  1.00  0.00     0.037 A 
BRANCH  53  67
ATOM     67  C   UNL A   1      40.414  28.020  28.790  1.00  0.00     0.064 A 
ATOM     68  C   UNL A   1      41.151  28.346  27.643  1.00  0.00     0.173 A 
ATOM     69  C   UNL A   1      39.720  26.802  28.806  1.00  0.00     0.173 A 
ATOM     70  F   UNL A   1      41.819  29.507  27.577  1.00  0.00    -0.203 F 
ATOM     71  C   UNL A   1      41.184  27.486  26.548  1.00  0.00     0.198 A 
ATOM     72  C   UNL A   1      39.770  25.937  27.716  1.00  0.00     0.198 A 
ATOM     73  F   UNL A   1      39.000  26.447  29.881  1.00  0.00    -0.203 F 
ATOM     74  F   UNL A   1      41.874  27.827  25.451  1.00  0.00    -0.200 F 
ATOM     75  C   UNL A   1      40.501  26.280  26.589  1.00  0.00     0.200 A 
ATOM     76  F   UNL A   1      39.113  24.769  27.759  1.00  0.00    -0.200 F 
ATOM     77  F   UNL A   1      40.542  25.450  25.537  1.00  0.00    -0.200 F 
ENDBRANCH  53  67
BRANCH  54  78
ATOM     78  C   UNL A   1      39.845  33.967  36.788  1.00  0.00     0.064 A 
ATOM     79  C   UNL A   1      38.997  33.577  37.833  1.00  0.00     0.173 A 
ATOM     80  C   UNL A   1      40.541  35.177  36.929  1.00  0.00     0.173 A 
ATOM     81  F   UNL A   1      38.288  32.443  37.729  1.00  0.00    -0.203 F 
ATOM     82  C   UNL A   1      38.834  34.374  38.963  1.00  0.00     0.198 A 
ATOM     83  C   UNL A   1      40.396  35.963  38.070  1.00  0.00     0.198 A 
ATOM     84  F   UNL A   1      41.359  35.599  35.953  1.00  0.00    -0.203 F 
ATOM     85  F   UNL A   1      37.978  34.003  39.925  1.00  0.00    -0.200 F 
ATOM     86  C   UNL A   1      39.535  35.565  39.083  1.00  0.00     0.200 A 
ATOM     87  F   UNL A   1      41.078  37.111  38.183  1.00  0.00    -0.200 F 
ATOM     88  F   UNL A   1      39.373  36.335  40.166  1.00  0.00    -0.200 F 
ENDBRANCH  54  78
BRANCH  66  89
ATOM     89  C   UNL A   1      43.747  28.442  35.146  1.00  0.00     0.064 A 
ATOM     90  C   UNL A   1      45.097  28.816  35.109  1.00  0.00     0.173 A 
ATOM     91  C   UNL A   1      43.382  27.359  35.959  1.00  0.00     0.173 A 
ATOM     92  F   UNL A   1      45.494  29.837  34.332  1.00  0.00    -0.203 F 
ATOM     93  C   UNL A   1      46.050  28.123  35.850  1.00  0.00     0.198 A 
ATOM     94  C   UNL A   1      44.334  26.683  36.717  1.00  0.00     0.198 A 
ATOM     95  F   UNL A   1      42.101  26.968  36.031  1.00  0.00    -0.203 F 
ATOM     96  F   UNL A   1      47.341  28.477  35.777  1.00  0.00    -0.200 F 
ATOM     97  C   UNL A   1      45.667  27.063  36.659  1.00  0.00     0.200 A 
ATOM     98  F   UNL A   1      43.962  25.666  37.506  1.00  0.00    -0.200 F 
ATOM     99  F   UNL A   1      46.584  26.403  37.379  1.00  0.00    -0.200 F 
ENDBRANCH  66  89
ENDBRANCH  40  41
ENDBRANCH  33  35
ENDBRANCH  32  33
ENDBRANCH  31  32
ENDBRANCH  30  31
ENDBRANCH  29  30
ENDBRANCH   1  29
TORSDOF 19
ENDMDL
MODEL 2
REMARK VINA RESULT:     -12.3      0.702      1.702
REMARK SMILES O=C(C[C@@H](NS(=O)(=O)c1ccc2c(c1)OCCO2)c1ccccc1)OCCOCCOC(=O)c1ccc(-c2c3nc(c(-c4c(F)c(F)c(F)c(F)c4F)c4ccc([nH]4)c(-c4c(F)c(F)c(F)c(F)c4F)c4nc(c(-c5c(F)c(F)c(F)c(F)c5F)c5ccc2[nH]5)C=C4)C=C3)cc1
REMARK SMILES IDX 27 1 26 2 25 3 2 4 1 5 3 6 4 7 5 8 6 10 7 11 8 12 9 13 10 14
REMARK SMILES IDX 14 15 11 16 13 17 12 18 15 19 18 20 16 21 17 22 19 23 20 24
REMARK SMILES IDX 24 25 21 26 23 27 22 28 28 29 29 30 30 31 31 32 32 33 33 34
REMARK SMILES IDX 34 35 35 36 96 37 36 38 95 39 37 40 38 41 39 42 89 43 40 44
REMARK SMILES IDX 94 45 88 46 90 47 41 48 93 49 87 50 86 51 42 53 74 54 54 55
REMARK SMILES IDX 73 56 55 57 58 58 72 59 91 60 56 61 57 62 71 64 92 65 59 66
REMARK SMILES IDX 43 67 44 68 52 69 45 70 46 71 50 72 53 73 47 74 48 75 51 76
REMARK SMILES IDX 49 77 75 78 76 79 84 80 77 81 78 82 82 83 85 84 79 85 80 86
REMARK SMILES IDX 83 87 81 88 60 89 61 90 69 91 62 92 63 93 67 94 70 95 64 96
REMARK SMILES IDX 65 97 68 98 66 99
REMARK H PARENT 5 9 90 52 58 63
REMARK Flexibility Score: inf
ROOT
ATOM      1  C   UNL A   1      33.936  29.996  26.867  1.00  0.00     0.202 C 
ENDROOT
BRANCH   1   2
ATOM      2  C   UNL A   1      33.952  28.617  26.204  1.00  0.00     0.261 C 
BRANCH   2   3
ATOM      3  O   UNL A   1      32.880  28.151  25.330  1.00  0.00    -0.463 OA
BRANCH   3   4
ATOM      4  C   UNL A   1      31.665  27.593  25.451  1.00  0.00     0.307 C 
ATOM      5  O   UNL A   1      31.058  27.698  26.515  1.00  0.00    -0.252 OA
BRANCH   4   6
ATOM      6  C   UNL A   1      31.020  26.927  24.287  1.00  0.00     0.147 C 
BRANCH   6   7
ATOM      7  C   UNL A   1      31.210  27.685  22.964  1.00  0.00     0.111 C 
BRANCH   7   8
ATOM      8  N   UNL A   1      31.475  26.723  21.866  1.00  0.00    -0.203 NA
ATOM      9  H   UNL A   1      31.220  27.195  20.999  1.00  0.00     0.142 HD
BRANCH   8  10
ATOM     10  S   UNL A   1      33.017  26.088  21.633  1.00  0.00     0.241 S 
ATOM     11  O   UNL A   1      33.025  25.427  20.345  1.00  0.00    -0.207 OA
ATOM     12  O   UNL A   1      33.907  27.189  21.923  1.00  0.00    -0.207 OA
BRANCH  10  13
ATOM     13  C   UNL A   1      33.265  24.882  22.896  1.00  0.00     0.086 A 
ATOM     14  C   UNL A   1      34.261  25.126  23.848  1.00  0.00     0.026 A 
ATOM     15  C   UNL A   1      32.579  23.667  22.873  1.00  0.00     0.072 A 
ATOM     16  C   UNL A   1      34.621  24.121  24.742  1.00  0.00     0.052 A 
ATOM     17  C   UNL A   1      32.986  22.645  23.725  1.00  0.00     0.162 A 
ATOM     18  C   UNL A   1      34.022  22.867  24.639  1.00  0.00     0.161 A 
ATOM     19  O   UNL A   1      32.375  21.430  23.555  1.00  0.00    -0.486 OA
ATOM     20  O   UNL A   1      34.531  21.874  25.436  1.00  0.00    -0.486 OA
ATOM     21  C   UNL A   1      32.843  20.434  24.470  1.00  0.00     0.271 C 
ATOM     22  C   UNL A   1      34.316  20.606  24.809  1.00  0.00     0.271 C 
ENDBRANCH  10  13
ENDBRANCH   8  10
ENDBRANCH   7   8
BRANCH   7  23
ATOM     23  C   UNL A   1      29.983  28.557  22.709  1.00  0.00    -0.029 A 
ATOM     24  C   UNL A   1      30.119  29.759  21.997  1.00  0.00     0.005 A 
ATOM     25  C   UNL A   1      28.693  28.191  23.143  1.00  0.00     0.005 A 
ATOM     26  C   UNL A   1      29.009  30.571  21.747  1.00  0.00     0.000 A 
ATOM     27  C   UNL A   1      27.589  29.013  22.909  1.00  0.00     0.000 A 
ATOM     28  C   UNL A   1      27.749  30.204  22.212  1.00  0.00     0.000 A 
ENDBRANCH   7  23
ENDBRANCH   6   7
ENDBRANCH   4   6
ENDBRANCH   3   4
ENDBRANCH   2   3
ENDBRANCH   1   2
BRANCH   1  29
ATOM     29  O   UNL A   1      32.705  30.448  27.415  1.00  0.00    -0.374 OA
BRANCH  29  30
ATOM     30  C   UNL A   1      31.826  31.207  26.593  1.00  0.00     0.202 C 
BRANCH  30  31
ATOM     31  C   UNL A   1      31.701  32.674  27.002  1.00  0.00     0.261 C 
BRANCH  31  32
ATOM     32  O   UNL A   1      33.012  33.237  27.172  1.00  0.00    -0.460 OA
BRANCH  32  33
ATOM     33  C   UNL A   1      33.175  34.103  28.197  1.00  0.00     0.338 C 
ATOM     34  O   UNL A   1      32.422  34.994  28.545  1.00  0.00    -0.246 OA
BRANCH  33  35
ATOM     35  C   UNL A   1      34.353  33.671  28.977  1.00  0.00     0.060 A 
ATOM     36  C   UNL A   1      35.588  34.274  28.707  1.00  0.00     0.016 A 
ATOM     37  C   UNL A   1      34.242  32.694  29.970  1.00  0.00     0.016 A 
ATOM     38  C   UNL A   1      36.722  33.888  29.423  1.00  0.00     0.010 A 
ATOM     39  C   UNL A   1      35.376  32.301  30.678  1.00  0.00     0.010 A 
ATOM     40  C   UNL A   1      36.622  32.885  30.396  1.00  0.00    -0.014 A 
BRANCH  40  41
ATOM     41  C   UNL A   1      37.831  32.353  31.063  1.00  0.00     0.031 A 
ATOM     42  C   UNL A   1      38.597  31.247  30.400  1.00  0.00     0.074 A 
ATOM     43  C   UNL A   1      38.194  32.813  32.273  1.00  0.00     0.049 A 
ATOM     44  N   UNL A   1      39.603  30.547  30.857  1.00  0.00    -0.248 NA
ATOM     45  C   UNL A   1      38.167  30.873  29.043  1.00  0.00     0.031 C 
ATOM     46  C   UNL A   1      37.529  33.891  33.002  1.00  0.00     0.029 A 
ATOM     47  N   UNL A   1      39.197  32.405  33.114  1.00  0.00    -0.354 N 
ATOM     48  C   UNL A   1      39.920  29.647  29.850  1.00  0.00     0.074 A 
ATOM     49  C   UNL A   1      38.994  29.876  28.762  1.00  0.00     0.031 C 
ATOM     50  C   UNL A   1      38.121  34.037  34.200  1.00  0.00     0.029 A 
ATOM     51  C   UNL A   1      39.184  33.042  34.330  1.00  0.00     0.049 A 
ATOM     52  H   UNL A   1      39.863  31.721  32.871  1.00  0.00     0.167 HD
ATOM     53  C   UNL A   1      40.902  28.716  29.837  1.00  0.00     0.037 A 
ATOM     54  C   UNL A   1      39.923  32.818  35.433  1.00  0.00     0.037 A 
ATOM     55  C   UNL A   1      41.824  28.497  30.918  1.00  0.00     0.049 A 
ATOM     56  C   UNL A   1      40.965  31.731  35.413  1.00  0.00     0.074 A 
ATOM     57  C   UNL A   1      42.895  27.625  30.975  1.00  0.00     0.029 A 
ATOM     58  N   UNL A   1      41.771  29.151  32.138  1.00  0.00    -0.354 N 
ATOM     59  N   UNL A   1      41.298  30.921  34.438  1.00  0.00    -0.248 NA
ATOM     60  C   UNL A   1      41.729  31.519  36.652  1.00  0.00     0.031 C 
ATOM     61  C   UNL A   1      43.465  27.718  32.249  1.00  0.00     0.029 A 
ATOM     62  C   UNL A   1      42.769  28.675  32.972  1.00  0.00     0.049 A 
ATOM     63  H   UNL A   1      41.121  29.852  32.378  1.00  0.00     0.167 HD
ATOM     64  C   UNL A   1      42.312  30.117  34.937  1.00  0.00     0.074 A 
ATOM     65  C   UNL A   1      42.555  30.545  36.299  1.00  0.00     0.031 C 
ATOM     66  C   UNL A   1      42.985  29.112  34.325  1.00  0.00     0.037 A 
BRANCH  53  67
ATOM     67  C   UNL A   1      41.023  27.851  28.621  1.00  0.00     0.064 A 
ATOM     68  C   UNL A   1      40.281  26.670  28.486  1.00  0.00     0.173 A 
ATOM     69  C   UNL A   1      41.848  28.240  27.556  1.00  0.00     0.173 A 
ATOM     70  F   UNL A   1      39.490  26.252  29.485  1.00  0.00    -0.203 F 
ATOM     71  C   UNL A   1      40.369  25.902  27.328  1.00  0.00     0.198 A 
ATOM     72  C   UNL A   1      41.919  27.478  26.393  1.00  0.00     0.198 A 
ATOM     73  F   UNL A   1      42.578  29.362  27.640  1.00  0.00    -0.203 F 
ATOM     74  F   UNL A   1      39.670  24.762  27.227  1.00  0.00    -0.200 F 
ATOM     75  C   UNL A   1      41.181  26.310  26.281  1.00  0.00     0.200 A 
ATOM     76  F   UNL A   1      42.701  27.877  25.380  1.00  0.00    -0.200 F 
ATOM     77  F   UNL A   1      41.256  25.574  25.163  1.00  0.00    -0.200 F 
ENDBRANCH  53  67
BRANCH  54  78
ATOM     78  C   UNL A   1      39.678  33.607  36.667  1.00  0.00     0.064 A 
ATOM     79  C   UNL A   1      38.785  33.159  37.648  1.00  0.00     0.173 A 
ATOM     80  C   UNL A   1      40.310  34.842  36.873  1.00  0.00     0.173 A 
ATOM     81  F   UNL A   1      38.134  31.998  37.480  1.00  0.00    -0.203 F 
ATOM     82  C   UNL A   1      38.517  33.925  38.780  1.00  0.00     0.198 A 
ATOM     83  C   UNL A   1      40.060  35.597  38.017  1.00  0.00     0.198 A 
ATOM     84  F   UNL A   1      41.168  35.319  35.958  1.00  0.00    -0.203 F 
ATOM     85  F   UNL A   1      37.620  33.497  39.680  1.00  0.00    -0.200 F 
ATOM     86  C   UNL A   1      39.156  35.141  38.966  1.00  0.00     0.200 A 
ATOM     87  F   UNL A   1      40.682  36.770  38.193  1.00  0.00    -0.200 F 
ATOM     88  F   UNL A   1      38.893  35.881  40.051  1.00  0.00    -0.200 F 
ENDBRANCH  54  78
BRANCH  66  89
ATOM     89  C   UNL A   1      44.046  28.412  35.120  1.00  0.00     0.064 A 
ATOM     90  C   UNL A   1      43.762  27.240  35.835  1.00  0.00     0.173 A 
ATOM     91  C   UNL A   1      45.365  28.887  35.123  1.00  0.00     0.173 A 
ATOM     92  F   UNL A   1      42.510  26.758  35.872  1.00  0.00    -0.203 F 
ATOM     93  C   UNL A   1      44.763  26.574  36.537  1.00  0.00     0.198 A 
ATOM     94  C   UNL A   1      46.367  28.205  35.808  1.00  0.00     0.198 A 
ATOM     95  F   UNL A   1      45.685  30.001  34.448  1.00  0.00    -0.203 F 
ATOM     96  F   UNL A   1      44.465  25.473  37.241  1.00  0.00    -0.200 F 
ATOM     97  C   UNL A   1      46.064  27.053  36.518  1.00  0.00     0.200 A 
ATOM     98  F   UNL A   1      47.627  28.663  35.779  1.00  0.00    -0.200 F 
ATOM     99  F   UNL A   1      47.027  26.405  37.187  1.00  0.00    -0.200 F 
ENDBRANCH  66  89
ENDBRANCH  40  41
ENDBRANCH  33  35
ENDBRANCH  32  33
ENDBRANCH  31  32
ENDBRANCH  30  31
ENDBRANCH  29  30
ENDBRANCH   1  29
TORSDOF 19
ENDMDL
MODEL 3
REMARK VINA RESULT:     -12.2      1.505      4.113
REMARK SMILES O=C(C[C@@H](NS(=O)(=O)c1ccc2c(c1)OCCO2)c1ccccc1)OCCOCCOC(=O)c1ccc(-c2c3nc(c(-c4c(F)c(F)c(F)c(F)c4F)c4ccc([nH]4)c(-c4c(F)c(F)c(F)c(F)c4F)c4nc(c(-c5c(F)c(F)c(F)c(F)c5F)c5ccc2[nH]5)C=C4)C=C3)cc1
REMARK SMILES IDX 27 1 26 2 25 3 2 4 1 5 3 6 4 7 5 8 6 10 7 11 8 12 9 13 10 14
REMARK SMILES IDX 14 15 11 16 13 17 12 18 15 19 18 20 16 21 17 22 19 23 20 24
REMARK SMILES IDX 24 25 21 26 23 27 22 28 28 29 29 30 30 31 31 32 32 33 33 34
REMARK SMILES IDX 34 35 35 36 96 37 36 38 95 39 37 40 38 41 39 42 89 43 40 44
REMARK SMILES IDX 94 45 88 46 90 47 41 48 93 49 87 50 86 51 42 53 74 54 54 55
REMARK SMILES IDX 73 56 55 57 58 58 72 59 91 60 56 61 57 62 71 64 92 65 59 66
REMARK SMILES IDX 43 67 44 68 52 69 45 70 46 71 50 72 53 73 47 74 48 75 51 76
REMARK SMILES IDX 49 77 75 78 76 79 84 80 77 81 78 82 82 83 85 84 79 85 80 86
REMARK SMILES IDX 83 87 81 88 60 89 61 90 69 91 62 92 63 93 67 94 70 95 64 96
REMARK SMILES IDX 65 97 68 98 66 99
REMARK H PARENT 5 9 90 52 58 63
REMARK Flexibility Score: inf
ROOT
ATOM      1  C   UNL A   1      33.936  29.286  26.889  1.00  0.00     0.202 C 
ENDROOT
BRANCH   1   2
ATOM      2  C   UNL A   1      32.935  28.190  27.256  1.00  0.00     0.261 C 
BRANCH   2   3
ATOM      3  O   UNL A   1      32.893  26.900  26.575  1.00  0.00    -0.463 OA
BRANCH   3   4
ATOM      4  C   UNL A   1      32.084  25.830  26.512  1.00  0.00     0.307 C 
ATOM      5  O   UNL A   1      30.866  25.992  26.563  1.00  0.00    -0.252 OA
BRANCH   4   6
ATOM      6  C   UNL A   1      32.647  24.469  26.297  1.00  0.00     0.147 C 
BRANCH   6   7
ATOM      7  C   UNL A   1      33.013  24.181  24.832  1.00  0.00     0.111 C 
BRANCH   7   8
ATOM      8  N   UNL A   1      32.667  25.351  23.987  1.00  0.00    -0.203 NA
ATOM      9  H   UNL A   1      33.525  25.628  23.511  1.00  0.00     0.142 HD
BRANCH   8  10
ATOM     10  S   UNL A   1      31.474  25.234  22.804  1.00  0.00     0.241 S 
ATOM     11  O   UNL A   1      32.132  25.308  21.517  1.00  0.00    -0.207 OA
ATOM     12  O   UNL A   1      30.696  24.081  23.190  1.00  0.00    -0.207 OA
BRANCH  10  13
ATOM     13  C   UNL A   1      30.432  26.644  22.996  1.00  0.00     0.086 A 
ATOM     14  C   UNL A   1      29.199  26.464  23.634  1.00  0.00     0.026 A 
ATOM     15  C   UNL A   1      30.766  27.869  22.418  1.00  0.00     0.072 A 
ATOM     16  C   UNL A   1      28.266  27.498  23.635  1.00  0.00     0.052 A 
ATOM     17  C   UNL A   1      29.808  28.876  22.366  1.00  0.00     0.162 A 
ATOM     18  C   UNL A   1      28.553  28.678  22.952  1.00  0.00     0.161 A 
ATOM     19  O   UNL A   1      30.143  30.001  21.657  1.00  0.00    -0.486 OA
ATOM     20  O   UNL A   1      27.537  29.594  22.850  1.00  0.00    -0.486 OA
ATOM     21  C   UNL A   1      29.110  30.991  21.654  1.00  0.00     0.271 C 
ATOM     22  C   UNL A   1      27.719  30.375  21.666  1.00  0.00     0.271 C 
ENDBRANCH  10  13
ENDBRANCH   8  10
ENDBRANCH   7   8
BRANCH   7  23
ATOM     23  C   UNL A   1      34.490  23.804  24.753  1.00  0.00    -0.029 A 
ATOM     24  C   UNL A   1      35.011  23.277  23.561  1.00  0.00     0.005 A 
ATOM     25  C   UNL A   1      35.375  23.987  25.835  1.00  0.00     0.005 A 
ATOM     26  C   UNL A   1      36.362  22.930  23.463  1.00  0.00     0.000 A 
ATOM     27  C   UNL A   1      36.719  23.622  25.741  1.00  0.00     0.000 A 
ATOM     28  C   UNL A   1      37.211  23.091  24.555  1.00  0.00     0.000 A 
ENDBRANCH   7  23
ENDBRANCH   6   7
ENDBRANCH   4   6
ENDBRANCH   3   4
ENDBRANCH   2   3
ENDBRANCH   1   2
BRANCH   1  29
ATOM     29  O   UNL A   1      33.416  30.555  26.517  1.00  0.00    -0.374 OA
BRANCH  29  30
ATOM     30  C   UNL A   1      32.039  30.827  26.753  1.00  0.00     0.202 C 
BRANCH  30  31
ATOM     31  C   UNL A   1      31.713  32.313  26.898  1.00  0.00     0.261 C 
BRANCH  31  32
ATOM     32  O   UNL A   1      32.931  33.075  26.859  1.00  0.00    -0.460 OA
BRANCH  32  33
ATOM     33  C   UNL A   1      33.235  33.794  27.963  1.00  0.00     0.338 C 
ATOM     34  O   UNL A   1      32.566  34.663  28.492  1.00  0.00    -0.246 OA
BRANCH  33  35
ATOM     35  C   UNL A   1      34.457  33.219  28.561  1.00  0.00     0.060 A 
ATOM     36  C   UNL A   1      34.322  32.143  29.448  1.00  0.00     0.016 A 
ATOM     37  C   UNL A   1      35.721  33.723  28.244  1.00  0.00     0.016 A 
ATOM     38  C   UNL A   1      35.455  31.578  30.033  1.00  0.00     0.010 A 
ATOM     39  C   UNL A   1      36.852  33.164  28.836  1.00  0.00     0.010 A 
ATOM     40  C   UNL A   1      36.722  32.101  29.745  1.00  0.00    -0.014 A 
BRANCH  40  41
ATOM     41  C   UNL A   1      37.922  31.619  30.462  1.00  0.00     0.031 A 
ATOM     42  C   UNL A   1      38.789  30.582  29.810  1.00  0.00     0.074 A 
ATOM     43  C   UNL A   1      38.190  32.057  31.704  1.00  0.00     0.049 A 
ATOM     44  N   UNL A   1      39.809  29.928  30.301  1.00  0.00    -0.248 NA
ATOM     45  C   UNL A   1      38.457  30.231  28.420  1.00  0.00     0.031 C 
ATOM     46  C   UNL A   1      37.422  33.069  32.427  1.00  0.00     0.029 A 
ATOM     47  N   UNL A   1      39.169  31.680  32.588  1.00  0.00    -0.354 N 
ATOM     48  C   UNL A   1      40.235  29.083  29.287  1.00  0.00     0.074 A 
ATOM     49  C   UNL A   1      39.357  29.294  28.156  1.00  0.00     0.031 C 
ATOM     50  C   UNL A   1      37.938  33.208  33.661  1.00  0.00     0.029 A 
ATOM     51  C   UNL A   1      39.050  32.274  33.820  1.00  0.00     0.049 A 
ATOM     52  H   UNL A   1      39.887  31.045  32.362  1.00  0.00     0.167 HD
ATOM     53  C   UNL A   1      41.271  28.212  29.300  1.00  0.00     0.037 A 
ATOM     54  C   UNL A   1      39.740  32.056  34.956  1.00  0.00     0.037 A 
ATOM     55  C   UNL A   1      42.143  28.011  30.424  1.00  0.00     0.049 A 
ATOM     56  C   UNL A   1      40.846  31.033  34.962  1.00  0.00     0.074 A 
ATOM     57  C   UNL A   1      43.261  27.201  30.516  1.00  0.00     0.029 A 
ATOM     58  N   UNL A   1      41.984  28.619  31.659  1.00  0.00    -0.354 N 
ATOM     59  N   UNL A   1      41.279  30.277  33.982  1.00  0.00    -0.248 NA
ATOM     60  C   UNL A   1      41.552  30.824  36.235  1.00  0.00     0.031 C 
ATOM     61  C   UNL A   1      43.753  27.285  31.822  1.00  0.00     0.029 A 
ATOM     62  C   UNL A   1      42.963  28.173  32.533  1.00  0.00     0.049 A 
ATOM     63  H   UNL A   1      41.281  29.271  31.884  1.00  0.00     0.167 HD
ATOM     64  C   UNL A   1      42.312  29.519  34.513  1.00  0.00     0.074 A 
ATOM     65  C   UNL A   1      42.453  29.913  35.899  1.00  0.00     0.031 C 
ATOM     66  C   UNL A   1      43.077  28.576  33.910  1.00  0.00     0.037 A 
BRANCH  53  67
ATOM     67  C   UNL A   1      41.510  27.398  28.067  1.00  0.00     0.064 A 
ATOM     68  C   UNL A   1      42.393  27.827  27.066  1.00  0.00     0.173 A 
ATOM     69  C   UNL A   1      40.894  26.148  27.914  1.00  0.00     0.173 A 
ATOM     70  F   UNL A   1      42.994  29.022  27.164  1.00  0.00    -0.203 F 
ATOM     71  C   UNL A   1      42.642  27.036  25.948  1.00  0.00     0.198 A 
ATOM     72  C   UNL A   1      41.159  25.352  26.803  1.00  0.00     0.198 A 
ATOM     73  F   UNL A   1      40.040  25.696  28.845  1.00  0.00    -0.203 F 
ATOM     74  F   UNL A   1      43.470  27.475  24.990  1.00  0.00    -0.200 F 
ATOM     75  C   UNL A   1      42.032  25.797  25.822  1.00  0.00     0.200 A 
ATOM     76  F   UNL A   1      40.572  24.153  26.685  1.00  0.00    -0.200 F 
ATOM     77  F   UNL A   1      42.281  25.033  24.749  1.00  0.00    -0.200 F 
ENDBRANCH  53  67
BRANCH  54  78
ATOM     78  C   UNL A   1      39.381  32.786  36.198  1.00  0.00     0.064 A 
ATOM     79  C   UNL A   1      39.997  34.000  36.529  1.00  0.00     0.173 A 
ATOM     80  C   UNL A   1      38.436  32.267  37.095  1.00  0.00     0.173 A 
ATOM     81  F   UNL A   1      40.929  34.520  35.716  1.00  0.00    -0.203 F 
ATOM     82  C   UNL A   1      39.697  34.657  37.720  1.00  0.00     0.198 A 
ATOM     83  C   UNL A   1      38.119  32.936  38.275  1.00  0.00     0.198 A 
ATOM     84  F   UNL A   1      37.824  31.103  36.827  1.00  0.00    -0.203 F 
ATOM     85  F   UNL A   1      40.338  35.791  38.037  1.00  0.00    -0.200 F 
ATOM     86  C   UNL A   1      38.756  34.127  38.590  1.00  0.00     0.200 A 
ATOM     87  F   UNL A   1      37.207  32.423  39.111  1.00  0.00    -0.200 F 
ATOM     88  F   UNL A   1      38.474  34.756  39.739  1.00  0.00    -0.200 F 
ENDBRANCH  54  78
BRANCH  66  89
ATOM     89  C   UNL A   1      44.133  27.913  34.741  1.00  0.00     0.064 A 
ATOM     90  C   UNL A   1      45.448  28.394  34.764  1.00  0.00     0.173 A 
ATOM     91  C   UNL A   1      43.814  26.820  35.562  1.00  0.00     0.173 A 
ATOM     92  F   UNL A   1      45.803  29.428  33.983  1.00  0.00    -0.203 F 
ATOM     93  C   UNL A   1      46.413  27.797  35.570  1.00  0.00     0.198 A 
ATOM     94  C   UNL A   1      44.775  26.241  36.384  1.00  0.00     0.198 A 
ATOM     95  F   UNL A   1      42.566  26.329  35.579  1.00  0.00    -0.203 F 
ATOM     96  F   UNL A   1      47.674  28.252  35.553  1.00  0.00    -0.200 F 
ATOM     97  C   UNL A   1      46.075  26.726  36.383  1.00  0.00     0.200 A 
ATOM     98  F   UNL A   1      44.444  25.213  37.177  1.00  0.00    -0.200 F 
ATOM     99  F   UNL A   1      47.003  26.158  37.166  1.00  0.00    -0.200 F 
ENDBRANCH  66  89
ENDBRANCH  40  41
ENDBRANCH  33  35
ENDBRANCH  32  33
ENDBRANCH  31  32
ENDBRANCH  30  31
ENDBRANCH  29  30
ENDBRANCH   1  29
TORSDOF 19
ENDMDL
