MODEL 1
REMARK VINA RESULT:     -10.8      0.000      0.000
REMARK SMILES CC(=O)N[C@@H](C(=O)N(CC(=O)OCCOCCOC(=O)c1ccc(-c2c3nc(c(-c4c(F)c(F)c(F)c(F)c4F)c4ccc([nH]4)c(-c4c(F)c(F)c(F)c(F)c4F)c4nc(c(-c5c(F)c(F)c(F)c(F)c5F)c5ccc2[nH]5)C=C4)C=C3)cc1)C(C)(C)C)C(C)C
REMARK SMILES IDX 14 1 13 2 12 3 10 4 11 5 9 6 8 7 6 8 7 9 5 10 4 11 1 12 2 13
REMARK SMILES IDX 3 14 88 16 89 17 90 18 84 19 85 20 86 21 87 22 15 23 16 24
REMARK SMILES IDX 17 25 18 26 19 27 20 28 21 29 22 30 83 31 23 32 82 33 24 34
REMARK SMILES IDX 25 35 26 36 76 37 27 38 81 39 75 40 77 41 28 42 80 43 74 44
REMARK SMILES IDX 73 45 29 47 61 48 41 49 60 50 42 51 45 52 59 53 78 54 43 55
REMARK SMILES IDX 44 56 58 58 79 59 46 60 30 61 31 62 39 63 32 64 33 65 37 66
REMARK SMILES IDX 40 67 34 68 35 69 38 70 36 71 62 72 63 73 71 74 64 75 65 76
REMARK SMILES IDX 69 77 72 78 66 79 67 80 70 81 68 82 47 83 48 84 56 85 49 86
REMARK SMILES IDX 50 87 54 88 57 89 51 90 52 91 55 92 53 93
REMARK H PARENT 4 15 77 46 45 57
REMARK Flexibility Score: inf
ROOT
ATOM      1  C   UNL A   1      32.002  28.880  23.000  1.00  0.00     0.202 C 
ENDROOT
BRANCH   1   2
ATOM      2  C   UNL A   1      33.460  28.402  23.041  1.00  0.00     0.261 C 
BRANCH   2   3
ATOM      3  O   UNL A   1      33.607  27.040  23.510  1.00  0.00    -0.462 OA
BRANCH   3   4
ATOM      4  C   UNL A   1      33.119  26.084  22.673  1.00  0.00     0.325 C 
ATOM      5  O   UNL A   1      33.653  25.733  21.625  1.00  0.00    -0.250 OA
BRANCH   4   6
ATOM      6  C   UNL A   1      31.807  25.431  23.130  1.00  0.00     0.242 C 
BRANCH   6   7
ATOM      7  N   UNL A   1      31.781  24.472  24.250  1.00  0.00    -0.325 N 
BRANCH   7   8
ATOM      8  C   UNL A   1      32.315  23.177  24.118  1.00  0.00     0.246 C 
ATOM      9  O   UNL A   1      31.751  22.316  23.437  1.00  0.00    -0.272 OA
BRANCH   8  10
ATOM     10  C   UNL A   1      33.668  22.822  24.816  1.00  0.00     0.174 C 
BRANCH  10  11
ATOM     11  N   UNL A   1      34.671  22.733  23.753  1.00  0.00    -0.344 N 
ATOM     12  C   UNL A   1      36.563  23.704  25.014  1.00  0.00     0.114 C 
ATOM     13  C   UNL A   1      35.983  23.100  23.763  1.00  0.00     0.217 C 
ATOM     14  O   UNL A   1      36.651  22.952  22.742  1.00  0.00    -0.275 OA
ATOM     15  H   UNL A   1      34.349  22.353  22.904  1.00  0.00     0.164 HD
ENDBRANCH  10  11
BRANCH  10  16
ATOM     16  C   UNL A   1      33.543  21.476  25.591  1.00  0.00     0.015 C 
ATOM     17  C   UNL A   1      34.404  20.357  24.997  1.00  0.00     0.010 C 
ATOM     18  C   UNL A   1      33.936  21.651  27.067  1.00  0.00     0.010 C 
ENDBRANCH  10  16
ENDBRANCH   8  10
ENDBRANCH   7   8
BRANCH   7  19
ATOM     19  C   UNL A   1      31.235  24.894  25.598  1.00  0.00     0.035 C 
ATOM     20  C   UNL A   1      32.329  25.533  26.481  1.00  0.00     0.034 C 
ATOM     21  C   UNL A   1      30.093  25.914  25.375  1.00  0.00     0.034 C 
ATOM     22  C   UNL A   1      30.604  23.745  26.420  1.00  0.00     0.034 C 
ENDBRANCH   7  19
ENDBRANCH   6   7
ENDBRANCH   4   6
ENDBRANCH   3   4
ENDBRANCH   2   3
ENDBRANCH   1   2
BRANCH   1  23
ATOM     23  O   UNL A   1      31.438  29.307  24.243  1.00  0.00    -0.374 OA
BRANCH  23  24
ATOM     24  C   UNL A   1      32.358  29.678  25.268  1.00  0.00     0.202 C 
BRANCH  24  25
ATOM     25  C   UNL A   1      31.868  30.765  26.229  1.00  0.00     0.261 C 
BRANCH  25  26
ATOM     26  O   UNL A   1      32.656  30.795  27.430  1.00  0.00    -0.460 OA
BRANCH  26  27
ATOM     27  C   UNL A   1      33.435  31.889  27.561  1.00  0.00     0.338 C 
ATOM     28  O   UNL A   1      33.076  33.060  27.575  1.00  0.00    -0.246 OA
BRANCH  27  29
ATOM     29  C   UNL A   1      34.814  31.490  27.880  1.00  0.00     0.060 A 
ATOM     30  C   UNL A   1      35.051  30.127  28.090  1.00  0.00     0.016 A 
ATOM     31  C   UNL A   1      35.832  32.428  28.073  1.00  0.00     0.016 A 
ATOM     32  C   UNL A   1      36.288  29.702  28.565  1.00  0.00     0.010 A 
ATOM     33  C   UNL A   1      37.076  31.999  28.554  1.00  0.00     0.010 A 
ATOM     34  C   UNL A   1      37.293  30.640  28.844  1.00  0.00    -0.014 A 
BRANCH  34  35
ATOM     35  C   UNL A   1      38.502  30.182  29.574  1.00  0.00     0.031 A 
ATOM     36  C   UNL A   1      38.715  30.626  30.995  1.00  0.00     0.074 A 
ATOM     37  C   UNL A   1      39.356  29.314  29.007  1.00  0.00     0.049 A 
ATOM     38  N   UNL A   1      39.626  30.249  31.857  1.00  0.00    -0.248 NA
ATOM     39  C   UNL A   1      37.773  31.629  31.517  1.00  0.00     0.031 C 
ATOM     40  C   UNL A   1      39.253  28.804  27.640  1.00  0.00     0.029 A 
ATOM     41  N   UNL A   1      40.472  28.699  29.515  1.00  0.00    -0.354 N 
ATOM     42  C   UNL A   1      39.362  30.958  33.021  1.00  0.00     0.074 A 
ATOM     43  C   UNL A   1      38.230  31.817  32.747  1.00  0.00     0.031 C 
ATOM     44  C   UNL A   1      40.267  27.951  27.419  1.00  0.00     0.029 A 
ATOM     45  C   UNL A   1      41.090  27.859  28.624  1.00  0.00     0.049 A 
ATOM     46  H   UNL A   1      40.798  28.845  30.433  1.00  0.00     0.167 HD
ATOM     47  C   UNL A   1      39.998  30.888  34.216  1.00  0.00     0.037 A 
ATOM     48  C   UNL A   1      42.195  27.101  28.766  1.00  0.00     0.037 A 
ATOM     49  C   UNL A   1      41.123  30.035  34.489  1.00  0.00     0.049 A 
ATOM     50  C   UNL A   1      42.902  27.061  30.095  1.00  0.00     0.074 A 
ATOM     51  C   UNL A   1      41.804  29.857  35.682  1.00  0.00     0.029 A 
ATOM     52  N   UNL A   1      41.743  29.223  33.550  1.00  0.00    -0.354 N 
ATOM     53  N   UNL A   1      42.603  27.681  31.210  1.00  0.00    -0.248 NA
ATOM     54  C   UNL A   1      44.094  26.206  30.186  1.00  0.00     0.031 C 
ATOM     55  C   UNL A   1      42.867  28.976  35.451  1.00  0.00     0.029 A 
ATOM     56  C   UNL A   1      42.820  28.569  34.127  1.00  0.00     0.049 A 
ATOM     57  H   UNL A   1      41.459  29.126  32.613  1.00  0.00     0.167 HD
ATOM     58  C   UNL A   1      43.556  27.283  32.138  1.00  0.00     0.074 A 
ATOM     59  C   UNL A   1      44.433  26.351  31.460  1.00  0.00     0.031 C 
ATOM     60  C   UNL A   1      43.692  27.655  33.435  1.00  0.00     0.037 A 
BRANCH  47  61
ATOM     61  C   UNL A   1      39.497  31.778  35.315  1.00  0.00     0.064 A 
ATOM     62  C   UNL A   1      38.566  31.327  36.263  1.00  0.00     0.173 A 
ATOM     63  C   UNL A   1      39.973  33.092  35.436  1.00  0.00     0.173 A 
ATOM     64  F   UNL A   1      38.071  30.082  36.183  1.00  0.00    -0.203 F 
ATOM     65  C   UNL A   1      38.109  32.167  37.275  1.00  0.00     0.198 A 
ATOM     66  C   UNL A   1      39.534  33.921  36.464  1.00  0.00     0.198 A 
ATOM     67  F   UNL A   1      40.868  33.571  34.559  1.00  0.00    -0.203 F 
ATOM     68  F   UNL A   1      37.187  31.730  38.143  1.00  0.00    -0.200 F 
ATOM     69  C   UNL A   1      38.598  33.462  37.378  1.00  0.00     0.200 A 
ATOM     70  F   UNL A   1      40.013  35.169  36.568  1.00  0.00    -0.200 F 
ATOM     71  F   UNL A   1      38.159  34.269  38.353  1.00  0.00    -0.200 F 
ENDBRANCH  47  61
BRANCH  48  72
ATOM     72  C   UNL A   1      42.691  26.308  27.612  1.00  0.00     0.064 A 
ATOM     73  C   UNL A   1      42.191  25.027  27.341  1.00  0.00     0.173 A 
ATOM     74  C   UNL A   1      43.668  26.825  26.750  1.00  0.00     0.173 A 
ATOM     75  F   UNL A   1      41.275  24.480  28.152  1.00  0.00    -0.203 F 
ATOM     76  C   UNL A   1      42.659  24.289  26.255  1.00  0.00     0.198 A 
ATOM     77  C   UNL A   1      44.117  26.097  25.650  1.00  0.00     0.198 A 
ATOM     78  F   UNL A   1      44.180  28.045  26.971  1.00  0.00    -0.203 F 
ATOM     79  F   UNL A   1      42.191  23.053  26.037  1.00  0.00    -0.200 F 
ATOM     80  C   UNL A   1      43.615  24.828  25.406  1.00  0.00     0.200 A 
ATOM     81  F   UNL A   1      45.036  26.624  24.830  1.00  0.00    -0.200 F 
ATOM     82  F   UNL A   1      44.058  24.121  24.358  1.00  0.00    -0.200 F 
ENDBRANCH  48  72
BRANCH  60  83
ATOM     83  C   UNL A   1      44.832  27.054  34.206  1.00  0.00     0.064 A 
ATOM     84  C   UNL A   1      46.079  27.692  34.281  1.00  0.00     0.173 A 
ATOM     85  C   UNL A   1      44.663  25.852  34.908  1.00  0.00     0.173 A 
ATOM     86  F   UNL A   1      46.293  28.837  33.615  1.00  0.00    -0.203 F 
ATOM     87  C   UNL A   1      47.124  27.134  35.012  1.00  0.00     0.198 A 
ATOM     88  C   UNL A   1      45.704  25.310  35.660  1.00  0.00     0.198 A 
ATOM     89  F   UNL A   1      43.488  25.207  34.875  1.00  0.00    -0.203 F 
ATOM     90  F   UNL A   1      48.320  27.738  35.034  1.00  0.00    -0.200 F 
ATOM     91  C   UNL A   1      46.934  25.949  35.706  1.00  0.00     0.200 A 
ATOM     92  F   UNL A   1      45.515  24.170  36.339  1.00  0.00    -0.200 F 
ATOM     93  F   UNL A   1      47.940  25.416  36.412  1.00  0.00    -0.200 F 
ENDBRANCH  60  83
ENDBRANCH  34  35
ENDBRANCH  27  29
ENDBRANCH  26  27
ENDBRANCH  25  26
ENDBRANCH  24  25
ENDBRANCH  23  24
ENDBRANCH   1  23
TORSDOF 20
ENDMDL
MODEL 2
REMARK VINA RESULT:     -10.5      4.114      9.855
REMARK SMILES CC(=O)N[C@@H](C(=O)N(CC(=O)OCCOCCOC(=O)c1ccc(-c2c3nc(c(-c4c(F)c(F)c(F)c(F)c4F)c4ccc([nH]4)c(-c4c(F)c(F)c(F)c(F)c4F)c4nc(c(-c5c(F)c(F)c(F)c(F)c5F)c5ccc2[nH]5)C=C4)C=C3)cc1)C(C)(C)C)C(C)C
REMARK SMILES IDX 14 1 13 2 12 3 10 4 11 5 9 6 8 7 6 8 7 9 5 10 4 11 1 12 2 13
REMARK SMILES IDX 3 14 88 16 89 17 90 18 84 19 85 20 86 21 87 22 15 23 16 24
REMARK SMILES IDX 17 25 18 26 19 27 20 28 21 29 22 30 83 31 23 32 82 33 24 34
REMARK SMILES IDX 25 35 26 36 76 37 27 38 81 39 75 40 77 41 28 42 80 43 74 44
REMARK SMILES IDX 73 45 29 47 61 48 41 49 60 50 42 51 45 52 59 53 78 54 43 55
REMARK SMILES IDX 44 56 58 58 79 59 46 60 30 61 31 62 39 63 32 64 33 65 37 66
REMARK SMILES IDX 40 67 34 68 35 69 38 70 36 71 62 72 63 73 71 74 64 75 65 76
REMARK SMILES IDX 69 77 72 78 66 79 67 80 70 81 68 82 47 83 48 84 56 85 49 86
REMARK SMILES IDX 50 87 54 88 57 89 51 90 52 91 55 92 53 93
REMARK H PARENT 4 15 77 46 45 57
REMARK Flexibility Score: inf
ROOT
ATOM      1  C   UNL A   1      34.049  20.687  25.562  1.00  0.00     0.202 C 
ENDROOT
BRANCH   1   2
ATOM      2  C   UNL A   1      34.129  21.763  26.654  1.00  0.00     0.261 C 
BRANCH   2   3
ATOM      3  O   UNL A   1      32.833  22.169  27.158  1.00  0.00    -0.462 OA
BRANCH   3   4
ATOM      4  C   UNL A   1      32.427  23.409  26.774  1.00  0.00     0.325 C 
ATOM      5  O   UNL A   1      31.461  24.006  27.242  1.00  0.00    -0.250 OA
BRANCH   4   6
ATOM      6  C   UNL A   1      33.281  24.061  25.677  1.00  0.00     0.242 C 
BRANCH   6   7
ATOM      7  N   UNL A   1      32.705  24.406  24.364  1.00  0.00    -0.325 N 
BRANCH   7   8
ATOM      8  C   UNL A   1      31.697  25.380  24.240  1.00  0.00     0.246 C 
ATOM      9  O   UNL A   1      30.564  25.085  23.848  1.00  0.00    -0.272 OA
BRANCH   8  10
ATOM     10  C   UNL A   1      31.998  26.861  24.637  1.00  0.00     0.174 C 
BRANCH  10  11
ATOM     11  N   UNL A   1      31.327  27.092  25.917  1.00  0.00    -0.344 N 
ATOM     12  C   UNL A   1      33.121  28.412  26.989  1.00  0.00     0.114 C 
ATOM     13  C   UNL A   1      31.757  27.776  27.014  1.00  0.00     0.217 C 
ATOM     14  O   UNL A   1      31.031  27.832  28.004  1.00  0.00    -0.275 OA
ATOM     15  H   UNL A   1      30.431  26.691  25.998  1.00  0.00     0.164 HD
ENDBRANCH  10  11
BRANCH  10  16
ATOM     16  C   UNL A   1      31.474  27.836  23.539  1.00  0.00     0.015 C 
ATOM     17  C   UNL A   1      30.142  28.497  23.907  1.00  0.00     0.010 C 
ATOM     18  C   UNL A   1      32.498  28.945  23.251  1.00  0.00     0.010 C 
ENDBRANCH  10  16
ENDBRANCH   8  10
ENDBRANCH   7   8
BRANCH   7  19
ATOM     19  C   UNL A   1      33.244  23.760  23.105  1.00  0.00     0.035 C 
ATOM     20  C   UNL A   1      32.502  22.446  22.777  1.00  0.00     0.034 C 
ATOM     21  C   UNL A   1      33.082  24.751  21.928  1.00  0.00     0.034 C 
ATOM     22  C   UNL A   1      34.754  23.427  23.156  1.00  0.00     0.034 C 
ENDBRANCH   7  19
ENDBRANCH   6   7
ENDBRANCH   4   6
ENDBRANCH   3   4
ENDBRANCH   2   3
ENDBRANCH   1   2
BRANCH   1  23
ATOM     23  O   UNL A   1      35.291  20.112  25.145  1.00  0.00    -0.374 OA
BRANCH  23  24
ATOM     24  C   UNL A   1      36.426  20.975  25.144  1.00  0.00     0.202 C 
BRANCH  24  25
ATOM     25  C   UNL A   1      37.787  20.272  25.181  1.00  0.00     0.261 C 
BRANCH  25  26
ATOM     26  O   UNL A   1      38.862  21.219  25.275  1.00  0.00    -0.460 OA
BRANCH  26  27
ATOM     27  C   UNL A   1      39.733  20.980  26.278  1.00  0.00     0.338 C 
ATOM     28  O   UNL A   1      40.287  19.920  26.544  1.00  0.00    -0.246 OA
BRANCH  27  29
ATOM     29  C   UNL A   1      40.099  22.242  26.939  1.00  0.00     0.060 A 
ATOM     30  C   UNL A   1      39.470  23.406  26.484  1.00  0.00     0.016 A 
ATOM     31  C   UNL A   1      41.105  22.307  27.907  1.00  0.00     0.016 A 
ATOM     32  C   UNL A   1      39.894  24.649  26.943  1.00  0.00     0.010 A 
ATOM     33  C   UNL A   1      41.534  23.560  28.366  1.00  0.00     0.010 A 
ATOM     34  C   UNL A   1      40.960  24.736  27.851  1.00  0.00    -0.014 A 
BRANCH  34  35
ATOM     35  C   UNL A   1      41.543  26.073  28.127  1.00  0.00     0.031 A 
ATOM     36  C   UNL A   1      42.913  26.401  27.600  1.00  0.00     0.074 A 
ATOM     37  C   UNL A   1      40.828  27.013  28.768  1.00  0.00     0.049 A 
ATOM     38  N   UNL A   1      43.558  27.541  27.612  1.00  0.00    -0.248 NA
ATOM     39  C   UNL A   1      43.655  25.298  26.970  1.00  0.00     0.031 C 
ATOM     40  C   UNL A   1      39.489  26.818  29.321  1.00  0.00     0.029 A 
ATOM     41  N   UNL A   1      41.126  28.322  29.053  1.00  0.00    -0.354 N 
ATOM     42  C   UNL A   1      44.773  27.295  26.987  1.00  0.00     0.074 A 
ATOM     43  C   UNL A   1      44.794  25.890  26.639  1.00  0.00     0.031 C 
ATOM     44  C   UNL A   1      39.078  27.970  29.877  1.00  0.00     0.029 A 
ATOM     45  C   UNL A   1      40.126  28.978  29.726  1.00  0.00     0.049 A 
ATOM     46  H   UNL A   1      41.975  28.749  28.797  1.00  0.00     0.167 HD
ATOM     47  C   UNL A   1      45.775  28.165  26.713  1.00  0.00     0.037 A 
ATOM     48  C   UNL A   1      40.066  30.249  30.167  1.00  0.00     0.037 A 
ATOM     49  C   UNL A   1      45.755  29.562  27.057  1.00  0.00     0.049 A 
ATOM     50  C   UNL A   1      41.204  31.191  29.878  1.00  0.00     0.074 A 
ATOM     51  C   UNL A   1      46.700  30.535  26.780  1.00  0.00     0.029 A 
ATOM     52  N   UNL A   1      44.740  30.183  27.770  1.00  0.00    -0.354 N 
ATOM     53  N   UNL A   1      42.317  30.967  29.223  1.00  0.00    -0.248 NA
ATOM     54  C   UNL A   1      41.070  32.567  30.378  1.00  0.00     0.031 C 
ATOM     55  C   UNL A   1      46.280  31.733  27.368  1.00  0.00     0.029 A 
ATOM     56  C   UNL A   1      45.051  31.518  27.972  1.00  0.00     0.049 A 
ATOM     57  H   UNL A   1      43.919  29.740  28.085  1.00  0.00     0.167 HD
ATOM     58  C   UNL A   1      43.009  32.171  29.220  1.00  0.00     0.074 A 
ATOM     59  C   UNL A   1      42.180  33.130  29.921  1.00  0.00     0.031 C 
ATOM     60  C   UNL A   1      44.222  32.456  28.684  1.00  0.00     0.037 A 
BRANCH  47  61
ATOM     61  C   UNL A   1      46.989  27.621  26.020  1.00  0.00     0.064 A 
ATOM     62  C   UNL A   1      47.096  27.607  24.621  1.00  0.00     0.173 A 
ATOM     63  C   UNL A   1      48.071  27.130  26.766  1.00  0.00     0.173 A 
ATOM     64  F   UNL A   1      46.083  28.055  23.863  1.00  0.00    -0.203 F 
ATOM     65  C   UNL A   1      48.229  27.096  23.993  1.00  0.00     0.198 A 
ATOM     66  C   UNL A   1      49.213  26.643  26.136  1.00  0.00     0.198 A 
ATOM     67  F   UNL A   1      48.022  27.126  28.106  1.00  0.00    -0.203 F 
ATOM     68  F   UNL A   1      48.291  27.052  22.656  1.00  0.00    -0.200 F 
ATOM     69  C   UNL A   1      49.289  26.619  24.752  1.00  0.00     0.200 A 
ATOM     70  F   UNL A   1      50.240  26.191  26.869  1.00  0.00    -0.200 F 
ATOM     71  F   UNL A   1      50.379  26.129  24.147  1.00  0.00    -0.200 F 
ENDBRANCH  47  61
BRANCH  48  72
ATOM     72  C   UNL A   1      38.871  30.703  30.925  1.00  0.00     0.064 A 
ATOM     73  C   UNL A   1      37.747  31.219  30.267  1.00  0.00     0.173 A 
ATOM     74  C   UNL A   1      38.830  30.618  32.324  1.00  0.00     0.173 A 
ATOM     75  F   UNL A   1      37.749  31.346  28.932  1.00  0.00    -0.203 F 
ATOM     76  C   UNL A   1      36.628  31.642  30.983  1.00  0.00     0.198 A 
ATOM     77  C   UNL A   1      37.702  31.017  33.037  1.00  0.00     0.198 A 
ATOM     78  F   UNL A   1      39.884  30.135  32.998  1.00  0.00    -0.203 F 
ATOM     79  F   UNL A   1      35.578  32.164  30.334  1.00  0.00    -0.200 F 
ATOM     80  C   UNL A   1      36.603  31.532  32.366  1.00  0.00     0.200 A 
ATOM     81  F   UNL A   1      37.680  30.903  34.372  1.00  0.00    -0.200 F 
ATOM     82  F   UNL A   1      35.524  31.931  33.052  1.00  0.00    -0.200 F 
ENDBRANCH  48  72
BRANCH  60  83
ATOM     83  C   UNL A   1      44.725  33.863  28.835  1.00  0.00     0.064 A 
ATOM     84  C   UNL A   1      45.539  34.234  29.915  1.00  0.00     0.173 A 
ATOM     85  C   UNL A   1      44.425  34.836  27.871  1.00  0.00     0.173 A 
ATOM     86  F   UNL A   1      45.844  33.342  30.869  1.00  0.00    -0.203 F 
ATOM     87  C   UNL A   1      46.015  35.538  30.037  1.00  0.00     0.198 A 
ATOM     88  C   UNL A   1      44.923  36.132  27.983  1.00  0.00     0.198 A 
ATOM     89  F   UNL A   1      43.656  34.530  26.816  1.00  0.00    -0.203 F 
ATOM     90  F   UNL A   1      46.755  35.882  31.099  1.00  0.00    -0.200 F 
ATOM     91  C   UNL A   1      45.712  36.483  29.069  1.00  0.00     0.200 A 
ATOM     92  F   UNL A   1      44.639  37.042  27.041  1.00  0.00    -0.200 F 
ATOM     93  F   UNL A   1      46.174  37.735  29.185  1.00  0.00    -0.200 F 
ENDBRANCH  60  83
ENDBRANCH  34  35
ENDBRANCH  27  29
ENDBRANCH  26  27
ENDBRANCH  25  26
ENDBRANCH  24  25
ENDBRANCH  23  24
ENDBRANCH   1  23
TORSDOF 20
ENDMDL
MODEL 3
REMARK VINA RESULT:     -10.3      1.235      2.681
REMARK SMILES CC(=O)N[C@@H](C(=O)N(CC(=O)OCCOCCOC(=O)c1ccc(-c2c3nc(c(-c4c(F)c(F)c(F)c(F)c4F)c4ccc([nH]4)c(-c4c(F)c(F)c(F)c(F)c4F)c4nc(c(-c5c(F)c(F)c(F)c(F)c5F)c5ccc2[nH]5)C=C4)C=C3)cc1)C(C)(C)C)C(C)C
REMARK SMILES IDX 14 1 13 2 12 3 10 4 11 5 9 6 8 7 6 8 7 9 5 10 4 11 1 12 2 13
REMARK SMILES IDX 3 14 88 16 89 17 90 18 84 19 85 20 86 21 87 22 15 23 16 24
REMARK SMILES IDX 17 25 18 26 19 27 20 28 21 29 22 30 83 31 23 32 82 33 24 34
REMARK SMILES IDX 25 35 26 36 76 37 27 38 81 39 75 40 77 41 28 42 80 43 74 44
REMARK SMILES IDX 73 45 29 47 61 48 41 49 60 50 42 51 45 52 59 53 78 54 43 55
REMARK SMILES IDX 44 56 58 58 79 59 46 60 30 61 31 62 39 63 32 64 33 65 37 66
REMARK SMILES IDX 40 67 34 68 35 69 38 70 36 71 62 72 63 73 71 74 64 75 65 76
REMARK SMILES IDX 69 77 72 78 66 79 67 80 70 81 68 82 47 83 48 84 56 85 49 86
REMARK SMILES IDX 50 87 54 88 57 89 51 90 52 91 55 92 53 93
REMARK H PARENT 4 15 77 46 45 57
REMARK Flexibility Score: inf
ROOT
ATOM      1  C   UNL A   1      32.795  28.909  27.106  1.00  0.00     0.202 C 
ENDROOT
BRANCH   1   2
ATOM      2  C   UNL A   1      32.185  27.579  26.645  1.00  0.00     0.261 C 
BRANCH   2   3
ATOM      3  O   UNL A   1      31.765  27.588  25.259  1.00  0.00    -0.462 OA
BRANCH   3   4
ATOM      4  C   UNL A   1      30.644  26.865  24.990  1.00  0.00     0.325 C 
ATOM      5  O   UNL A   1      29.799  27.170  24.153  1.00  0.00    -0.250 OA
BRANCH   4   6
ATOM      6  C   UNL A   1      30.484  25.584  25.821  1.00  0.00     0.242 C 
BRANCH   6   7
ATOM      7  N   UNL A   1      30.994  24.289  25.332  1.00  0.00    -0.325 N 
BRANCH   7   8
ATOM      8  C   UNL A   1      31.482  24.141  24.021  1.00  0.00     0.246 C 
ATOM      9  O   UNL A   1      30.793  23.626  23.134  1.00  0.00    -0.272 OA
BRANCH   8  10
ATOM     10  C   UNL A   1      32.908  24.668  23.661  1.00  0.00     0.174 C 
BRANCH  10  11
ATOM     11  N   UNL A   1      32.968  24.736  22.200  1.00  0.00    -0.344 N 
ATOM     12  C   UNL A   1      33.078  27.197  21.996  1.00  0.00     0.114 C 
ATOM     13  C   UNL A   1      33.050  25.822  21.383  1.00  0.00     0.217 C 
ATOM     14  O   UNL A   1      33.071  25.653  20.165  1.00  0.00    -0.275 OA
ATOM     15  H   UNL A   1      32.945  23.866  21.739  1.00  0.00     0.164 HD
ENDBRANCH  10  11
BRANCH  10  16
ATOM     16  C   UNL A   1      34.000  23.712  24.229  1.00  0.00     0.015 C 
ATOM     17  C   UNL A   1      34.798  22.992  23.137  1.00  0.00     0.010 C 
ATOM     18  C   UNL A   1      34.991  24.475  25.123  1.00  0.00     0.010 C 
ENDBRANCH  10  16
ENDBRANCH   8  10
ENDBRANCH   7   8
BRANCH   7  19
ATOM     19  C   UNL A   1      31.065  23.101  26.268  1.00  0.00     0.035 C 
ATOM     20  C   UNL A   1      31.371  21.792  25.506  1.00  0.00     0.034 C 
ATOM     21  C   UNL A   1      32.175  23.357  27.315  1.00  0.00     0.034 C 
ATOM     22  C   UNL A   1      29.777  22.856  27.088  1.00  0.00     0.034 C 
ENDBRANCH   7  19
ENDBRANCH   6   7
ENDBRANCH   4   6
ENDBRANCH   3   4
ENDBRANCH   2   3
ENDBRANCH   1   2
BRANCH   1  23
ATOM     23  O   UNL A   1      31.881  29.992  27.307  1.00  0.00    -0.374 OA
BRANCH  23  24
ATOM     24  C   UNL A   1      31.887  31.023  26.323  1.00  0.00     0.202 C 
BRANCH  24  25
ATOM     25  C   UNL A   1      31.866  32.454  26.869  1.00  0.00     0.261 C 
BRANCH  25  26
ATOM     26  O   UNL A   1      32.659  32.572  28.060  1.00  0.00    -0.460 OA
BRANCH  26  27
ATOM     27  C   UNL A   1      33.674  33.456  27.972  1.00  0.00     0.338 C 
ATOM     28  O   UNL A   1      33.591  34.671  27.831  1.00  0.00    -0.246 OA
BRANCH  27  29
ATOM     29  C   UNL A   1      34.952  32.787  28.257  1.00  0.00     0.060 A 
ATOM     30  C   UNL A   1      34.891  31.472  28.731  1.00  0.00     0.016 A 
ATOM     31  C   UNL A   1      36.176  33.456  28.165  1.00  0.00     0.016 A 
ATOM     32  C   UNL A   1      36.047  30.843  29.184  1.00  0.00     0.010 A 
ATOM     33  C   UNL A   1      37.338  32.822  28.625  1.00  0.00     0.010 A 
ATOM     34  C   UNL A   1      37.269  31.531  29.178  1.00  0.00    -0.014 A 
BRANCH  34  35
ATOM     35  C   UNL A   1      38.423  30.925  29.889  1.00  0.00     0.031 A 
ATOM     36  C   UNL A   1      38.665  31.277  31.331  1.00  0.00     0.074 A 
ATOM     37  C   UNL A   1      39.196  30.009  29.283  1.00  0.00     0.049 A 
ATOM     38  N   UNL A   1      39.529  30.773  32.177  1.00  0.00    -0.248 NA
ATOM     39  C   UNL A   1      37.818  32.337  31.899  1.00  0.00     0.031 C 
ATOM     40  C   UNL A   1      39.058  29.579  27.892  1.00  0.00     0.029 A 
ATOM     41  N   UNL A   1      40.245  29.266  29.764  1.00  0.00    -0.354 N 
ATOM     42  C   UNL A   1      39.323  31.446  33.373  1.00  0.00     0.074 A 
ATOM     43  C   UNL A   1      38.280  32.421  33.138  1.00  0.00     0.031 C 
ATOM     44  C   UNL A   1      39.988  28.645  27.633  1.00  0.00     0.029 A 
ATOM     45  C   UNL A   1      40.788  28.417  28.835  1.00  0.00     0.049 A 
ATOM     46  H   UNL A   1      40.575  29.336  30.690  1.00  0.00     0.167 HD
ATOM     47  C   UNL A   1      39.939  31.257  34.566  1.00  0.00     0.037 A 
ATOM     48  C   UNL A   1      41.815  27.551  28.944  1.00  0.00     0.037 A 
ATOM     49  C   UNL A   1      40.975  30.289  34.801  1.00  0.00     0.049 A 
ATOM     50  C   UNL A   1      42.504  27.380  30.271  1.00  0.00     0.074 A 
ATOM     51  C   UNL A   1      41.626  29.989  35.986  1.00  0.00     0.029 A 
ATOM     52  N   UNL A   1      41.524  29.469  33.826  1.00  0.00    -0.354 N 
ATOM     53  N   UNL A   1      42.255  27.969  31.415  1.00  0.00    -0.248 NA
ATOM     54  C   UNL A   1      43.609  26.412  30.325  1.00  0.00     0.031 C 
ATOM     55  C   UNL A   1      42.603  29.023  35.716  1.00  0.00     0.029 A 
ATOM     56  C   UNL A   1      42.530  28.689  34.373  1.00  0.00     0.049 A 
ATOM     57  H   UNL A   1      41.240  29.446  32.883  1.00  0.00     0.167 HD
ATOM     58  C   UNL A   1      43.158  27.438  32.325  1.00  0.00     0.074 A 
ATOM     59  C   UNL A   1      43.949  26.461  31.605  1.00  0.00     0.031 C 
ATOM     60  C   UNL A   1      43.317  27.731  33.640  1.00  0.00     0.037 A 
BRANCH  47  61
ATOM     61  C   UNL A   1      39.515  32.136  35.706  1.00  0.00     0.064 A 
ATOM     62  C   UNL A   1      40.100  33.392  35.926  1.00  0.00     0.173 A 
ATOM     63  C   UNL A   1      38.491  31.727  36.574  1.00  0.00     0.173 A 
ATOM     64  F   UNL A   1      41.090  33.823  35.130  1.00  0.00    -0.203 F 
ATOM     65  C   UNL A   1      39.696  34.194  36.991  1.00  0.00     0.198 A 
ATOM     66  C   UNL A   1      38.073  32.542  37.622  1.00  0.00     0.198 A 
ATOM     67  F   UNL A   1      37.895  30.538  36.404  1.00  0.00    -0.203 F 
ATOM     68  F   UNL A   1      40.300  35.370  37.209  1.00  0.00    -0.200 F 
ATOM     69  C   UNL A   1      38.679  33.771  37.835  1.00  0.00     0.200 A 
ATOM     70  F   UNL A   1      37.084  32.136  38.432  1.00  0.00    -0.200 F 
ATOM     71  F   UNL A   1      38.291  34.544  38.857  1.00  0.00    -0.200 F 
ENDBRANCH  47  61
BRANCH  48  72
ATOM     72  C   UNL A   1      42.244  26.773  27.753  1.00  0.00     0.064 A 
ATOM     73  C   UNL A   1      43.196  27.278  26.858  1.00  0.00     0.173 A 
ATOM     74  C   UNL A   1      41.715  25.500  27.497  1.00  0.00     0.173 A 
ATOM     75  F   UNL A   1      43.711  28.502  27.047  1.00  0.00    -0.203 F 
ATOM     76  C   UNL A   1      43.597  26.542  25.745  1.00  0.00     0.198 A 
ATOM     77  C   UNL A   1      42.134  24.754  26.397  1.00  0.00     0.198 A 
ATOM     78  F   UNL A   1      40.797  24.975  28.323  1.00  0.00    -0.203 F 
ATOM     79  F   UNL A   1      44.483  27.061  24.885  1.00  0.00    -0.200 F 
ATOM     80  C   UNL A   1      43.072  25.277  25.520  1.00  0.00     0.200 A 
ATOM     81  F   UNL A   1      41.629  23.531  26.188  1.00  0.00    -0.200 F 
ATOM     82  F   UNL A   1      43.463  24.567  24.453  1.00  0.00    -0.200 F 
ENDBRANCH  48  72
BRANCH  60  83
ATOM     83  C   UNL A   1      44.388  26.988  34.385  1.00  0.00     0.064 A 
ATOM     84  C   UNL A   1      44.133  25.745  34.983  1.00  0.00     0.173 A 
ATOM     85  C   UNL A   1      45.690  27.503  34.466  1.00  0.00     0.173 A 
ATOM     86  F   UNL A   1      42.901  25.217  34.944  1.00  0.00    -0.203 F 
ATOM     87  C   UNL A   1      45.138  25.057  35.658  1.00  0.00     0.198 A 
ATOM     88  C   UNL A   1      46.699  26.800  35.120  1.00  0.00     0.198 A 
ATOM     89  F   UNL A   1      45.988  28.684  33.904  1.00  0.00    -0.203 F 
ATOM     90  F   UNL A   1      44.862  23.892  36.260  1.00  0.00    -0.200 F 
ATOM     91  C   UNL A   1      46.420  25.581  35.720  1.00  0.00     0.200 A 
ATOM     92  F   UNL A   1      47.941  27.302  35.170  1.00  0.00    -0.200 F 
ATOM     93  F   UNL A   1      47.387  24.915  36.366  1.00  0.00    -0.200 F 
ENDBRANCH  60  83
ENDBRANCH  34  35
ENDBRANCH  27  29
ENDBRANCH  26  27
ENDBRANCH  25  26
ENDBRANCH  24  25
ENDBRANCH  23  24
ENDBRANCH   1  23
TORSDOF 20
ENDMDL
